REMARK SMILES COc1ccc(O)c(C(=O)c2ccc(Nc3nc4c(s3)CCC[C@H]4C(=O)Nc3ccc(NC(=O)c4ccn(C)n4)cc3)cc2)c1F
REMARK SMILES IDX 16 1 17 2 18 3 19 4 20 5 21 6 22 7 23 8 24 9 15 10 14 12
REMARK SMILES IDX 11 13 12 14 44 15 13 16 43 17 9 18 10 19 8 20 3 21 4 22
REMARK SMILES IDX 45 23 5 24 6 25 46 26 2 27 1 28 7 29 25 31 27 32 26 33 28 35
REMARK SMILES IDX 29 36 42 37 30 38 41 39 31 40 32 41 33 42 34 44 35 45 36 46
REMARK SMILES IDX 40 47 37 48 38 49 39 50
REMARK H PARENT 15 11 7 30 27 34 32 43
ROOT
ATOM      1  C   UNL     1       1.195  -2.192  -0.273  1.00  0.00     0.187 A 
ATOM      2  N   UNL     1      -0.095  -2.472  -0.362  1.00  0.00    -0.224 NA
ATOM      3  C   UNL     1      -0.295  -3.842  -0.343  1.00  0.00     0.069 A 
ATOM      4  C   UNL     1       0.861  -4.590  -0.351  1.00  0.00     0.031 A 
ATOM      5  S   UNL     1       2.225  -3.591  -0.360  1.00  0.00    -0.102 S 
ATOM      6  C   UNL     1       0.883  -6.073  -0.353  1.00  0.00     0.049 C 
ATOM      7  C   UNL     1      -0.263  -6.556   0.539  1.00  0.00     0.007 C 
ATOM      8  C   UNL     1      -1.639  -5.923   0.224  1.00  0.00     0.020 C 
ATOM      9  C   UNL     1      -1.646  -4.497  -0.417  1.00  0.00     0.129 C 
ENDROOT
BRANCH   1  10
ATOM     10  N   UNL     1       1.642  -0.913  -0.224  1.00  0.00    -0.332 N 
ATOM     11  H   UNL     1       0.922  -0.205  -0.337  1.00  0.00     0.169 HD
BRANCH  10  12
ATOM     12  C   UNL     1       2.821  -0.392   0.348  1.00  0.00     0.040 A 
ATOM     13  C   UNL     1       5.234   0.712   1.318  1.00  0.00     0.023 A 
ATOM     14  C   UNL     1       4.493   1.395   0.351  1.00  0.00     0.014 A 
ATOM     15  C   UNL     1       4.755  -0.495   1.830  1.00  0.00     0.014 A 
ATOM     16  C   UNL     1       3.301   0.840  -0.129  1.00  0.00     0.027 A 
ATOM     17  C   UNL     1       3.565  -1.045   1.339  1.00  0.00     0.027 A 
BRANCH  13  18
ATOM     18  C   UNL     1       6.488   1.266   1.873  1.00  0.00     0.199 C 
ATOM     19  O   UNL     1       6.669   1.221   3.091  1.00  0.00    -0.288 OA
BRANCH  18  20
ATOM     20  C   UNL     1       7.526   1.914   1.037  1.00  0.00     0.104 A 
ATOM     21  C   UNL     1       8.734   2.172  -1.070  1.00  0.00     0.155 A 
ATOM     22  C   UNL     1       9.522   3.170  -0.495  1.00  0.00     0.053 A 
ATOM     23  C   UNL     1       7.744   1.549  -0.293  1.00  0.00     0.179 A 
ATOM     24  C   UNL     1       9.331   3.527   0.842  1.00  0.00     0.051 A 
ATOM     25  C   UNL     1       8.351   2.893   1.605  1.00  0.00     0.130 A 
ATOM     26  F   UNL     1       7.009   0.575  -0.859  1.00  0.00    -0.202 F 
BRANCH  21  27
ATOM     27  O   UNL     1       8.837   1.728  -2.360  1.00  0.00    -0.494 OA
ATOM     28  C   UNL     1       9.856   2.308  -3.169  1.00  0.00     0.278 C 
ENDBRANCH  21  27
BRANCH  25  29
ATOM     29  O   UNL     1       8.251   3.286   2.913  1.00  0.00    -0.507 OA
ATOM     30  H   UNL     1       7.689   2.628   3.384  1.00  0.00     0.293 HD
ENDBRANCH  25  29
ENDBRANCH  18  20
ENDBRANCH  13  18
ENDBRANCH  10  12
ENDBRANCH   1  10
BRANCH   9  31
ATOM     31  C   UNL     1      -2.822  -3.646   0.096  1.00  0.00     0.233 C 
ATOM     32  N   UNL     1      -2.805  -2.336  -0.355  1.00  0.00    -0.326 N 
ATOM     33  O   UNL     1      -3.731  -4.149   0.756  1.00  0.00    -0.274 OA
ATOM     34  H   UNL     1      -1.905  -2.014  -0.710  1.00  0.00     0.169 HD
BRANCH  32  35
ATOM     35  C   UNL     1      -3.820  -1.366  -0.243  1.00  0.00     0.041 A 
ATOM     36  C   UNL     1      -3.524  -0.071  -0.682  1.00  0.00     0.028 A 
ATOM     37  C   UNL     1      -5.098  -1.627   0.250  1.00  0.00     0.028 A 
ATOM     38  C   UNL     1      -4.489   0.946  -0.636  1.00  0.00     0.028 A 
ATOM     39  C   UNL     1      -6.059  -0.609   0.306  1.00  0.00     0.028 A 
ATOM     40  C   UNL     1      -5.764   0.682  -0.141  1.00  0.00     0.041 A 
BRANCH  40  41
ATOM     41  N   UNL     1      -6.791   1.637  -0.065  1.00  0.00    -0.321 N 
ATOM     42  C   UNL     1      -6.792   2.946  -0.507  1.00  0.00     0.276 C 
ATOM     43  H   UNL     1      -7.682   1.354   0.340  1.00  0.00     0.170 HD
ATOM     44  O   UNL     1      -5.870   3.537  -1.058  1.00  0.00    -0.267 OA
BRANCH  42  45
ATOM     45  C   UNL     1      -8.094   3.598  -0.263  1.00  0.00     0.150 A 
ATOM     46  C   UNL     1      -8.480   4.915  -0.634  1.00  0.00     0.056 A 
ATOM     47  N   UNL     1      -9.107   2.953   0.355  1.00  0.00    -0.168 NA
ATOM     48  C   UNL     1      -9.782   5.047  -0.209  1.00  0.00     0.109 A 
ATOM     49  N   UNL     1     -10.105   3.859   0.378  1.00  0.00    -0.275 N 
ATOM     50  C   UNL     1     -11.366   3.513   0.991  1.00  0.00     0.173 C 
ENDBRANCH  42  45
ENDBRANCH  40  41
ENDBRANCH  32  35
ENDBRANCH   9  31
TORSDOF 10
