REMARK SMILES CNC(=O)c1ccc(Nc2nc3c(s2)CCC[C@H]3C(=O)N2CCOCC2)cc1SC(F)F
REMARK SMILES IDX 5 1 6 2 7 3 8 4 27 5 28 6 3 7 2 8 1 9 4 11 29 12 30 13 31 14
REMARK SMILES IDX 32 15 9 16 10 18 11 19 14 20 12 21 13 22 18 23 15 24 17 25
REMARK SMILES IDX 16 26 19 27 21 28 22 29 26 30 23 31 25 32 24 33 20 34
REMARK H PARENT 2 10 9 17
ROOT
ATOM      1  C   UNL     1      -5.056   0.286   0.905  1.00  0.00     0.053 A 
ATOM      2  C   UNL     1      -4.327  -0.902   1.044  1.00  0.00     0.017 A 
ATOM      3  C   UNL     1      -2.940  -0.906   0.880  1.00  0.00     0.027 A 
ATOM      4  C   UNL     1      -2.248   0.270   0.576  1.00  0.00     0.041 A 
ATOM      5  C   UNL     1      -2.995   1.451   0.416  1.00  0.00     0.042 A 
ATOM      6  C   UNL     1      -4.396   1.477   0.558  1.00  0.00     0.028 A 
ENDROOT
BRANCH   1   7
ATOM      7  C   UNL     1      -6.517   0.186   1.146  1.00  0.00     0.252 C 
ATOM      8  N   UNL     1      -7.058   1.130   1.986  1.00  0.00    -0.355 N 
ATOM      9  C   UNL     1      -8.432   1.045   2.414  1.00  0.00     0.143 C 
ATOM     10  H   UNL     1      -6.437   1.763   2.472  1.00  0.00     0.163 HD
ATOM     11  O   UNL     1      -7.158  -0.717   0.625  1.00  0.00    -0.269 OA
ENDBRANCH   1   7
BRANCH   6  12
ATOM     12  S   UNL     1      -5.202   3.050   0.254  1.00  0.00    -0.054 SA
BRANCH  12  13
ATOM     13  C   UNL     1      -6.136   2.623  -1.241  1.00  0.00     0.405 C 
ATOM     14  F   UNL     1      -6.804   3.723  -1.683  1.00  0.00    -0.198 F 
ATOM     15  F   UNL     1      -5.281   2.267  -2.236  1.00  0.00    -0.198 F 
ENDBRANCH  12  13
ENDBRANCH   6  12
BRANCH   4  16
ATOM     16  N   UNL     1      -0.859   0.314   0.360  1.00  0.00    -0.332 N 
ATOM     17  H   UNL     1      -0.417   1.194   0.602  1.00  0.00     0.169 HD
BRANCH  16  18
ATOM     18  C   UNL     1      -0.021  -0.589  -0.204  1.00  0.00     0.187 A 
ATOM     19  N   UNL     1       1.287  -0.417  -0.150  1.00  0.00    -0.224 NA
ATOM     20  S   UNL     1      -0.506  -1.980  -1.119  1.00  0.00    -0.102 S 
ATOM     21  C   UNL     1       1.941  -1.390  -0.884  1.00  0.00     0.069 A 
ATOM     22  C   UNL     1       1.117  -2.347  -1.437  1.00  0.00     0.031 A 
ATOM     23  C   UNL     1       3.439  -1.441  -0.994  1.00  0.00     0.129 C 
ATOM     24  C   UNL     1       1.569  -3.524  -2.232  1.00  0.00     0.049 C 
ATOM     25  C   UNL     1       3.884  -2.490  -2.049  1.00  0.00     0.020 C 
ATOM     26  C   UNL     1       3.060  -3.785  -1.964  1.00  0.00     0.007 C 
BRANCH  23  27
ATOM     27  C   UNL     1       4.002  -0.069  -1.387  1.00  0.00     0.231 C 
ATOM     28  N   UNL     1       4.747   0.631  -0.447  1.00  0.00    -0.337 N 
ATOM     29  C   UNL     1       5.023   0.181   0.923  1.00  0.00     0.148 C 
ATOM     30  C   UNL     1       5.372   1.901  -0.813  1.00  0.00     0.148 C 
ATOM     31  C   UNL     1       5.673   1.278   1.766  1.00  0.00     0.181 C 
ATOM     32  C   UNL     1       6.786   1.990  -0.236  1.00  0.00     0.181 C 
ATOM     33  O   UNL     1       6.875   1.779   1.180  1.00  0.00    -0.378 OA
ATOM     34  O   UNL     1       3.821   0.383  -2.519  1.00  0.00    -0.274 OA
ENDBRANCH  23  27
ENDBRANCH  16  18
ENDBRANCH   4  16
TORSDOF 6
