MODEL        2USER    Run = 2USERUSER    Estimated Free Energy of Binding    =  -9.68 kcal/mol  [=(1)+(2)+(3)-(4)]USERUSER    (1) Final Intermolecular Energy     = -11.17 kcal/molUSER        vdW + Hbond + desolv Energy     = -10.91 kcal/molUSER        Electrostatic Energy            =  -0.26 kcal/molUSER        Moving Ligand-Fixed Receptor    = -11.17 kcal/molUSER        Moving Ligand-Moving Receptor   =  +0.00 kcal/molUSER    (2) Final Total Internal Energy     =  -1.11 kcal/molUSER    (3) Torsional Free Energy           =  +1.49 kcal/molUSER    (4) Unbound System's Energy         =  -1.11 kcal/molUSERUSERREMARK SMILES CNC(=O)c1ccc(Nc2nc3c(s2)CCC[C@@H]3C(=O)N2CCOCC2)cc1N(C)CREMARK SMILES IDX 9 1 8 3 5 4 6 5 28 6 7 7 27 8 3 9 2 10 1 11 4 13 29 14 30 15REMARK SMILES IDX 31 16 10 17 11 18 14 19 12 20 13 21 18 22 15 23 17 24 16 25REMARK SMILES IDX 19 26 21 27 22 28 26 29 23 30 25 31 24 32 20 33REMARK H PARENT 9 2 2 12USER                              x       y       z     vdW  Elec       q    TypeUSER                           _______ _______ _______ _____ _____    ______ ____ROOTATOM      1  N   UNL     1      38.187  44.987  18.053 -0.17 +0.06    -0.331 N  ATOM      2  H   UNL     1      37.876  44.301  17.375 +0.10 -0.04    +0.169 HD ENDROOTBRANCH   1   3ATOM      3  C   UNL     1      38.966  46.004  17.471 -0.39 -0.01    +0.042 A  ATOM      4  C   UNL     1      40.347  48.134  16.227 -0.51 -0.01    +0.063 A  ATOM      5  C   UNL     1      40.904  47.457  17.324 -0.51 -0.00    +0.018 A  ATOM      6  C   UNL     1      39.087  47.767  15.725 -0.46 -0.02    +0.051 A  ATOM      7  C   UNL     1      40.218  46.404  17.936 -0.46 -0.00    +0.027 A  ATOM      8  C   UNL     1      38.421  46.706  16.379 -0.37 -0.02    +0.052 A  BRANCH   4   9ATOM      9  C   UNL     1      41.139  49.265  15.694 -0.48 -0.03    +0.253 C  ATOM     10  N   UNL     1      41.136  49.366  14.318 -0.32 +0.08    -0.355 N  ATOM     11  C   UNL     1      41.931  50.358  13.642 -0.58 -0.04    +0.143 C  ATOM     12  H   UNL     1      40.650  48.667  13.770 +0.12 -0.03    +0.163 HD ATOM     13  O   UNL     1      41.754  50.015  16.440 -1.03 -0.02    -0.269 OA ENDBRANCH   4   9BRANCH   6  14ATOM     14  N   UNL     1      38.402  48.337  14.631 -0.23 +0.19    -0.377 N  ATOM     15  C   UNL     1      37.294  49.239  14.941 -0.39 -0.14    +0.143 C  ATOM     16  C   UNL     1      38.081  47.322  13.621 -0.45 -0.04    +0.143 C  ENDBRANCH   6  14ENDBRANCH   1   3BRANCH   1  17ATOM     17  C   UNL     1      38.062  44.579  19.337 -0.24 -0.02    +0.187 A  ATOM     18  N   UNL     1      39.049  44.751  20.195 -0.23 +0.00    -0.224 NA ATOM     19  S   UNL     1      36.727  43.687  19.983 -0.50 +0.01    -0.102 S  ATOM     20  C   UNL     1      38.718  44.256  21.442 -0.29 +0.00    +0.069 A  ATOM     21  C   UNL     1      37.496  43.617  21.493 -0.37 +0.00    +0.031 A  ATOM     22  C   UNL     1      39.661  44.318  22.613 -0.22 +0.01    +0.129 C  ATOM     23  C   UNL     1      36.908  42.958  22.693 -0.43 +0.00    +0.049 C  ATOM     24  C   UNL     1      38.903  43.945  23.921 -0.26 +0.00    +0.020 C  ATOM     25  C   UNL     1      38.005  42.710  23.741 -0.38 +0.00    +0.007 C  BRANCH  22  26ATOM     26  C   UNL     1      40.312  45.702  22.762 -0.17 +0.02    +0.231 C  ATOM     27  N   UNL     1      41.647  45.863  22.414 -0.07 -0.04    -0.337 N  ATOM     28  C   UNL     1      42.242  47.199  22.507 -0.24 +0.02    +0.148 C  ATOM     29  C   UNL     1      42.539  44.825  21.882 -0.22 +0.03    +0.148 C  ATOM     30  C   UNL     1      43.394  47.368  21.512 -0.28 +0.05    +0.181 C  ATOM     31  C   UNL     1      44.004  45.147  22.205 -0.12 +0.09    +0.181 C  ATOM     32  O   UNL     1      44.447  46.409  21.687 -0.54 -0.33    -0.378 OA ATOM     33  O   UNL     1      39.664  46.657  23.204 -0.22 -0.03    -0.274 OA ENDBRANCH  22  26ENDBRANCH   1  17TORSDOF 5TERENDMDL