MODEL        5USER    Run = 5USERUSER    Estimated Free Energy of Binding    =  -9.21 kcal/mol  [=(1)+(2)+(3)-(4)]USERUSER    (1) Final Intermolecular Energy     = -11.00 kcal/molUSER        vdW + Hbond + desolv Energy     = -11.01 kcal/molUSER        Electrostatic Energy            =  +0.01 kcal/molUSER        Moving Ligand-Fixed Receptor    = -11.00 kcal/molUSER        Moving Ligand-Moving Receptor   =  +0.00 kcal/molUSER    (2) Final Total Internal Energy     =  -1.28 kcal/molUSER    (3) Torsional Free Energy           =  +1.79 kcal/molUSER    (4) Unbound System's Energy         =  -1.28 kcal/molUSERUSERREMARK SMILES CC[C@@H]1NC=Nc2c(Nc3ccccc3F)nc(N3CC[C@@H](CN)C3)nc21REMARK SMILES IDX 3 1 4 2 5 3 6 4 7 5 8 6 17 7 18 8 26 9 27 10 2 12 1 13 19 14REMARK SMILES IDX 20 15 25 16 21 17 22 18 23 19 24 20 9 23 10 25 11 26 15 27REMARK SMILES IDX 12 28 14 29 13 30 16 31REMARK H PARENT 4 11 24 21 24 22 9 24USER                              x       y       z     vdW  Elec       q    TypeUSER                           _______ _______ _______ _____ _____    ______ ____ROOTATOM      1  C   UNL     1      37.949  47.832  14.411 -0.48 -0.06    +0.131 C  ATOM      2  N   UNL     1      38.939  48.872  14.146 -0.09 +0.18    -0.368 N  ATOM      3  C   UNL     1      40.194  48.766  14.662 -0.45 -0.06    +0.193 C  ATOM      4  N   UNL     1      40.572  47.990  15.620 -0.35 +0.04    -0.234 NA ATOM      5  C   UNL     1      39.559  47.192  16.207 -0.39 -0.04    +0.131 A  ATOM      6  C   UNL     1      39.795  46.446  17.361 -0.35 -0.03    +0.162 A  ATOM      7  N   UNL     1      38.838  45.678  17.921 -0.29 +0.03    -0.193 NA ATOM      8  C   UNL     1      37.630  45.621  17.345 -0.22 -0.07    +0.227 A  ATOM      9  N   UNL     1      37.318  46.303  16.231 -0.23 +0.11    -0.213 NA ATOM     10  C   UNL     1      38.283  47.076  15.683 -0.36 -0.04    +0.096 A  ATOM     11  H   UNL     1      38.811  49.419  13.304 -0.22 -0.08    +0.162 HD ENDROOTBRANCH   1  12ATOM     12  C   UNL     1      37.869  46.856  13.224 -0.51 -0.01    +0.028 C  ATOM     13  C   UNL     1      36.641  47.078  12.350 -0.76 -0.00    +0.006 C  ENDBRANCH   1  12BRANCH   8  14ATOM     14  N   UNL     1      36.658  44.853  17.928 -0.12 +0.10    -0.340 N  ATOM     15  C   UNL     1      36.565  44.749  19.367 -0.25 -0.02    +0.120 C  ATOM     16  C   UNL     1      35.376  44.644  17.264 -0.28 -0.05    +0.124 C  ATOM     17  C   UNL     1      35.323  43.884  19.556 -0.44 -0.00    +0.028 C  ATOM     18  C   UNL     1      34.398  44.315  18.411 -0.39 -0.01    +0.024 C  BRANCH  18  19ATOM     19  C   UNL     1      33.531  45.518  18.806 -0.42 -0.04    +0.083 C  BRANCH  19  20ATOM     20  N   UNL     1      34.282  46.767  18.703 -0.73 +0.22    -0.330 NA ATOM     21  H   UNL     1      34.207  47.282  19.581 -0.42 -0.02    +0.118 HD ATOM     22  H   UNL     1      33.866  47.363  17.988 -0.35 -0.17    +0.118 HD ENDBRANCH  19  20ENDBRANCH  18  19ENDBRANCH   8  14BRANCH   6  23ATOM     23  N   UNL     1      41.081  46.562  17.947 -0.27 +0.02    -0.336 N  ATOM     24  H   UNL     1      41.795  46.584  17.219 -0.35 -0.03    +0.168 HD BRANCH  23  25ATOM     25  C   UNL     1      41.573  46.209  19.216 -0.42 +0.01    +0.076 A  ATOM     26  C   UNL     1      41.072  45.153  19.983 -0.37 +0.00    +0.029 A  ATOM     27  C   UNL     1      42.589  46.992  19.788 -0.38 +0.03    +0.146 A  ATOM     28  C   UNL     1      41.593  44.869  21.252 -0.31 +0.00    +0.002 A  ATOM     29  C   UNL     1      43.113  46.724  21.052 -0.34 +0.01    +0.041 A  ATOM     30  C   UNL     1      42.614  45.652  21.787 -0.27 +0.00    +0.003 A  ATOM     31  F   UNL     1      43.088  48.031  19.096 -0.21 -0.00    -0.205 F  ENDBRANCH  23  25ENDBRANCH   6  23TORSDOF 6TERENDMDL