REMARK SMILES CC[C@@H]1NC=Nc2c(Nc3ccccc3F)nc(N3CC[C@@H](CN)C3)nc21
REMARK SMILES IDX 3 1 4 2 5 3 6 4 7 5 8 6 17 7 18 8 26 9 27 10 2 12 1 13 19 14
REMARK SMILES IDX 20 15 25 16 21 17 22 18 23 19 24 20 9 23 10 25 11 26 15 27
REMARK SMILES IDX 12 28 14 29 13 30 16 31
REMARK H PARENT 4 11 24 21 24 22 9 24
ROOT
ATOM      1  C   UNL     1      -0.138   3.577  -1.325  1.00  0.00     0.131 C 
ATOM      2  N   UNL     1      -1.424   4.264  -1.398  1.00  0.00    -0.368 N 
ATOM      3  C   UNL     1      -2.508   3.754  -0.751  1.00  0.00     0.193 C 
ATOM      4  N   UNL     1      -2.641   2.556  -0.293  1.00  0.00    -0.234 NA
ATOM      5  C   UNL     1      -1.549   1.682  -0.520  1.00  0.00     0.131 A 
ATOM      6  C   UNL     1      -1.634   0.320  -0.235  1.00  0.00     0.162 A 
ATOM      7  N   UNL     1      -0.597  -0.517  -0.441  1.00  0.00    -0.193 NA
ATOM      8  C   UNL     1       0.553  -0.023  -0.921  1.00  0.00     0.227 A 
ATOM      9  N   UNL     1       0.723   1.275  -1.218  1.00  0.00    -0.213 NA
ATOM     10  C   UNL     1      -0.327   2.104  -1.015  1.00  0.00     0.096 A 
ATOM     11  H   UNL     1      -1.399   5.259  -1.581  1.00  0.00     0.162 HD
ENDROOT
BRANCH   1  12
ATOM     12  C   UNL     1       0.756   4.229  -0.255  1.00  0.00     0.028 C 
ATOM     13  C   UNL     1       1.192   5.642  -0.623  1.00  0.00     0.006 C 
ENDBRANCH   1  12
BRANCH   8  14
ATOM     14  N   UNL     1       1.596  -0.881  -1.144  1.00  0.00    -0.340 N 
ATOM     15  C   UNL     1       2.928  -0.375  -1.390  1.00  0.00     0.120 C 
ATOM     16  C   UNL     1       1.600  -2.216  -0.557  1.00  0.00     0.124 C 
ATOM     17  C   UNL     1       3.752  -1.654  -1.497  1.00  0.00     0.028 C 
ATOM     18  C   UNL     1       3.092  -2.602  -0.488  1.00  0.00     0.024 C 
BRANCH  18  19
ATOM     19  C   UNL     1       3.679  -2.428   0.919  1.00  0.00     0.083 C 
BRANCH  19  20
ATOM     20  N   UNL     1       3.159  -3.438   1.837  1.00  0.00    -0.330 NA
ATOM     21  H   UNL     1       3.566  -3.298   2.762  1.00  0.00     0.118 HD
ATOM     22  H   UNL     1       3.455  -4.366   1.535  1.00  0.00     0.118 HD
ENDBRANCH  19  20
ENDBRANCH  18  19
ENDBRANCH   8  14
BRANCH   6  23
ATOM     23  N   UNL     1      -2.880  -0.158   0.245  1.00  0.00    -0.336 N 
ATOM     24  H   UNL     1      -3.423   0.614   0.631  1.00  0.00     0.168 HD
BRANCH  23  25
ATOM     25  C   UNL     1      -3.294  -1.425   0.692  1.00  0.00     0.076 A 
ATOM     26  C   UNL     1      -2.631  -2.617   0.386  1.00  0.00     0.029 A 
ATOM     27  C   UNL     1      -4.478  -1.523   1.441  1.00  0.00     0.146 A 
ATOM     28  C   UNL     1      -3.111  -3.851   0.845  1.00  0.00     0.002 A 
ATOM     29  C   UNL     1      -4.970  -2.744   1.899  1.00  0.00     0.041 A 
ATOM     30  C   UNL     1      -4.279  -3.916   1.602  1.00  0.00     0.003 A 
ATOM     31  F   UNL     1      -5.161  -0.405   1.742  1.00  0.00    -0.205 F 
ENDBRANCH  23  25
ENDBRANCH   6  23
TORSDOF 6
