REMARK SMILES CC(C)[C@@H]1NC=Nc2c(Nc3ccccc3F)nc(N3CC[C@H](O)C3)nc21
REMARK SMILES IDX 4 1 5 2 6 3 7 4 8 5 9 6 18 7 19 8 26 9 27 10 2 12 1 13 3 14
REMARK SMILES IDX 20 15 21 16 25 17 22 18 23 19 24 20 10 22 11 24 12 25 16 26
REMARK SMILES IDX 13 27 15 28 14 29 17 30
REMARK H PARENT 5 11 24 21 10 23
ROOT
ATOM      1  C   UNL     1       0.204   2.206  -2.351  1.00  0.00     0.134 C 
ATOM      2  N   UNL     1      -1.052   2.580  -2.994  1.00  0.00    -0.367 N 
ATOM      3  C   UNL     1      -2.158   1.798  -2.872  1.00  0.00     0.193 C 
ATOM      4  N   UNL     1      -2.325   0.805  -2.067  1.00  0.00    -0.234 NA
ATOM      5  C   UNL     1      -1.232   0.498  -1.221  1.00  0.00     0.131 A 
ATOM      6  C   UNL     1      -1.327  -0.505  -0.255  1.00  0.00     0.162 A 
ATOM      7  N   UNL     1      -0.284  -0.843   0.530  1.00  0.00    -0.193 NA
ATOM      8  C   UNL     1       0.883  -0.205   0.364  1.00  0.00     0.227 A 
ATOM      9  N   UNL     1       1.060   0.768  -0.541  1.00  0.00    -0.213 NA
ATOM     10  C   UNL     1       0.001   1.121  -1.306  1.00  0.00     0.096 A 
ATOM     11  H   UNL     1      -0.975   3.163  -3.819  1.00  0.00     0.162 HD
ENDROOT
BRANCH   1  12
ATOM     12  C   UNL     1       0.909   3.465  -1.776  1.00  0.00     0.011 C 
ATOM     13  C   UNL     1       0.059   4.214  -0.742  1.00  0.00     0.010 C 
ATOM     14  C   UNL     1       1.341   4.427  -2.889  1.00  0.00     0.010 C 
ENDBRANCH   1  12
BRANCH   8  15
ATOM     15  N   UNL     1       1.939  -0.551   1.166  1.00  0.00    -0.338 N 
ATOM     16  C   UNL     1       1.887  -1.789   1.923  1.00  0.00     0.122 C 
ATOM     17  C   UNL     1       3.302  -0.216   0.769  1.00  0.00     0.151 C 
ATOM     18  C   UNL     1       3.301  -1.909   2.477  1.00  0.00     0.055 C 
ATOM     19  C   UNL     1       4.154  -1.366   1.337  1.00  0.00     0.135 C 
BRANCH  19  20
ATOM     20  O   UNL     1       5.419  -0.926   1.805  1.00  0.00    -0.391 OA
ATOM     21  H   UNL     1       5.856  -1.686   2.227  1.00  0.00     0.211 HD
ENDBRANCH  19  20
ENDBRANCH   8  15
BRANCH   6  22
ATOM     22  N   UNL     1      -2.587  -1.137  -0.107  1.00  0.00    -0.336 N 
ATOM     23  H   UNL     1      -3.125  -1.050  -0.969  1.00  0.00     0.168 HD
BRANCH  22  24
ATOM     24  C   UNL     1      -3.025  -2.168   0.742  1.00  0.00     0.076 A 
ATOM     25  C   UNL     1      -2.402  -2.497   1.950  1.00  0.00     0.029 A 
ATOM     26  C   UNL     1      -4.184  -2.885   0.399  1.00  0.00     0.146 A 
ATOM     27  C   UNL     1      -2.903  -3.519   2.767  1.00  0.00     0.002 A 
ATOM     28  C   UNL     1      -4.691  -3.904   1.203  1.00  0.00     0.041 A 
ATOM     29  C   UNL     1      -4.045  -4.225   2.392  1.00  0.00     0.003 A 
ATOM     30  F   UNL     1      -4.825  -2.590  -0.744  1.00  0.00    -0.205 F 
ENDBRANCH  22  24
ENDBRANCH   6  22
TORSDOF 5
