MODEL        7USER    Run = 7USERUSER    Estimated Free Energy of Binding    =  -9.04 kcal/mol  [=(1)+(2)+(3)-(4)]USERUSER    (1) Final Intermolecular Energy     = -10.54 kcal/molUSER        vdW + Hbond + desolv Energy     = -10.48 kcal/molUSER        Electrostatic Energy            =  -0.06 kcal/molUSER        Moving Ligand-Fixed Receptor    = -10.54 kcal/molUSER        Moving Ligand-Moving Receptor   =  +0.00 kcal/molUSER    (2) Final Total Internal Energy     =  -1.64 kcal/molUSER    (3) Torsional Free Energy           =  +1.49 kcal/molUSER    (4) Unbound System's Energy         =  -1.64 kcal/molUSERUSERREMARK SMILES CC(C)[C@@H]1NC=Nc2c(Nc3ccccc3F)nc(N3CC[C@H](O)C3)nc21REMARK SMILES IDX 4 1 5 2 6 3 7 4 8 5 9 6 18 7 19 8 26 9 27 10 2 12 1 13 3 14REMARK SMILES IDX 20 15 21 16 25 17 22 18 23 19 24 20 10 22 11 24 12 25 16 26REMARK SMILES IDX 13 27 15 28 14 29 17 30REMARK H PARENT 5 11 24 21 10 23USER                              x       y       z     vdW  Elec       q    TypeUSER                           _______ _______ _______ _____ _____    ______ ____ROOTATOM      1  C   UNL     1      37.406  47.676  14.745 -0.45 -0.08    +0.134 C  ATOM      2  N   UNL     1      38.446  48.519  14.163 -0.23 +0.17    -0.367 N  ATOM      3  C   UNL     1      39.654  48.656  14.772 -0.42 -0.07    +0.193 C  ATOM      4  N   UNL     1      40.114  47.962  15.756 -0.34 +0.06    -0.234 NA ATOM      5  C   UNL     1      39.262  46.947  16.254 -0.36 -0.04    +0.131 A  ATOM      6  C   UNL     1      39.685  46.081  17.264 -0.33 -0.03    +0.162 A  ATOM      7  N   UNL     1      38.874  45.137  17.783 -0.26 +0.03    -0.193 NA ATOM      8  C   UNL     1      37.619  45.040  17.324 -0.21 -0.06    +0.227 A  ATOM      9  N   UNL     1      37.132  45.833  16.358 -0.21 +0.10    -0.213 NA ATOM     10  C   UNL     1      37.961  46.759  15.823 -0.34 -0.04    +0.096 A  ATOM     11  H   UNL     1      38.128  49.276  13.570 -0.34 -0.08    +0.162 HD ENDROOTBRANCH   1  12ATOM     12  C   UNL     1      36.655  46.901  13.628 -0.59 -0.01    +0.011 C  ATOM     13  C   UNL     1      37.301  45.551  13.292 -0.54 -0.00    +0.010 C  ATOM     14  C   UNL     1      36.515  47.742  12.354 -0.75 -0.00    +0.010 C  ENDBRANCH   1  12BRANCH   8  15ATOM     15  N   UNL     1      36.799  44.078  17.854 -0.11 +0.08    -0.338 N  ATOM     16  C   UNL     1      36.144  44.317  19.127 -0.35 -0.02    +0.122 C  ATOM     17  C   UNL     1      35.988  43.242  16.976 -0.32 -0.05    +0.151 C  ATOM     18  C   UNL     1      35.177  43.146  19.239 -0.42 -0.01    +0.055 C  ATOM     19  C   UNL     1      34.718  42.953  17.798 -0.33 -0.04    +0.135 C  BRANCH  19  20ATOM     20  O   UNL     1      34.220  41.642  17.588 -0.26 +0.16    -0.391 OA ATOM     21  H   UNL     1      34.707  41.260  16.837 -0.45 -0.15    +0.211 HD ENDBRANCH  19  20ENDBRANCH   8  15BRANCH   6  22ATOM     22  N   UNL     1      41.027  46.213  17.703 -0.25 +0.02    -0.336 N  ATOM     23  H   UNL     1      41.555  46.784  17.044 -0.25 -0.02    +0.168 HD BRANCH  22  24ATOM     24  C   UNL     1      41.610  46.118  18.978 -0.42 +0.01    +0.076 A  ATOM     25  C   UNL     1      41.320  45.099  19.891 -0.37 +0.00    +0.029 A  ATOM     26  C   UNL     1      42.580  47.063  19.354 -0.42 +0.02    +0.146 A  ATOM     27  C   UNL     1      41.956  45.044  21.139 -0.30 +0.00    +0.002 A  ATOM     28  C   UNL     1      43.217  47.019  20.593 -0.38 +0.01    +0.041 A  ATOM     29  C   UNL     1      42.901  46.006  21.491 -0.29 +0.00    +0.003 A  ATOM     30  F   UNL     1      42.902  48.049  18.501 -0.21 -0.00    -0.205 F  ENDBRANCH  22  24ENDBRANCH   6  22TORSDOF 5TERENDMDL