MODEL        1USER    Run = 1USERUSER    Estimated Free Energy of Binding    =  -9.05 kcal/mol  [=(1)+(2)+(3)-(4)]USERUSER    (1) Final Intermolecular Energy     = -10.54 kcal/molUSER        vdW + Hbond + desolv Energy     = -10.47 kcal/molUSER        Electrostatic Energy            =  -0.06 kcal/molUSER        Moving Ligand-Fixed Receptor    = -10.54 kcal/molUSER        Moving Ligand-Moving Receptor   =  +0.00 kcal/molUSER    (2) Final Total Internal Energy     =  -1.02 kcal/molUSER    (3) Torsional Free Energy           =  +1.49 kcal/molUSER    (4) Unbound System's Energy         =  -1.02 kcal/molUSERUSERREMARK SMILES CC(C)[C@@H]1NC=Nc2c(Nc3cccc(F)c3)nc(N3CC[C@H](N)C3)nc21REMARK SMILES IDX 4 1 5 2 6 3 7 4 8 5 9 6 18 7 19 8 26 9 27 10 2 12 1 13 3 14REMARK SMILES IDX 20 15 21 16 25 17 22 18 23 19 24 20 10 23 11 25 12 26 17 27REMARK SMILES IDX 13 28 15 29 14 30 16 31REMARK H PARENT 5 11 24 21 24 22 10 24USER                              x       y       z     vdW  Elec       q    TypeUSER                           _______ _______ _______ _____ _____    ______ ____ROOTATOM      1  C   UNL     1      37.106  47.714  15.134 -0.42 -0.10    +0.134 C  ATOM      2  N   UNL     1      38.237  48.590  14.864 -0.24 +0.22    -0.367 N  ATOM      3  C   UNL     1      39.500  48.209  15.198 -0.45 -0.07    +0.193 C  ATOM      4  N   UNL     1      39.832  47.223  15.956 -0.30 +0.05    -0.234 NA ATOM      5  C   UNL     1      38.779  46.467  16.523 -0.32 -0.04    +0.131 A  ATOM      6  C   UNL     1      38.983  45.458  17.462 -0.28 -0.03    +0.162 A  ATOM      7  N   UNL     1      37.975  44.700  17.949 -0.25 +0.04    -0.193 NA ATOM      8  C   UNL     1      36.722  44.964  17.553 -0.19 -0.07    +0.227 A  ATOM      9  N   UNL     1      36.425  45.927  16.673 -0.22 +0.12    -0.213 NA ATOM     10  C   UNL     1      37.452  46.653  16.164 -0.32 -0.05    +0.096 A  ATOM     11  H   UNL     1      38.117  49.297  14.151 -0.38 -0.11    +0.162 HD ENDROOTBRANCH   1  12ATOM     12  C   UNL     1      36.542  47.093  13.827 -0.57 -0.01    +0.011 C  ATOM     13  C   UNL     1      37.279  45.825  13.377 -0.54 -0.00    +0.010 C  ATOM     14  C   UNL     1      36.521  48.113  12.682 -0.69 -0.00    +0.010 C  ENDBRANCH   1  12BRANCH   8  15ATOM     15  N   UNL     1      35.702  44.193  18.046 -0.09 +0.10    -0.339 N  ATOM     16  C   UNL     1      35.761  43.660  19.398 -0.36 -0.02    +0.121 C  ATOM     17  C   UNL     1      34.954  43.321  17.153 -0.33 -0.05    +0.138 C  ATOM     18  C   UNL     1      35.001  42.332  19.317 -0.44 -0.00    +0.042 C  ATOM     19  C   UNL     1      34.058  42.536  18.131 -0.40 -0.02    +0.072 C  BRANCH  19  20ATOM     20  N   UNL     1      33.527  41.274  17.623 -0.20 +0.13    -0.326 NA ATOM     21  H   UNL     1      34.280  40.590  17.554 -0.52 -0.08    +0.119 HD ATOM     22  H   UNL     1      33.173  41.408  16.677 -0.44 -0.09    +0.119 HD ENDBRANCH  19  20ENDBRANCH   8  15BRANCH   6  23ATOM     23  N   UNL     1      40.256  45.098  17.949 -0.18 +0.02    -0.338 N  ATOM     24  H   UNL     1      40.163  44.136  18.269 +0.10 -0.00    +0.168 HD BRANCH  23  25ATOM     25  C   UNL     1      41.110  45.814  18.816 -0.44 +0.00    +0.043 A  ATOM     26  C   UNL     1      41.801  46.921  18.294 -0.48 -0.00    +0.026 A  ATOM     27  C   UNL     1      41.333  45.464  20.150 -0.35 +0.01    +0.065 A  ATOM     28  C   UNL     1      42.680  47.667  19.085 -0.50 +0.00    +0.005 A  ATOM     29  C   UNL     1      42.208  46.212  20.934 -0.28 +0.03    +0.125 A  ATOM     30  C   UNL     1      42.882  47.310  20.414 -0.35 +0.01    +0.039 A  ATOM     31  F   UNL     1      42.410  45.864  22.212 -0.04 -0.04    -0.207 F  ENDBRANCH  23  25ENDBRANCH   6  23TORSDOF 5TERENDMDL