REMARK SMILES CN1CCN(S(=O)(=O)Nc2nccc3ccc(F)cc23)CC1
REMARK SMILES IDX 6 1 7 2 8 3 5 4 2 5 3 6 22 7 4 8 21 9 1 10 9 11 10 13 11 14
REMARK SMILES IDX 20 15 12 16 19 17 14 18 13 19 17 20 15 21 16 22 18 23
REMARK H PARENT 9 12
ROOT
ATOM      1  S   UNL     1      -0.194  -0.779  -0.997  1.00  0.00     0.302 S 
ATOM      2  O   UNL     1       0.042   0.622  -1.245  1.00  0.00    -0.189 OA
ATOM      3  O   UNL     1      -0.227  -1.746  -2.069  1.00  0.00    -0.189 OA
ENDROOT
BRANCH   1   4
ATOM      4  N   UNL     1      -1.659  -0.912  -0.156  1.00  0.00    -0.182 NA
ATOM      5  N   UNL     1      -4.024   0.820   0.606  1.00  0.00    -0.304 NA
ATOM      6  C   UNL     1      -3.201   0.053   1.564  1.00  0.00     0.101 C 
ATOM      7  C   UNL     1      -3.579   0.598  -0.786  1.00  0.00     0.101 C 
ATOM      8  C   UNL     1      -1.740  -0.105   1.106  1.00  0.00     0.119 C 
ATOM      9  C   UNL     1      -2.873  -0.749  -1.025  1.00  0.00     0.119 C 
ATOM     10  C   UNL     1      -5.441   0.516   0.784  1.00  0.00     0.105 C 
ENDBRANCH   1   4
BRANCH   1  11
ATOM     11  N   UNL     1       0.835  -1.358   0.199  1.00  0.00    -0.254 N 
ATOM     12  H   UNL     1       0.678  -2.366   0.224  1.00  0.00     0.183 HD
BRANCH  11  13
ATOM     13  C   UNL     1       2.208  -1.192  -0.122  1.00  0.00     0.148 A 
ATOM     14  N   UNL     1       2.716  -2.318  -0.659  1.00  0.00    -0.238 NA
ATOM     15  C   UNL     1       2.925  -0.002   0.099  1.00  0.00     0.028 A 
ATOM     16  C   UNL     1       4.003  -2.267  -1.051  1.00  0.00     0.114 A 
ATOM     17  C   UNL     1       2.404   1.154   0.722  1.00  0.00     0.051 A 
ATOM     18  C   UNL     1       4.274   0.002  -0.321  1.00  0.00    -0.013 A 
ATOM     19  C   UNL     1       4.809  -1.149  -0.910  1.00  0.00     0.029 A 
ATOM     20  C   UNL     1       3.202   2.278   0.897  1.00  0.00     0.123 A 
ATOM     21  C   UNL     1       5.059   1.155  -0.136  1.00  0.00     0.012 A 
ATOM     22  C   UNL     1       4.522   2.290   0.471  1.00  0.00     0.040 A 
ATOM     23  F   UNL     1       2.691   3.363   1.492  1.00  0.00    -0.207 F 
ENDBRANCH  11  13
ENDBRANCH   1  11
TORSDOF 3
