MODEL        4USER    Run = 4USERUSER    Estimated Free Energy of Binding    =  -8.52 kcal/mol  [=(1)+(2)+(3)-(4)]USERUSER    (1) Final Intermolecular Energy     =  -9.41 kcal/molUSER        vdW + Hbond + desolv Energy     =  -9.21 kcal/molUSER        Electrostatic Energy            =  -0.20 kcal/molUSER        Moving Ligand-Fixed Receptor    =  -9.41 kcal/molUSER        Moving Ligand-Moving Receptor   =  +0.00 kcal/molUSER    (2) Final Total Internal Energy     =  -0.80 kcal/molUSER    (3) Torsional Free Energy           =  +0.89 kcal/molUSER    (4) Unbound System's Energy         =  -0.80 kcal/molUSERUSERREMARK SMILES CN1CCN(S(=O)(=O)Nc2nccc3ccc(F)cc23)CC1REMARK SMILES IDX 6 1 7 2 8 3 5 4 2 5 3 6 22 7 4 8 21 9 1 10 9 11 10 13 11 14REMARK SMILES IDX 20 15 12 16 19 17 14 18 13 19 17 20 15 21 16 22 18 23REMARK H PARENT 9 12USER                              x       y       z     vdW  Elec       q    TypeUSER                           _______ _______ _______ _____ _____    ______ ____ROOTATOM      1  S   UNL     1      40.207  48.017  15.512 -0.52 -0.07    +0.302 S  ATOM      2  O   UNL     1      40.400  46.915  14.603 -0.38 +0.02    -0.189 OA ATOM      3  O   UNL     1      41.196  49.058  15.667 -0.82 +0.02    -0.189 OA ENDROOTBRANCH   1   4ATOM      4  N   UNL     1      39.915  47.369  17.050 -0.37 +0.04    -0.182 NA ATOM      5  N   UNL     1      41.030  45.227  18.878 -0.23 -0.01    -0.304 NA ATOM      6  C   UNL     1      39.617  45.319  18.456 -0.42 -0.01    +0.101 C  ATOM      7  C   UNL     1      41.829  46.346  18.336 -0.46 +0.00    +0.101 C  ATOM      8  C   UNL     1      39.449  45.943  17.059 -0.40 -0.02    +0.119 C  ATOM      9  C   UNL     1      41.022  47.621  18.033 -0.42 -0.01    +0.119 C  ATOM     10  C   UNL     1      41.128  45.137  20.332 -0.36 +0.01    +0.105 C  ENDBRANCH   1   4BRANCH   1  11ATOM     11  N   UNL     1      38.714  48.747  15.261 -0.33 +0.15    -0.254 N  ATOM     12  H   UNL     1      38.908  49.562  14.677 -0.32 -0.15    +0.183 HD BRANCH  11  13ATOM     13  C   UNL     1      37.821  47.940  14.508 -0.41 -0.08    +0.148 A  ATOM     14  N   UNL     1      38.047  48.076  13.187 -0.67 +0.04    -0.238 NA ATOM     15  C   UNL     1      36.838  47.115  15.083 -0.40 -0.02    +0.028 A  ATOM     16  C   UNL     1      37.292  47.320  12.368 -0.48 -0.03    +0.114 A  ATOM     17  C   UNL     1      36.562  47.026  16.465 -0.22 -0.04    +0.051 A  ATOM     18  C   UNL     1      36.064  46.346  14.185 -0.44 +0.01    -0.013 A  ATOM     19  C   UNL     1      36.307  46.451  12.811 -0.59 -0.01    +0.029 A  ATOM     20  C   UNL     1      35.562  46.180  16.929 -0.28 -0.10    +0.123 A  ATOM     21  C   UNL     1      35.060  45.494  14.681 -0.31 -0.01    +0.012 A  ATOM     22  C   UNL     1      34.812  45.412  16.051 -0.30 -0.03    +0.040 A  ATOM     23  F   UNL     1      35.314  46.111  18.243 -0.11 +0.11    -0.207 F  ENDBRANCH  11  13ENDBRANCH   1  11TORSDOF 3TERENDMDL