MODEL        6USER    Run = 6USERUSER    Estimated Free Energy of Binding    =  -9.18 kcal/mol  [=(1)+(2)+(3)-(4)]USERUSER    (1) Final Intermolecular Energy     = -11.26 kcal/molUSER        vdW + Hbond + desolv Energy     = -11.07 kcal/molUSER        Electrostatic Energy            =  -0.20 kcal/molUSER        Moving Ligand-Fixed Receptor    = -11.26 kcal/molUSER        Moving Ligand-Moving Receptor   =  +0.00 kcal/molUSER    (2) Final Total Internal Energy     =  -0.55 kcal/molUSER    (3) Torsional Free Energy           =  +2.09 kcal/molUSER    (4) Unbound System's Energy         =  -0.55 kcal/molUSERUSERREMARK SMILES C[C@H]1[C@@H](CO)CCN1Cc1nc(-c2ccc(O)cc2)c(C#N)c(=O)[nH]1REMARK SMILES IDX 9 1 8 2 2 3 3 4 6 5 7 6 1 7 4 8 5 9 10 11 11 12 25 13 12 14REMARK SMILES IDX 23 15 20 16 24 18 13 19 14 20 19 21 15 22 18 23 16 24 17 25REMARK SMILES IDX 21 27 22 28REMARK H PARENT 5 10 25 17 17 26USER                              x       y       z     vdW  Elec       q    TypeUSER                           _______ _______ _______ _____ _____    ______ ____ROOTATOM      1  C   UNL     1      38.013  44.459  19.562 -0.31 -0.01    +0.160 C  ENDROOTBRANCH   1   2ATOM      2  N   UNL     1      36.961  43.734  18.809 -0.12 +0.04    -0.293 NA ATOM      3  C   UNL     1      36.033  44.679  18.142 -0.35 -0.02    +0.059 C  ATOM      4  C   UNL     1      34.996  45.009  19.218 -0.37 -0.01    +0.033 C  ATOM      5  C   UNL     1      34.820  43.691  19.964 -0.43 -0.00    +0.023 C  ATOM      6  C   UNL     1      36.119  42.927  19.724 -0.41 -0.01    +0.086 C  ATOM      7  C   UNL     1      35.471  44.011  16.883 -0.37 -0.01    +0.025 C  BRANCH   4   8ATOM      8  C   UNL     1      33.687  45.603  18.715 -0.41 -0.08    +0.161 C  BRANCH   8   9ATOM      9  O   UNL     1      33.756  47.025  18.730 -0.92 +0.30    -0.396 OA ATOM     10  H   UNL     1      33.520  47.344  17.842 -0.39 -0.36    +0.210 HD ENDBRANCH   8   9ENDBRANCH   4   8ENDBRANCH   1   2BRANCH   1  11ATOM     11  C   UNL     1      38.722  45.447  18.642 -0.32 -0.02    +0.123 A  ATOM     12  N   UNL     1      38.240  45.754  17.482 -0.24 +0.06    -0.232 NA ATOM     13  N   UNL     1      39.905  45.945  19.105 -0.23 +0.01    -0.308 N  ATOM     14  C   UNL     1      38.957  46.644  16.709 -0.36 -0.03    +0.096 A  ATOM     15  C   UNL     1      40.634  46.870  18.420 -0.24 -0.02    +0.269 A  ATOM     16  C   UNL     1      40.121  47.217  17.078 -0.39 -0.03    +0.143 A  ATOM     17  H   UNL     1      40.179  45.713  20.054 +0.09 +0.00    +0.171 HD ATOM     18  O   UNL     1      41.641  47.378  18.902 -0.39 +0.00    -0.268 OA BRANCH  14  19ATOM     19  C   UNL     1      38.361  46.933  15.385 -0.43 -0.00    +0.002 A  ATOM     20  C   UNL     1      38.230  45.926  14.418 -0.40 -0.00    +0.014 A  ATOM     21  C   UNL     1      37.938  48.235  15.080 -0.52 -0.01    +0.014 A  ATOM     22  C   UNL     1      37.668  46.216  13.173 -0.40 -0.01    +0.047 A  ATOM     23  C   UNL     1      37.375  48.525  13.834 -0.51 -0.02    +0.047 A  ATOM     24  C   UNL     1      37.243  47.510  12.892 -0.47 -0.04    +0.115 A  BRANCH  24  25ATOM     25  O   UNL     1      36.701  47.746  11.665 -0.70 +0.19    -0.508 OA ATOM     26  H   UNL     1      36.368  48.659  11.642 -0.19 -0.13    +0.293 HD ENDBRANCH  24  25ENDBRANCH  14  19BRANCH  16  27ATOM     27  C   UNL     1      40.870  48.114  16.273 -0.53 -0.02    +0.107 C  ATOM     28  N   UNL     1      41.463  48.863  15.612 -0.78 +0.01    -0.192 NA ENDBRANCH  16  27ENDBRANCH   1  11TORSDOF 7TERENDMDL