REMARK SMILES Cc1cncc(-c2ccc(-c3nc(CN4CCOCC4)c(C#N)[nH]c3=O)cc2)c1
REMARK SMILES IDX 7 1 8 2 9 3 10 4 27 5 28 6 6 7 2 8 3 9 29 10 4 11 5 12 1 13
REMARK SMILES IDX 11 14 12 15 25 16 13 17 24 18 21 19 26 20 14 22 15 23 16 24
REMARK SMILES IDX 20 25 17 26 19 27 18 28 22 29 23 30
REMARK H PARENT 24 21
ROOT
ATOM      1  C   UNL     1      -3.482  -0.598   0.520  1.00  0.00    -0.017 A 
ATOM      2  C   UNL     1      -2.389   0.237   0.802  1.00  0.00     0.009 A 
ATOM      3  C   UNL     1      -1.082  -0.158   0.498  1.00  0.00     0.011 A 
ATOM      4  C   UNL     1      -0.833  -1.404  -0.091  1.00  0.00     0.006 A 
ATOM      5  C   UNL     1      -1.912  -2.237  -0.392  1.00  0.00     0.011 A 
ATOM      6  C   UNL     1      -3.220  -1.838  -0.085  1.00  0.00     0.009 A 
ENDROOT
BRANCH   1   7
ATOM      7  C   UNL     1      -4.856  -0.184   0.840  1.00  0.00     0.000 A 
ATOM      8  C   UNL     1      -6.678   1.429   0.758  1.00  0.00    -0.032 A 
ATOM      9  C   UNL     1      -7.449   0.516   1.468  1.00  0.00     0.114 A 
ATOM     10  C   UNL     1      -5.369   1.056   0.436  1.00  0.00     0.015 A 
ATOM     11  N   UNL     1      -7.003  -0.689   1.881  1.00  0.00    -0.264 NA
ATOM     12  C   UNL     1      -5.724  -1.004   1.562  1.00  0.00     0.119 A 
ATOM     13  C   UNL     1      -7.251   2.732   0.299  1.00  0.00     0.046 C 
ENDBRANCH   1   7
BRANCH   4  14
ATOM     14  C   UNL     1       0.578  -1.769  -0.409  1.00  0.00     0.136 A 
ATOM     15  N   UNL     1       1.433  -0.812  -0.654  1.00  0.00    -0.243 NA
ATOM     16  C   UNL     1       1.012  -3.243  -0.433  1.00  0.00     0.275 A 
ATOM     17  C   UNL     1       2.750  -1.134  -0.946  1.00  0.00     0.090 A 
ATOM     18  N   UNL     1       2.323  -3.444  -0.783  1.00  0.00    -0.310 N 
ATOM     19  C   UNL     1       3.191  -2.408  -1.030  1.00  0.00     0.143 A 
ATOM     20  O   UNL     1       0.266  -4.165  -0.152  1.00  0.00    -0.267 OA
ATOM     21  H   UNL     1       2.642  -4.405  -0.807  1.00  0.00     0.171 HD
BRANCH  17  22
ATOM     22  C   UNL     1       3.647   0.081  -1.207  1.00  0.00     0.144 C 
BRANCH  22  23
ATOM     23  N   UNL     1       3.839   0.937  -0.024  1.00  0.00    -0.293 NA
ATOM     24  C   UNL     1       4.738   0.351   0.992  1.00  0.00     0.113 C 
ATOM     25  C   UNL     1       4.311   2.279  -0.428  1.00  0.00     0.113 C 
ATOM     26  C   UNL     1       6.165   0.920   0.949  1.00  0.00     0.175 C 
ATOM     27  C   UNL     1       5.016   3.008   0.724  1.00  0.00     0.175 C 
ATOM     28  O   UNL     1       6.213   2.340   1.145  1.00  0.00    -0.379 OA
ENDBRANCH  22  23
ENDBRANCH  17  22
BRANCH  19  29
ATOM     29  C   UNL     1       4.542  -2.743  -1.344  1.00  0.00     0.119 C 
ATOM     30  N   UNL     1       5.641  -3.024  -1.591  1.00  0.00    -0.191 NA
ENDBRANCH  19  29
ENDBRANCH   4  14
TORSDOF 5
