REMARK SMILES C[C@H]1[C@@H](CO)CCN1Cc1nc(-c2ccc(O)cc2)c(C#N)c(=O)[nH]1
REMARK SMILES IDX 9 1 8 2 2 3 3 4 6 5 7 6 1 7 4 8 5 9 10 11 11 12 25 13 12 14
REMARK SMILES IDX 23 15 20 16 24 18 13 19 14 20 19 21 15 22 18 23 16 24 17 25
REMARK SMILES IDX 21 27 22 28
REMARK H PARENT 5 10 25 17 17 26
ROOT
ATOM      1  C   UNL     1      -1.097  -0.153  -0.682  1.00  0.00     0.160 C 
ENDROOT
BRANCH   1   2
ATOM      2  N   UNL     1      -2.120  -0.799   0.175  1.00  0.00    -0.293 NA
ATOM      3  C   UNL     1      -3.487  -0.546  -0.341  1.00  0.00     0.059 C 
ATOM      4  C   UNL     1      -3.873   0.805   0.266  1.00  0.00     0.033 C 
ATOM      5  C   UNL     1      -3.249   0.765   1.657  1.00  0.00     0.023 C 
ATOM      6  C   UNL     1      -2.098  -0.230   1.543  1.00  0.00     0.086 C 
ATOM      7  C   UNL     1      -4.389  -1.718   0.059  1.00  0.00     0.025 C 
BRANCH   4   8
ATOM      8  C   UNL     1      -5.362   1.125   0.276  1.00  0.00     0.161 C 
BRANCH   8   9
ATOM      9  O   UNL     1      -5.579   2.431   0.799  1.00  0.00    -0.396 OA
ATOM     10  H   UNL     1      -5.156   3.067   0.197  1.00  0.00     0.210 HD
ENDBRANCH   8   9
ENDBRANCH   4   8
ENDBRANCH   1   2
BRANCH   1  11
ATOM     11  C   UNL     1       0.284  -0.708  -0.350  1.00  0.00     0.123 A 
ATOM     12  N   UNL     1       1.354  -0.004  -0.526  1.00  0.00    -0.232 NA
ATOM     13  N   UNL     1       0.313  -1.996   0.101  1.00  0.00    -0.308 N 
ATOM     14  C   UNL     1       2.563  -0.592  -0.214  1.00  0.00     0.096 A 
ATOM     15  C   UNL     1       1.464  -2.618   0.480  1.00  0.00     0.269 A 
ATOM     16  C   UNL     1       2.706  -1.846   0.262  1.00  0.00     0.143 A 
ATOM     17  H   UNL     1      -0.573  -2.456   0.281  1.00  0.00     0.171 HD
ATOM     18  O   UNL     1       1.454  -3.739   0.977  1.00  0.00    -0.268 OA
BRANCH  14  19
ATOM     19  C   UNL     1       3.748   0.260  -0.461  1.00  0.00     0.002 A 
ATOM     20  C   UNL     1       4.462   0.828   0.604  1.00  0.00     0.014 A 
ATOM     21  C   UNL     1       4.156   0.522  -1.777  1.00  0.00     0.014 A 
ATOM     22  C   UNL     1       5.577   1.631   0.354  1.00  0.00     0.047 A 
ATOM     23  C   UNL     1       5.272   1.325  -2.027  1.00  0.00     0.047 A 
ATOM     24  C   UNL     1       5.974   1.871  -0.957  1.00  0.00     0.115 A 
BRANCH  24  25
ATOM     25  O   UNL     1       7.067   2.660  -1.153  1.00  0.00    -0.508 OA
ATOM     26  H   UNL     1       7.245   2.714  -2.107  1.00  0.00     0.293 HD
ENDBRANCH  24  25
ENDBRANCH  14  19
BRANCH  16  27
ATOM     27  C   UNL     1       3.951  -2.459   0.560  1.00  0.00     0.107 C 
ATOM     28  N   UNL     1       4.981  -2.940   0.797  1.00  0.00    -0.192 NA
ENDBRANCH  16  27
ENDBRANCH   1  11
TORSDOF 7
