MODEL        8USER    Run = 8USERUSER    Estimated Free Energy of Binding    = -10.45 kcal/mol  [=(1)+(2)+(3)-(4)]USERUSER    (1) Final Intermolecular Energy     = -11.94 kcal/molUSER        vdW + Hbond + desolv Energy     = -11.89 kcal/molUSER        Electrostatic Energy            =  -0.05 kcal/molUSER        Moving Ligand-Fixed Receptor    = -11.94 kcal/molUSER        Moving Ligand-Moving Receptor   =  +0.00 kcal/molUSER    (2) Final Total Internal Energy     =  -1.14 kcal/molUSER    (3) Torsional Free Energy           =  +1.49 kcal/molUSER    (4) Unbound System's Energy         =  -1.14 kcal/molUSERUSERREMARK SMILES Cc1cncc(-c2ccc(-c3nc(CN4CCOCC4)c(C#N)[nH]c3=O)cc2)c1REMARK SMILES IDX 7 1 8 2 9 3 10 4 27 5 28 6 6 7 2 8 3 9 29 10 4 11 5 12 1 13REMARK SMILES IDX 11 14 12 15 25 16 13 17 24 18 21 19 26 20 14 22 15 23 16 24REMARK SMILES IDX 20 25 17 26 19 27 18 28 22 29 23 30REMARK H PARENT 24 21USER                              x       y       z     vdW  Elec       q    TypeUSER                           _______ _______ _______ _____ _____    ______ ____ROOTATOM      1  C   UNL     1      37.818  44.038  20.495 -0.35 +0.00    -0.017 A  ATOM      2  C   UNL     1      39.016  44.742  20.692 -0.35 +0.00    +0.009 A  ATOM      3  C   UNL     1      39.519  45.601  19.709 -0.37 -0.00    +0.011 A  ATOM      4  C   UNL     1      38.838  45.772  18.497 -0.39 -0.00    +0.006 A  ATOM      5  C   UNL     1      37.636  45.091  18.295 -0.36 -0.00    +0.011 A  ATOM      6  C   UNL     1      37.137  44.230  19.282 -0.36 -0.00    +0.009 A  ENDROOTBRANCH   1   7ATOM      7  C   UNL     1      37.290  43.134  21.528 -0.41 +0.00    +0.000 A  ATOM      8  C   UNL     1      36.867  42.562  23.856 -0.39 -0.00    -0.032 A  ATOM      9  C   UNL     1      36.264  41.394  23.405 -0.24 -0.00    +0.114 A  ATOM     10  C   UNL     1      37.372  43.441  22.893 -0.37 +0.00    +0.015 A  ATOM     11  N   UNL     1      36.160  41.051  22.104 -0.37 -0.01    -0.264 NA ATOM     12  C   UNL     1      36.677  41.923  21.205 -0.43 +0.00    +0.119 A  ATOM     13  C   UNL     1      36.911  42.896  25.313 -0.41 -0.00    +0.046 C  ENDBRANCH   1   7BRANCH   4  14ATOM     14  C   UNL     1      39.409  46.712  17.489 -0.34 -0.03    +0.136 A  ATOM     15  N   UNL     1      38.606  47.257  16.615 -0.25 +0.10    -0.243 NA ATOM     16  C   UNL     1      40.911  47.037  17.494 -0.29 -0.03    +0.275 A  ATOM     17  C   UNL     1      39.120  48.137  15.674 -0.44 -0.04    +0.090 A  ATOM     18  N   UNL     1      41.314  47.878  16.488 -0.19 +0.03    -0.310 N  ATOM     19  C   UNL     1      40.435  48.433  15.590 -0.46 -0.03    +0.143 A  ATOM     20  O   UNL     1      41.687  46.600  18.326 -0.39 +0.00    -0.267 OA ATOM     21  H   UNL     1      42.299  48.114  16.464 -0.39 +0.01    +0.171 HD BRANCH  17  22ATOM     22  C   UNL     1      38.071  48.709  14.714 -0.42 -0.09    +0.144 C  BRANCH  22  23ATOM     23  N   UNL     1      37.923  47.931  13.472 -0.61 +0.09    -0.293 NA ATOM     24  C   UNL     1      38.286  46.506  13.618 -0.33 -0.03    +0.113 C  ATOM     25  C   UNL     1      36.552  48.069  12.935 -0.60 -0.05    +0.113 C  ATOM     26  C   UNL     1      37.071  45.577  13.772 -0.38 -0.07    +0.175 C  ATOM     27  C   UNL     1      36.187  46.914  11.993 -0.61 -0.09    +0.175 C  ATOM     28  O   UNL     1      36.163  45.646  12.664 -0.30 +0.17    -0.379 OA ENDBRANCH  22  23ENDBRANCH  17  22BRANCH  19  29ATOM     29  C   UNL     1      40.969  49.327  14.615 -0.60 -0.03    +0.119 C  ATOM     30  N   UNL     1      41.413  50.056  13.828 -0.48 +0.06    -0.191 NA ENDBRANCH  19  29ENDBRANCH   4  14TORSDOF 5TERENDMDL