
     RDKit          3D

 49 51  0  0  0  0  0  0  0  0999 V2000
   -7.1863   -0.9254   -2.2433 C   0  0  0  0  0  0  0  0  0  0  0  0
   -5.9023   -1.0705   -1.6497 O   0  0  0  0  0  0  0  0  0  0  0  0
   -5.6680   -0.3906   -0.4847 C   0  0  0  0  0  0  0  0  0  0  0  0
   -6.5810    0.4457    0.1615 C   0  0  0  0  0  0  0  0  0  0  0  0
   -6.2301    1.0709    1.3610 C   0  0  0  0  0  0  0  0  0  0  0  0
   -4.9659    0.8713    1.9095 C   0  0  0  0  0  0  0  0  0  0  0  0
   -4.7155    1.4943    3.1031 O   0  0  0  0  0  0  0  0  0  0  0  0
   -4.0225    0.0700    1.2559 C   0  0  0  0  0  0  0  0  0  0  0  0
   -2.6793   -0.1031    1.8509 C   0  0  0  0  0  0  0  0  0  0  0  0
   -2.5771   -0.0246    3.0764 O   0  0  0  0  0  0  0  0  0  0  0  0
   -1.4546   -0.3096    1.0440 C   0  0  0  0  0  0  0  0  0  0  0  0
   -0.4558   -1.1492    1.5523 C   0  0  0  0  0  0  0  0  0  0  0  0
    0.7283   -1.3463    0.8368 C   0  0  0  0  0  0  0  0  0  0  0  0
    0.9334   -0.6940   -0.3878 C   0  0  0  0  0  0  0  0  0  0  0  0
    2.2154   -0.8815   -1.1653 C   0  0  0  0  0  0  0  0  0  0  0  0
    3.1738    0.2180   -0.9832 N   0  0  0  0  0  0  0  0  0  0  0  0
    3.6893    0.2842    0.4022 C   0  0  0  0  0  0  0  0  0  0  0  0
    5.0668    0.9741    0.4946 C   0  0  0  0  0  0  0  0  0  0  0  0
    6.1207    0.2111   -0.2064 N   0  0  0  0  0  0  0  0  0  0  0  0
    7.2534    1.0779   -0.5195 C   0  0  0  0  0  0  0  0  0  0  0  0
    5.5906   -0.4603   -1.4097 C   0  0  0  0  0  0  0  0  0  0  0  0
    4.2799    0.1454   -1.9607 C   0  0  0  0  0  0  0  0  0  0  0  0
   -0.0686    0.1562   -0.8681 C   0  0  0  0  0  0  0  0  0  0  0  0
    0.0951    0.7934   -2.0366 F   0  0  0  0  0  0  0  0  0  0  0  0
   -1.2527    0.3598   -0.1645 C   0  0  0  0  0  0  0  0  0  0  0  0
   -4.3954   -0.5760    0.0759 C   0  0  0  0  0  0  0  0  0  0  0  0
   -3.5397   -1.4135   -0.5328 F   0  0  0  0  0  0  0  0  0  0  0  0
   -7.9730   -1.2950   -1.5774 H   0  0  0  0  0  0  0  0  0  0  0  0
   -7.3703    0.1138   -2.5353 H   0  0  0  0  0  0  0  0  0  0  0  0
   -7.2055   -1.5348   -3.1519 H   0  0  0  0  0  0  0  0  0  0  0  0
   -7.5768    0.6238   -0.2316 H   0  0  0  0  0  0  0  0  0  0  0  0
   -6.9469    1.7074    1.8752 H   0  0  0  0  0  0  0  0  0  0  0  0
   -3.8914    1.1069    3.4784 H   0  0  0  0  0  0  0  0  0  0  0  0
   -0.5969   -1.6509    2.5081 H   0  0  0  0  0  0  0  0  0  0  0  0
    1.4931   -2.0037    1.2449 H   0  0  0  0  0  0  0  0  0  0  0  0
    1.9330   -0.9593   -2.2242 H   0  0  0  0  0  0  0  0  0  0  0  0
    2.6721   -1.8481   -0.9127 H   0  0  0  0  0  0  0  0  0  0  0  0
    3.7853   -0.7199    0.8376 H   0  0  0  0  0  0  0  0  0  0  0  0
    2.9762    0.8415    1.0206 H   0  0  0  0  0  0  0  0  0  0  0  0
    5.3482    1.0732    1.5495 H   0  0  0  0  0  0  0  0  0  0  0  0
    4.9746    1.9910    0.0887 H   0  0  0  0  0  0  0  0  0  0  0  0
    6.9858    1.8685   -1.2297 H   0  0  0  0  0  0  0  0  0  0  0  0
    7.6425    1.5473    0.3910 H   0  0  0  0  0  0  0  0  0  0  0  0
    8.0762    0.4942   -0.9470 H   0  0  0  0  0  0  0  0  0  0  0  0
    5.3978   -1.5070   -1.1409 H   0  0  0  0  0  0  0  0  0  0  0  0
    6.3401   -0.4970   -2.2103 H   0  0  0  0  0  0  0  0  0  0  0  0
    4.4891    1.1708   -2.2931 H   0  0  0  0  0  0  0  0  0  0  0  0
    3.9822   -0.3954   -2.8676 H   0  0  0  0  0  0  0  0  0  0  0  0
   -1.9873    1.0446   -0.5741 H   0  0  0  0  0  0  0  0  0  0  0  0
  1  2  1  0
  2  3  1  0
  3  4  2  0
  4  5  1  0
  5  6  2  0
  6  7  1  0
  6  8  1  0
  8  9  1  0
  9 10  2  0
  9 11  1  0
 11 12  2  0
 12 13  1  0
 13 14  2  0
 14 15  1  0
 15 16  1  0
 16 17  1  0
 17 18  1  0
 18 19  1  0
 19 20  1  0
 19 21  1  0
 21 22  1  0
 14 23  1  0
 23 24  1  0
 23 25  2  0
  8 26  2  0
 26 27  1  0
 26  3  1  0
 25 11  1  0
 22 16  1  0
  1 28  1  0
  1 29  1  0
  1 30  1  0
  4 31  1  0
  5 32  1  0
  7 33  1  0
 12 34  1  0
 13 35  1  0
 15 36  1  0
 15 37  1  0
 17 38  1  0
 17 39  1  0
 18 40  1  0
 18 41  1  0
 20 42  1  0
 20 43  1  0
 20 44  1  0
 21 45  1  0
 21 46  1  0
 22 47  1  0
 22 48  1  0
 25 49  1  0
M  END
$$$$
