REMARK SMILES CN1CCN(c2nc(-c3ccc(CN4CCC(n5c(O)nc6ccccc65)CC4)cc3O)nc3ccc(F)cc23)CC1
REMARK SMILES IDX 13 1 12 2 9 3 10 4 31 5 11 6 30 7 8 8 6 9 7 10 40 11 39 12
REMARK SMILES IDX 34 13 33 14 37 15 35 16 36 17 38 18 5 19 2 20 3 21 42 22
REMARK SMILES IDX 4 23 41 24 1 25 32 26 14 28 15 29 29 30 16 31 28 32 17 33
REMARK SMILES IDX 18 34 19 35 27 36 21 37 26 38 22 39 25 40 23 41 24 42 20 43
REMARK H PARENT 32 27 20 44
ROOT
ATOM      1  C   UNL     1       2.377   0.143   2.543  1.00  0.00     0.120 C 
ENDROOT
BRANCH   1   2
ATOM      2  C   UNL     1       0.981   0.480   2.067  1.00  0.00    -0.030 A 
ATOM      3  C   UNL     1      -1.648   1.134   1.159  1.00  0.00     0.061 A 
ATOM      4  C   UNL     1      -1.267  -0.195   1.442  1.00  0.00     0.016 A 
ATOM      5  C   UNL     1      -0.660   2.121   1.349  1.00  0.00     0.126 A 
ATOM      6  C   UNL     1       0.020  -0.520   1.889  1.00  0.00     0.006 A 
ATOM      7  C   UNL     1       0.629   1.804   1.787  1.00  0.00     0.052 A 
BRANCH   3   8
ATOM      8  C   UNL     1      -3.017   1.437   0.690  1.00  0.00     0.165 A 
ATOM      9  C   UNL     1      -5.087   0.685   0.015  1.00  0.00     0.140 A 
ATOM     10  N   UNL     1      -3.845   0.408   0.450  1.00  0.00    -0.210 NA
ATOM     11  C   UNL     1      -5.534   2.007  -0.150  1.00  0.00     0.046 A 
ATOM     12  C   UNL     1      -6.844   2.373  -0.546  1.00  0.00     0.053 A 
ATOM     13  C   UNL     1      -4.591   3.006   0.123  1.00  0.00     0.077 A 
ATOM     14  N   UNL     1      -3.347   2.734   0.528  1.00  0.00    -0.228 NA
ATOM     15  C   UNL     1      -7.185   3.710  -0.686  1.00  0.00     0.124 A 
ATOM     16  C   UNL     1      -4.964   4.338  -0.030  1.00  0.00     0.032 A 
ATOM     17  C   UNL     1      -6.252   4.700  -0.435  1.00  0.00     0.041 A 
ATOM     18  F   UNL     1      -8.425   4.044  -1.064  1.00  0.00    -0.207 F 
BRANCH   9  19
ATOM     19  N   UNL     1      -5.955  -0.392  -0.300  1.00  0.00    -0.353 N 
ATOM     20  N   UNL     1      -6.645  -3.053  -1.322  1.00  0.00    -0.303 NA
ATOM     21  C   UNL     1      -6.880  -1.821  -2.107  1.00  0.00     0.105 C 
ATOM     22  C   UNL     1      -6.665  -2.729   0.123  1.00  0.00     0.105 C 
ATOM     23  C   UNL     1      -5.886  -0.689  -1.753  1.00  0.00     0.133 C 
ATOM     24  C   UNL     1      -5.660  -1.611   0.490  1.00  0.00     0.133 C 
ATOM     25  C   UNL     1      -7.648  -4.067  -1.638  1.00  0.00     0.105 C 
ENDBRANCH   9  19
ENDBRANCH   3   8
BRANCH   5  26
ATOM     26  O   UNL     1      -0.884   3.456   1.118  1.00  0.00    -0.507 OA
ATOM     27  H   UNL     1      -1.824   3.550   0.853  1.00  0.00     0.293 HD
ENDBRANCH   5  26
ENDBRANCH   1   2
BRANCH   1  28
ATOM     28  N   UNL     1       3.405   0.350   1.512  1.00  0.00    -0.299 NA
ATOM     29  C   UNL     1       3.228  -0.552   0.362  1.00  0.00     0.087 C 
ATOM     30  C   UNL     1       4.752   0.279   2.071  1.00  0.00     0.087 C 
ATOM     31  C   UNL     1       4.520  -0.831  -0.413  1.00  0.00     0.041 C 
ATOM     32  C   UNL     1       5.761   0.829   1.059  1.00  0.00     0.041 C 
ATOM     33  C   UNL     1       5.452   0.382  -0.381  1.00  0.00     0.095 C 
BRANCH  33  34
ATOM     34  N   UNL     1       6.651   0.183  -1.183  1.00  0.00    -0.291 N 
ATOM     35  C   UNL     1       6.966   0.885  -2.314  1.00  0.00     0.295 A 
ATOM     36  C   UNL     1       7.664  -0.735  -0.989  1.00  0.00     0.072 A 
ATOM     37  N   UNL     1       8.087   0.508  -2.864  1.00  0.00    -0.195 NA
ATOM     38  C   UNL     1       7.910  -1.720  -0.022  1.00  0.00     0.029 A 
ATOM     39  C   UNL     1       8.540  -0.503  -2.053  1.00  0.00     0.092 A 
ATOM     40  C   UNL     1       9.079  -2.478  -0.158  1.00  0.00     0.002 A 
ATOM     41  C   UNL     1       9.706  -1.275  -2.171  1.00  0.00     0.031 A 
ATOM     42  C   UNL     1       9.965  -2.262  -1.213  1.00  0.00     0.002 A 
BRANCH  35  43
ATOM     43  O   UNL     1       6.232   1.850  -2.830  1.00  0.00    -0.480 OA
ATOM     44  H   UNL     1       6.764   2.099  -3.608  1.00  0.00     0.296 HD
ENDBRANCH  35  43
ENDBRANCH  33  34
ENDBRANCH   1  28
TORSDOF 7
