MODEL        8USER    Run = 8USERUSER    Estimated Free Energy of Binding    = -11.69 kcal/mol  [=(1)+(2)+(3)-(4)]USERUSER    (1) Final Intermolecular Energy     = -13.78 kcal/molUSER        vdW + Hbond + desolv Energy     = -13.32 kcal/molUSER        Electrostatic Energy            =  -0.46 kcal/molUSER        Moving Ligand-Fixed Receptor    = -13.78 kcal/molUSER        Moving Ligand-Moving Receptor   =  +0.00 kcal/molUSER    (2) Final Total Internal Energy     =  -1.28 kcal/molUSER    (3) Torsional Free Energy           =  +2.09 kcal/molUSER    (4) Unbound System's Energy         =  -1.28 kcal/molUSERUSERREMARK SMILES Oc1cc(CN2CCC(n3c(O)nc4cc(F)ccc43)CC2)ccc1-c1nc(N2CCOCC2)c2cc(F)ccc2n1REMARK SMILES IDX 6 1 7 2 8 3 9 4 21 5 22 6 5 7 4 8 2 9 3 10 25 11 24 12 23 13REMARK SMILES IDX 1 14 26 16 27 17 42 18 28 19 41 20 35 21 40 22 36 23 39 24REMARK SMILES IDX 37 25 38 26 29 27 30 28 34 29 31 30 33 31 32 32 10 33 11 34REMARK SMILES IDX 20 35 13 36 19 37 14 38 18 39 15 40 16 41 17 42 12 43REMARK H PARENT 1 15 12 44USER                              x       y       z     vdW  Elec       q    TypeUSER                           _______ _______ _______ _____ _____    ______ ____ROOTATOM      1  N   UNL     1      26.681  43.924  17.189 -0.14 +0.03    -0.299 NA ATOM      2  C   UNL     1      27.371  43.546  18.436 -0.16 -0.01    +0.087 C  ATOM      3  C   UNL     1      26.482  43.705  19.670 -0.36 -0.01    +0.041 C  ATOM      4  C   UNL     1      25.191  42.874  19.562 -0.41 -0.03    +0.095 C  ATOM      5  C   UNL     1      24.917  42.399  18.130 -0.25 -0.00    +0.041 C  ATOM      6  C   UNL     1      25.272  43.504  17.138 -0.36 -0.00    +0.087 C  ENDROOTBRANCH   1   7ATOM      7  C   UNL     1      27.413  43.442  16.001 -0.22 -0.05    +0.120 C  BRANCH   7   8ATOM      8  C   UNL     1      28.881  43.809  15.993 -0.25 +0.02    -0.030 A  ATOM      9  C   UNL     1      30.640  45.464  15.739 -0.31 -0.04    +0.126 A  ATOM     10  C   UNL     1      29.283  45.129  15.761 -0.26 -0.02    +0.052 A  ATOM     11  C   UNL     1      31.651  44.507  15.958 -0.31 -0.03    +0.061 A  ATOM     12  C   UNL     1      31.221  43.183  16.190 -0.32 -0.01    +0.016 A  ATOM     13  C   UNL     1      29.864  42.838  16.204 -0.29 -0.00    +0.006 A  BRANCH   9  14ATOM     14  O   UNL     1      30.907  46.788  15.492 -0.58 +0.21    -0.507 OA ATOM     15  H   UNL     1      31.879  46.892  15.492 -0.35 -0.44    +0.293 HD ENDBRANCH   9  14BRANCH  11  16ATOM     16  C   UNL     1      33.092  44.838  15.960 -0.22 -0.11    +0.165 A  ATOM     17  N   UNL     1      33.559  45.625  14.976 -0.21 +0.20    -0.210 NA ATOM     18  N   UNL     1      33.852  44.309  16.941 -0.15 +0.11    -0.228 NA ATOM     19  C   UNL     1      34.877  45.893  14.966 -0.25 -0.12    +0.140 A  ATOM     20  C   UNL     1      35.158  44.591  16.930 -0.26 -0.04    +0.077 A  ATOM     21  C   UNL     1      35.749  45.393  15.946 -0.31 -0.03    +0.046 A  ATOM     22  C   UNL     1      35.965  44.069  17.937 -0.30 -0.01    +0.032 A  ATOM     23  C   UNL     1      37.138  45.660  15.998 -0.32 -0.02    +0.053 A  ATOM     24  C   UNL     1      37.338  44.328  17.989 -0.30 -0.01    +0.041 A  ATOM     25  C   UNL     1      37.914  45.126  17.016 -0.28 -0.03    +0.124 A  ATOM     26  F   UNL     1      39.227  45.385  17.059 -0.07 +0.03    -0.207 F  BRANCH  19  27ATOM     27  N   UNL     1      35.394  46.689  13.911 -0.21 +0.28    -0.351 N  ATOM     28  C   UNL     1      36.224  47.778  14.490 -0.11 -0.13    +0.146 C  ATOM     29  C   UNL     1      36.126  45.886  12.900 -0.48 -0.07    +0.146 C  ATOM     30  C   UNL     1      37.229  48.294  13.448 -0.44 -0.07    +0.181 C  ATOM     31  C   UNL     1      37.647  45.956  13.100 -0.31 -0.05    +0.181 C  ATOM     32  O   UNL     1      38.167  47.293  13.021 -0.57 +0.07    -0.378 OA ENDBRANCH  19  27ENDBRANCH  11  16ENDBRANCH   7   8ENDBRANCH   1   7BRANCH   4  33ATOM     33  N   UNL     1      25.121  41.779  20.524 -0.24 +0.07    -0.291 N  ATOM     34  C   UNL     1      24.312  41.705  21.622 -0.35 -0.06    +0.295 A  ATOM     35  C   UNL     1      25.879  40.624  20.506 -0.30 -0.01    +0.072 A  ATOM     36  N   UNL     1      24.473  40.609  22.310 -0.76 +0.04    -0.195 NA ATOM     37  C   UNL     1      26.873  40.133  19.647 -0.21 -0.00    +0.032 A  ATOM     38  C   UNL     1      25.443  39.915  21.630 -0.34 -0.03    +0.095 A  ATOM     39  C   UNL     1      27.422  38.884  19.960 -0.24 -0.00    +0.041 A  ATOM     40  C   UNL     1      26.004  38.666  21.927 -0.29 -0.04    +0.070 A  ATOM     41  C   UNL     1      26.992  38.174  21.076 -0.22 -0.05    +0.125 A  ATOM     42  F   UNL     1      27.542  36.980  21.338 -0.05 +0.08    -0.207 F  BRANCH  34  43ATOM     43  O   UNL     1      23.450  42.631  21.986 -0.70 +0.10    -0.480 OA ATOM     44  H   UNL     1      23.626  43.328  21.328 -0.30 -0.15    +0.296 HD ENDBRANCH  34  43ENDBRANCH   4  33TORSDOF 7TERENDMDL