MODEL        5USER    Run = 5USERUSER    Estimated Free Energy of Binding    = -11.56 kcal/mol  [=(1)+(2)+(3)-(4)]USERUSER    (1) Final Intermolecular Energy     = -13.65 kcal/molUSER        vdW + Hbond + desolv Energy     = -13.61 kcal/molUSER        Electrostatic Energy            =  -0.04 kcal/molUSER        Moving Ligand-Fixed Receptor    = -13.65 kcal/molUSER        Moving Ligand-Moving Receptor   =  +0.00 kcal/molUSER    (2) Final Total Internal Energy     =  -1.74 kcal/molUSER    (3) Torsional Free Energy           =  +2.09 kcal/molUSER    (4) Unbound System's Energy         =  -1.74 kcal/molUSERUSERREMARK SMILES CN1CCN(c2nc(-c3ccc(CN4CCC(n5c(O)nc6ccccc65)CC4)cc3O)nc3ccc(F)cc23)CC1REMARK SMILES IDX 13 1 12 2 9 3 10 4 31 5 11 6 30 7 8 8 6 9 7 10 40 11 39 12REMARK SMILES IDX 34 13 33 14 37 15 35 16 36 17 38 18 5 19 2 20 3 21 42 22REMARK SMILES IDX 4 23 41 24 1 25 32 26 14 28 15 29 29 30 16 31 28 32 17 33REMARK SMILES IDX 18 34 19 35 27 36 21 37 26 38 22 39 25 40 23 41 24 42 20 43REMARK H PARENT 32 27 20 44USER                              x       y       z     vdW  Elec       q    TypeUSER                           _______ _______ _______ _____ _____    ______ ____ROOTATOM      1  C   UNL     1      43.638  46.676  21.627 -0.30 +0.05    +0.120 C  ENDROOTBRANCH   1   2ATOM      2  C   UNL     1      42.568  46.612  20.559 -0.38 -0.01    -0.030 A  ATOM      3  C   UNL     1      40.562  46.498  18.528 -0.43 -0.00    +0.061 A  ATOM      4  C   UNL     1      40.504  45.682  19.678 -0.40 +0.00    +0.016 A  ATOM      5  C   UNL     1      41.664  47.372  18.436 -0.43 -0.00    +0.126 A  ATOM      6  C   UNL     1      41.485  45.736  20.677 -0.35 +0.00    +0.006 A  ATOM      7  C   UNL     1      42.651  47.425  19.425 -0.45 +0.01    +0.052 A  BRANCH   3   8ATOM      8  C   UNL     1      39.507  46.413  17.496 -0.34 -0.03    +0.165 A  ATOM      9  C   UNL     1      37.467  45.585  16.817 -0.27 -0.05    +0.140 A  ATOM     10  N   UNL     1      38.422  45.668  17.761 -0.26 +0.05    -0.210 NA ATOM     11  C   UNL     1      37.567  46.282  15.602 -0.35 -0.02    +0.046 A  ATOM     12  C   UNL     1      36.575  46.288  14.590 -0.37 -0.03    +0.053 A  ATOM     13  C   UNL     1      38.740  47.026  15.423 -0.39 -0.03    +0.077 A  ATOM     14  N   UNL     1      39.704  47.089  16.346 -0.30 +0.05    -0.228 NA ATOM     15  C   UNL     1      36.773  47.006  13.420 -0.46 -0.06    +0.124 A  ATOM     16  C   UNL     1      38.909  47.733  14.236 -0.46 -0.01    +0.032 A  ATOM     17  C   UNL     1      37.938  47.728  13.231 -0.39 -0.01    +0.041 A  ATOM     18  F   UNL     1      35.830  47.002  12.470 -0.21 +0.12    -0.207 F  BRANCH   9  19ATOM     19  N   UNL     1      36.342  44.754  17.058 -0.09 +0.13    -0.353 N  ATOM     20  N   UNL     1      34.963  42.297  17.870 -0.23 +0.09    -0.303 NA ATOM     21  C   UNL     1      35.180  42.647  16.449 -0.43 -0.04    +0.105 C  ATOM     22  C   UNL     1      34.923  43.534  18.683 -0.34 -0.02    +0.105 C  ATOM     23  C   UNL     1      36.438  43.522  16.235 -0.37 -0.04    +0.133 C  ATOM     24  C   UNL     1      36.186  44.407  18.490 -0.31 -0.03    +0.133 C  ATOM     25  C   UNL     1      33.730  41.531  18.033 -0.37 -0.03    +0.105 C  ENDBRANCH   9  19ENDBRANCH   3   8BRANCH   5  26ATOM     26  O   UNL     1      41.853  48.226  17.378 -0.49 -0.00    -0.507 OA ATOM     27  H   UNL     1      41.775  47.693  16.558 -0.27 -0.04    +0.293 HD ENDBRANCH   5  26ENDBRANCH   1   2BRANCH   1  28ATOM     28  N   UNL     1      43.133  47.152  22.923 -0.13 -0.06    -0.299 NA ATOM     29  C   UNL     1      42.236  46.175  23.562 -0.15 +0.01    +0.087 C  ATOM     30  C   UNL     1      42.524  48.474  22.813 -0.25 +0.02    +0.087 C  ATOM     31  C   UNL     1      41.234  46.798  24.539 -0.18 +0.00    +0.041 C  ATOM     32  C   UNL     1      42.326  49.070  24.209 -0.41 +0.01    +0.041 C  ATOM     33  C   UNL     1      41.830  48.028  25.227 -0.23 +0.01    +0.095 C  BRANCH  33  34ATOM     34  N   UNL     1      40.936  48.593  26.228 -0.14 -0.03    -0.291 N  ATOM     35  C   UNL     1      41.324  49.066  27.452 -0.14 +0.03    +0.295 A  ATOM     36  C   UNL     1      39.565  48.739  26.161 -0.22 +0.01    +0.072 A  ATOM     37  N   UNL     1      40.333  49.506  28.177 -0.20 -0.03    -0.195 NA ATOM     38  C   UNL     1      38.603  48.444  25.185 -0.35 +0.00    +0.029 A  ATOM     39  C   UNL     1      39.224  49.311  27.390 -0.21 +0.01    +0.092 A  ATOM     40  C   UNL     1      37.269  48.743  25.484 -0.45 +0.00    +0.002 A  ATOM     41  C   UNL     1      37.880  49.602  27.670 -0.22 +0.00    +0.031 A  ATOM     42  C   UNL     1      36.909  49.313  26.704 -0.36 +0.00    +0.002 A  BRANCH  35  43ATOM     43  O   UNL     1      42.566  49.088  27.891 -0.07 -0.01    -0.480 OA ATOM     44  H   UNL     1      42.766  50.041  27.851 -0.47 -0.05    +0.296 HD ENDBRANCH  35  43ENDBRANCH  33  34ENDBRANCH   1  28TORSDOF 7TERENDMDL