MODEL        5USER    Run = 5USERUSER    Estimated Free Energy of Binding    = -11.59 kcal/mol  [=(1)+(2)+(3)-(4)]USERUSER    (1) Final Intermolecular Energy     = -13.68 kcal/molUSER        vdW + Hbond + desolv Energy     = -13.36 kcal/molUSER        Electrostatic Energy            =  -0.32 kcal/molUSER        Moving Ligand-Fixed Receptor    = -13.68 kcal/molUSER        Moving Ligand-Moving Receptor   =  +0.00 kcal/molUSER    (2) Final Total Internal Energy     =  -1.31 kcal/molUSER    (3) Torsional Free Energy           =  +2.09 kcal/molUSER    (4) Unbound System's Energy         =  -1.31 kcal/molUSERUSERREMARK SMILES Oc1cc(CN2CCC(n3c(O)nc4ccccc43)CC2)ccc1-c1nc(N2CCOCC2)c2cc(F)ccc2n1REMARK SMILES IDX 6 1 7 2 8 3 9 4 20 5 21 6 5 7 4 8 2 9 3 10 24 11 23 12 22 13REMARK SMILES IDX 1 14 25 16 26 17 41 18 27 19 40 20 34 21 39 22 35 23 38 24REMARK SMILES IDX 36 25 37 26 28 27 29 28 33 29 30 30 32 31 31 32 10 33 11 34REMARK SMILES IDX 19 35 13 36 18 37 14 38 17 39 15 40 16 41 12 42REMARK H PARENT 1 15 12 43USER                              x       y       z     vdW  Elec       q    TypeUSER                           _______ _______ _______ _____ _____    ______ ____ROOTATOM      1  N   UNL     1      36.181  46.050  14.339 -0.19 +0.18    -0.299 NA ATOM      2  C   UNL     1      36.707  45.938  15.704 -0.36 -0.05    +0.087 C  ATOM      3  C   UNL     1      38.180  45.536  15.705 -0.38 -0.01    +0.041 C  ATOM      4  C   UNL     1      39.049  46.537  14.925 -0.43 -0.02    +0.095 C  ATOM      5  C   UNL     1      38.212  47.515  14.091 -0.54 -0.01    +0.041 C  ATOM      6  C   UNL     1      37.050  46.790  13.414 -0.53 -0.04    +0.087 C  ENDROOTBRANCH   1   7ATOM      7  C   UNL     1      34.805  46.569  14.365 -0.15 -0.12    +0.120 C  BRANCH   7   8ATOM      8  C   UNL     1      33.791  45.564  14.872 -0.16 +0.03    -0.030 A  ATOM      9  C   UNL     1      33.268  43.521  16.083 -0.25 -0.06    +0.126 A  ATOM     10  C   UNL     1      34.205  44.425  15.574 -0.18 -0.03    +0.052 A  ATOM     11  C   UNL     1      31.882  43.713  15.916 -0.30 -0.03    +0.061 A  ATOM     12  C   UNL     1      31.490  44.862  15.199 -0.39 -0.01    +0.016 A  ATOM     13  C   UNL     1      32.424  45.774  14.688 -0.35 -0.01    +0.006 A  BRANCH   9  14ATOM     14  O   UNL     1      33.798  42.447  16.754 -0.11 +0.24    -0.507 OA ATOM     15  H   UNL     1      33.381  41.638  16.384 -0.36 -0.23    +0.293 HD ENDBRANCH   9  14BRANCH  11  16ATOM     16  C   UNL     1      30.865  42.786  16.458 -0.21 -0.06    +0.165 A  ATOM     17  N   UNL     1      29.592  43.209  16.504 -0.16 +0.07    -0.210 NA ATOM     18  N   UNL     1      31.280  41.577  16.883 -0.18 +0.09    -0.228 NA ATOM     19  C   UNL     1      28.662  42.383  17.012 -0.14 -0.03    +0.140 A  ATOM     20  C   UNL     1      30.361  40.764  17.413 -0.28 -0.01    +0.077 A  ATOM     21  C   UNL     1      29.007  41.115  17.520 -0.21 -0.00    +0.046 A  ATOM     22  C   UNL     1      30.772  39.523  17.888 -0.35 +0.00    +0.032 A  ATOM     23  C   UNL     1      28.104  40.214  18.139 -0.20 +0.00    +0.053 A  ATOM     24  C   UNL     1      29.878  38.628  18.480 -0.35 +0.01    +0.041 A  ATOM     25  C   UNL     1      28.546  38.985  18.604 -0.21 +0.03    +0.124 A  ATOM     26  F   UNL     1      27.682  38.138  19.179 -0.05 -0.03    -0.207 F  BRANCH  19  27ATOM     27  N   UNL     1      27.321  42.820  17.030 -0.04 +0.07    -0.351 N  ATOM     28  C   UNL     1      26.802  43.181  15.687 -0.21 -0.07    +0.146 C  ATOM     29  C   UNL     1      27.035  43.843  18.063 -0.23 -0.01    +0.146 C  ATOM     30  C   UNL     1      26.481  44.682  15.590 -0.20 -0.04    +0.181 C  ATOM     31  C   UNL     1      25.640  44.438  17.823 -0.38 -0.00    +0.181 C  ATOM     32  O   UNL     1      25.524  45.125  16.565 -0.68 -0.09    -0.378 OA ENDBRANCH  19  27ENDBRANCH  11  16ENDBRANCH   7   8ENDBRANCH   1   7BRANCH   4  33ATOM     33  N   UNL     1      40.016  47.240  15.765 -0.26 +0.06    -0.291 N  ATOM     34  C   UNL     1      40.574  48.463  15.520 -0.33 -0.06    +0.295 A  ATOM     35  C   UNL     1      40.545  46.791  16.958 -0.44 -0.01    +0.072 A  ATOM     36  N   UNL     1      41.422  48.842  16.437 -0.98 -0.00    -0.195 NA ATOM     37  C   UNL     1      40.364  45.629  17.721 -0.42 -0.00    +0.029 A  ATOM     38  C   UNL     1      41.420  47.812  17.346 -0.39 -0.01    +0.092 A  ATOM     39  C   UNL     1      41.107  45.516  18.903 -0.46 +0.00    +0.002 A  ATOM     40  C   UNL     1      42.152  47.680  18.535 -0.48 -0.00    +0.031 A  ATOM     41  C   UNL     1      41.990  46.522  19.303 -0.48 +0.00    +0.002 A  BRANCH  34  42ATOM     42  O   UNL     1      40.323  49.205  14.459 -0.22 +0.17    -0.480 OA ATOM     43  H   UNL     1      39.580  49.747  14.780 -0.10 -0.23    +0.296 HD ENDBRANCH  34  42ENDBRANCH   4  33TORSDOF 7TERENDMDL