REMARK SMILES CN(C)CCNc1nc(-c2ccc(CN3CCC(n4c(O)nc5ccccc54)CC3)cc2O)nc2ccc(F)cc12
REMARK SMILES IDX 7 1 8 2 9 3 34 4 35 5 36 6 37 7 38 8 39 9 40 10 41 11 6 12
REMARK SMILES IDX 5 14 4 15 2 16 1 17 3 18 10 19 11 20 32 21 12 22 31 23 13 24
REMARK SMILES IDX 33 25 14 27 15 28 16 29 30 30 17 31 29 32 18 33 19 34 20 35
REMARK SMILES IDX 28 36 22 37 27 38 23 39 26 40 24 41 25 42 21 43
REMARK H PARENT 6 13 33 26 21 44
ROOT
ATOM      1  C   UNL     1      -4.830   0.981   0.184  1.00  0.00     0.138 A 
ATOM      2  N   UNL     1      -3.592   0.674   0.597  1.00  0.00    -0.210 NA
ATOM      3  C   UNL     1      -2.712   0.287  -0.342  1.00  0.00     0.165 A 
ATOM      4  N   UNL     1      -2.986   0.202  -1.661  1.00  0.00    -0.228 NA
ATOM      5  C   UNL     1      -4.209   0.568  -2.059  1.00  0.00     0.077 A 
ATOM      6  C   UNL     1      -4.507   0.540  -3.418  1.00  0.00     0.032 A 
ATOM      7  C   UNL     1      -5.759   0.923  -3.906  1.00  0.00     0.041 A 
ATOM      8  C   UNL     1      -6.731   1.349  -3.015  1.00  0.00     0.124 A 
ATOM      9  F   UNL     1      -7.929   1.731  -3.475  1.00  0.00    -0.207 F 
ATOM     10  C   UNL     1      -6.466   1.389  -1.655  1.00  0.00     0.053 A 
ATOM     11  C   UNL     1      -5.203   0.983  -1.165  1.00  0.00     0.046 A 
ENDROOT
BRANCH   1  12
ATOM     12  N   UNL     1      -5.745   1.294   1.215  1.00  0.00    -0.368 N 
ATOM     13  H   UNL     1      -5.121   1.659   1.938  1.00  0.00     0.162 HD
BRANCH  12  14
ATOM     14  C   UNL     1      -6.302   0.058   1.818  1.00  0.00     0.130 C 
BRANCH  14  15
ATOM     15  C   UNL     1      -7.462  -0.598   1.032  1.00  0.00     0.105 C 
BRANCH  15  16
ATOM     16  N   UNL     1      -8.644   0.251   0.772  1.00  0.00    -0.308 NA
ATOM     17  C   UNL     1      -9.584  -0.449  -0.107  1.00  0.00     0.105 C 
ATOM     18  C   UNL     1      -9.316   0.655   2.006  1.00  0.00     0.105 C 
ENDBRANCH  15  16
ENDBRANCH  14  15
ENDBRANCH  12  14
ENDBRANCH   1  12
BRANCH   3  19
ATOM     19  C   UNL     1      -1.360  -0.114   0.096  1.00  0.00     0.061 A 
ATOM     20  C   UNL     1      -0.901   0.210   1.390  1.00  0.00     0.016 A 
ATOM     21  C   UNL     1      -0.470  -0.837  -0.723  1.00  0.00     0.126 A 
ATOM     22  C   UNL     1       0.369  -0.170   1.839  1.00  0.00     0.006 A 
ATOM     23  C   UNL     1       0.794  -1.233  -0.276  1.00  0.00     0.052 A 
ATOM     24  C   UNL     1       1.227  -0.901   1.011  1.00  0.00    -0.030 A 
BRANCH  21  25
ATOM     25  O   UNL     1      -0.778  -1.213  -2.007  1.00  0.00    -0.507 OA
ATOM     26  H   UNL     1      -1.626  -0.781  -2.240  1.00  0.00     0.293 HD
ENDBRANCH  21  25
BRANCH  24  27
ATOM     27  C   UNL     1       2.593  -1.327   1.499  1.00  0.00     0.120 C 
BRANCH  27  28
ATOM     28  N   UNL     1       3.488  -0.200   1.818  1.00  0.00    -0.299 NA
ATOM     29  C   UNL     1       3.811   0.640   0.658  1.00  0.00     0.087 C 
ATOM     30  C   UNL     1       4.687  -0.655   2.542  1.00  0.00     0.087 C 
ATOM     31  C   UNL     1       4.746  -0.030  -0.351  1.00  0.00     0.041 C 
ATOM     32  C   UNL     1       6.015  -0.403   1.822  1.00  0.00     0.041 C 
ATOM     33  C   UNL     1       5.890  -0.787   0.344  1.00  0.00     0.095 C 
BRANCH  33  34
ATOM     34  N   UNL     1       7.157  -0.699  -0.366  1.00  0.00    -0.291 N 
ATOM     35  C   UNL     1       7.845  -1.767  -0.875  1.00  0.00     0.295 A 
ATOM     36  C   UNL     1       7.909   0.425  -0.634  1.00  0.00     0.072 A 
ATOM     37  N   UNL     1       8.966  -1.435  -1.451  1.00  0.00    -0.195 NA
ATOM     38  C   UNL     1       7.742   1.791  -0.366  1.00  0.00     0.029 A 
ATOM     39  C   UNL     1       9.026  -0.069  -1.312  1.00  0.00     0.092 A 
ATOM     40  C   UNL     1       8.747   2.662  -0.809  1.00  0.00     0.002 A 
ATOM     41  C   UNL     1      10.022   0.820  -1.747  1.00  0.00     0.031 A 
ATOM     42  C   UNL     1       9.869   2.187  -1.488  1.00  0.00     0.002 A 
BRANCH  35  43
ATOM     43  O   UNL     1       7.449  -3.022  -0.799  1.00  0.00    -0.480 OA
ATOM     44  H   UNL     1       8.179  -3.476  -1.258  1.00  0.00     0.296 HD
ENDBRANCH  35  43
ENDBRANCH  33  34
ENDBRANCH  27  28
ENDBRANCH  24  27
ENDBRANCH   3  19
TORSDOF 10
