REMARK SMILES Oc1cc(CN2CCC(n3c(O)nc4cc(F)ccc43)CC2)ccc1-c1nc(N2CCOCC2)c2cc(F)ccc2n1
REMARK SMILES IDX 6 1 7 2 8 3 9 4 21 5 22 6 5 7 4 8 2 9 3 10 25 11 24 12 23 13
REMARK SMILES IDX 1 14 26 16 27 17 42 18 28 19 41 20 35 21 40 22 36 23 39 24
REMARK SMILES IDX 37 25 38 26 29 27 30 28 34 29 31 30 33 31 32 32 10 33 11 34
REMARK SMILES IDX 20 35 13 36 19 37 14 38 18 39 15 40 16 41 17 42 12 43
REMARK H PARENT 1 15 12 44
ROOT
ATOM      1  N   UNL     1       2.449  -1.416   1.206  1.00  0.00    -0.299 NA
ATOM      2  C   UNL     1       2.798  -0.174   0.492  1.00  0.00     0.087 C 
ATOM      3  C   UNL     1       3.933   0.594   1.171  1.00  0.00     0.041 C 
ATOM      4  C   UNL     1       5.207  -0.259   1.305  1.00  0.00     0.095 C 
ATOM      5  C   UNL     1       4.938  -1.753   1.088  1.00  0.00     0.041 C 
ATOM      6  C   UNL     1       3.612  -2.143   1.737  1.00  0.00     0.087 C 
ENDROOT
BRANCH   1   7
ATOM      7  C   UNL     1       1.617  -2.302   0.369  1.00  0.00     0.120 C 
BRANCH   7   8
ATOM      8  C   UNL     1       0.305  -1.685  -0.064  1.00  0.00    -0.030 A 
ATOM      9  C   UNL     1      -1.127  -0.776  -1.803  1.00  0.00     0.126 A 
ATOM     10  C   UNL     1       0.080  -1.359  -1.406  1.00  0.00     0.052 A 
ATOM     11  C   UNL     1      -2.163  -0.504  -0.887  1.00  0.00     0.061 A 
ATOM     12  C   UNL     1      -1.913  -0.841   0.460  1.00  0.00     0.016 A 
ATOM     13  C   UNL     1      -0.703  -1.416   0.867  1.00  0.00     0.006 A 
BRANCH   9  14
ATOM     14  O   UNL     1      -1.222  -0.495  -3.143  1.00  0.00    -0.507 OA
ATOM     15  H   UNL     1      -2.062  -0.014  -3.279  1.00  0.00     0.293 HD
ENDBRANCH   9  14
BRANCH  11  16
ATOM     16  C   UNL     1      -3.456   0.094  -1.283  1.00  0.00     0.165 A 
ATOM     17  N   UNL     1      -4.424   0.174  -0.355  1.00  0.00    -0.210 NA
ATOM     18  N   UNL     1      -3.588   0.503  -2.562  1.00  0.00    -0.228 NA
ATOM     19  C   UNL     1      -5.608   0.688  -0.732  1.00  0.00     0.140 A 
ATOM     20  C   UNL     1      -4.764   1.024  -2.925  1.00  0.00     0.077 A 
ATOM     21  C   UNL     1      -5.842   1.145  -2.039  1.00  0.00     0.046 A 
ATOM     22  C   UNL     1      -4.925   1.465  -4.235  1.00  0.00     0.032 A 
ATOM     23  C   UNL     1      -7.058   1.715  -2.487  1.00  0.00     0.053 A 
ATOM     24  C   UNL     1      -6.126   2.025  -4.681  1.00  0.00     0.041 A 
ATOM     25  C   UNL     1      -7.185   2.147  -3.798  1.00  0.00     0.124 A 
ATOM     26  F   UNL     1      -8.339   2.686  -4.213  1.00  0.00    -0.207 F 
BRANCH  19  27
ATOM     27  N   UNL     1      -6.655   0.742   0.224  1.00  0.00    -0.351 N 
ATOM     28  C   UNL     1      -7.379  -0.556   0.221  1.00  0.00     0.146 C 
ATOM     29  C   UNL     1      -6.173   1.127   1.574  1.00  0.00     0.146 C 
ATOM     30  C   UNL     1      -8.107  -0.764   1.558  1.00  0.00     0.181 C 
ATOM     31  C   UNL     1      -6.001  -0.092   2.492  1.00  0.00     0.181 C 
ATOM     32  O   UNL     1      -7.217  -0.833   2.684  1.00  0.00    -0.378 OA
ENDBRANCH  19  27
ENDBRANCH  11  16
ENDBRANCH   7   8
ENDBRANCH   1   7
BRANCH   4  33
ATOM     33  N   UNL     1       6.317   0.220   0.489  1.00  0.00    -0.291 N 
ATOM     34  C   UNL     1       6.331   0.364  -0.870  1.00  0.00     0.295 A 
ATOM     35  C   UNL     1       7.566   0.598   0.944  1.00  0.00     0.072 A 
ATOM     36  N   UNL     1       7.469   0.804  -1.332  1.00  0.00    -0.195 NA
ATOM     37  C   UNL     1       8.152   0.661   2.217  1.00  0.00     0.032 A 
ATOM     38  C   UNL     1       8.255   0.962  -0.217  1.00  0.00     0.095 A 
ATOM     39  C   UNL     1       9.475   1.112   2.285  1.00  0.00     0.041 A 
ATOM     40  C   UNL     1       9.579   1.412  -0.129  1.00  0.00     0.070 A 
ATOM     41  C   UNL     1      10.165   1.477   1.133  1.00  0.00     0.125 A 
ATOM     42  F   UNL     1      11.430   1.906   1.242  1.00  0.00    -0.207 F 
BRANCH  34  43
ATOM     43  O   UNL     1       5.321   0.088  -1.667  1.00  0.00    -0.480 OA
ATOM     44  H   UNL     1       5.697   0.310  -2.539  1.00  0.00     0.296 HD
ENDBRANCH  34  43
ENDBRANCH   4  33
TORSDOF 7
