MODEL        1USER    Run = 1USERUSER    Estimated Free Energy of Binding    =  -9.61 kcal/mol  [=(1)+(2)+(3)-(4)]USERUSER    (1) Final Intermolecular Energy     = -12.59 kcal/molUSER        vdW + Hbond + desolv Energy     = -12.32 kcal/molUSER        Electrostatic Energy            =  -0.27 kcal/molUSER        Moving Ligand-Fixed Receptor    = -12.59 kcal/molUSER        Moving Ligand-Moving Receptor   =  +0.00 kcal/molUSER    (2) Final Total Internal Energy     =  -2.83 kcal/molUSER    (3) Torsional Free Energy           =  +2.98 kcal/molUSER    (4) Unbound System's Energy         =  -2.83 kcal/molUSERUSERREMARK SMILES CN(C)CCNc1nc(-c2ccc(CN3CCC(n4c(O)nc5ccccc54)CC3)cc2O)nc2ccc(F)cc12REMARK SMILES IDX 7 1 8 2 9 3 34 4 35 5 36 6 37 7 38 8 39 9 40 10 41 11 6 12REMARK SMILES IDX 5 14 4 15 2 16 1 17 3 18 10 19 11 20 32 21 12 22 31 23 13 24REMARK SMILES IDX 33 25 14 27 15 28 16 29 30 30 17 31 29 32 18 33 19 34 20 35REMARK SMILES IDX 28 36 22 37 27 38 23 39 26 40 24 41 25 42 21 43REMARK H PARENT 6 13 33 26 21 44USER                              x       y       z     vdW  Elec       q    TypeUSER                           _______ _______ _______ _____ _____    ______ ____ROOTATOM      1  C   UNL     1      40.465  47.207  17.297 -0.41 -0.02    +0.138 A  ATOM      2  N   UNL     1      39.270  46.702  16.959 -0.30 +0.05    -0.210 NA ATOM      3  C   UNL     1      38.775  45.725  17.738 -0.30 -0.03    +0.165 A  ATOM      4  N   UNL     1      39.390  45.235  18.835 -0.27 +0.02    -0.228 NA ATOM      5  C   UNL     1      40.553  45.791  19.188 -0.40 +0.00    +0.077 A  ATOM      6  C   UNL     1      41.187  45.342  20.343 -0.35 +0.00    +0.032 A  ATOM      7  C   UNL     1      42.397  45.889  20.780 -0.27 +0.01    +0.041 A  ATOM      8  C   UNL     1      42.981  46.911  20.048 -0.34 +0.04    +0.124 A  ATOM      9  F   UNL     1      44.133  47.450  20.467 -0.06 -0.11    -0.207 F  ATOM     10  C   UNL     1      42.375  47.381  18.894 -0.50 +0.00    +0.053 A  ATOM     11  C   UNL     1      41.160  46.812  18.446 -0.48 -0.00    +0.046 A  ENDROOTBRANCH   1  12ATOM     12  N   UNL     1      40.986  48.166  16.399 -0.26 +0.05    -0.368 N  ATOM     13  H   UNL     1      40.348  48.951  16.546 +0.11 -0.04    +0.162 HD BRANCH  12  14ATOM     14  C   UNL     1      40.735  47.763  14.994 -0.45 -0.01    +0.130 C  BRANCH  14  15ATOM     15  C   UNL     1      39.547  48.472  14.303 -0.45 -0.03    +0.105 C  BRANCH  15  16ATOM     16  N   UNL     1      38.210  47.879  14.519 -0.27 +0.14    -0.308 NA ATOM     17  C   UNL     1      37.355  48.817  15.251 -0.45 -0.10    +0.105 C  ATOM     18  C   UNL     1      37.569  47.489  13.265 -0.53 -0.03    +0.105 C  ENDBRANCH  15  16ENDBRANCH  14  15ENDBRANCH  12  14ENDBRANCH   1  12BRANCH   3  19ATOM     19  C   UNL     1      37.489  45.112  17.351 -0.32 -0.02    +0.061 A  ATOM     20  C   UNL     1      36.514  44.817  18.327 -0.33 -0.00    +0.016 A  ATOM     21  C   UNL     1      37.156  44.802  16.017 -0.26 -0.04    +0.126 A  ATOM     22  C   UNL     1      35.280  44.250  17.989 -0.31 -0.00    +0.006 A  ATOM     23  C   UNL     1      35.919  44.251  15.670 -0.34 -0.02    +0.052 A  ATOM     24  C   UNL     1      34.969  43.967  16.655 -0.32 +0.01    -0.030 A  BRANCH  21  25ATOM     25  O   UNL     1      38.010  45.027  14.965 -0.06 +0.15    -0.507 OA ATOM     26  H   UNL     1      38.460  45.880  15.134 +0.21 -0.09    +0.293 HD ENDBRANCH  21  25BRANCH  24  27ATOM     27  C   UNL     1      33.630  43.370  16.285 -0.32 -0.06    +0.120 C  BRANCH  27  28ATOM     28  N   UNL     1      32.486  44.258  16.562 -0.15 +0.13    -0.299 NA ATOM     29  C   UNL     1      31.605  43.766  17.629 -0.28 -0.02    +0.087 C  ATOM     30  C   UNL     1      31.754  44.592  15.329 -0.38 -0.05    +0.087 C  ATOM     31  C   UNL     1      30.771  42.547  17.230 -0.30 -0.01    +0.041 C  ATOM     32  C   UNL     1      30.296  44.126  15.293 -0.35 -0.03    +0.041 C  ATOM     33  C   UNL     1      30.194  42.688  15.811 -0.31 -0.05    +0.095 C  BRANCH  33  34ATOM     34  N   UNL     1      28.853  42.138  15.676 -0.13 +0.16    -0.291 N  ATOM     35  C   UNL     1      28.568  40.822  15.434 -0.18 -0.08    +0.295 A  ATOM     36  C   UNL     1      27.648  42.805  15.729 -0.19 -0.04    +0.072 A  ATOM     37  N   UNL     1      27.291  40.578  15.333 -0.42 +0.03    -0.195 NA ATOM     38  C   UNL     1      27.288  44.144  15.937 -0.26 -0.01    +0.029 A  ATOM     39  C   UNL     1      26.698  41.804  15.514 -0.24 -0.04    +0.092 A  ATOM     40  C   UNL     1      25.921  44.453  15.925 -0.34 -0.00    +0.002 A  ATOM     41  C   UNL     1      25.333  42.134  15.506 -0.31 -0.01    +0.031 A  ATOM     42  C   UNL     1      24.958  43.467  15.713 -0.34 -0.00    +0.002 A  BRANCH  35  43ATOM     43  O   UNL     1      29.469  39.869  15.300 -0.10 -0.01    -0.480 OA ATOM     44  H   UNL     1      30.273  40.395  15.137 -0.06 -0.10    +0.296 HD ENDBRANCH  35  43ENDBRANCH  33  34ENDBRANCH  27  28ENDBRANCH  24  27ENDBRANCH   3  19TORSDOF 10TERENDMDL