MODEL        2USER    Run = 2USERUSER    Estimated Free Energy of Binding    =  -9.11 kcal/mol  [=(1)+(2)+(3)-(4)]USERUSER    (1) Final Intermolecular Energy     = -10.31 kcal/molUSER        vdW + Hbond + desolv Energy     = -10.14 kcal/molUSER        Electrostatic Energy            =  -0.17 kcal/molUSER        Moving Ligand-Fixed Receptor    = -10.31 kcal/molUSER        Moving Ligand-Moving Receptor   =  +0.00 kcal/molUSER    (2) Final Total Internal Energy     =  -0.67 kcal/molUSER    (3) Torsional Free Energy           =  +1.19 kcal/molUSER    (4) Unbound System's Energy         =  -0.67 kcal/molUSERUSERREMARK SMILES COc1ccc(Nc2nc(N3CCN(C)CC3)nc3cc(F)ccc23)cc1REMARK SMILES IDX 7 1 6 3 3 4 4 5 27 6 5 7 26 8 2 9 1 10 8 11 9 12 25 13 10 14REMARK SMILES IDX 24 15 19 16 18 17 23 18 20 19 21 20 22 21 11 22 12 23 17 24REMARK SMILES IDX 13 25 16 26 14 27 15 28REMARK H PARENT 7 2USER                              x       y       z     vdW  Elec       q    TypeUSER                           _______ _______ _______ _____ _____    ______ ____ROOTATOM      1  N   UNL     1      38.274  44.268  19.412 -0.14 +0.02    -0.340 N  ATOM      2  H   UNL     1      38.751  44.283  20.307 +0.10 -0.00    +0.168 HD ENDROOTBRANCH   1   3ATOM      3  C   UNL     1      36.894  43.996  19.563 -0.35 -0.00    +0.040 A  ATOM      4  C   UNL     1      34.154  43.318  19.740 -0.32 -0.00    +0.119 A  ATOM      5  C   UNL     1      34.553  44.474  19.071 -0.36 -0.01    +0.048 A  ATOM      6  C   UNL     1      35.127  42.503  20.319 -0.38 +0.00    +0.048 A  ATOM      7  C   UNL     1      35.910  44.801  18.978 -0.31 -0.01    +0.030 A  ATOM      8  C   UNL     1      36.481  42.829  20.219 -0.40 -0.00    +0.030 A  BRANCH   4   9ATOM      9  O   UNL     1      32.871  42.872  19.890 -0.59 -0.07    -0.497 OA ATOM     10  C   UNL     1      32.337  42.078  18.832 -0.23 -0.02    +0.278 C  ENDBRANCH   4   9ENDBRANCH   1   3BRANCH   1  11ATOM     11  C   UNL     1      38.861  45.255  18.568 -0.31 -0.02    +0.143 A  ATOM     12  N   UNL     1      38.188  45.673  17.483 -0.26 +0.05    -0.195 NA ATOM     13  C   UNL     1      40.116  45.784  18.910 -0.42 -0.00    +0.043 A  ATOM     14  C   UNL     1      38.715  46.630  16.715 -0.26 -0.07    +0.227 A  ATOM     15  C   UNL     1      40.909  45.378  20.017 -0.39 +0.00    +0.017 A  ATOM     16  C   UNL     1      40.587  46.776  18.049 -0.44 -0.01    +0.081 A  ATOM     17  N   UNL     1      39.900  47.187  16.980 -0.33 +0.05    -0.213 NA ATOM     18  C   UNL     1      42.144  45.971  20.261 -0.32 +0.01    +0.040 A  ATOM     19  C   UNL     1      41.818  47.360  18.315 -0.49 -0.00    +0.068 A  ATOM     20  C   UNL     1      42.583  46.965  19.407 -0.42 +0.02    +0.125 A  ATOM     21  F   UNL     1      43.769  47.551  19.633 -0.15 -0.06    -0.207 F  BRANCH  14  22ATOM     22  N   UNL     1      38.019  47.040  15.597 -0.16 +0.16    -0.338 N  ATOM     23  C   UNL     1      37.446  46.025  14.709 -0.36 -0.06    +0.135 C  ATOM     24  C   UNL     1      38.376  48.332  15.011 -0.49 -0.07    +0.135 C  ATOM     25  C   UNL     1      37.671  46.392  13.221 -0.44 -0.03    +0.105 C  ATOM     26  C   UNL     1      37.353  48.717  13.916 -0.49 -0.06    +0.105 C  ATOM     27  N   UNL     1      37.215  47.736  12.812 -0.88 +0.08    -0.303 NA ATOM     28  C   UNL     1      35.837  47.712  12.328 -0.53 -0.06    +0.105 C  ENDBRANCH  14  22ENDBRANCH   1  11TORSDOF 4TERENDMDL