MODEL        8USER    Run = 8USERUSER    Estimated Free Energy of Binding    =  -9.55 kcal/mol  [=(1)+(2)+(3)-(4)]USERUSER    (1) Final Intermolecular Energy     = -10.45 kcal/molUSER        vdW + Hbond + desolv Energy     = -10.32 kcal/molUSER        Electrostatic Energy            =  -0.13 kcal/molUSER        Moving Ligand-Fixed Receptor    = -10.45 kcal/molUSER        Moving Ligand-Moving Receptor   =  +0.00 kcal/molUSER    (2) Final Total Internal Energy     =  -1.31 kcal/molUSER    (3) Torsional Free Energy           =  +0.89 kcal/molUSER    (4) Unbound System's Energy         =  -1.31 kcal/molUSERUSERREMARK SMILES CN1CCN(C(=O)c2c(-c3cc(F)ccc3N)cnc3[nH]c4ccccc4c23)CC1REMARK SMILES IDX 8 1 9 2 18 3 19 4 20 5 21 6 22 7 23 8 24 9 25 10 26 11 27 12REMARK SMILES IDX 28 13 6 15 2 16 3 17 30 18 4 19 29 20 5 21 1 22 7 23 10 24REMARK SMILES IDX 11 25 16 26 12 27 15 28 14 29 13 30 17 31REMARK H PARENT 21 14 17 32 17 33USER                              x       y       z     vdW  Elec       q    TypeUSER                           _______ _______ _______ _____ _____    ______ ____ROOTATOM      1  C   UNL     1      38.563  46.206  16.145 -0.36 -0.02    +0.061 A  ATOM      2  C   UNL     1      38.543  47.105  15.062 -0.44 -0.01    +0.016 A  ATOM      3  C   UNL     1      39.454  48.162  15.121 -0.44 -0.04    +0.123 A  ATOM      4  N   UNL     1      40.361  48.401  16.101 -0.38 +0.06    -0.238 NA ATOM      5  C   UNL     1      40.307  47.503  17.100 -0.39 -0.03    +0.139 A  ATOM      6  N   UNL     1      41.111  47.540  18.202 -0.26 +0.03    -0.339 N  ATOM      7  C   UNL     1      40.824  46.490  19.042 -0.39 -0.00    +0.048 A  ATOM      8  C   UNL     1      41.397  46.135  20.269 -0.36 +0.00    +0.027 A  ATOM      9  C   UNL     1      40.892  45.005  20.918 -0.34 +0.00    +0.002 A  ATOM     10  C   UNL     1      39.854  44.263  20.361 -0.25 +0.00    +0.001 A  ATOM     11  C   UNL     1      39.292  44.631  19.134 -0.38 -0.00    +0.011 A  ATOM     12  C   UNL     1      39.784  45.764  18.451 -0.44 -0.00    +0.010 A  ATOM     13  C   UNL     1      39.464  46.407  17.212 -0.43 -0.01    +0.040 A  ATOM     14  H   UNL     1      41.809  48.249  18.362 +0.08 -0.00    +0.168 HD ENDROOTBRANCH   1  15ATOM     15  C   UNL     1      37.650  45.055  16.195 -0.23 -0.08    +0.255 C  ATOM     16  N   UNL     1      33.610  45.524  17.794 -0.19 +0.19    -0.303 NA ATOM     17  C   UNL     1      33.993  44.550  16.751 -0.30 -0.06    +0.105 C  ATOM     18  C   UNL     1      34.771  46.260  18.331 -0.39 -0.07    +0.105 C  ATOM     19  C   UNL     1      35.466  44.103  16.777 -0.29 -0.05    +0.135 C  ATOM     20  C   UNL     1      35.877  46.501  17.289 -0.21 -0.10    +0.135 C  ATOM     21  N   UNL     1      36.389  45.238  16.746 -0.11 +0.15    -0.336 N  ATOM     22  C   UNL     1      32.852  44.896  18.873 -0.24 -0.03    +0.105 C  ATOM     23  O   UNL     1      38.050  43.989  15.736 +0.13 +0.07    -0.269 OA ENDBRANCH   1  15BRANCH   2  24ATOM     24  C   UNL     1      37.644  46.964  13.901 -0.48 -0.00    +0.010 A  ATOM     25  C   UNL     1      37.549  45.720  13.249 -0.37 -0.02    +0.050 A  ATOM     26  C   UNL     1      36.860  48.045  13.422 -0.57 -0.02    +0.040 A  ATOM     27  C   UNL     1      36.680  45.546  12.178 -0.48 -0.04    +0.123 A  ATOM     28  C   UNL     1      35.950  47.823  12.374 -0.55 -0.02    +0.029 A  ATOM     29  C   UNL     1      35.873  46.583  11.741 -0.50 -0.02    +0.041 A  ATOM     30  F   UNL     1      36.601  44.353  11.577 -0.19 +0.07    -0.207 F  BRANCH  26  31ATOM     31  N   UNL     1      36.804  49.278  14.094 -0.10 +0.30    -0.398 N  ATOM     32  H   UNL     1      36.286  49.269  14.968 -0.00 -0.23    +0.156 HD ATOM     33  H   UNL     1      37.701  49.748  14.182 -0.47 -0.14    +0.156 HD ENDBRANCH  26  31ENDBRANCH   2  24TORSDOF 3TERENDMDL