REMARK SMILES CN1CCN(C(=O)c2c(-c3cc(F)ccc3N)cnc3[nH]c4ccccc4c23)CC1
REMARK SMILES IDX 8 1 9 2 18 3 19 4 20 5 21 6 22 7 23 8 24 9 25 10 26 11 27 12
REMARK SMILES IDX 28 13 6 15 2 16 3 17 30 18 4 19 29 20 5 21 1 22 7 23 10 24
REMARK SMILES IDX 11 25 16 26 12 27 15 28 14 29 13 30 17 31
REMARK H PARENT 21 14 17 32 17 33
ROOT
ATOM      1  C   UNL     1      -1.369   0.091   0.385  1.00  0.00     0.061 A 
ATOM      2  C   UNL     1      -2.086  -1.009  -0.122  1.00  0.00     0.016 A 
ATOM      3  C   UNL     1      -3.262  -0.712  -0.815  1.00  0.00     0.123 A 
ATOM      4  N   UNL     1      -3.772   0.521  -1.062  1.00  0.00    -0.238 NA
ATOM      5  C   UNL     1      -3.033   1.512  -0.536  1.00  0.00     0.139 A 
ATOM      6  N   UNL     1      -3.348   2.836  -0.641  1.00  0.00    -0.339 N 
ATOM      7  C   UNL     1      -2.402   3.607  -0.007  1.00  0.00     0.048 A 
ATOM      8  C   UNL     1      -2.319   4.998   0.131  1.00  0.00     0.027 A 
ATOM      9  C   UNL     1      -1.235   5.514   0.846  1.00  0.00     0.002 A 
ATOM     10  C   UNL     1      -0.276   4.672   1.401  1.00  0.00     0.001 A 
ATOM     11  C   UNL     1      -0.373   3.284   1.254  1.00  0.00     0.011 A 
ATOM     12  C   UNL     1      -1.453   2.732   0.533  1.00  0.00     0.010 A 
ATOM     13  C   UNL     1      -1.854   1.401   0.187  1.00  0.00     0.040 A 
ATOM     14  H   UNL     1      -4.167   3.180  -1.117  1.00  0.00     0.168 HD
ENDROOT
BRANCH   1  15
ATOM     15  C   UNL     1      -0.117  -0.097   1.132  1.00  0.00     0.255 C 
ATOM     16  N   UNL     1       3.732   0.265  -0.906  1.00  0.00    -0.303 NA
ATOM     17  C   UNL     1       3.503   0.579   0.520  1.00  0.00     0.105 C 
ATOM     18  C   UNL     1       2.534  -0.299  -1.558  1.00  0.00     0.105 C 
ATOM     19  C   UNL     1       2.333  -0.174   1.180  1.00  0.00     0.135 C 
ATOM     20  C   UNL     1       1.213   0.258  -0.997  1.00  0.00     0.135 C 
ATOM     21  N   UNL     1       1.082  -0.012   0.439  1.00  0.00    -0.336 N 
ATOM     22  C   UNL     1       4.883  -0.614  -1.091  1.00  0.00     0.105 C 
ATOM     23  O   UNL     1      -0.199  -0.312   2.338  1.00  0.00    -0.269 OA
ENDBRANCH   1  15
BRANCH   2  24
ATOM     24  C   UNL     1      -1.647  -2.409   0.027  1.00  0.00     0.010 A 
ATOM     25  C   UNL     1      -1.638  -2.997   1.306  1.00  0.00     0.050 A 
ATOM     26  C   UNL     1      -1.240  -3.192  -1.084  1.00  0.00     0.040 A 
ATOM     27  C   UNL     1      -1.270  -4.327   1.472  1.00  0.00     0.123 A 
ATOM     28  C   UNL     1      -0.927  -4.548  -0.892  1.00  0.00     0.029 A 
ATOM     29  C   UNL     1      -0.923  -5.110   0.384  1.00  0.00     0.041 A 
ATOM     30  F   UNL     1      -1.275  -4.867   2.697  1.00  0.00    -0.207 F 
BRANCH  26  31
ATOM     31  N   UNL     1      -1.341  -2.719  -2.404  1.00  0.00    -0.398 N 
ATOM     32  H   UNL     1      -1.260  -1.712  -2.507  1.00  0.00     0.156 HD
ATOM     33  H   UNL     1      -0.767  -3.223  -3.074  1.00  0.00     0.156 HD
ENDBRANCH  26  31
ENDBRANCH   2  24
TORSDOF 3
