MODEL        2USER    Run = 2USERUSER    Estimated Free Energy of Binding    =  -7.64 kcal/mol  [=(1)+(2)+(3)-(4)]USERUSER    (1) Final Intermolecular Energy     =  -8.54 kcal/molUSER        vdW + Hbond + desolv Energy     =  -8.29 kcal/molUSER        Electrostatic Energy            =  -0.25 kcal/molUSER        Moving Ligand-Fixed Receptor    =  -8.54 kcal/molUSER        Moving Ligand-Moving Receptor   =  +0.00 kcal/molUSER    (2) Final Total Internal Energy     =  -0.50 kcal/molUSER    (3) Torsional Free Energy           =  +0.89 kcal/molUSER    (4) Unbound System's Energy         =  -0.50 kcal/molUSERUSERREMARK SMILES COc1ccc(NC(=O)c2cc3ncccc3[nH]2)cc1FREMARK SMILES IDX 3 1 4 2 5 3 6 4 19 5 20 6 21 7 2 8 1 9 7 10 8 11 9 13 10 14REMARK SMILES IDX 11 15 18 16 12 17 17 18 13 19 16 20 14 21 15 22REMARK H PARENT 7 12 18 23USER                              x       y       z     vdW  Elec       q    TypeUSER                           _______ _______ _______ _____ _____    ______ ____ROOTATOM      1  C   UNL     1      43.391  46.689  20.642 -0.19 +0.07    +0.154 A  ATOM      2  C   UNL     1      43.649  47.371  19.455 -0.28 +0.02    +0.052 A  ATOM      3  C   UNL     1      42.679  47.415  18.442 -0.36 +0.00    +0.030 A  ATOM      4  C   UNL     1      41.441  46.774  18.598 -0.49 -0.00    +0.044 A  ATOM      5  C   UNL     1      41.183  46.098  19.788 -0.36 +0.00    +0.069 A  ATOM      6  C   UNL     1      42.152  46.060  20.791 -0.25 +0.03    +0.167 A  ATOM      7  F   UNL     1      41.869  45.402  21.927 -0.04 -0.03    -0.203 F  ENDROOTBRANCH   1   8ATOM      8  O   UNL     1      44.250  46.578  21.700 -0.39 -0.36    -0.494 OA ATOM      9  C   UNL     1      44.084  47.494  22.774 -0.21 +0.08    +0.278 C  ENDBRANCH   1   8BRANCH   4  10ATOM     10  N   UNL     1      40.523  46.881  17.532 -0.28 +0.04    -0.321 N  ATOM     11  C   UNL     1      40.578  47.758  16.462 -0.39 -0.05    +0.272 C  ATOM     12  H   UNL     1      39.671  46.347  17.631 +0.11 -0.03    +0.170 HD ATOM     13  O   UNL     1      41.395  48.660  16.333 -0.91 +0.01    -0.267 OA BRANCH  11  14ATOM     14  C   UNL     1      39.525  47.540  15.486 -0.43 -0.03    +0.107 A  ATOM     15  C   UNL     1      38.840  48.497  14.753 -0.48 -0.03    +0.062 A  ATOM     16  N   UNL     1      39.054  46.313  15.061 -0.17 +0.09    -0.349 N  ATOM     17  C   UNL     1      37.911  47.835  13.920 -0.46 -0.04    +0.089 A  ATOM     18  C   UNL     1      38.059  46.468  14.127 -0.39 -0.02    +0.065 A  ATOM     19  N   UNL     1      37.015  48.359  13.051 -0.81 +0.08    -0.255 NA ATOM     20  C   UNL     1      37.287  45.539  13.432 -0.45 -0.01    +0.030 A  ATOM     21  C   UNL     1      36.272  47.449  12.389 -0.59 -0.05    +0.112 A  ATOM     22  C   UNL     1      36.363  46.070  12.535 -0.59 -0.01    +0.022 A  ATOM     23  H   UNL     1      39.422  45.420  15.356 +0.12 -0.03    +0.167 HD ENDBRANCH  11  14ENDBRANCH   4  10TORSDOF 3TERENDMDL