REMARK SMILES COc1ccc(Nc2nc(N3CCN(C)CC3)nc3cc(F)ccc23)cc1
REMARK SMILES IDX 7 1 6 3 3 4 4 5 27 6 5 7 26 8 2 9 1 10 8 11 9 12 25 13 10 14
REMARK SMILES IDX 24 15 19 16 18 17 23 18 20 19 21 20 22 21 11 22 12 23 17 24
REMARK SMILES IDX 13 25 16 26 14 27 15 28
REMARK H PARENT 7 2
ROOT
ATOM      1  N   UNL     1       2.245   1.075  -1.127  1.00  0.00    -0.340 N 
ATOM      2  H   UNL     1       2.428   2.036  -1.395  1.00  0.00     0.168 HD
ENDROOT
BRANCH   1   3
ATOM      3  C   UNL     1       2.849   0.758   0.113  1.00  0.00     0.040 A 
ATOM      4  C   UNL     1       4.213   0.091   2.499  1.00  0.00     0.119 A 
ATOM      5  C   UNL     1       3.296  -0.796   1.939  1.00  0.00     0.048 A 
ATOM      6  C   UNL     1       4.447   1.311   1.863  1.00  0.00     0.048 A 
ATOM      7  C   UNL     1       2.630  -0.466   0.754  1.00  0.00     0.030 A 
ATOM      8  C   UNL     1       3.785   1.634   0.677  1.00  0.00     0.030 A 
BRANCH   4   9
ATOM      9  O   UNL     1       4.943  -0.110   3.636  1.00  0.00    -0.497 OA
ATOM     10  C   UNL     1       4.791  -1.371   4.286  1.00  0.00     0.278 C 
ENDBRANCH   4   9
ENDBRANCH   1   3
BRANCH   1  11
ATOM     11  C   UNL     1       0.929   0.729  -1.548  1.00  0.00     0.143 A 
ATOM     12  N   UNL     1       0.033   0.325  -0.631  1.00  0.00    -0.195 NA
ATOM     13  C   UNL     1       0.595   0.847  -2.906  1.00  0.00     0.043 A 
ATOM     14  C   UNL     1      -1.214   0.043  -1.015  1.00  0.00     0.227 A 
ATOM     15  C   UNL     1       1.485   1.234  -3.944  1.00  0.00     0.017 A 
ATOM     16  C   UNL     1      -0.729   0.530  -3.213  1.00  0.00     0.081 A 
ATOM     17  N   UNL     1      -1.609   0.139  -2.288  1.00  0.00    -0.213 NA
ATOM     18  C   UNL     1       1.046   1.316  -5.262  1.00  0.00     0.040 A 
ATOM     19  C   UNL     1      -1.149   0.625  -4.533  1.00  0.00     0.068 A 
ATOM     20  C   UNL     1      -0.274   1.015  -5.542  1.00  0.00     0.125 A 
ATOM     21  F   UNL     1      -0.714   1.096  -6.807  1.00  0.00    -0.207 F 
BRANCH  14  22
ATOM     22  N   UNL     1      -2.119  -0.383  -0.065  1.00  0.00    -0.338 N 
ATOM     23  C   UNL     1      -3.550  -0.328  -0.377  1.00  0.00     0.135 C 
ATOM     24  C   UNL     1      -1.726  -0.282   1.341  1.00  0.00     0.135 C 
ATOM     25  C   UNL     1      -4.365   0.202   0.828  1.00  0.00     0.105 C 
ATOM     26  C   UNL     1      -2.764  -1.003   2.233  1.00  0.00     0.105 C 
ATOM     27  N   UNL     1      -4.155  -0.502   2.110  1.00  0.00    -0.303 NA
ATOM     28  C   UNL     1      -5.103  -1.599   2.283  1.00  0.00     0.105 C 
ENDBRANCH  14  22
ENDBRANCH   1  11
TORSDOF 4
