REMARK SMILES COc1ccc(NC(=O)c2cc3ncccc3[nH]2)cc1F
REMARK SMILES IDX 3 1 4 2 5 3 6 4 19 5 20 6 21 7 2 8 1 9 7 10 8 11 9 13 10 14
REMARK SMILES IDX 11 15 18 16 12 17 17 18 13 19 16 20 14 21 15 22
REMARK H PARENT 7 12 18 23
ROOT
ATOM      1  C   UNL     1       4.442  -0.302   0.527  1.00  0.00     0.154 A 
ATOM      2  C   UNL     1       3.607  -1.410   0.401  1.00  0.00     0.052 A 
ATOM      3  C   UNL     1       2.219  -1.238   0.298  1.00  0.00     0.030 A 
ATOM      4  C   UNL     1       1.644   0.041   0.325  1.00  0.00     0.044 A 
ATOM      5  C   UNL     1       2.481   1.148   0.445  1.00  0.00     0.069 A 
ATOM      6  C   UNL     1       3.861   0.969   0.545  1.00  0.00     0.167 A 
ATOM      7  F   UNL     1       4.639   2.058   0.656  1.00  0.00    -0.203 F 
ENDROOT
BRANCH   1   8
ATOM      8  O   UNL     1       5.805  -0.338   0.631  1.00  0.00    -0.494 OA
ATOM      9  C   UNL     1       6.425  -1.617   0.652  1.00  0.00     0.278 C 
ENDBRANCH   1   8
BRANCH   4  10
ATOM     10  N   UNL     1       0.240   0.119   0.204  1.00  0.00    -0.321 N 
ATOM     11  C   UNL     1      -0.553   1.244   0.353  1.00  0.00     0.272 C 
ATOM     12  H   UNL     1      -0.244  -0.764   0.127  1.00  0.00     0.170 HD
ATOM     13  O   UNL     1      -0.155   2.342   0.721  1.00  0.00    -0.267 OA
BRANCH  11  14
ATOM     14  C   UNL     1      -1.955   1.000   0.066  1.00  0.00     0.107 A 
ATOM     15  C   UNL     1      -3.055   1.651   0.604  1.00  0.00     0.062 A 
ATOM     16  N   UNL     1      -2.449   0.102  -0.860  1.00  0.00    -0.349 N 
ATOM     17  C   UNL     1      -4.221   1.097   0.033  1.00  0.00     0.089 A 
ATOM     18  C   UNL     1      -3.822   0.128  -0.881  1.00  0.00     0.065 A 
ATOM     19  N   UNL     1      -5.519   1.400   0.271  1.00  0.00    -0.255 NA
ATOM     20  C   UNL     1      -4.751  -0.595  -1.627  1.00  0.00     0.030 A 
ATOM     21  C   UNL     1      -6.407   0.690  -0.455  1.00  0.00     0.112 A 
ATOM     22  C   UNL     1      -6.089  -0.288  -1.389  1.00  0.00     0.022 A 
ATOM     23  H   UNL     1      -1.882  -0.464  -1.475  1.00  0.00     0.167 HD
ENDBRANCH  11  14
ENDBRANCH   4  10
TORSDOF 3
