REMARK SMILES CCC[C@@H](C)NC(=O)c1ccc(-c2ccc(Cl)c(OC)c2)cc1C#N
REMARK SMILES IDX 6 1 7 2 8 3 4 5 5 6 3 7 2 8 1 9 9 10 10 11 23 12 11 13 22 14
REMARK SMILES IDX 12 15 24 16 25 17 13 18 14 19 21 20 15 21 18 22 16 23 17 24
REMARK SMILES IDX 19 25 20 26
REMARK H PARENT 6 4
ROOT
ATOM      1  N   UNL     1      -2.748  -0.707  -0.073  1.00  0.00    -0.350 N 
ATOM      2  C   UNL     1      -1.652  -1.520  -0.253  1.00  0.00     0.252 C 
ATOM      3  O   UNL     1      -1.697  -2.697  -0.579  1.00  0.00    -0.269 OA
ATOM      4  H   UNL     1      -2.613   0.265   0.172  1.00  0.00     0.164 HD
ENDROOT
BRANCH   1   5
ATOM      5  C   UNL     1      -4.105  -1.179  -0.330  1.00  0.00     0.079 C 
ATOM      6  C   UNL     1      -4.414  -1.130  -1.824  1.00  0.00     0.031 C 
BRANCH   5   7
ATOM      7  C   UNL     1      -5.127  -0.421   0.539  1.00  0.00     0.024 C 
BRANCH   7   8
ATOM      8  C   UNL     1      -5.328   1.065   0.214  1.00  0.00    -0.001 C 
ATOM      9  C   UNL     1      -6.492   1.323  -0.734  1.00  0.00     0.004 C 
ENDBRANCH   7   8
ENDBRANCH   5   7
ENDBRANCH   1   5
BRANCH   2  10
ATOM     10  C   UNL     1      -0.341  -0.873  -0.033  1.00  0.00     0.057 A 
ATOM     11  C   UNL     1      -0.045   0.310  -0.723  1.00  0.00     0.016 A 
ATOM     12  C   UNL     1       0.611  -1.449   0.814  1.00  0.00     0.065 A 
ATOM     13  C   UNL     1       1.200   0.923  -0.559  1.00  0.00     0.009 A 
ATOM     14  C   UNL     1       1.859  -0.822   0.969  1.00  0.00     0.029 A 
ATOM     15  C   UNL     1       2.173   0.368   0.288  1.00  0.00    -0.017 A 
BRANCH  12  16
ATOM     16  C   UNL     1       0.345  -2.638   1.573  1.00  0.00     0.100 C 
ATOM     17  N   UNL     1       0.183  -3.573   2.241  1.00  0.00    -0.192 NA
ENDBRANCH  12  16
BRANCH  15  18
ATOM     18  C   UNL     1       3.487   1.011   0.454  1.00  0.00    -0.015 A 
ATOM     19  C   UNL     1       3.585   2.349   0.862  1.00  0.00     0.010 A 
ATOM     20  C   UNL     1       4.677   0.297   0.207  1.00  0.00     0.056 A 
ATOM     21  C   UNL     1       4.831   2.958   1.020  1.00  0.00     0.025 A 
ATOM     22  C   UNL     1       5.935   0.895   0.361  1.00  0.00     0.138 A 
ATOM     23  C   UNL     1       5.998   2.235   0.771  1.00  0.00     0.083 A 
ATOM     24  Cl  UNL     1       7.511   3.046   0.984  1.00  0.00    -0.080 Cl
BRANCH  22  25
ATOM     25  O   UNL     1       7.129   0.262   0.136  1.00  0.00    -0.495 OA
ATOM     26  C   UNL     1       7.095  -1.102  -0.263  1.00  0.00     0.278 C 
ENDBRANCH  22  25
ENDBRANCH  15  18
ENDBRANCH   2  10
TORSDOF 7
