REMARK SMILES CCCC[C@@H](C)NC(=O)c1ccc(-c2ccc(N3CCCC3)cc2)cc1C#N
REMARK SMILES IDX 5 1 6 2 4 3 3 4 2 5 1 6 7 7 8 8 9 10 10 11 11 12 26 13 12 14
REMARK SMILES IDX 25 15 13 16 27 17 28 18 14 19 15 20 24 21 16 22 23 23 17 24
REMARK SMILES IDX 18 25 19 26 22 27 20 28 21 29
REMARK H PARENT 7 9
ROOT
ATOM      1  C   UNL     1       5.371  -0.889   0.965  1.00  0.00     0.079 C 
ATOM      2  C   UNL     1       5.813   0.102   2.042  1.00  0.00     0.031 C 
ENDROOT
BRANCH   1   3
ATOM      3  C   UNL     1       6.207  -0.783  -0.326  1.00  0.00     0.024 C 
BRANCH   3   4
ATOM      4  C   UNL     1       6.262   0.619  -0.946  1.00  0.00     0.002 C 
BRANCH   4   5
ATOM      5  C   UNL     1       6.951   0.645  -2.315  1.00  0.00    -0.003 C 
ATOM      6  C   UNL     1       8.420   0.261  -2.263  1.00  0.00     0.004 C 
ENDBRANCH   4   5
ENDBRANCH   3   4
ENDBRANCH   1   3
BRANCH   1   7
ATOM      7  N   UNL     1       3.947  -0.747   0.684  1.00  0.00    -0.350 N 
ATOM      8  C   UNL     1       2.991  -1.261   1.534  1.00  0.00     0.252 C 
ATOM      9  H   UNL     1       3.678  -0.149  -0.086  1.00  0.00     0.164 HD
ATOM     10  O   UNL     1       3.236  -1.981   2.494  1.00  0.00    -0.269 OA
BRANCH   8  11
ATOM     11  C   UNL     1       1.578  -0.944   1.214  1.00  0.00     0.057 A 
ATOM     12  C   UNL     1       0.673  -2.013   1.217  1.00  0.00     0.016 A 
ATOM     13  C   UNL     1       1.116   0.353   0.967  1.00  0.00     0.065 A 
ATOM     14  C   UNL     1      -0.680  -1.794   0.944  1.00  0.00     0.009 A 
ATOM     15  C   UNL     1      -0.247   0.559   0.687  1.00  0.00     0.029 A 
ATOM     16  C   UNL     1      -1.167  -0.505   0.670  1.00  0.00    -0.017 A 
BRANCH  13  17
ATOM     17  C   UNL     1       1.980   1.494   1.018  1.00  0.00     0.100 C 
ATOM     18  N   UNL     1       2.678   2.421   1.028  1.00  0.00    -0.192 NA
ENDBRANCH  13  17
BRANCH  16  19
ATOM     19  C   UNL     1      -2.595  -0.274   0.383  1.00  0.00    -0.018 A 
ATOM     20  C   UNL     1      -3.301  -1.088  -0.509  1.00  0.00     0.011 A 
ATOM     21  C   UNL     1      -3.304   0.770   0.989  1.00  0.00     0.011 A 
ATOM     22  C   UNL     1      -4.660  -0.864  -0.781  1.00  0.00     0.026 A 
ATOM     23  C   UNL     1      -4.662   0.989   0.707  1.00  0.00     0.026 A 
ATOM     24  C   UNL     1      -5.380   0.180  -0.185  1.00  0.00     0.037 A 
BRANCH  24  25
ATOM     25  N   UNL     1      -6.708   0.399  -0.458  1.00  0.00    -0.372 N 
ATOM     26  C   UNL     1      -7.460   1.566  -0.004  1.00  0.00     0.116 C 
ATOM     27  C   UNL     1      -7.553  -0.519  -1.219  1.00  0.00     0.116 C 
ATOM     28  C   UNL     1      -8.767   1.489  -0.790  1.00  0.00     0.023 C 
ATOM     29  C   UNL     1      -8.970  -0.006  -0.969  1.00  0.00     0.023 C 
ENDBRANCH  24  25
ENDBRANCH  16  19
ENDBRANCH   8  11
ENDBRANCH   1   7
TORSDOF 8
