MODEL        8USER    Run = 8USERUSER    Estimated Free Energy of Binding    =  -8.90 kcal/mol  [=(1)+(2)+(3)-(4)]USERUSER    (1) Final Intermolecular Energy     = -10.69 kcal/molUSER        vdW + Hbond + desolv Energy     = -10.36 kcal/molUSER        Electrostatic Energy            =  -0.33 kcal/molUSER        Moving Ligand-Fixed Receptor    = -10.69 kcal/molUSER        Moving Ligand-Moving Receptor   =  +0.00 kcal/molUSER    (2) Final Total Internal Energy     =  -0.84 kcal/molUSER    (3) Torsional Free Energy           =  +1.79 kcal/molUSER    (4) Unbound System's Energy         =  -0.84 kcal/molUSERUSERREMARK SMILES N#Cc1cc(-c2ccc(F)c(O)c2)ccc1C(=O)NCC1CC1REMARK SMILES IDX 3 1 4 2 5 3 14 4 15 5 16 6 2 7 1 8 17 9 19 10 18 11 20 13REMARK SMILES IDX 21 14 22 15 23 16 6 17 7 18 13 19 8 20 11 21 9 22 10 23REMARK SMILES IDX 12 24REMARK H PARENT 19 12 12 25USER                              x       y       z     vdW  Elec       q    TypeUSER                           _______ _______ _______ _____ _____    ______ ____ROOTATOM      1  C   UNL     1      40.734  48.520  16.391 -0.51 -0.01    +0.065 A  ATOM      2  C   UNL     1      41.412  48.088  17.545 -0.48 -0.00    +0.029 A  ATOM      3  C   UNL     1      40.980  46.966  18.274 -0.50 +0.00    -0.017 A  ATOM      4  C   UNL     1      39.849  46.276  17.815 -0.46 -0.00    +0.009 A  ATOM      5  C   UNL     1      39.167  46.695  16.670 -0.43 -0.00    +0.016 A  ATOM      6  C   UNL     1      39.595  47.827  15.963 -0.47 -0.02    +0.057 A  ENDROOTBRANCH   1   7ATOM      7  C   UNL     1      41.261  49.646  15.678 -0.63 -0.01    +0.100 C  ATOM      8  N   UNL     1      41.664  50.547  15.067 -0.62 +0.04    -0.192 NA ENDBRANCH   1   7BRANCH   6   9ATOM      9  C   UNL     1      38.819  48.196  14.754 -0.39 -0.11    +0.252 C  ATOM     10  N   UNL     1      37.458  48.017  14.822 -0.23 +0.24    -0.352 N  ATOM     11  O   UNL     1      39.413  48.587  13.757 -0.31 +0.08    -0.269 OA ATOM     12  H   UNL     1      37.044  47.501  15.585 +0.12 -0.13    +0.163 HD BRANCH  10  13ATOM     13  C   UNL     1      36.625  48.268  13.669 -0.47 -0.07    +0.119 C  BRANCH  13  14ATOM     14  C   UNL     1      36.225  46.963  13.063 -0.68 -0.00    +0.008 C  ATOM     15  C   UNL     1      36.838  46.502  11.765 -0.74 -0.00    +0.006 C  ATOM     16  C   UNL     1      37.177  45.794  13.047 -0.57 -0.00    +0.006 C  ENDBRANCH  13  14ENDBRANCH  10  13ENDBRANCH   6   9BRANCH   3  17ATOM     17  C   UNL     1      41.699  46.524  19.480 -0.45 -0.00    -0.014 A  ATOM     18  C   UNL     1      41.174  45.505  20.297 -0.37 +0.00    +0.012 A  ATOM     19  C   UNL     1      42.927  47.109  19.844 -0.43 +0.01    +0.058 A  ATOM     20  C   UNL     1      41.852  45.083  21.444 -0.27 +0.01    +0.044 A  ATOM     21  C   UNL     1      43.601  46.683  20.989 -0.22 +0.08    +0.151 A  ATOM     22  C   UNL     1      43.061  45.676  21.783 -0.17 +0.06    +0.164 A  ATOM     23  F   UNL     1      43.701  45.262  22.887 -0.02 -0.06    -0.203 F  BRANCH  21  24ATOM     24  O   UNL     1      44.795  47.242  21.347 -0.64 -0.47    -0.505 OA ATOM     25  H   UNL     1      44.676  48.194  21.493 -0.41 +0.06    +0.293 HD ENDBRANCH  21  24ENDBRANCH   3  17TORSDOF 6TERENDMDL