MODEL        6USER    Run = 6USERUSER    Estimated Free Energy of Binding    =  -9.55 kcal/mol  [=(1)+(2)+(3)-(4)]USERUSER    (1) Final Intermolecular Energy     = -11.94 kcal/molUSER        vdW + Hbond + desolv Energy     = -11.93 kcal/molUSER        Electrostatic Energy            =  -0.01 kcal/molUSER        Moving Ligand-Fixed Receptor    = -11.94 kcal/molUSER        Moving Ligand-Moving Receptor   =  +0.00 kcal/molUSER    (2) Final Total Internal Energy     =  -1.43 kcal/molUSER    (3) Torsional Free Energy           =  +2.39 kcal/molUSER    (4) Unbound System's Energy         =  -1.43 kcal/molUSERUSERREMARK SMILES CCCC[C@@H](C)NC(=O)c1ccc(-c2ccc(N3CCCC3)cc2)cc1C#NREMARK SMILES IDX 5 1 6 2 4 3 3 4 2 5 1 6 7 7 8 8 9 10 10 11 11 12 26 13 12 14REMARK SMILES IDX 25 15 13 16 27 17 28 18 14 19 15 20 24 21 16 22 23 23 17 24REMARK SMILES IDX 18 25 19 26 22 27 20 28 21 29REMARK H PARENT 7 9USER                              x       y       z     vdW  Elec       q    TypeUSER                           _______ _______ _______ _____ _____    ______ ____ROOTATOM      1  C   UNL     1      39.289  47.773  15.157 -0.52 -0.03    +0.079 C  ATOM      2  C   UNL     1      40.520  48.670  15.285 -0.65 -0.01    +0.031 C  ENDROOTBRANCH   1   3ATOM      3  C   UNL     1      38.081  48.499  14.533 -0.59 -0.01    +0.024 C  BRANCH   3   4ATOM      4  C   UNL     1      36.901  47.590  14.165 -0.58 -0.00    +0.002 C  BRANCH   4   5ATOM      5  C   UNL     1      36.506  47.686  12.687 -0.75 +0.00    -0.003 C  ATOM      6  C   UNL     1      36.534  46.350  11.963 -0.75 -0.00    +0.004 C  ENDBRANCH   4   5ENDBRANCH   3   4ENDBRANCH   1   3BRANCH   1   7ATOM      7  N   UNL     1      38.942  47.184  16.446 -0.19 +0.13    -0.350 N  ATOM      8  C   UNL     1      38.463  45.895  16.542 -0.27 -0.07    +0.252 C  ATOM      9  H   UNL     1      39.184  47.703  17.279 +0.09 -0.06    +0.164 HD ATOM     10  O   UNL     1      38.160  45.198  15.582 -0.22 +0.08    -0.269 OA BRANCH   8  11ATOM     11  C   UNL     1      38.267  45.359  17.911 -0.35 -0.01    +0.057 A  ATOM     12  C   UNL     1      37.094  44.630  18.143 -0.34 -0.00    +0.016 A  ATOM     13  C   UNL     1      39.206  45.506  18.937 -0.38 -0.01    +0.065 A  ATOM     14  C   UNL     1      36.845  44.076  19.402 -0.37 -0.00    +0.009 A  ATOM     15  C   UNL     1      38.939  44.950  20.201 -0.35 -0.00    +0.029 A  ATOM     16  C   UNL     1      37.760  44.227  20.457 -0.36 +0.00    -0.017 A  BRANCH  13  17ATOM     17  C   UNL     1      40.453  46.182  18.741 -0.46 -0.00    +0.100 C  ATOM     18  N   UNL     1      41.456  46.734  18.551 -0.38 +0.00    -0.192 NA ENDBRANCH  13  17BRANCH  16  19ATOM     19  C   UNL     1      37.497  43.642  21.785 -0.37 -0.00    -0.018 A  ATOM     20  C   UNL     1      37.822  44.325  22.961 -0.34 +0.00    +0.011 A  ATOM     21  C   UNL     1      36.912  42.377  21.925 -0.48 +0.00    +0.011 A  ATOM     22  C   UNL     1      37.572  43.764  24.224 -0.31 +0.00    +0.026 A  ATOM     23  C   UNL     1      36.670  41.822  23.192 -0.47 +0.00    +0.026 A  ATOM     24  C   UNL     1      36.992  42.498  24.378 -0.38 +0.00    +0.037 A  BRANCH  24  25ATOM     25  N   UNL     1      36.753  41.950  25.614 -0.16 +0.05    -0.372 N  ATOM     26  C   UNL     1      37.784  41.363  26.467 -0.34 -0.01    +0.116 C  ATOM     27  C   UNL     1      35.432  41.860  26.233 -0.43 -0.03    +0.116 C  ATOM     28  C   UNL     1      37.084  41.170  27.810 -0.54 -0.01    +0.023 C  ATOM     29  C   UNL     1      35.642  40.907  27.409 -0.68 -0.01    +0.023 C  ENDBRANCH  24  25ENDBRANCH  16  19ENDBRANCH   8  11ENDBRANCH   1   7TORSDOF 8TERENDMDL