MODEL        4USER    Run = 4USERUSER    Estimated Free Energy of Binding    =  -9.55 kcal/mol  [=(1)+(2)+(3)-(4)]USERUSER    (1) Final Intermolecular Energy     = -11.94 kcal/molUSER        vdW + Hbond + desolv Energy     = -11.60 kcal/molUSER        Electrostatic Energy            =  -0.34 kcal/molUSER        Moving Ligand-Fixed Receptor    = -11.94 kcal/molUSER        Moving Ligand-Moving Receptor   =  +0.00 kcal/molUSER    (2) Final Total Internal Energy     =  -1.12 kcal/molUSER    (3) Torsional Free Energy           =  +2.39 kcal/molUSER    (4) Unbound System's Energy         =  -1.12 kcal/molUSERUSERREMARK SMILES CCC[C@@H](C)NC(=O)c1ccc(-c2ccc(N3CCCC3)c(O)c2)cc1C#NREMARK SMILES IDX 6 1 7 2 8 3 4 5 5 6 3 7 2 8 1 9 9 10 10 11 26 12 11 13 25 14REMARK SMILES IDX 12 15 27 16 28 17 13 18 14 19 24 20 15 21 22 22 16 23 23 24REMARK SMILES IDX 17 26 18 27 21 28 19 29 20 30REMARK H PARENT 6 4 23 25USER                              x       y       z     vdW  Elec       q    TypeUSER                           _______ _______ _______ _____ _____    ______ ____ROOTATOM      1  N   UNL     1      39.339  47.547  15.965 -0.21 +0.12    -0.350 N  ATOM      2  C   UNL     1      38.537  47.715  14.859 -0.37 -0.11    +0.252 C  ATOM      3  O   UNL     1      38.829  48.380  13.873 -0.46 +0.09    -0.269 OA ATOM      4  H   UNL     1      38.988  47.047  16.772 +0.11 -0.05    +0.164 HD ENDROOTBRANCH   1   5ATOM      5  C   UNL     1      40.692  48.091  16.080 -0.57 -0.01    +0.079 C  ATOM      6  C   UNL     1      41.267  47.870  17.479 -0.55 -0.00    +0.031 C  BRANCH   5   7ATOM      7  C   UNL     1      40.749  49.559  15.620 -0.71 -0.01    +0.024 C  BRANCH   7   8ATOM      8  C   UNL     1      41.394  49.735  14.243 -0.74 +0.00    -0.001 C  ATOM      9  C   UNL     1      42.549  50.724  14.296 -0.71 -0.00    +0.004 C  ENDBRANCH   7   8ENDBRANCH   5   7ENDBRANCH   1   5BRANCH   2  10ATOM     10  C   UNL     1      37.203  47.071  14.915 -0.39 -0.03    +0.057 A  ATOM     11  C   UNL     1      36.684  46.796  16.188 -0.36 -0.01    +0.016 A  ATOM     12  C   UNL     1      36.444  46.779  13.777 -0.45 -0.04    +0.065 A  ATOM     13  C   UNL     1      35.428  46.200  16.322 -0.34 -0.01    +0.009 A  ATOM     14  C   UNL     1      35.182  46.179  13.925 -0.39 -0.02    +0.029 A  ATOM     15  C   UNL     1      34.657  45.879  15.195 -0.30 +0.02    -0.017 A  BRANCH  12  16ATOM     16  C   UNL     1      36.899  47.094  12.455 -0.65 -0.04    +0.100 C  ATOM     17  N   UNL     1      37.301  47.364  11.401 -0.92 +0.04    -0.192 NA ENDBRANCH  12  16BRANCH  15  18ATOM     18  C   UNL     1      33.334  45.252  15.338 -0.31 +0.01    -0.015 A  ATOM     19  C   UNL     1      33.159  44.104  16.113 -0.32 -0.01    +0.011 A  ATOM     20  C   UNL     1      32.205  45.784  14.704 -0.36 -0.05    +0.057 A  ATOM     21  C   UNL     1      31.895  43.508  16.247 -0.31 -0.01    +0.030 A  ATOM     22  C   UNL     1      30.943  45.181  14.846 -0.35 -0.09    +0.139 A  ATOM     23  C   UNL     1      30.742  44.021  15.626 -0.29 -0.04    +0.079 A  BRANCH  22  24ATOM     24  O   UNL     1      29.891  45.757  14.172 -0.15 +0.40    -0.506 OA ATOM     25  H   UNL     1      29.466  45.091  13.612 -0.35 -0.57    +0.293 HD ENDBRANCH  22  24BRANCH  23  26ATOM     26  N   UNL     1      29.523  43.398  15.797 -0.07 +0.21    -0.369 N  ATOM     27  C   UNL     1      28.265  44.100  16.041 -0.25 -0.05    +0.116 C  ATOM     28  C   UNL     1      29.317  41.952  15.728 -0.29 -0.06    +0.116 C  ATOM     29  C   UNL     1      27.297  42.994  16.447 -0.27 -0.01    +0.023 C  ATOM     30  C   UNL     1      27.799  41.799  15.657 -0.30 -0.01    +0.023 C  ENDBRANCH  23  26ENDBRANCH  15  18ENDBRANCH   2  10TORSDOF 8TERENDMDL