MODEL        5USER    Run = 5USERUSER    Estimated Free Energy of Binding    =  -8.99 kcal/mol  [=(1)+(2)+(3)-(4)]USERUSER    (1) Final Intermolecular Energy     = -11.08 kcal/molUSER        vdW + Hbond + desolv Energy     = -10.78 kcal/molUSER        Electrostatic Energy            =  -0.29 kcal/molUSER        Moving Ligand-Fixed Receptor    = -11.08 kcal/molUSER        Moving Ligand-Moving Receptor   =  +0.00 kcal/molUSER    (2) Final Total Internal Energy     =  -1.09 kcal/molUSER    (3) Torsional Free Energy           =  +2.09 kcal/molUSER    (4) Unbound System's Energy         =  -1.09 kcal/molUSERUSERREMARK SMILES CCC[C@@H](C)NC(=O)c1ccc(-c2ccc(Cl)c(OC)c2)cc1C#NREMARK SMILES IDX 6 1 7 2 8 3 4 5 5 6 3 7 2 8 1 9 9 10 10 11 23 12 11 13 22 14REMARK SMILES IDX 12 15 24 16 25 17 13 18 14 19 21 20 15 21 18 22 16 23 17 24REMARK SMILES IDX 19 25 20 26REMARK H PARENT 6 4USER                              x       y       z     vdW  Elec       q    TypeUSER                           _______ _______ _______ _____ _____    ______ ____ROOTATOM      1  N   UNL     1      32.464  45.505  16.321 -0.11 +0.25    -0.350 N  ATOM      2  C   UNL     1      33.413  44.509  16.380 -0.20 -0.14    +0.252 C  ATOM      3  O   UNL     1      33.209  43.330  16.129 -0.24 +0.13    -0.269 OA ATOM      4  H   UNL     1      32.731  46.460  16.521 -0.39 -0.28    +0.164 HD ENDROOTBRANCH   1   5ATOM      5  C   UNL     1      31.100  45.241  15.875 -0.37 -0.03    +0.079 C  ATOM      6  C   UNL     1      30.484  44.102  16.684 -0.31 -0.01    +0.031 C  BRANCH   5   7ATOM      7  C   UNL     1      31.051  45.015  14.352 -0.49 -0.02    +0.024 C  BRANCH   7   8ATOM      8  C   UNL     1      31.308  46.246  13.473 -0.65 +0.00    -0.001 C  ATOM      9  C   UNL     1      30.182  46.530  12.487 -0.72 -0.00    +0.004 C  ENDBRANCH   7   8ENDBRANCH   5   7ENDBRANCH   1   5BRANCH   2  10ATOM     10  C   UNL     1      34.769  44.948  16.770 -0.28 -0.03    +0.057 A  ATOM     11  C   UNL     1      35.554  45.635  15.835 -0.34 -0.01    +0.016 A  ATOM     12  C   UNL     1      35.285  44.649  18.035 -0.29 -0.02    +0.065 A  ATOM     13  C   UNL     1      36.852  46.032  16.167 -0.36 -0.00    +0.009 A  ATOM     14  C   UNL     1      36.592  45.053  18.356 -0.31 -0.01    +0.029 A  ATOM     15  C   UNL     1      37.394  45.747  17.432 -0.35 +0.01    -0.017 A  BRANCH  12  16ATOM     16  C   UNL     1      34.510  43.982  19.043 -0.37 -0.02    +0.100 C  ATOM     17  N   UNL     1      33.905  43.373  19.824 -0.63 +0.00    -0.192 NA ENDBRANCH  12  16BRANCH  15  18ATOM     18  C   UNL     1      38.764  46.159  17.778 -0.39 +0.00    -0.015 A  ATOM     19  C   UNL     1      39.445  45.561  18.848 -0.42 -0.00    +0.010 A  ATOM     20  C   UNL     1      39.424  47.165  17.042 -0.40 -0.02    +0.056 A  ATOM     21  C   UNL     1      40.744  45.951  19.175 -0.44 +0.00    +0.025 A  ATOM     22  C   UNL     1      40.728  47.567  17.359 -0.41 -0.02    +0.138 A  ATOM     23  C   UNL     1      41.381  46.948  18.435 -0.47 -0.00    +0.083 A  ATOM     24  Cl  UNL     1      42.991  47.387  18.891 -0.70 -0.01    -0.080 Cl BRANCH  22  25ATOM     25  O   UNL     1      41.426  48.537  16.690 -0.71 +0.01    -0.495 OA ATOM     26  C   UNL     1      40.735  49.298  15.708 -0.47 -0.07    +0.278 C  ENDBRANCH  22  25ENDBRANCH  15  18ENDBRANCH   2  10TORSDOF 7TERENDMDL