MODEL        6USER    Run = 6USERUSER    Estimated Free Energy of Binding    =  -8.61 kcal/mol  [=(1)+(2)+(3)-(4)]USERUSER    (1) Final Intermolecular Energy     = -10.10 kcal/molUSER        vdW + Hbond + desolv Energy     =  -9.98 kcal/molUSER        Electrostatic Energy            =  -0.12 kcal/molUSER        Moving Ligand-Fixed Receptor    = -10.10 kcal/molUSER        Moving Ligand-Moving Receptor   =  +0.00 kcal/molUSER    (2) Final Total Internal Energy     =  -1.32 kcal/molUSER    (3) Torsional Free Energy           =  +1.49 kcal/molUSER    (4) Unbound System's Energy         =  -1.32 kcal/molUSERUSERREMARK SMILES CCN1CCC[C@H]1C(=O)c1ccc(-c2ccc(F)cc2)cc1C#NREMARK SMILES IDX 8 1 9 2 7 3 3 4 4 5 5 6 6 7 2 8 1 9 10 10 11 11 22 12 12 13REMARK SMILES IDX 21 14 13 15 23 16 24 17 14 18 15 19 20 20 16 21 19 22 17 23REMARK SMILES IDX 18 24REMARK H PARENTUSER                              x       y       z     vdW  Elec       q    TypeUSER                           _______ _______ _______ _____ _____    ______ ____ROOTATOM      1  C   UNL     1      38.438  46.291  15.200 -0.34 -0.06    +0.181 C  ATOM      2  O   UNL     1      39.147  45.578  14.494 -0.26 +0.06    -0.292 OA ENDROOTBRANCH   1   3ATOM      3  C   UNL     1      38.943  47.447  16.073 -0.43 -0.05    +0.129 C  ATOM      4  N   UNL     1      40.383  47.239  16.351 -0.26 +0.05    -0.294 NA ATOM      5  C   UNL     1      41.048  48.532  16.170 -0.58 -0.01    +0.085 C  ATOM      6  C   UNL     1      40.290  49.130  14.994 -0.62 -0.01    +0.018 C  ATOM      7  C   UNL     1      38.852  48.791  15.332 -0.55 -0.02    +0.029 C  BRANCH   4   8ATOM      8  C   UNL     1      40.656  46.624  17.649 -0.51 -0.01    +0.082 C  ATOM      9  C   UNL     1      39.377  46.120  18.312 -0.46 -0.00    +0.021 C  ENDBRANCH   4   8ENDBRANCH   1   3BRANCH   1  10ATOM     10  C   UNL     1      36.982  46.028  15.191 -0.35 -0.02    +0.037 A  ATOM     11  C   UNL     1      36.421  45.320  16.264 -0.34 -0.01    +0.014 A  ATOM     12  C   UNL     1      36.167  46.506  14.159 -0.41 -0.04    +0.063 A  ATOM     13  C   UNL     1      35.047  45.075  16.295 -0.31 -0.01    +0.009 A  ATOM     14  C   UNL     1      34.784  46.250  14.204 -0.37 -0.03    +0.029 A  ATOM     15  C   UNL     1      34.204  45.530  15.267 -0.30 +0.02    -0.017 A  BRANCH  12  16ATOM     16  C   UNL     1      36.691  47.221  13.029 -0.61 -0.04    +0.100 C  ATOM     17  N   UNL     1      37.183  47.735  12.112 -1.07 +0.03    -0.192 NA ENDBRANCH  12  16BRANCH  15  18ATOM     18  C   UNL     1      32.753  45.273  15.312 -0.34 +0.01    -0.018 A  ATOM     19  C   UNL     1      32.207  44.362  16.238 -0.32 -0.01    +0.012 A  ATOM     20  C   UNL     1      31.872  45.944  14.443 -0.47 -0.01    +0.012 A  ATOM     21  C   UNL     1      30.829  44.141  16.304 -0.28 -0.01    +0.040 A  ATOM     22  C   UNL     1      30.494  45.724  14.508 -0.47 -0.03    +0.040 A  ATOM     23  C   UNL     1      29.986  44.826  15.441 -0.27 -0.07    +0.123 A  ATOM     24  F   UNL     1      28.665  44.628  15.515 -0.05 +0.13    -0.207 F  ENDBRANCH  15  18ENDBRANCH   1  10TORSDOF 5TERENDMDL