REMARK SMILES N#Cc1cc(-c2ccc(F)c(O)c2)ccc1C(=O)NCC1CC1
REMARK SMILES IDX 3 1 4 2 5 3 14 4 15 5 16 6 2 7 1 8 17 9 19 10 18 11 20 13
REMARK SMILES IDX 21 14 22 15 23 16 6 17 7 18 13 19 8 20 11 21 9 22 10 23
REMARK SMILES IDX 12 24
REMARK H PARENT 19 12 12 25
ROOT
ATOM      1  C   UNL     1       0.063  -0.164   0.850  1.00  0.00     0.065 A 
ATOM      2  C   UNL     1       1.373  -0.513   0.475  1.00  0.00     0.029 A 
ATOM      3  C   UNL     1       2.155   0.330  -0.334  1.00  0.00    -0.017 A 
ATOM      4  C   UNL     1       1.595   1.544  -0.758  1.00  0.00     0.009 A 
ATOM      5  C   UNL     1       0.295   1.902  -0.392  1.00  0.00     0.016 A 
ATOM      6  C   UNL     1      -0.482   1.044   0.398  1.00  0.00     0.057 A 
ENDROOT
BRANCH   1   7
ATOM      7  C   UNL     1      -0.655  -1.055   1.712  1.00  0.00     0.100 C 
ATOM      8  N   UNL     1      -1.225  -1.809   2.386  1.00  0.00    -0.192 NA
ENDBRANCH   1   7
BRANCH   6   9
ATOM      9  C   UNL     1      -1.847   1.507   0.747  1.00  0.00     0.252 C 
ATOM     10  N   UNL     1      -2.861   0.589   0.605  1.00  0.00    -0.352 N 
ATOM     11  O   UNL     1      -2.016   2.670   1.091  1.00  0.00    -0.269 OA
ATOM     12  H   UNL     1      -2.700  -0.285   0.124  1.00  0.00     0.163 HD
BRANCH  10  13
ATOM     13  C   UNL     1      -4.234   0.968   0.839  1.00  0.00     0.119 C 
BRANCH  13  14
ATOM     14  C   UNL     1      -5.071  -0.265   0.938  1.00  0.00     0.008 C 
ATOM     15  C   UNL     1      -6.518  -0.243   0.516  1.00  0.00     0.006 C 
ATOM     16  C   UNL     1      -5.510  -1.002  -0.302  1.00  0.00     0.006 C 
ENDBRANCH  13  14
ENDBRANCH  10  13
ENDBRANCH   6   9
BRANCH   3  17
ATOM     17  C   UNL     1       3.525  -0.047  -0.719  1.00  0.00    -0.014 A 
ATOM     18  C   UNL     1       3.900  -0.108  -2.074  1.00  0.00     0.012 A 
ATOM     19  C   UNL     1       4.491  -0.354   0.259  1.00  0.00     0.058 A 
ATOM     20  C   UNL     1       5.199  -0.467  -2.444  1.00  0.00     0.044 A 
ATOM     21  C   UNL     1       5.787  -0.710  -0.116  1.00  0.00     0.151 A 
ATOM     22  C   UNL     1       6.134  -0.767  -1.462  1.00  0.00     0.164 A 
ATOM     23  F   UNL     1       7.377  -1.110  -1.831  1.00  0.00    -0.203 F 
BRANCH  21  24
ATOM     24  O   UNL     1       6.731  -1.006   0.826  1.00  0.00    -0.505 OA
ATOM     25  H   UNL     1       6.352  -0.895   1.712  1.00  0.00     0.293 HD
ENDBRANCH  21  24
ENDBRANCH   3  17
TORSDOF 6
