MODEL        10USER    Run = 10USERUSER    Estimated Free Energy of Binding    =  -9.60 kcal/mol  [=(1)+(2)+(3)-(4)]USERUSER    (1) Final Intermolecular Energy     = -11.69 kcal/molUSER        vdW + Hbond + desolv Energy     = -11.59 kcal/molUSER        Electrostatic Energy            =  -0.10 kcal/molUSER        Moving Ligand-Fixed Receptor    = -11.69 kcal/molUSER        Moving Ligand-Moving Receptor   =  +0.00 kcal/molUSER    (2) Final Total Internal Energy     =  -1.36 kcal/molUSER    (3) Torsional Free Energy           =  +2.09 kcal/molUSER    (4) Unbound System's Energy         =  -1.36 kcal/molUSERUSERREMARK SMILES CCC[C@@H](C)NC(=O)c1ccc(-c2ccc(N3CCCC3)c(C)c2)cc1C#NREMARK SMILES IDX 6 1 7 2 8 3 4 5 5 6 3 7 2 8 1 9 9 10 10 11 26 12 11 13 25 14REMARK SMILES IDX 12 15 27 16 28 17 13 18 14 19 24 20 15 21 22 22 16 23 23 24REMARK SMILES IDX 17 25 18 26 21 27 19 28 20 29REMARK H PARENT 6 4USER                              x       y       z     vdW  Elec       q    TypeUSER                           _______ _______ _______ _____ _____    ______ ____ROOTATOM      1  N   UNL     1      39.280  47.822  16.215 -0.21 +0.13    -0.350 N  ATOM      2  C   UNL     1      39.861  46.603  16.488 -0.34 -0.05    +0.252 C  ATOM      3  O   UNL     1      40.681  46.033  15.787 -0.35 +0.00    -0.269 OA ATOM      4  H   UNL     1      38.535  48.151  16.816 +0.10 -0.10    +0.164 HD ENDROOTBRANCH   1   5ATOM      5  C   UNL     1      39.540  48.593  14.998 -0.54 -0.03    +0.079 C  ATOM      6  C   UNL     1      38.681  48.104  13.832 -0.50 -0.01    +0.031 C  BRANCH   5   7ATOM      7  C   UNL     1      41.044  48.640  14.672 -0.61 -0.00    +0.024 C  BRANCH   7   8ATOM      8  C   UNL     1      41.681  50.034  14.685 -0.77 +0.00    -0.001 C  ATOM      9  C   UNL     1      42.521  50.333  13.454 -0.78 -0.00    +0.004 C  ENDBRANCH   7   8ENDBRANCH   5   7ENDBRANCH   1   5BRANCH   2  10ATOM     10  C   UNL     1      39.419  45.969  17.751 -0.40 -0.01    +0.057 A  ATOM     11  C   UNL     1      38.168  45.340  17.789 -0.37 -0.00    +0.016 A  ATOM     12  C   UNL     1      40.213  46.028  18.901 -0.40 -0.00    +0.065 A  ATOM     13  C   UNL     1      37.714  44.760  18.976 -0.36 -0.00    +0.009 A  ATOM     14  C   UNL     1      39.743  45.440  20.088 -0.36 +0.00    +0.029 A  ATOM     15  C   UNL     1      38.492  44.800  20.145 -0.35 +0.00    -0.017 A  BRANCH  12  16ATOM     16  C   UNL     1      41.519  46.623  18.901 -0.50 +0.00    +0.100 C  ATOM     17  N   UNL     1      42.561  47.128  18.827 -0.43 -0.02    -0.192 NA ENDBRANCH  12  16BRANCH  15  18ATOM     18  C   UNL     1      38.010  44.193  21.395 -0.36 -0.00    -0.018 A  ATOM     19  C   UNL     1      38.201  44.822  22.628 -0.33 +0.00    +0.011 A  ATOM     20  C   UNL     1      37.341  42.958  21.392 -0.39 +0.00    +0.014 A  ATOM     21  C   UNL     1      37.744  44.229  23.808 -0.30 +0.00    +0.027 A  ATOM     22  C   UNL     1      36.859  42.356  22.577 -0.46 -0.00    -0.027 A  ATOM     23  C   UNL     1      37.080  42.992  23.812 -0.36 +0.00    +0.040 A  ATOM     24  C   UNL     1      36.178  41.022  22.437 -0.42 +0.00    +0.046 C  BRANCH  23  25ATOM     25  N   UNL     1      36.686  42.512  25.052 -0.16 +0.01    -0.371 N  ATOM     26  C   UNL     1      35.887  43.368  25.927 -0.31 -0.01    +0.116 C  ATOM     27  C   UNL     1      37.662  41.739  25.828 -0.31 -0.01    +0.116 C  ATOM     28  C   UNL     1      35.998  42.672  27.279 -0.55 -0.01    +0.023 C  ATOM     29  C   UNL     1      37.433  42.171  27.277 -0.46 -0.00    +0.023 C  ENDBRANCH  23  25ENDBRANCH  15  18ENDBRANCH   2  10TORSDOF 7TERENDMDL