REMARK SMILES [2H]C([2H])([2H])C([2H])([2H])C([2H])([2H])[C@@]([2H])(NC(=O)c1ccc(-c2ccc(N3CCCC3)cc2)cc1C#N)C([2H])([2H])[2H]
REMARK SMILES IDX 13 1 14 2 15 3 11 5 35 6 8 7 5 8 2 9 16 10 17 11 32 12 18 13
REMARK SMILES IDX 31 14 19 15 33 16 34 17 20 18 21 19 30 20 22 21 29 22 23 23
REMARK SMILES IDX 24 24 25 25 28 26 26 27 27 28
REMARK H PARENT 13 4
ROOT
ATOM      1  N   UNL     1       4.442   1.199  -0.130  1.00  0.00    -0.350 N 
ATOM      2  C   UNL     1       3.660   0.863  -1.213  1.00  0.00     0.252 C 
ATOM      3  O   UNL     1       4.092   0.643  -2.338  1.00  0.00    -0.269 OA
ATOM      4  H   UNL     1       4.040   1.236   0.798  1.00  0.00     0.164 HD
ENDROOT
BRANCH   1   5
ATOM      5  C   UNL     1       5.890   1.337  -0.229  1.00  0.00     0.079 C 
ATOM      6  C   UNL     1       6.322   2.610   0.498  1.00  0.00     0.031 C 
BRANCH   5   7
ATOM      7  C   UNL     1       6.606   0.112   0.366  1.00  0.00     0.024 C 
BRANCH   7   8
ATOM      8  C   UNL     1       6.345  -1.177  -0.420  1.00  0.00    -0.001 C 
ATOM      9  C   UNL     1       7.138  -2.343   0.149  1.00  0.00     0.004 C 
ENDBRANCH   7   8
ENDBRANCH   5   7
ENDBRANCH   1   5
BRANCH   2  10
ATOM     10  C   UNL     1       2.209   0.705  -0.954  1.00  0.00     0.057 A 
ATOM     11  C   UNL     1       1.594  -0.440  -1.477  1.00  0.00     0.016 A 
ATOM     12  C   UNL     1       1.442   1.649  -0.262  1.00  0.00     0.065 A 
ATOM     13  C   UNL     1       0.229  -0.662  -1.279  1.00  0.00     0.009 A 
ATOM     14  C   UNL     1       0.069   1.414  -0.068  1.00  0.00     0.029 A 
ATOM     15  C   UNL     1      -0.557   0.257  -0.567  1.00  0.00    -0.017 A 
BRANCH  12  16
ATOM     16  C   UNL     1       2.000   2.868   0.245  1.00  0.00     0.100 C 
ATOM     17  N   UNL     1       2.442   3.841   0.694  1.00  0.00    -0.192 NA
ENDBRANCH  12  16
BRANCH  15  18
ATOM     18  C   UNL     1      -1.994   0.022  -0.355  1.00  0.00    -0.018 A 
ATOM     19  C   UNL     1      -2.461  -1.175   0.197  1.00  0.00     0.011 A 
ATOM     20  C   UNL     1      -2.948   0.987  -0.694  1.00  0.00     0.011 A 
ATOM     21  C   UNL     1      -3.832  -1.393   0.402  1.00  0.00     0.026 A 
ATOM     22  C   UNL     1      -4.317   0.759  -0.485  1.00  0.00     0.026 A 
ATOM     23  C   UNL     1      -4.800  -0.435   0.069  1.00  0.00     0.037 A 
BRANCH  23  24
ATOM     24  N   UNL     1      -6.141  -0.653   0.273  1.00  0.00    -0.372 N 
ATOM     25  C   UNL     1      -6.712  -1.926   0.706  1.00  0.00     0.116 C 
ATOM     26  C   UNL     1      -7.178   0.356   0.073  1.00  0.00     0.116 C 
ATOM     27  C   UNL     1      -8.211  -1.753   0.478  1.00  0.00     0.023 C 
ATOM     28  C   UNL     1      -8.422  -0.266   0.702  1.00  0.00     0.023 C 
ENDBRANCH  23  24
ENDBRANCH  15  18
ENDBRANCH   2  10
TORSDOF 7
