MODEL        8USER    Run = 8USERUSER    Estimated Free Energy of Binding    =  -8.02 kcal/mol  [=(1)+(2)+(3)-(4)]USERUSER    (1) Final Intermolecular Energy     =  -9.51 kcal/molUSER        vdW + Hbond + desolv Energy     =  -9.19 kcal/molUSER        Electrostatic Energy            =  -0.32 kcal/molUSER        Moving Ligand-Fixed Receptor    =  -9.51 kcal/molUSER        Moving Ligand-Moving Receptor   =  +0.00 kcal/molUSER    (2) Final Total Internal Energy     =  -0.59 kcal/molUSER    (3) Torsional Free Energy           =  +1.49 kcal/molUSER    (4) Unbound System's Energy         =  -0.59 kcal/molUSERUSERREMARK SMILES CCNC(=O)c1ccc(-c2ccc(F)c(O)c2F)cc1C#NREMARK SMILES IDX 6 1 7 2 8 3 9 4 19 5 20 6 4 7 3 8 5 10 2 11 1 12 21 13 22 14REMARK SMILES IDX 10 15 11 16 17 17 12 18 15 19 13 20 18 21 14 22 16 23REMARK H PARENT 3 9 16 24USER                              x       y       z     vdW  Elec       q    TypeUSER                           _______ _______ _______ _____ _____    ______ ____ROOTATOM      1  C   UNL     1      39.583  47.608  15.962 -0.47 -0.02    +0.057 A  ATOM      2  C   UNL     1      39.147  46.509  16.715 -0.42 -0.00    +0.016 A  ATOM      3  C   UNL     1      39.817  46.139  17.884 -0.45 -0.00    +0.010 A  ATOM      4  C   UNL     1      40.932  46.861  18.339 -0.50 +0.00    -0.014 A  ATOM      5  C   UNL     1      41.346  47.974  17.585 -0.48 -0.00    +0.029 A  ATOM      6  C   UNL     1      40.678  48.357  16.407 -0.51 -0.01    +0.065 A  ENDROOTBRANCH   1   7ATOM      7  C   UNL     1      38.805  47.933  14.742 -0.38 -0.10    +0.252 C  ATOM      8  N   UNL     1      37.469  47.600  14.754 -0.19 +0.21    -0.352 N  ATOM      9  H   UNL     1      37.031  47.241  15.592 +0.12 -0.12    +0.163 HD ATOM     10  O   UNL     1      39.361  48.513  13.816 -0.36 +0.08    -0.269 OA BRANCH   8  11ATOM     11  C   UNL     1      36.603  47.907  13.633 -0.53 -0.06    +0.112 C  ATOM     12  C   UNL     1      36.904  47.025  12.435 -0.72 -0.01    +0.027 C  ENDBRANCH   8  11ENDBRANCH   1   7BRANCH   6  13ATOM     13  C   UNL     1      41.136  49.528  15.719 -0.64 -0.02    +0.100 C  ATOM     14  N   UNL     1      41.502  50.450  15.118 -0.63 +0.05    -0.192 NA ENDBRANCH   6  13BRANCH   4  15ATOM     15  C   UNL     1      41.643  46.471  19.570 -0.43 +0.00    +0.022 A  ATOM     16  C   UNL     1      41.070  45.556  20.475 -0.36 +0.00    +0.015 A  ATOM     17  C   UNL     1      42.909  46.992  19.888 -0.35 +0.04    +0.175 A  ATOM     18  C   UNL     1      41.744  45.183  21.644 -0.26 +0.01    +0.044 A  ATOM     19  C   UNL     1      43.583  46.623  21.051 -0.19 +0.10    +0.188 A  ATOM     20  C   UNL     1      42.995  45.719  21.925 -0.17 +0.05    +0.167 A  ATOM     21  F   UNL     1      43.512  47.864  19.062 -0.19 -0.02    -0.202 F  ATOM     22  F   UNL     1      43.623  45.350  23.050 -0.02 -0.05    -0.203 F  BRANCH  19  23ATOM     23  O   UNL     1      44.815  47.144  21.333 -0.64 -0.52    -0.503 OA ATOM     24  H   UNL     1      44.724  48.114  21.363 -0.40 +0.08    +0.293 HD ENDBRANCH  19  23ENDBRANCH   4  15TORSDOF 5TERENDMDL