MODEL        6USER    Run = 6USERUSER    Estimated Free Energy of Binding    =  -9.58 kcal/mol  [=(1)+(2)+(3)-(4)]USERUSER    (1) Final Intermolecular Energy     = -11.67 kcal/molUSER        vdW + Hbond + desolv Energy     = -11.54 kcal/molUSER        Electrostatic Energy            =  -0.13 kcal/molUSER        Moving Ligand-Fixed Receptor    = -11.67 kcal/molUSER        Moving Ligand-Moving Receptor   =  +0.00 kcal/molUSER    (2) Final Total Internal Energy     =  -1.23 kcal/molUSER    (3) Torsional Free Energy           =  +2.09 kcal/molUSER    (4) Unbound System's Energy         =  -1.23 kcal/molUSERUSERREMARK SMILES [2H]C([2H])([2H])C([2H])([2H])C([2H])([2H])[C@@]([2H])(NC(=O)c1ccc(-c2ccc(N3CCCC3)cc2)cc1C#N)C([2H])([2H])[2H]REMARK SMILES IDX 13 1 14 2 15 3 11 5 35 6 8 7 5 8 2 9 16 10 17 11 32 12 18 13REMARK SMILES IDX 31 14 19 15 33 16 34 17 20 18 21 19 30 20 22 21 29 22 23 23REMARK SMILES IDX 24 24 25 25 28 26 26 27 27 28REMARK H PARENT 13 4USER                              x       y       z     vdW  Elec       q    TypeUSER                           _______ _______ _______ _____ _____    ______ ____ROOTATOM      1  N   UNL     1      32.619  41.724  17.506 -0.14 +0.13    -0.350 N  ATOM      2  C   UNL     1      33.179  42.567  18.440 -0.25 -0.04    +0.252 C  ATOM      3  O   UNL     1      32.949  42.520  19.642 -0.62 -0.03    -0.269 OA ATOM      4  H   UNL     1      32.951  41.728  16.550 -0.42 -0.11    +0.164 HD ENDROOTBRANCH   1   5ATOM      5  C   UNL     1      31.670  40.679  17.871 -0.39 -0.01    +0.079 C  ATOM      6  C   UNL     1      30.546  40.640  16.837 -0.40 -0.01    +0.031 C  BRANCH   5   7ATOM      7  C   UNL     1      32.362  39.308  17.961 -0.50 -0.00    +0.024 C  BRANCH   7   8ATOM      8  C   UNL     1      31.732  38.384  19.009 -0.55 -0.00    -0.001 C  ATOM      9  C   UNL     1      32.435  37.037  19.053 -0.65 +0.00    +0.004 C  ENDBRANCH   7   8ENDBRANCH   5   7ENDBRANCH   1   5BRANCH   2  10ATOM     10  C   UNL     1      34.169  43.547  17.933 -0.28 -0.02    +0.057 A  ATOM     11  C   UNL     1      35.501  43.363  18.326 -0.33 -0.00    +0.016 A  ATOM     12  C   UNL     1      33.828  44.643  17.132 -0.27 -0.03    +0.065 A  ATOM     13  C   UNL     1      36.494  44.244  17.893 -0.32 -0.00    +0.009 A  ATOM     14  C   UNL     1      34.837  45.523  16.701 -0.31 -0.02    +0.029 A  ATOM     15  C   UNL     1      36.182  45.336  17.069 -0.33 +0.01    -0.017 A  BRANCH  12  16ATOM     16  C   UNL     1      32.476  44.921  16.746 -0.29 -0.05    +0.100 C  ATOM     17  N   UNL     1      31.369  45.124  16.468 -0.80 +0.05    -0.192 NA ENDBRANCH  12  16BRANCH  15  18ATOM     18  C   UNL     1      37.229  46.263  16.609 -0.36 +0.01    -0.018 A  ATOM     19  C   UNL     1      38.528  46.206  17.125 -0.40 -0.00    +0.011 A  ATOM     20  C   UNL     1      36.967  47.234  15.637 -0.40 -0.01    +0.011 A  ATOM     21  C   UNL     1      39.524  47.089  16.680 -0.46 -0.01    +0.026 A  ATOM     22  C   UNL     1      37.971  48.112  15.199 -0.50 -0.02    +0.026 A  ATOM     23  C   UNL     1      39.277  48.066  15.706 -0.49 -0.01    +0.037 A  BRANCH  23  24ATOM     24  N   UNL     1      40.257  48.927  15.273 -0.27 +0.12    -0.372 N  ATOM     25  C   UNL     1      41.169  49.648  16.157 -0.48 -0.01    +0.116 C  ATOM     26  C   UNL     1      40.511  49.245  13.870 -0.03 -0.04    +0.116 C  ATOM     27  C   UNL     1      41.824  50.682  15.245 -0.57 -0.00    +0.023 C  ATOM     28  C   UNL     1      41.846  49.983  13.897 -0.75 -0.01    +0.023 C  ENDBRANCH  23  24ENDBRANCH  15  18ENDBRANCH   2  10TORSDOF 7TERENDMDL