REMARK SMILES CCNC(=O)c1ccc(-c2ccc(F)c(O)c2F)cc1C#N
REMARK SMILES IDX 6 1 7 2 8 3 9 4 19 5 20 6 4 7 3 8 5 10 2 11 1 12 21 13 22 14
REMARK SMILES IDX 10 15 11 16 17 17 12 18 15 19 13 20 18 21 14 22 16 23
REMARK H PARENT 3 9 16 24
ROOT
ATOM      1  C   UNL     1       1.413   0.385   0.344  1.00  0.00     0.057 A 
ATOM      2  C   UNL     1       0.650   1.346  -0.333  1.00  0.00     0.016 A 
ATOM      3  C   UNL     1      -0.729   1.176  -0.488  1.00  0.00     0.010 A 
ATOM      4  C   UNL     1      -1.384   0.051   0.037  1.00  0.00    -0.014 A 
ATOM      5  C   UNL     1      -0.608  -0.895   0.732  1.00  0.00     0.029 A 
ATOM      6  C   UNL     1       0.780  -0.734   0.896  1.00  0.00     0.065 A 
ENDROOT
BRANCH   1   7
ATOM      7  C   UNL     1       2.866   0.653   0.469  1.00  0.00     0.252 C 
ATOM      8  N   UNL     1       3.715  -0.393   0.182  1.00  0.00    -0.352 N 
ATOM      9  H   UNL     1       3.358  -1.265  -0.186  1.00  0.00     0.163 HD
ATOM     10  O   UNL     1       3.242   1.780   0.769  1.00  0.00    -0.269 OA
BRANCH   8  11
ATOM     11  C   UNL     1       5.154  -0.234   0.231  1.00  0.00     0.112 C 
ATOM     12  C   UNL     1       5.700   0.329  -1.069  1.00  0.00     0.027 C 
ENDBRANCH   8  11
ENDBRANCH   1   7
BRANCH   6  13
ATOM     13  C   UNL     1       1.491  -1.721   1.653  1.00  0.00     0.100 C 
ATOM     14  N   UNL     1       2.054  -2.555   2.231  1.00  0.00    -0.192 NA
ENDBRANCH   6  13
BRANCH   4  15
ATOM     15  C   UNL     1      -2.837  -0.132  -0.128  1.00  0.00     0.022 A 
ATOM     16  C   UNL     1      -3.359  -1.335  -0.641  1.00  0.00     0.015 A 
ATOM     17  C   UNL     1      -3.752   0.878   0.217  1.00  0.00     0.175 A 
ATOM     18  C   UNL     1      -4.739  -1.512  -0.798  1.00  0.00     0.044 A 
ATOM     19  C   UNL     1      -5.127   0.705   0.063  1.00  0.00     0.188 A 
ATOM     20  C   UNL     1      -5.614  -0.491  -0.445  1.00  0.00     0.167 A 
ATOM     21  F   UNL     1      -3.318   2.046   0.719  1.00  0.00    -0.202 F 
ATOM     22  F   UNL     1      -6.931  -0.680  -0.604  1.00  0.00    -0.203 F 
BRANCH  19  23
ATOM     23  O   UNL     1      -5.994   1.704   0.410  1.00  0.00    -0.503 OA
ATOM     24  H   UNL     1      -5.464   2.446   0.756  1.00  0.00     0.293 HD
ENDBRANCH  19  23
ENDBRANCH   4  15
TORSDOF 5
