REMARK SMILES CCC[C@@H](C)NC(=O)c1ccc(-c2ccc(N3CCCC3)c(O)c2)cc1C#N
REMARK SMILES IDX 6 1 7 2 8 3 4 5 5 6 3 7 2 8 1 9 9 10 10 11 26 12 11 13 25 14
REMARK SMILES IDX 12 15 27 16 28 17 13 18 14 19 24 20 15 21 22 22 16 23 23 24
REMARK SMILES IDX 17 26 18 27 21 28 19 29 20 30
REMARK H PARENT 6 4 23 25
ROOT
ATOM      1  N   UNL     1      -4.346  -0.649  -0.658  1.00  0.00    -0.350 N 
ATOM      2  C   UNL     1      -3.634   0.502  -0.406  1.00  0.00     0.252 C 
ATOM      3  O   UNL     1      -4.121   1.621  -0.300  1.00  0.00    -0.269 OA
ATOM      4  H   UNL     1      -3.857  -1.521  -0.811  1.00  0.00     0.164 HD
ENDROOT
BRANCH   1   5
ATOM      5  C   UNL     1      -5.804  -0.698  -0.764  1.00  0.00     0.079 C 
ATOM      6  C   UNL     1      -6.306   0.111  -1.960  1.00  0.00     0.031 C 
BRANCH   5   7
ATOM      7  C   UNL     1      -6.478  -0.308   0.564  1.00  0.00     0.024 C 
BRANCH   7   8
ATOM      8  C   UNL     1      -7.978  -0.612   0.591  1.00  0.00    -0.001 C 
ATOM      9  C   UNL     1      -8.579  -0.311   1.956  1.00  0.00     0.004 C 
ENDBRANCH   7   8
ENDBRANCH   5   7
ENDBRANCH   1   5
BRANCH   2  10
ATOM     10  C   UNL     1      -2.163   0.353  -0.311  1.00  0.00     0.057 A 
ATOM     11  C   UNL     1      -1.385   1.237  -1.071  1.00  0.00     0.016 A 
ATOM     12  C   UNL     1      -1.539  -0.581   0.523  1.00  0.00     0.065 A 
ATOM     13  C   UNL     1       0.010   1.165  -1.026  1.00  0.00     0.009 A 
ATOM     14  C   UNL     1      -0.136  -0.644   0.560  1.00  0.00     0.029 A 
ATOM     15  C   UNL     1       0.658   0.223  -0.213  1.00  0.00    -0.017 A 
BRANCH  12  16
ATOM     16  C   UNL     1      -2.284  -1.468   1.367  1.00  0.00     0.100 C 
ATOM     17  N   UNL     1      -2.872  -2.217   2.030  1.00  0.00    -0.192 NA
ENDBRANCH  12  16
BRANCH  15  18
ATOM     18  C   UNL     1       2.126   0.149  -0.166  1.00  0.00    -0.015 A 
ATOM     19  C   UNL     1       2.878  -0.034  -1.328  1.00  0.00     0.011 A 
ATOM     20  C   UNL     1       2.821   0.261   1.044  1.00  0.00     0.057 A 
ATOM     21  C   UNL     1       4.279  -0.104  -1.279  1.00  0.00     0.030 A 
ATOM     22  C   UNL     1       4.225   0.191   1.083  1.00  0.00     0.139 A 
ATOM     23  C   UNL     1       5.005   0.008  -0.080  1.00  0.00     0.079 A 
BRANCH  22  24
ATOM     24  O   UNL     1       4.826   0.290   2.316  1.00  0.00    -0.506 OA
ATOM     25  H   UNL     1       4.145   0.406   2.996  1.00  0.00     0.293 HD
ENDBRANCH  22  24
BRANCH  23  26
ATOM     26  N   UNL     1       6.383  -0.062  -0.091  1.00  0.00    -0.369 N 
ATOM     27  C   UNL     1       7.180  -0.445  -1.254  1.00  0.00     0.116 C 
ATOM     28  C   UNL     1       7.236   0.266   1.050  1.00  0.00     0.116 C 
ATOM     29  C   UNL     1       8.581  -0.655  -0.689  1.00  0.00     0.023 C 
ATOM     30  C   UNL     1       8.639   0.346   0.450  1.00  0.00     0.023 C 
ENDBRANCH  23  26
ENDBRANCH  15  18
ENDBRANCH   2  10
TORSDOF 8
