REMARK SMILES CCN1CCC[C@H]1C(=O)c1ccc(-c2ccc(F)cc2)cc1C#N
REMARK SMILES IDX 8 1 9 2 7 3 3 4 4 5 5 6 6 7 2 8 1 9 10 10 11 11 22 12 12 13
REMARK SMILES IDX 21 14 13 15 23 16 24 17 14 18 15 19 20 20 16 21 19 22 17 23
REMARK SMILES IDX 18 24
REMARK H PARENT
ROOT
ATOM      1  C   UNL     1      -1.377  -1.613  -0.834  1.00  0.00     0.181 C 
ATOM      2  O   UNL     1      -1.702  -2.022  -1.946  1.00  0.00    -0.292 OA
ENDROOT
BRANCH   1   3
ATOM      3  C   UNL     1      -2.188  -1.822   0.452  1.00  0.00     0.129 C 
ATOM      4  N   UNL     1      -2.974  -0.596   0.724  1.00  0.00    -0.294 NA
ATOM      5  C   UNL     1      -4.322  -1.025   1.105  1.00  0.00     0.085 C 
ATOM      6  C   UNL     1      -4.551  -2.231   0.206  1.00  0.00     0.018 C 
ATOM      7  C   UNL     1      -3.219  -2.950   0.288  1.00  0.00     0.029 C 
BRANCH   4   8
ATOM      8  C   UNL     1      -2.356   0.304   1.695  1.00  0.00     0.082 C 
ATOM      9  C   UNL     1      -3.107   1.629   1.792  1.00  0.00     0.021 C 
ENDBRANCH   4   8
ENDBRANCH   1   3
BRANCH   1  10
ATOM     10  C   UNL     1      -0.096  -0.882  -0.722  1.00  0.00     0.037 A 
ATOM     11  C   UNL     1       0.909  -1.412   0.100  1.00  0.00     0.014 A 
ATOM     12  C   UNL     1       0.133   0.292  -1.448  1.00  0.00     0.063 A 
ATOM     13  C   UNL     1       2.137  -0.756   0.210  1.00  0.00     0.009 A 
ATOM     14  C   UNL     1       1.375   0.941  -1.326  1.00  0.00     0.029 A 
ATOM     15  C   UNL     1       2.393   0.432  -0.496  1.00  0.00    -0.017 A 
BRANCH  12  16
ATOM     16  C   UNL     1      -0.867   0.886  -2.291  1.00  0.00     0.100 C 
ATOM     17  N   UNL     1      -1.622   1.443  -2.974  1.00  0.00    -0.192 NA
ENDBRANCH  12  16
BRANCH  15  18
ATOM     18  C   UNL     1       3.695   1.113  -0.380  1.00  0.00    -0.018 A 
ATOM     19  C   UNL     1       4.245   1.415   0.882  1.00  0.00     0.012 A 
ATOM     20  C   UNL     1       4.433   1.464  -1.526  1.00  0.00     0.012 A 
ATOM     21  C   UNL     1       5.493   2.032   0.995  1.00  0.00     0.040 A 
ATOM     22  C   UNL     1       5.682   2.080  -1.415  1.00  0.00     0.040 A 
ATOM     23  C   UNL     1       6.201   2.355  -0.154  1.00  0.00     0.123 A 
ATOM     24  F   UNL     1       7.404   2.930  -0.047  1.00  0.00    -0.207 F 
ENDBRANCH  15  18
ENDBRANCH   1  10
TORSDOF 5
