REMARK SMILES Cc1nn(C)c(C)c1N1CCN(C(=O)c2cc(C(C)(C)C)[nH]c2N2CCOC2=O)CC1
REMARK SMILES IDX 9 1 10 2 11 3 12 4 13 5 14 6 30 7 31 8 8 9 2 10 3 11 4 12
REMARK SMILES IDX 6 13 1 14 5 15 7 16 15 17 16 18 23 19 17 20 22 21 24 23
REMARK SMILES IDX 25 24 28 25 26 26 27 27 29 28 18 29 19 30 20 31 21 32
REMARK H PARENT 22 22
ROOT
ATOM      1  N   UNL     1       2.987   0.570  -0.437  1.00  0.00    -0.365 N 
ATOM      2  C   UNL     1       2.943  -0.818  -0.927  1.00  0.00     0.138 C 
ATOM      3  C   UNL     1       1.881  -1.654  -0.197  1.00  0.00     0.141 C 
ATOM      4  N   UNL     1       0.546  -1.055  -0.257  1.00  0.00    -0.335 N 
ATOM      5  C   UNL     1      -0.557  -1.872  -0.017  1.00  0.00     0.257 C 
ATOM      6  O   UNL     1      -0.423  -3.046   0.327  1.00  0.00    -0.269 OA
ATOM      7  C   UNL     1       0.498   0.410  -0.374  1.00  0.00     0.141 C 
ATOM      8  C   UNL     1       1.758   1.093   0.185  1.00  0.00     0.138 C 
ENDROOT
BRANCH   1   9
ATOM      9  C   UNL     1       4.168   1.167  -0.123  1.00  0.00     0.081 A 
ATOM     10  C   UNL     1       4.596   2.461  -0.525  1.00  0.00     0.083 A 
ATOM     11  N   UNL     1       5.802   2.756  -0.024  1.00  0.00    -0.176 NA
ATOM     12  N   UNL     1       6.144   1.656   0.669  1.00  0.00    -0.271 N 
ATOM     13  C   UNL     1       5.181   0.675   0.672  1.00  0.00     0.059 A 
ATOM     14  C   UNL     1       3.899   3.437  -1.395  1.00  0.00     0.071 C 
ATOM     15  C   UNL     1       7.425   1.624   1.337  1.00  0.00     0.174 C 
ATOM     16  C   UNL     1       5.325  -0.583   1.446  1.00  0.00     0.068 C 
ENDBRANCH   1   9
BRANCH   5  17
ATOM     17  C   UNL     1      -1.880  -1.280  -0.193  1.00  0.00     0.082 A 
ATOM     18  C   UNL     1      -2.348  -0.588  -1.356  1.00  0.00     0.039 A 
ATOM     19  C   UNL     1      -2.943  -1.309   0.702  1.00  0.00     0.128 A 
ATOM     20  C   UNL     1      -3.649  -0.179  -1.142  1.00  0.00     0.023 A 
ATOM     21  N   UNL     1      -3.987  -0.629   0.112  1.00  0.00    -0.344 N 
ATOM     22  H   UNL     1      -4.890  -0.510   0.560  1.00  0.00     0.168 HD
BRANCH  19  23
ATOM     23  N   UNL     1      -3.082  -1.853   1.975  1.00  0.00    -0.259 N 
ATOM     24  C   UNL     1      -2.153  -2.677   2.681  1.00  0.00     0.172 C 
ATOM     25  C   UNL     1      -4.280  -1.808   2.678  1.00  0.00     0.415 C 
ATOM     26  C   UNL     1      -2.769  -2.786   4.052  1.00  0.00     0.257 C 
ATOM     27  O   UNL     1      -4.149  -2.461   3.876  1.00  0.00    -0.447 OA
ATOM     28  O   UNL     1      -5.327  -1.280   2.326  1.00  0.00    -0.224 OA
ENDBRANCH  19  23
BRANCH  20  29
ATOM     29  C   UNL     1      -4.633   0.586  -2.008  1.00  0.00     0.002 C 
ATOM     30  C   UNL     1      -3.995   0.981  -3.355  1.00  0.00     0.017 C 
ATOM     31  C   UNL     1      -5.074   1.875  -1.289  1.00  0.00     0.017 C 
ATOM     32  C   UNL     1      -5.869  -0.287  -2.296  1.00  0.00     0.017 C 
ENDBRANCH  20  29
ENDBRANCH   5  17
TORSDOF 4
