REMARK SMILES CS/C(=C\c1ccc(O)c(O)c1)C(=O)Nc1cccc(C(=O)O)c1
REMARK SMILES IDX 13 1 14 2 15 3 3 5 2 6 1 7 4 8 5 9 6 10 12 11 7 12 10 13
REMARK SMILES IDX 8 14 11 15 9 17 16 19 17 20 24 21 18 22 20 23 19 24 21 25
REMARK SMILES IDX 22 26 23 27
REMARK H PARENT 15 4 11 16 9 18 23 28
ROOT
ATOM      1  C   UNL     1       0.828   0.165   0.268  1.00  0.00     0.262 C 
ATOM      2  O   UNL     1       1.252   1.133   0.892  1.00  0.00    -0.268 OA
ATOM      3  N   UNL     1       1.590  -0.862  -0.252  1.00  0.00    -0.322 N 
ATOM      4  H   UNL     1       1.062  -1.584  -0.731  1.00  0.00     0.170 HD
ENDROOT
BRANCH   1   5
ATOM      5  C   UNL     1      -0.659   0.011   0.001  1.00  0.00     0.073 C 
BRANCH   5   6
ATOM      6  S   UNL     1      -1.164  -1.147  -1.198  1.00  0.00    -0.124 SA
ATOM      7  C   UNL     1      -1.352  -0.039  -2.617  1.00  0.00     0.091 C 
ENDBRANCH   5   6
BRANCH   5   8
ATOM      8  C   UNL     1      -1.496   0.799   0.702  1.00  0.00     0.029 C 
BRANCH   8   9
ATOM      9  C   UNL     1      -2.962   0.840   0.622  1.00  0.00    -0.020 A 
ATOM     10  C   UNL     1      -3.589   2.033   0.228  1.00  0.00     0.012 A 
ATOM     11  C   UNL     1      -3.744  -0.267   0.971  1.00  0.00     0.058 A 
ATOM     12  C   UNL     1      -4.984   2.118   0.160  1.00  0.00     0.051 A 
ATOM     13  C   UNL     1      -5.127  -0.173   0.900  1.00  0.00     0.157 A 
ATOM     14  C   UNL     1      -5.746   1.007   0.497  1.00  0.00     0.157 A 
BRANCH  13  15
ATOM     15  O   UNL     1      -5.887  -1.258   1.238  1.00  0.00    -0.504 OA
ATOM     16  H   UNL     1      -6.810  -0.958   1.119  1.00  0.00     0.293 HD
ENDBRANCH  13  15
BRANCH  14  17
ATOM     17  O   UNL     1      -7.112   1.027   0.453  1.00  0.00    -0.504 OA
ATOM     18  H   UNL     1      -7.393   1.912   0.164  1.00  0.00     0.293 HD
ENDBRANCH  14  17
ENDBRANCH   8   9
ENDBRANCH   5   8
ENDBRANCH   1   5
BRANCH   3  19
ATOM     19  C   UNL     1       2.987  -1.031  -0.197  1.00  0.00     0.042 A 
ATOM     20  C   UNL     1       3.509  -2.177  -0.812  1.00  0.00     0.026 A 
ATOM     21  C   UNL     1       3.862  -0.135   0.423  1.00  0.00     0.041 A 
ATOM     22  C   UNL     1       4.882  -2.428  -0.811  1.00  0.00     0.003 A 
ATOM     23  C   UNL     1       5.243  -0.383   0.427  1.00  0.00     0.061 A 
ATOM     24  C   UNL     1       5.750  -1.532  -0.192  1.00  0.00     0.016 A 
BRANCH  23  25
ATOM     25  C   UNL     1       6.209   0.539   1.073  1.00  0.00     0.335 C 
ATOM     26  O   UNL     1       7.416   0.386   1.117  1.00  0.00    -0.246 OA
BRANCH  25  27
ATOM     27  O   UNL     1       5.622   1.610   1.633  1.00  0.00    -0.478 OA
ATOM     28  H   UNL     1       6.364   2.120   2.017  1.00  0.00     0.297 HD
ENDBRANCH  25  27
ENDBRANCH  23  25
ENDBRANCH   3  19
TORSDOF 9
