MODEL        4USER    Run = 4USERUSER    Estimated Free Energy of Binding    =  -9.09 kcal/mol  [=(1)+(2)+(3)-(4)]USERUSER    (1) Final Intermolecular Energy     = -10.29 kcal/molUSER        vdW + Hbond + desolv Energy     = -10.16 kcal/molUSER        Electrostatic Energy            =  -0.12 kcal/molUSER        Moving Ligand-Fixed Receptor    = -10.29 kcal/molUSER        Moving Ligand-Moving Receptor   =  +0.00 kcal/molUSER    (2) Final Total Internal Energy     =  -0.99 kcal/molUSER    (3) Torsional Free Energy           =  +1.19 kcal/molUSER    (4) Unbound System's Energy         =  -0.99 kcal/molUSERUSERREMARK SMILES Cc1nn(C)c(C)c1N1CCN(C(=O)c2cc(C(C)(C)C)[nH]c2N2CCOC2=O)CC1REMARK SMILES IDX 9 1 10 2 11 3 12 4 13 5 14 6 30 7 31 8 8 9 2 10 3 11 4 12REMARK SMILES IDX 6 13 1 14 5 15 7 16 15 17 16 18 23 19 17 20 22 21 24 23REMARK SMILES IDX 25 24 28 25 26 26 27 27 29 28 18 29 19 30 20 31 21 32REMARK H PARENT 22 22USER                              x       y       z     vdW  Elec       q    TypeUSER                           _______ _______ _______ _____ _____    ______ ____ROOTATOM      1  N   UNL     1      38.765  47.223  17.081 -0.15 +0.14    -0.365 N  ATOM      2  C   UNL     1      38.036  47.934  16.017 -0.29 -0.09    +0.138 C  ATOM      3  C   UNL     1      37.261  46.971  15.105 -0.37 -0.08    +0.141 C  ATOM      4  N   UNL     1      36.348  46.098  15.846 -0.13 +0.22    -0.335 N  ATOM      5  C   UNL     1      35.306  45.487  15.150 -0.23 -0.18    +0.257 C  ATOM      6  O   UNL     1      35.199  45.597  13.929 -0.23 +0.16    -0.269 OA ATOM      7  C   UNL     1      36.731  45.786  17.231 -0.32 -0.06    +0.141 C  ATOM      8  C   UNL     1      38.246  45.899  17.469 -0.35 -0.04    +0.138 C  ENDROOTBRANCH   1   9ATOM      9  C   UNL     1      40.068  47.503  17.347 -0.35 -0.02    +0.081 A  ATOM     10  C   UNL     1      40.889  48.442  16.666 -0.46 -0.01    +0.083 A  ATOM     11  N   UNL     1      42.118  48.493  17.194 -0.37 -0.03    -0.176 NA ATOM     12  N   UNL     1      42.085  47.584  18.184 -0.37 +0.01    -0.271 N  ATOM     13  C   UNL     1      40.861  46.978  18.345 -0.45 -0.00    +0.059 A  ATOM     14  C   UNL     1      40.550  49.293  15.501 -0.64 -0.02    +0.071 C  ATOM     15  C   UNL     1      43.279  47.362  18.966 -0.40 +0.03    +0.174 C  ATOM     16  C   UNL     1      40.588  46.007  19.434 -0.43 +0.00    +0.068 C  ENDBRANCH   1   9BRANCH   5  17ATOM     17  C   UNL     1      34.344  44.713  15.929 -0.26 -0.05    +0.082 A  ATOM     18  C   UNL     1      34.655  43.784  16.973 -0.30 -0.02    +0.039 A  ATOM     19  C   UNL     1      32.957  44.757  15.841 -0.25 -0.08    +0.128 A  ATOM     20  C   UNL     1      33.479  43.256  17.469 -0.31 -0.01    +0.023 A  ATOM     21  N   UNL     1      32.465  43.862  16.767 -0.09 +0.13    -0.344 N  ATOM     22  H   UNL     1      31.472  43.707  16.909 +0.12 -0.05    +0.168 HD BRANCH  19  23ATOM     23  N   UNL     1      32.092  45.483  15.029 -0.26 +0.19    -0.259 N  ATOM     24  C   UNL     1      32.407  46.198  13.833 -0.12 -0.14    +0.172 C  ATOM     25  C   UNL     1      30.783  45.766  15.400 -0.20 -0.18    +0.415 C  ATOM     26  C   UNL     1      31.053  46.608  13.315 -0.32 -0.14    +0.257 C  ATOM     27  O   UNL     1      30.177  46.536  14.441 -0.38 +0.17    -0.447 OA ATOM     28  O   UNL     1      30.208  45.409  16.420 -0.60 +0.02    -0.224 OA ENDBRANCH  19  23BRANCH  20  29ATOM     29  C   UNL     1      33.198  42.240  18.561 -0.45 -0.00    +0.002 C  ATOM     30  C   UNL     1      32.023  42.693  19.450 -0.34 +0.00    +0.017 C  ATOM     31  C   UNL     1      34.441  42.074  19.456 -0.39 -0.00    +0.017 C  ATOM     32  C   UNL     1      32.835  40.881  17.934 -0.46 -0.00    +0.017 C  ENDBRANCH  20  29ENDBRANCH   5  17TORSDOF 4TERENDMDL