MODEL        7USER    Run = 7USERUSER    Estimated Free Energy of Binding    =  -9.03 kcal/mol  [=(1)+(2)+(3)-(4)]USERUSER    (1) Final Intermolecular Energy     = -10.82 kcal/molUSER        vdW + Hbond + desolv Energy     = -10.47 kcal/molUSER        Electrostatic Energy            =  -0.35 kcal/molUSER        Moving Ligand-Fixed Receptor    = -10.82 kcal/molUSER        Moving Ligand-Moving Receptor   =  +0.00 kcal/molUSER    (2) Final Total Internal Energy     =  -1.27 kcal/molUSER    (3) Torsional Free Energy           =  +1.79 kcal/molUSER    (4) Unbound System's Energy         =  -1.27 kcal/molUSERUSERREMARK SMILES CCNC(=O)Nc1ccc(C(=O)Nc2cc(-c3cncs3)ccn2)cc1OREMARK SMILES IDX 7 1 8 2 9 3 10 4 25 5 26 6 6 7 3 8 4 9 5 11 2 13 1 14 27 15REMARK SMILES IDX 11 17 13 18 12 19 14 21 15 22 24 23 16 24 23 25 22 26 17 27REMARK SMILES IDX 18 28 21 29 19 30 20 31REMARK H PARENT 3 10 6 12 27 16 13 20USER                              x       y       z     vdW  Elec       q    TypeUSER                           _______ _______ _______ _____ _____    ______ ____ROOTATOM      1  C   UNL     1      38.238  47.730  14.616 -0.44 -0.04    +0.085 A  ATOM      2  C   UNL     1      38.352  47.053  15.829 -0.41 -0.01    +0.031 A  ATOM      3  C   UNL     1      37.385  46.114  16.207 -0.36 -0.01    +0.016 A  ATOM      4  C   UNL     1      36.289  45.852  15.373 -0.34 -0.03    +0.044 A  ATOM      5  C   UNL     1      36.181  46.512  14.143 -0.41 -0.04    +0.062 A  ATOM      6  C   UNL     1      37.151  47.443  13.777 -0.42 -0.07    +0.139 A  ENDROOTBRANCH   1   7ATOM      7  N   UNL     1      39.164  48.684  14.152 -0.22 +0.13    -0.305 N  ATOM      8  N   UNL     1      41.046  49.915  13.865 -0.23 +0.12    -0.338 N  ATOM      9  C   UNL     1      40.421  48.953  14.639 -0.34 -0.09    +0.319 C  ATOM     10  H   UNL     1      40.796  49.868  12.888 +0.12 -0.05    +0.165 HD ATOM     11  O   UNL     1      40.949  48.447  15.620 -0.50 +0.03    -0.249 OA ATOM     12  H   UNL     1      38.786  49.331  13.471 -0.29 -0.09    +0.172 HD BRANCH   8  13ATOM     13  C   UNL     1      42.417  50.278  14.156 -0.63 -0.02    +0.114 C  ATOM     14  C   UNL     1      43.102  50.866  12.937 -0.64 -0.01    +0.027 C  ENDBRANCH   8  13ENDBRANCH   1   7BRANCH   6  15ATOM     15  O   UNL     1      37.061  48.103  12.576 -0.81 +0.11    -0.506 OA ATOM     16  H   UNL     1      36.222  47.856  12.151 +0.17 -0.14    +0.293 HD ENDBRANCH   6  15BRANCH   4  17ATOM     17  C   UNL     1      35.237  44.857  15.732 -0.21 -0.14    +0.256 C  ATOM     18  N   UNL     1      33.994  45.380  15.993 -0.13 +0.27    -0.307 N  ATOM     19  O   UNL     1      35.542  43.670  15.737 -0.28 +0.11    -0.269 OA ATOM     20  H   UNL     1      33.817  46.365  15.851 -0.19 -0.32    +0.171 HD BRANCH  18  21ATOM     21  C   UNL     1      32.836  44.702  16.378 -0.23 -0.07    +0.133 A  ATOM     22  C   UNL     1      32.822  43.466  17.006 -0.28 -0.02    +0.056 A  ATOM     23  N   UNL     1      31.707  45.382  16.086 -0.64 +0.12    -0.239 NA ATOM     24  C   UNL     1      31.594  42.884  17.352 -0.30 +0.00    -0.002 A  ATOM     25  C   UNL     1      30.532  44.812  16.425 -0.20 -0.02    +0.114 A  ATOM     26  C   UNL     1      30.425  43.584  17.051 -0.24 -0.01    +0.030 A  BRANCH  24  27ATOM     27  C   UNL     1      31.565  41.585  18.034 -0.29 -0.01    +0.054 A  ATOM     28  C   UNL     1      32.262  41.157  19.153 -0.27 +0.00    +0.131 A  ATOM     29  S   UNL     1      30.593  40.282  17.462 -0.44 +0.01    -0.122 S  ATOM     30  N   UNL     1      32.034  39.855  19.557 -0.71 -0.06    -0.252 NA ATOM     31  C   UNL     1      31.174  39.297  18.738 -0.30 +0.02    +0.176 A  ENDBRANCH  24  27ENDBRANCH  18  21ENDBRANCH   4  17TORSDOF 6TERENDMDL