MODEL        6USER    Run = 6USERUSER    Estimated Free Energy of Binding    =  -8.08 kcal/mol  [=(1)+(2)+(3)-(4)]USERUSER    (1) Final Intermolecular Energy     =  -9.28 kcal/molUSER        vdW + Hbond + desolv Energy     =  -9.22 kcal/molUSER        Electrostatic Energy            =  -0.06 kcal/molUSER        Moving Ligand-Fixed Receptor    =  -9.28 kcal/molUSER        Moving Ligand-Moving Receptor   =  +0.00 kcal/molUSER    (2) Final Total Internal Energy     =  -0.82 kcal/molUSER    (3) Torsional Free Energy           =  +1.19 kcal/molUSER    (4) Unbound System's Energy         =  -0.82 kcal/molUSERUSERREMARK SMILES Cc1ccc(O)cc1Nc1nccc(-c2cc3ncccc3[nH]2)n1REMARK SMILES IDX 9 1 8 3 2 4 3 5 4 6 7 7 5 8 1 9 6 10 10 12 11 13 24 14 12 15REMARK SMILES IDX 14 16 13 17 15 18 16 19 23 20 17 21 22 22 18 23 21 24 19 25REMARK SMILES IDX 20 26REMARK H PARENT 9 2 6 11 23 27USER                              x       y       z     vdW  Elec       q    TypeUSER                           _______ _______ _______ _____ _____    ______ ____ROOTATOM      1  N   UNL     1      34.180  45.882  15.629 -0.06 +0.37    -0.324 N  ATOM      2  H   UNL     1      33.393  46.201  15.086 -0.23 -0.24    +0.170 HD ENDROOTBRANCH   1   3ATOM      3  C   UNL     1      33.917  44.988  16.678 -0.29 -0.03    +0.047 A  ATOM      4  C   UNL     1      33.825  45.470  18.007 -0.40 +0.02    -0.027 A  ATOM      5  C   UNL     1      33.604  44.572  19.069 -0.43 -0.00    +0.009 A  ATOM      6  C   UNL     1      33.492  43.203  18.836 -0.35 -0.01    +0.046 A  ATOM      7  C   UNL     1      33.811  43.605  16.474 -0.29 -0.03    +0.072 A  ATOM      8  C   UNL     1      33.600  42.730  17.538 -0.28 -0.04    +0.117 A  ATOM      9  C   UNL     1      33.957  46.936  18.325 -0.53 -0.04    +0.046 C  BRANCH   8  10ATOM     10  O   UNL     1      33.503  41.398  17.256 -0.12 +0.26    -0.508 OA ATOM     11  H   UNL     1      32.910  41.287  16.495 -0.33 -0.25    +0.293 HD ENDBRANCH   8  10ENDBRANCH   1   3BRANCH   1  12ATOM     12  C   UNL     1      35.349  46.342  15.030 -0.14 -0.22    +0.227 A  ATOM     13  N   UNL     1      35.246  46.612  13.717 -0.33 +0.17    -0.221 NA ATOM     14  N   UNL     1      36.474  46.533  15.730 -0.24 +0.16    -0.211 NA ATOM     15  C   UNL     1      36.344  47.080  13.096 -0.51 -0.06    +0.117 A  ATOM     16  C   UNL     1      37.550  47.006  15.069 -0.36 -0.05    +0.092 A  ATOM     17  C   UNL     1      37.540  47.299  13.728 -0.48 -0.02    +0.051 A  BRANCH  16  18ATOM     18  C   UNL     1      38.727  47.184  15.912 -0.40 -0.03    +0.067 A  ATOM     19  C   UNL     1      39.761  48.108  15.893 -0.49 -0.02    +0.058 A  ATOM     20  N   UNL     1      38.981  46.337  16.973 -0.18 +0.09    -0.352 N  ATOM     21  C   UNL     1      40.642  47.802  16.957 -0.46 -0.01    +0.089 A  ATOM     22  C   UNL     1      40.137  46.691  17.621 -0.44 -0.01    +0.065 A  ATOM     23  N   UNL     1      41.786  48.431  17.324 -0.68 -0.01    -0.255 NA ATOM     24  C   UNL     1      40.789  46.141  18.724 -0.46 -0.00    +0.030 A  ATOM     25  C   UNL     1      42.404  47.887  18.395 -0.34 +0.00    +0.112 A  ATOM     26  C   UNL     1      41.965  46.779  19.109 -0.50 +0.00    +0.022 A  ATOM     27  H   UNL     1      38.375  45.564  17.221 +0.11 -0.04    +0.167 HD ENDBRANCH  16  18ENDBRANCH   1  12TORSDOF 4TERENDMDL