MODEL        10USER    Run = 10USERUSER    Estimated Free Energy of Binding    =  -7.65 kcal/mol  [=(1)+(2)+(3)-(4)]USERUSER    (1) Final Intermolecular Energy     = -10.34 kcal/molUSER        vdW + Hbond + desolv Energy     = -10.09 kcal/molUSER        Electrostatic Energy            =  -0.25 kcal/molUSER        Moving Ligand-Fixed Receptor    = -10.34 kcal/molUSER        Moving Ligand-Moving Receptor   =  +0.00 kcal/molUSER    (2) Final Total Internal Energy     =  -3.59 kcal/molUSER    (3) Torsional Free Energy           =  +2.68 kcal/molUSER    (4) Unbound System's Energy         =  -3.59 kcal/molUSERUSERREMARK SMILES COc1ccccc1CC=C(Nc1ccccc1Cl)N(N)NREMARK SMILES IDX 10 1 9 2 8 3 3 4 4 5 5 6 7 7 6 8 2 9 1 10 11 11 12 12 13 14REMARK SMILES IDX 14 15 18 16 15 17 17 18 16 19 19 20 20 21 21 22 22 25REMARK H PARENT 12 13 21 23 21 24 22 26 22 27USER                              x       y       z     vdW  Elec       q    TypeUSER                           _______ _______ _______ _____ _____    ______ ____ROOTATOM      1  C   UNL     1      35.178  44.688  16.656 -0.35 -0.01    +0.025 C  ENDROOTBRANCH   1   2ATOM      2  C   UNL     1      36.303  43.728  16.931 -0.36 -0.02    +0.070 C  BRANCH   2   3ATOM      3  C   UNL     1      37.282  44.284  17.945 -0.31 +0.00    -0.002 A  ATOM      4  C   UNL     1      37.044  44.200  19.331 -0.28 -0.01    +0.122 A  ATOM      5  C   UNL     1      37.975  44.746  20.221 -0.31 -0.00    +0.047 A  ATOM      6  C   UNL     1      39.128  45.378  19.746 -0.38 -0.00    +0.004 A  ATOM      7  C   UNL     1      38.441  44.933  17.482 -0.35 -0.00    +0.008 A  ATOM      8  C   UNL     1      39.360  45.473  18.378 -0.43 -0.00    +0.001 A  BRANCH   4   9ATOM      9  O   UNL     1      35.880  43.580  19.704 -0.10 +0.05    -0.496 OA ATOM     10  C   UNL     1      35.983  42.470  20.585 -0.33 -0.00    +0.278 C  ENDBRANCH   4   9ENDBRANCH   2   3ENDBRANCH   1   2BRANCH   1  11ATOM     11  C   UNL     1      35.043  45.971  17.073 -0.33 -0.11    +0.133 C  BRANCH  11  12ATOM     12  N   UNL     1      35.863  46.962  16.521 -0.14 +0.38    -0.339 N  ATOM     13  H   UNL     1      35.616  47.898  16.836 -0.07 -0.33    +0.168 HD BRANCH  12  14ATOM     14  C   UNL     1      36.236  47.016  15.147 -0.32 -0.05    +0.058 A  ATOM     15  C   UNL     1      35.373  46.609  14.119 -0.41 -0.02    +0.027 A  ATOM     16  C   UNL     1      37.548  47.392  14.789 -0.42 -0.04    +0.064 A  ATOM     17  C   UNL     1      35.788  46.614  12.782 -0.61 -0.00    +0.002 A  ATOM     18  C   UNL     1      37.964  47.398  13.454 -0.50 -0.01    +0.023 A  ATOM     19  C   UNL     1      37.081  47.010  12.450 -0.65 -0.00    +0.002 A  ATOM     20  Cl  UNL     1      38.680  47.897  15.996 -0.61 +0.04    -0.082 Cl ENDBRANCH  12  14ENDBRANCH  11  12BRANCH  11  21ATOM     21  N   UNL     1      34.074  46.343  18.040 -0.37 +0.20    -0.230 N  BRANCH  21  22ATOM     22  N   UNL     1      33.855  47.647  18.429 -0.87 +0.25    -0.231 NA ATOM     23  H   UNL     1      33.618  48.191  17.601 -0.44 -0.43    +0.145 HD ATOM     24  H   UNL     1      33.063  47.696  19.066 -0.37 -0.10    +0.145 HD ENDBRANCH  21  22BRANCH  21  25ATOM     25  N   UNL     1      33.841  45.464  19.082 -0.29 +0.10    -0.231 NA ATOM     26  H   UNL     1      33.170  45.898  19.718 -0.41 -0.08    +0.145 HD ATOM     27  H   UNL     1      34.709  45.372  19.605 -0.09 -0.05    +0.145 HD ENDBRANCH  21  25ENDBRANCH  11  21ENDBRANCH   1  11TORSDOF 9TERENDMDL