REMARK SMILES CN1CCN(c2cc(N[C@@H]3C=CCN=CC3)c(-c3c(F)c(F)cc(F)c3F)cn2)CC1
REMARK SMILES IDX 10 1 9 2 8 4 6 5 7 6 29 7 28 8 17 9 5 10 2 11 3 12 31 13
REMARK SMILES IDX 4 14 30 15 1 16 18 17 19 18 26 19 21 20 24 21 23 22 20 23
REMARK SMILES IDX 27 24 22 25 25 26 11 27 16 29 15 30 14 31 13 32 12 33
REMARK H PARENT 9 3
REMARK Flexibility Score:   64.900
ROOT
ATOM      1  C   UNL     1      -1.677  -1.538   1.511  1.00  0.00     0.107 C 
ENDROOT
BRANCH   1   2
ATOM      2  N   UNL     1      -1.739  -0.206   0.911  1.00  0.00    -0.378 N 
ATOM      3  H   UNL     1      -2.656  -0.031   0.509  1.00  0.00     0.161 HD
BRANCH   2   4
ATOM      4  C   UNL     1      -0.711   0.326   0.114  1.00  0.00     0.048 A 
ATOM      5  C   UNL     1       1.625   0.415  -0.617  1.00  0.00     0.130 A 
ATOM      6  C   UNL     1       0.600  -0.175   0.132  1.00  0.00     0.073 A 
ATOM      7  N   UNL     1       1.373   1.488  -1.389  1.00  0.00    -0.239 NA
ATOM      8  C   UNL     1       0.125   2.005  -1.373  1.00  0.00     0.124 A 
ATOM      9  C   UNL     1      -0.944   1.493  -0.641  1.00  0.00     0.030 A 
BRANCH   5  10
ATOM     10  N   UNL     1       2.911  -0.125  -0.607  1.00  0.00    -0.354 N 
ATOM     11  N   UNL     1       5.874  -0.276  -0.216  1.00  0.00    -0.303 NA
ATOM     12  C   UNL     1       5.188  -0.314  -1.529  1.00  0.00     0.105 C 
ATOM     13  C   UNL     1       4.928   0.025   0.877  1.00  0.00     0.105 C 
ATOM     14  C   UNL     1       3.855   0.467  -1.571  1.00  0.00     0.133 C 
ATOM     15  C   UNL     1       3.486  -0.508   0.695  1.00  0.00     0.133 C 
ATOM     16  C   UNL     1       6.603  -1.519   0.019  1.00  0.00     0.105 C 
ENDBRANCH   5  10
BRANCH   9  17
ATOM     17  C   UNL     1      -2.243   2.173  -0.684  1.00  0.00     0.063 A 
ATOM     18  C   UNL     1      -3.229   1.800  -1.606  1.00  0.00     0.169 A 
ATOM     19  C   UNL     1      -2.546   3.216   0.201  1.00  0.00     0.169 A 
ATOM     20  C   UNL     1      -4.468   2.440  -1.634  1.00  0.00     0.162 A 
ATOM     21  C   UNL     1      -3.787   3.851   0.167  1.00  0.00     0.162 A 
ATOM     22  C   UNL     1      -4.758   3.469  -0.749  1.00  0.00     0.084 A 
ATOM     23  F   UNL     1      -2.991   0.806  -2.476  1.00  0.00    -0.203 F 
ATOM     24  F   UNL     1      -1.633   3.622   1.097  1.00  0.00    -0.203 F 
ATOM     25  F   UNL     1      -5.396   2.063  -2.524  1.00  0.00    -0.204 F 
ATOM     26  F   UNL     1      -4.054   4.846   1.023  1.00  0.00    -0.204 F 
ENDBRANCH   9  17
ENDBRANCH   2   4
ENDBRANCH   1   2
BRANCH   1  27
ATOM     27  C   UNL     1      -1.815  -2.600   0.469  1.00  0.00    -0.005 CG0
ATOM     28  G   UNL     1      -2.920  -2.847  -0.247  1.00  0.00     0.000 G0
ENDBRANCH   1  27
BRANCH   1  29
ATOM     29  C   UNL     1      -2.737  -1.687   2.590  1.00  0.00     0.076 C 
BRANCH  29  30
ATOM     30  C   UNL     1      -4.183  -1.586   2.192  1.00  0.00     0.080 C 
BRANCH  30  31
ATOM     31  N   UNL     1      -4.762  -1.743   1.062  1.00  0.00    -0.293 NA
BRANCH  31  32
ATOM     32  C   UNL     1      -4.184  -2.056  -0.228  1.00  0.00     0.169 C 
BRANCH  32  33
ATOM     33  C   UNL     1      -2.920  -2.847  -0.247  1.00  0.00    -0.006 CG0
ATOM     34  G   UNL     1      -1.815  -2.600   0.469  1.00  0.00     0.000 G0
ENDBRANCH  32  33
ENDBRANCH  31  32
ENDBRANCH  30  31
ENDBRANCH  29  30
ENDBRANCH   1  29
TORSDOF 4
