MODEL        9USER    Run = 9USERUSER    Estimated Free Energy of Binding    =  -7.43 kcal/mol  [=(1)+(2)+(3)-(4)]USERUSER    (1) Final Intermolecular Energy     =  -8.32 kcal/molUSER        vdW + Hbond + desolv Energy     =  -8.31 kcal/molUSER        Electrostatic Energy            =  -0.01 kcal/molUSER        Moving Ligand-Fixed Receptor    =  -8.32 kcal/molUSER        Moving Ligand-Moving Receptor   =  +0.00 kcal/molUSER    (2) Final Total Internal Energy     =  -0.86 kcal/molUSER    (3) Torsional Free Energy           =  +0.89 kcal/molUSER    (4) Unbound System's Energy         =  -0.86 kcal/molUSERUSERREMARK SMILES COc1ccc([C@@H]2CSc3ncc(N4CCC(C)CC4)nc3N2)o1REMARK SMILES IDX 7 1 8 2 9 3 10 4 11 5 12 6 13 7 21 8 22 9 23 10 6 12 3 13REMARK SMILES IDX 4 14 24 15 5 16 2 17 1 18 14 19 15 20 20 21 16 22 19 23REMARK SMILES IDX 17 24 18 25REMARK H PARENT 23 11USER                              x       y       z     vdW  Elec       q    TypeUSER                           _______ _______ _______ _____ _____    ______ ____ROOTATOM      1  C   UNL     1      38.282  45.856  14.675 -0.35 -0.05    +0.158 C  ATOM      2  C   UNL     1      37.015  46.041  13.820 -0.44 -0.05    +0.109 C  ATOM      3  S   UNL     1      35.552  46.615  14.752 -0.44 +0.09    -0.100 SA ATOM      4  C   UNL     1      35.821  45.765  16.295 -0.25 -0.09    +0.139 A  ATOM      5  N   UNL     1      34.830  45.911  17.201 -0.22 +0.20    -0.242 NA ATOM      6  C   UNL     1      35.047  45.318  18.402 -0.28 -0.07    +0.159 A  ATOM      7  C   UNL     1      36.195  44.591  18.733 -0.25 -0.03    +0.149 A  ATOM      8  N   UNL     1      37.182  44.484  17.813 -0.21 +0.05    -0.210 NA ATOM      9  C   UNL     1      36.999  45.056  16.600 -0.24 -0.06    +0.161 A  ATOM     10  N   UNL     1      38.049  44.855  15.713 -0.07 +0.10    -0.357 N  ATOM     11  H   UNL     1      38.862  44.528  16.226 +0.15 -0.03    +0.162 HD ENDROOTBRANCH   1  12ATOM     12  C   UNL     1      38.872  47.161  15.125 -0.37 -0.04    +0.131 A  ATOM     13  C   UNL     1      40.354  48.334  16.244 -0.31 -0.07    +0.284 A  ATOM     14  C   UNL     1      39.523  49.245  15.630 -0.38 -0.05    +0.092 A  ATOM     15  O   UNL     1      39.959  47.068  15.946 -0.18 +0.09    -0.429 OA ATOM     16  C   UNL     1      38.562  48.489  14.912 -0.49 -0.03    +0.052 A  BRANCH  13  17ATOM     17  O   UNL     1      41.418  48.379  17.037 -0.63 +0.02    -0.468 OA ATOM     18  C   UNL     1      41.465  47.382  18.048 -0.37 -0.02    +0.282 C  ENDBRANCH  13  17ENDBRANCH   1  12BRANCH   7  19ATOM     19  N   UNL     1      36.374  44.014  19.989 -0.17 +0.03    -0.355 N  ATOM     20  C   UNL     1      37.689  44.210  20.605 -0.35 -0.00    +0.118 C  ATOM     21  C   UNL     1      35.628  42.797  20.327 -0.43 -0.00    +0.118 C  ATOM     22  C   UNL     1      37.641  43.737  22.056 -0.41 +0.00    +0.025 C  ATOM     23  C   UNL     1      36.546  41.732  20.929 -0.57 -0.00    +0.025 C  ATOM     24  C   UNL     1      37.323  42.236  22.155 -0.53 -0.00    -0.011 C  ATOM     25  C   UNL     1      36.579  41.932  23.456 -0.52 +0.00    +0.008 C  ENDBRANCH   7  19TORSDOF 3TERENDMDL