REMARK SMILES Cc1ccc(O)cc1Nc1nccc(-c2cc3ncccc3[nH]2)n1
REMARK SMILES IDX 9 1 8 3 2 4 3 5 4 6 7 7 5 8 1 9 6 10 10 12 11 13 24 14 12 15
REMARK SMILES IDX 14 16 13 17 15 18 16 19 23 20 17 21 22 22 18 23 21 24 19 25
REMARK SMILES IDX 20 26
REMARK H PARENT 9 2 6 11 23 27
ROOT
ATOM      1  N   UNL     1      -2.201  -1.547  -0.617  1.00  0.00    -0.324 N 
ATOM      2  H   UNL     1      -2.834  -2.310  -0.801  1.00  0.00     0.170 HD
ENDROOT
BRANCH   1   3
ATOM      3  C   UNL     1      -2.720  -0.247  -0.706  1.00  0.00     0.047 A 
ATOM      4  C   UNL     1      -3.884  -0.005  -1.477  1.00  0.00    -0.027 A 
ATOM      5  C   UNL     1      -4.385   1.305  -1.606  1.00  0.00     0.009 A 
ATOM      6  C   UNL     1      -3.740   2.380  -0.999  1.00  0.00     0.046 A 
ATOM      7  C   UNL     1      -2.086   0.855  -0.115  1.00  0.00     0.072 A 
ATOM      8  C   UNL     1      -2.592   2.145  -0.259  1.00  0.00     0.117 A 
ATOM      9  C   UNL     1      -4.614  -1.123  -2.174  1.00  0.00     0.046 C 
BRANCH   8  10
ATOM     10  O   UNL     1      -1.919   3.164   0.352  1.00  0.00    -0.508 OA
ATOM     11  H   UNL     1      -2.402   3.991   0.191  1.00  0.00     0.293 HD
ENDBRANCH   8  10
ENDBRANCH   1   3
BRANCH   1  12
ATOM     12  C   UNL     1      -0.994  -2.071  -0.163  1.00  0.00     0.227 A 
ATOM     13  N   UNL     1      -0.956  -3.411  -0.070  1.00  0.00    -0.221 NA
ATOM     14  N   UNL     1       0.054  -1.287   0.119  1.00  0.00    -0.211 NA
ATOM     15  C   UNL     1       0.197  -3.968   0.345  1.00  0.00     0.117 A 
ATOM     16  C   UNL     1       1.191  -1.886   0.528  1.00  0.00     0.092 A 
ATOM     17  C   UNL     1       1.318  -3.246   0.663  1.00  0.00     0.051 A 
BRANCH  16  18
ATOM     18  C   UNL     1       2.278  -0.955   0.810  1.00  0.00     0.067 A 
ATOM     19  C   UNL     1       3.573  -1.140   1.269  1.00  0.00     0.058 A 
ATOM     20  N   UNL     1       2.121   0.405   0.625  1.00  0.00    -0.352 N 
ATOM     21  C   UNL     1       4.192   0.129   1.360  1.00  0.00     0.089 A 
ATOM     22  C   UNL     1       3.267   1.083   0.953  1.00  0.00     0.065 A 
ATOM     23  N   UNL     1       5.450   0.437   1.760  1.00  0.00    -0.255 NA
ATOM     24  C   UNL     1       3.580   2.441   0.933  1.00  0.00     0.030 A 
ATOM     25  C   UNL     1       5.737   1.757   1.734  1.00  0.00     0.112 A 
ATOM     26  C   UNL     1       4.870   2.769   1.343  1.00  0.00     0.022 A 
ATOM     27  H   UNL     1       1.261   0.821   0.288  1.00  0.00     0.167 HD
ENDBRANCH  16  18
ENDBRANCH   1  12
TORSDOF 4
