REMARK SMILES NC[C@H]1NC=Nc2cc(-c3cccc(-c4cc(Cl)ccc4Cl)c3)cnc21
REMARK SMILES IDX 3 1 4 2 5 3 6 4 7 5 8 6 9 7 24 8 25 9 26 10 2 12 1 13 10 16
REMARK SMILES IDX 11 17 23 18 12 19 14 20 13 21 15 22 16 23 21 24 17 25 20 26
REMARK SMILES IDX 19 27 22 28 18 29
REMARK H PARENT 4 11 1 14 1 15
ROOT
ATOM      1  C   UNL     1      -4.523   0.281  -1.339  1.00  0.00     0.145 C 
ATOM      2  N   UNL     1      -5.386   1.156  -0.541  1.00  0.00    -0.366 N 
ATOM      3  C   UNL     1      -5.063   1.448   0.749  1.00  0.00     0.193 C 
ATOM      4  N   UNL     1      -3.948   1.209   1.349  1.00  0.00    -0.237 NA
ATOM      5  C   UNL     1      -2.944   0.586   0.582  1.00  0.00     0.089 A 
ATOM      6  C   UNL     1      -1.673   0.427   1.134  1.00  0.00     0.040 A 
ATOM      7  C   UNL     1      -0.635  -0.161   0.398  1.00  0.00     0.002 A 
ATOM      8  C   UNL     1      -0.950  -0.565  -0.902  1.00  0.00     0.120 A 
ATOM      9  N   UNL     1      -2.165  -0.431  -1.487  1.00  0.00    -0.256 NA
ATOM     10  C   UNL     1      -3.146   0.130  -0.725  1.00  0.00     0.090 A 
ATOM     11  H   UNL     1      -6.350   1.234  -0.837  1.00  0.00     0.162 HD
ENDROOT
BRANCH   1  12
ATOM     12  C   UNL     1      -5.215  -1.095  -1.559  1.00  0.00     0.109 C 
BRANCH  12  13
ATOM     13  N   UNL     1      -5.660  -1.785  -0.339  1.00  0.00    -0.328 NA
ATOM     14  H   UNL     1      -6.330  -2.514  -0.572  1.00  0.00     0.118 HD
ATOM     15  H   UNL     1      -6.118  -1.124   0.287  1.00  0.00     0.118 HD
ENDBRANCH  12  13
ENDBRANCH   1  12
BRANCH   7  16
ATOM     16  C   UNL     1       0.710  -0.342   0.964  1.00  0.00    -0.016 A 
ATOM     17  C   UNL     1       0.890  -0.955   2.213  1.00  0.00     0.009 A 
ATOM     18  C   UNL     1       1.855   0.092   0.271  1.00  0.00     0.017 A 
ATOM     19  C   UNL     1       2.166  -1.131   2.752  1.00  0.00     0.001 A 
ATOM     20  C   UNL     1       3.147  -0.072   0.800  1.00  0.00    -0.016 A 
ATOM     21  C   UNL     1       3.287  -0.694   2.048  1.00  0.00     0.009 A 
BRANCH  20  22
ATOM     22  C   UNL     1       4.329   0.383   0.053  1.00  0.00     0.002 A 
ATOM     23  C   UNL     1       5.126  -0.571  -0.607  1.00  0.00     0.030 A 
ATOM     24  C   UNL     1       4.706   1.738  -0.035  1.00  0.00     0.048 A 
ATOM     25  C   UNL     1       6.254  -0.183  -1.331  1.00  0.00     0.041 A 
ATOM     26  C   UNL     1       5.839   2.120  -0.763  1.00  0.00     0.023 A 
ATOM     27  C   UNL     1       6.614   1.158  -1.412  1.00  0.00     0.022 A 
ATOM     28  Cl  UNL     1       3.810   2.990   0.754  1.00  0.00    -0.084 Cl
ATOM     29  Cl  UNL     1       7.207  -1.372  -2.129  1.00  0.00    -0.084 Cl
ENDBRANCH  20  22
ENDBRANCH   7  16
TORSDOF 4
