REMARK SMILES COc1ccc([C@@H]2CSc3ncc(N4CCC(C)CC4)nc3N2)o1
REMARK SMILES IDX 7 1 8 2 9 3 10 4 11 5 12 6 13 7 21 8 22 9 23 10 6 12 3 13
REMARK SMILES IDX 4 14 24 15 5 16 2 17 1 18 14 19 15 20 20 21 16 22 19 23
REMARK SMILES IDX 17 24 18 25
REMARK H PARENT 23 11
ROOT
ATOM      1  C   UNL     1       2.807   1.744   1.490  1.00  0.00     0.158 C 
ATOM      2  C   UNL     1       3.043   1.272   2.936  1.00  0.00     0.109 C 
ATOM      3  S   UNL     1       2.334  -0.367   3.321  1.00  0.00    -0.100 SA
ATOM      4  C   UNL     1       0.855  -0.300   2.328  1.00  0.00     0.139 A 
ATOM      5  N   UNL     1       0.032  -1.362   2.467  1.00  0.00    -0.242 NA
ATOM      6  C   UNL     1      -1.068  -1.353   1.674  1.00  0.00     0.159 A 
ATOM      7  C   UNL     1      -1.382  -0.341   0.761  1.00  0.00     0.149 A 
ATOM      8  N   UNL     1      -0.524   0.698   0.626  1.00  0.00    -0.210 NA
ATOM      9  C   UNL     1       0.582   0.728   1.406  1.00  0.00     0.161 A 
ATOM     10  N   UNL     1       1.375   1.853   1.222  1.00  0.00    -0.357 N 
ATOM     11  H   UNL     1       1.104   2.317   0.361  1.00  0.00     0.162 HD
ENDROOT
BRANCH   1  12
ATOM     12  C   UNL     1       3.617   0.972   0.490  1.00  0.00     0.131 A 
ATOM     13  C   UNL     1       5.526   0.427  -0.451  1.00  0.00     0.284 A 
ATOM     14  C   UNL     1       4.553  -0.304  -1.097  1.00  0.00     0.092 A 
ATOM     15  O   UNL     1       4.962   1.207   0.508  1.00  0.00    -0.429 OA
ATOM     16  C   UNL     1       3.320   0.051  -0.495  1.00  0.00     0.052 A 
BRANCH  13  17
ATOM     17  O   UNL     1       6.845   0.559  -0.528  1.00  0.00    -0.468 OA
ATOM     18  C   UNL     1       7.480  -0.257  -1.502  1.00  0.00     0.282 C 
ENDBRANCH  13  17
ENDBRANCH   1  12
BRANCH   7  19
ATOM     19  N   UNL     1      -2.520  -0.389  -0.041  1.00  0.00    -0.355 N 
ATOM     20  C   UNL     1      -2.630   0.655  -1.064  1.00  0.00     0.118 C 
ATOM     21  C   UNL     1      -3.759  -0.945   0.512  1.00  0.00     0.118 C 
ATOM     22  C   UNL     1      -3.788   0.321  -2.002  1.00  0.00     0.025 C 
ATOM     23  C   UNL     1      -4.952  -0.028   0.237  1.00  0.00     0.025 C 
ATOM     24  C   UNL     1      -5.132   0.287  -1.257  1.00  0.00    -0.011 C 
ATOM     25  C   UNL     1      -6.090  -0.698  -1.928  1.00  0.00     0.008 C 
ENDBRANCH   7  19
TORSDOF 3
