MODEL        6USER    Run = 6USERUSER    Estimated Free Energy of Binding    =  -9.96 kcal/mol  [=(1)+(2)+(3)-(4)]USERUSER    (1) Final Intermolecular Energy     = -12.94 kcal/molUSER        vdW + Hbond + desolv Energy     = -12.95 kcal/molUSER        Electrostatic Energy            =  +0.01 kcal/molUSER        Moving Ligand-Fixed Receptor    = -12.94 kcal/molUSER        Moving Ligand-Moving Receptor   =  +0.00 kcal/molUSER    (2) Final Total Internal Energy     =  -1.67 kcal/molUSER    (3) Torsional Free Energy           =  +2.98 kcal/molUSER    (4) Unbound System's Energy         =  -1.67 kcal/molUSERUSERREMARK SMILES COC(=O)N[C@H](C)CC[C@@]1(O)CCN(C(=O)c2c[nH]c3ncc(-c4ccc(N)cc4F)cc23)C1REMARK SMILES IDX 10 1 12 2 13 3 14 4 34 5 9 6 8 7 6 8 7 9 5 10 3 11 4 12 2 14REMARK SMILES IDX 1 15 11 16 15 18 16 19 17 20 18 21 33 22 19 23 32 24 20 25REMARK SMILES IDX 23 26 21 27 22 28 24 30 25 31 30 32 26 33 29 34 27 35 31 36REMARK SMILES IDX 28 37REMARK H PARENT 5 13 11 17 19 29 28 38 28 39USER                              x       y       z     vdW  Elec       q    TypeUSER                           _______ _______ _______ _____ _____    ______ ____ROOTATOM      1  C   UNL     1      38.724  44.875  23.023 -0.30 +0.01    +0.084 C  ATOM      2  C   UNL     1      40.092  45.465  23.396 -0.22 +0.00    +0.058 C  ATOM      3  C   UNL     1      41.029  45.037  22.276 -0.21 +0.01    +0.123 C  ATOM      4  N   UNL     1      40.173  44.833  21.120 -0.12 -0.02    -0.336 N  ATOM      5  C   UNL     1      38.766  44.825  21.486 -0.31 +0.01    +0.155 C  ENDROOTBRANCH   1   6ATOM      6  C   UNL     1      38.409  43.518  23.681 -0.30 +0.00    +0.039 C  BRANCH   6   7ATOM      7  C   UNL     1      38.436  43.472  25.213 -0.25 +0.00    +0.028 C  BRANCH   7   8ATOM      8  C   UNL     1      37.046  43.707  25.828 -0.34 -0.00    +0.082 C  ATOM      9  C   UNL     1      37.047  43.320  27.308 -0.41 -0.01    +0.031 C  BRANCH   8  10ATOM     10  N   UNL     1      36.638  45.092  25.679 -0.17 +0.01    -0.319 N  ATOM     11  C   UNL     1      37.292  46.123  26.284 -0.17 -0.03    +0.407 C  ATOM     12  O   UNL     1      38.193  46.012  27.101 -0.20 +0.02    -0.225 OA ATOM     13  H   UNL     1      36.020  45.368  24.928 -0.19 +0.03    +0.167 HD BRANCH  11  14ATOM     14  O   UNL     1      36.792  47.294  25.820 -0.56 +0.02    -0.453 OA ATOM     15  C   UNL     1      37.791  48.229  25.418 -0.28 +0.02    +0.284 C  ENDBRANCH  11  14ENDBRANCH   8  10ENDBRANCH   7   8ENDBRANCH   6   7ENDBRANCH   1   6BRANCH   1  16ATOM     16  O   UNL     1      37.704  45.779  23.470 -0.16 -0.09    -0.388 OA ATOM     17  H   UNL     1      36.869  45.288  23.561 +0.12 +0.07    +0.211 HD ENDBRANCH   1  16BRANCH   4  18ATOM     18  C   UNL     1      40.537  44.870  19.784 -0.29 +0.01    +0.256 C  ATOM     19  O   UNL     1      40.312  43.918  19.039 -0.24 -0.00    -0.269 OA BRANCH  18  20ATOM     20  C   UNL     1      41.160  46.086  19.267 -0.41 +0.00    +0.067 A  ATOM     21  C   UNL     1      42.272  46.750  19.769 -0.38 +0.02    +0.098 A  ATOM     22  C   UNL     1      40.775  46.787  18.078 -0.49 -0.00    +0.032 A  ATOM     23  N   UNL     1      42.529  47.832  18.968 -0.32 -0.01    -0.345 N  ATOM     24  C   UNL     1      39.778  46.633  17.097 -0.46 -0.00    +0.023 A  ATOM     25  C   UNL     1      41.632  47.871  17.939 -0.36 -0.01    +0.138 A  ATOM     26  C   UNL     1      39.699  47.567  16.049 -0.51 -0.00    +0.004 A  ATOM     27  N   UNL     1      41.621  48.808  16.977 -0.82 -0.02    -0.238 NA ATOM     28  C   UNL     1      40.635  48.609  16.063 -0.49 -0.02    +0.122 A  ATOM     29  H   UNL     1      43.275  48.504  19.079 -0.51 -0.02    +0.167 HD BRANCH  26  30ATOM     30  C   UNL     1      38.685  47.443  14.987 -0.47 -0.01    +0.019 A  ATOM     31  C   UNL     1      38.592  46.276  14.211 -0.41 -0.00    +0.014 A  ATOM     32  C   UNL     1      37.785  48.477  14.692 -0.43 -0.09    +0.133 A  ATOM     33  C   UNL     1      37.628  46.152  13.203 -0.42 -0.01    +0.026 A  ATOM     34  C   UNL     1      36.822  48.355  13.688 -0.48 -0.04    +0.065 A  ATOM     35  C   UNL     1      36.700  47.169  12.967 -0.60 -0.01    +0.034 A  ATOM     36  F   UNL     1      37.830  49.628  15.381 -0.11 +0.19    -0.206 F  BRANCH  35  37ATOM     37  N   UNL     1      35.821  47.085  11.884 -0.30 +0.24    -0.399 N  ATOM     38  H   UNL     1      35.820  47.904  11.283 -0.19 -0.12    +0.156 HD ATOM     39  H   UNL     1      34.883  46.790  12.132 -0.18 -0.14    +0.156 HD ENDBRANCH  35  37ENDBRANCH  26  30ENDBRANCH  18  20ENDBRANCH   4  18TORSDOF 10TERENDMDL