REMARK SMILES Cc1c(C[CH]NC(=O)[C@@H]2CCCN2C(=O)C(C)(C)Oc2cc(C(=O)N[C@H](C)C=O)ccc2O)ccc2ccccc12
REMARK SMILES IDX 14 1 15 2 13 3 9 4 10 5 11 6 12 7 7 8 6 9 8 11 5 12 4 13
REMARK SMILES IDX 3 14 2 15 41 16 34 17 40 18 36 19 35 20 39 21 37 22 38 23
REMARK SMILES IDX 1 24 16 25 17 26 18 27 19 28 20 29 21 30 32 31 22 32 31 33
REMARK SMILES IDX 30 34 33 35 23 37 25 38 24 39 26 41 27 42 28 43 29 44
REMARK H PARENT 6 10 33 36 25 40
ROOT
ATOM      1  C   UNL     1      -0.563  -0.767   1.119  1.00  0.00     0.266 C 
ATOM      2  O   UNL     1      -0.600  -1.597   2.041  1.00  0.00    -0.270 OA
ENDROOT
BRANCH   1   3
ATOM      3  N   UNL     1       0.533   0.078   1.075  1.00  0.00    -0.327 N 
ATOM      4  C   UNL     1       0.907   1.128   0.112  1.00  0.00     0.174 C 
ATOM      5  C   UNL     1       1.793   2.070   0.934  1.00  0.00     0.037 C 
ATOM      6  C   UNL     1       2.510   1.126   1.889  1.00  0.00     0.024 C 
ATOM      7  C   UNL     1       1.440   0.101   2.224  1.00  0.00     0.120 C 
BRANCH   4   8
ATOM      8  C   UNL     1       1.729   0.608  -1.093  1.00  0.00     0.243 C 
ATOM      9  N   UNL     1       2.218  -0.679  -0.923  1.00  0.00    -0.349 N 
ATOM     10  H   UNL     1       1.753  -1.230  -0.205  1.00  0.00     0.163 HD
ATOM     11  O   UNL     1       1.953   1.332  -2.061  1.00  0.00    -0.273 OA
BRANCH   9  12
ATOM     12  C   UNL     1       3.218  -1.294  -1.636  1.00  0.00     0.109 C 
BRANCH  12  13
ATOM     13  C   UNL     1       4.224  -0.560  -2.475  1.00  0.00     0.062 C 
BRANCH  13  14
ATOM     14  C   UNL     1       5.152   0.335  -1.663  1.00  0.00    -0.042 A 
ATOM     15  C   UNL     1       6.058  -0.151  -0.684  1.00  0.00    -0.040 A 
ATOM     16  C   UNL     1       6.812   0.770   0.115  1.00  0.00    -0.015 A 
ATOM     17  C   UNL     1       5.081   1.718  -1.890  1.00  0.00     0.005 A 
ATOM     18  C   UNL     1       7.670   0.378   1.171  1.00  0.00     0.009 A 
ATOM     19  C   UNL     1       6.702   2.159  -0.140  1.00  0.00    -0.018 A 
ATOM     20  C   UNL     1       5.848   2.613  -1.149  1.00  0.00     0.009 A 
ATOM     21  C   UNL     1       8.394   1.308   1.922  1.00  0.00     0.001 A 
ATOM     22  C   UNL     1       7.441   3.084   0.617  1.00  0.00     0.009 A 
ATOM     23  C   UNL     1       8.284   2.660   1.642  1.00  0.00     0.001 A 
ATOM     24  C   UNL     1       6.211  -1.636  -0.445  1.00  0.00     0.045 C 
ENDBRANCH  13  14
ENDBRANCH  12  13
ENDBRANCH   9  12
ENDBRANCH   4   8
ENDBRANCH   1   3
BRANCH   1  25
ATOM     25  C   UNL     1      -1.760  -0.664   0.105  1.00  0.00     0.181 C 
ATOM     26  C   UNL     1      -1.306  -0.666  -1.355  1.00  0.00     0.067 C 
ATOM     27  C   UNL     1      -2.568   0.591   0.456  1.00  0.00     0.067 C 
BRANCH  25  28
ATOM     28  O   UNL     1      -2.526  -1.870   0.407  1.00  0.00    -0.474 OA
BRANCH  28  29
ATOM     29  C   UNL     1      -3.668  -2.120  -0.299  1.00  0.00     0.163 A 
ATOM     30  C   UNL     1      -4.884  -1.632   0.182  1.00  0.00     0.064 A 
ATOM     31  C   UNL     1      -3.650  -2.995  -1.390  1.00  0.00     0.157 A 
ATOM     32  C   UNL     1      -6.075  -1.946  -0.484  1.00  0.00     0.043 A 
ATOM     33  C   UNL     1      -4.832  -3.327  -2.049  1.00  0.00     0.051 A 
ATOM     34  C   UNL     1      -6.043  -2.798  -1.598  1.00  0.00     0.018 A 
BRANCH  31  35
ATOM     35  O   UNL     1      -2.463  -3.530  -1.804  1.00  0.00    -0.504 OA
ATOM     36  H   UNL     1      -2.633  -4.165  -2.518  1.00  0.00     0.293 HD
ENDBRANCH  31  35
BRANCH  32  37
ATOM     37  C   UNL     1      -7.397  -1.438  -0.029  1.00  0.00     0.251 C 
ATOM     38  N   UNL     1      -7.396  -0.247   0.657  1.00  0.00    -0.343 N 
ATOM     39  O   UNL     1      -8.425  -2.053  -0.293  1.00  0.00    -0.269 OA
ATOM     40  H   UNL     1      -6.544   0.286   0.791  1.00  0.00     0.164 HD
BRANCH  38  41
ATOM     41  C   UNL     1      -8.622   0.357   1.156  1.00  0.00     0.143 C 
ATOM     42  C   UNL     1      -9.407   1.055   0.055  1.00  0.00     0.039 C 
BRANCH  41  43
ATOM     43  C   UNL     1      -8.246   1.371   2.227  1.00  0.00     0.248 C 
ATOM     44  O   UNL     1      -7.098   1.773   2.417  1.00  0.00    -0.301 OA
ENDBRANCH  41  43
ENDBRANCH  38  41
ENDBRANCH  32  37
ENDBRANCH  28  29
ENDBRANCH  25  28
ENDBRANCH   1  25
TORSDOF 12
