MODEL        4USER    Run = 4USERUSER    Estimated Free Energy of Binding    =  -8.44 kcal/mol  [=(1)+(2)+(3)-(4)]USERUSER    (1) Final Intermolecular Energy     = -11.12 kcal/molUSER        vdW + Hbond + desolv Energy     = -10.60 kcal/molUSER        Electrostatic Energy            =  -0.52 kcal/molUSER        Moving Ligand-Fixed Receptor    = -11.12 kcal/molUSER        Moving Ligand-Moving Receptor   =  +0.00 kcal/molUSER    (2) Final Total Internal Energy     =  -1.98 kcal/molUSER    (3) Torsional Free Energy           =  +2.68 kcal/molUSER    (4) Unbound System's Energy         =  -1.98 kcal/molUSERUSERREMARK SMILES CS/C(=C\c1ccc(O)c(O)c1)C(=O)Nc1cccc(C(=O)O)c1REMARK SMILES IDX 13 1 14 2 15 3 3 5 2 6 1 7 4 8 5 9 6 10 12 11 7 12 10 13REMARK SMILES IDX 8 14 11 15 9 17 16 19 17 20 24 21 18 22 20 23 19 24 21 25REMARK SMILES IDX 22 26 23 27REMARK H PARENT 15 4 11 16 9 18 23 28USER                              x       y       z     vdW  Elec       q    TypeUSER                           _______ _______ _______ _____ _____    ______ ____ROOTATOM      1  C   UNL     1      40.192  45.951  18.839 -0.33 -0.01    +0.262 C  ATOM      2  O   UNL     1      41.270  46.537  18.880 -0.36 -0.00    -0.268 OA ATOM      3  N   UNL     1      39.231  46.088  17.857 -0.22 +0.06    -0.322 N  ATOM      4  H   UNL     1      38.405  45.514  17.987 +0.10 -0.03    +0.170 HD ENDROOTBRANCH   1   5ATOM      5  C   UNL     1      39.805  44.971  19.933 -0.40 +0.00    +0.073 C  BRANCH   5   6ATOM      6  S   UNL     1      38.284  44.136  19.788 -0.38 +0.01    -0.124 SA ATOM      7  C   UNL     1      37.678  44.333  21.483 -0.38 +0.00    +0.091 C  ENDBRANCH   5   6BRANCH   5   8ATOM      8  C   UNL     1      40.664  44.822  20.959 -0.37 +0.00    +0.029 C  BRANCH   8   9ATOM      9  C   UNL     1      41.502  45.856  21.580 -0.28 -0.00    -0.020 A  ATOM     10  C   UNL     1      40.961  46.645  22.607 -0.19 +0.00    +0.012 A  ATOM     11  C   UNL     1      42.808  46.099  21.140 -0.26 +0.02    +0.058 A  ATOM     12  C   UNL     1      41.721  47.654  23.209 -0.25 +0.01    +0.051 A  ATOM     13  C   UNL     1      43.554  47.102  21.743 -0.26 +0.05    +0.157 A  ATOM     14  C   UNL     1      43.020  47.875  22.770 -0.26 +0.03    +0.157 A  BRANCH  13  15ATOM     15  O   UNL     1      44.831  47.333  21.313 -0.64 -0.46    -0.504 OA ATOM     16  H   UNL     1      44.999  48.270  21.534 -0.36 +0.09    +0.293 HD ENDBRANCH  13  15BRANCH  14  17ATOM     17  O   UNL     1      43.812  48.846  23.315 -0.57 -0.16    -0.504 OA ATOM     18  H   UNL     1      44.443  49.139  22.636 -0.27 +0.08    +0.293 HD ENDBRANCH  14  17ENDBRANCH   8   9ENDBRANCH   5   8ENDBRANCH   1   5BRANCH   3  19ATOM     19  C   UNL     1      39.258  46.910  16.714 -0.42 -0.01    +0.042 A  ATOM     20  C   UNL     1      38.223  46.734  15.786 -0.39 -0.01    +0.026 A  ATOM     21  C   UNL     1      40.239  47.872  16.462 -0.51 -0.01    +0.041 A  ATOM     22  C   UNL     1      38.164  47.504  14.624 -0.49 -0.00    +0.003 A  ATOM     23  C   UNL     1      40.185  48.650  15.295 -0.54 -0.02    +0.061 A  ATOM     24  C   UNL     1      39.144  48.463  14.377 -0.48 -0.01    +0.016 A  BRANCH  23  25ATOM     25  C   UNL     1      41.204  49.682  14.986 -0.43 -0.08    +0.335 C  ATOM     26  O   UNL     1      41.535  50.041  13.871 -0.55 +0.07    -0.246 OA BRANCH  25  27ATOM     27  O   UNL     1      41.761  50.218  16.084 -0.78 +0.00    -0.478 OA ATOM     28  H   UNL     1      41.365  51.111  16.146 -0.32 -0.13    +0.297 HD ENDBRANCH  25  27ENDBRANCH  23  25ENDBRANCH   3  19TORSDOF 9TERENDMDL