REMARK SMILES CCNC(=O)Nc1ccc(C(=O)Nc2cc(-c3cncs3)ccn2)cc1O
REMARK SMILES IDX 7 1 8 2 9 3 10 4 25 5 26 6 6 7 3 8 4 9 5 11 2 13 1 14 27 15
REMARK SMILES IDX 11 17 13 18 12 19 14 21 15 22 24 23 16 24 23 25 22 26 17 27
REMARK SMILES IDX 18 28 21 29 19 30 20 31
REMARK H PARENT 3 10 6 12 27 16 13 20
ROOT
ATOM      1  C   UNL     1       2.812  -0.284   0.238  1.00  0.00     0.085 A 
ATOM      2  C   UNL     1       2.136   0.088  -0.923  1.00  0.00     0.031 A 
ATOM      3  C   UNL     1       0.743   0.227  -0.916  1.00  0.00     0.016 A 
ATOM      4  C   UNL     1       0.014  -0.014   0.257  1.00  0.00     0.044 A 
ATOM      5  C   UNL     1       0.689  -0.366   1.432  1.00  0.00     0.062 A 
ATOM      6  C   UNL     1       2.076  -0.499   1.413  1.00  0.00     0.139 A 
ENDROOT
BRANCH   1   7
ATOM      7  N   UNL     1       4.208  -0.441   0.325  1.00  0.00    -0.305 N 
ATOM      8  N   UNL     1       6.413  -0.538  -0.191  1.00  0.00    -0.338 N 
ATOM      9  C   UNL     1       5.130  -0.415  -0.694  1.00  0.00     0.319 C 
ATOM     10  H   UNL     1       6.532  -0.109   0.715  1.00  0.00     0.165 HD
ATOM     11  O   UNL     1       4.895  -0.309  -1.890  1.00  0.00    -0.249 OA
ATOM     12  H   UNL     1       4.534  -0.749   1.233  1.00  0.00     0.172 HD
BRANCH   8  13
ATOM     13  C   UNL     1       7.541  -0.443  -1.095  1.00  0.00     0.114 C 
ATOM     14  C   UNL     1       8.826  -0.885  -0.421  1.00  0.00     0.027 C 
ENDBRANCH   8  13
ENDBRANCH   1   7
BRANCH   6  15
ATOM     15  O   UNL     1       2.756  -0.846   2.554  1.00  0.00    -0.506 OA
ATOM     16  H   UNL     1       2.114  -0.936   3.279  1.00  0.00     0.293 HD
ENDBRANCH   6  15
BRANCH   4  17
ATOM     17  C   UNL     1      -1.470   0.127   0.314  1.00  0.00     0.256 C 
ATOM     18  N   UNL     1      -2.135  -0.155  -0.855  1.00  0.00    -0.307 N 
ATOM     19  O   UNL     1      -1.980   0.446   1.381  1.00  0.00    -0.269 OA
ATOM     20  H   UNL     1      -1.631  -0.521  -1.651  1.00  0.00     0.171 HD
BRANCH  18  21
ATOM     21  C   UNL     1      -3.506  -0.083  -1.107  1.00  0.00     0.133 A 
ATOM     22  C   UNL     1      -4.449   0.365  -0.194  1.00  0.00     0.056 A 
ATOM     23  N   UNL     1      -3.834  -0.486  -2.352  1.00  0.00    -0.239 NA
ATOM     24  C   UNL     1      -5.801   0.399  -0.563  1.00  0.00    -0.002 A 
ATOM     25  C   UNL     1      -5.138  -0.447  -2.696  1.00  0.00     0.114 A 
ATOM     26  C   UNL     1      -6.144  -0.018  -1.850  1.00  0.00     0.030 A 
BRANCH  24  27
ATOM     27  C   UNL     1      -6.808   0.887   0.386  1.00  0.00     0.054 A 
ATOM     28  C   UNL     1      -6.723   1.910   1.318  1.00  0.00     0.131 A 
ATOM     29  S   UNL     1      -8.368   0.165   0.506  1.00  0.00    -0.122 S 
ATOM     30  N   UNL     1      -7.847   2.130   2.092  1.00  0.00    -0.252 NA
ATOM     31  C   UNL     1      -8.776   1.267   1.753  1.00  0.00     0.176 A 
ENDBRANCH  24  27
ENDBRANCH  18  21
ENDBRANCH   4  17
TORSDOF 6
