MODEL        6USER    Run = 6USERUSER    Estimated Free Energy of Binding    = -10.01 kcal/mol  [=(1)+(2)+(3)-(4)]USERUSER    (1) Final Intermolecular Energy     = -11.21 kcal/molUSER        vdW + Hbond + desolv Energy     = -11.14 kcal/molUSER        Electrostatic Energy            =  -0.06 kcal/molUSER        Moving Ligand-Fixed Receptor    = -11.21 kcal/molUSER        Moving Ligand-Moving Receptor   =  +0.00 kcal/molUSER    (2) Final Total Internal Energy     =  -1.09 kcal/molUSER    (3) Torsional Free Energy           =  +1.19 kcal/molUSER    (4) Unbound System's Energy         =  -1.09 kcal/molUSERUSERREMARK SMILES NC[C@H]1NC=Nc2cc(-c3cccc(-c4cc(Cl)ccc4Cl)c3)cnc21REMARK SMILES IDX 3 1 4 2 5 3 6 4 7 5 8 6 9 7 24 8 25 9 26 10 2 12 1 13 10 16REMARK SMILES IDX 11 17 23 18 12 19 14 20 13 21 15 22 16 23 21 24 17 25 20 26REMARK SMILES IDX 19 27 22 28 18 29REMARK H PARENT 4 11 1 14 1 15USER                              x       y       z     vdW  Elec       q    TypeUSER                           _______ _______ _______ _____ _____    ______ ____ROOTATOM      1  C   UNL     1      43.513  46.022  21.788 -0.22 +0.07    +0.145 C  ATOM      2  N   UNL     1      43.069  44.737  22.334 -0.07 -0.09    -0.366 N  ATOM      3  C   UNL     1      41.864  44.216  21.972 -0.23 +0.02    +0.193 C  ATOM      4  N   UNL     1      41.094  44.617  21.020 -0.19 -0.02    -0.237 NA ATOM      5  C   UNL     1      41.553  45.709  20.259 -0.32 +0.01    +0.089 A  ATOM      6  C   UNL     1      40.830  46.099  19.132 -0.43 +0.00    +0.040 A  ATOM      7  C   UNL     1      41.264  47.162  18.328 -0.52 -0.00    +0.002 A  ATOM      8  C   UNL     1      42.449  47.789  18.719 -0.41 +0.00    +0.120 A  ATOM      9  N   UNL     1      43.192  47.449  19.800 -0.31 -0.05    -0.256 NA ATOM     10  C   UNL     1      42.719  46.421  20.561 -0.28 +0.03    +0.090 A  ATOM     11  H   UNL     1      43.490  44.446  23.206 +0.05 +0.03    +0.162 HD ENDROOTBRANCH   1  12ATOM     12  C   UNL     1      43.463  47.117  22.893 -0.26 +0.03    +0.109 C  BRANCH  12  13ATOM     13  N   UNL     1      43.304  48.498  22.413 -0.45 -0.05    -0.328 NA ATOM     14  H   UNL     1      42.969  48.500  21.452 -0.46 -0.01    +0.118 HD ATOM     15  H   UNL     1      44.202  48.979  22.435 -0.49 +0.02    +0.118 HD ENDBRANCH  12  13ENDBRANCH   1  12BRANCH   7  16ATOM     16  C   UNL     1      40.512  47.591  17.139 -0.51 +0.00    -0.016 A  ATOM     17  C   UNL     1      41.043  48.543  16.256 -0.57 -0.00    +0.009 A  ATOM     18  C   UNL     1      39.242  47.059  16.851 -0.44 -0.01    +0.017 A  ATOM     19  C   UNL     1      40.333  48.951  15.125 -0.60 -0.00    +0.001 A  ATOM     20  C   UNL     1      38.511  47.461  15.719 -0.45 +0.01    -0.016 A  ATOM     21  C   UNL     1      39.076  48.411  14.858 -0.53 -0.00    +0.009 A  BRANCH  20  22ATOM     22  C   UNL     1      37.188  46.886  15.435 -0.41 -0.00    +0.002 A  ATOM     23  C   UNL     1      36.345  46.552  16.512 -0.34 -0.02    +0.030 A  ATOM     24  C   UNL     1      36.719  46.650  14.128 -0.42 -0.03    +0.048 A  ATOM     25  C   UNL     1      35.080  46.007  16.288 -0.28 -0.04    +0.041 A  ATOM     26  C   UNL     1      35.448  46.103  13.910 -0.41 -0.02    +0.023 A  ATOM     27  C   UNL     1      34.628  45.781  14.992 -0.32 -0.02    +0.022 A  ATOM     28  Cl  UNL     1      37.680  47.004  12.733 -0.70 +0.02    -0.084 Cl ATOM     29  Cl  UNL     1      34.072  45.611  17.625 -0.57 +0.06    -0.084 Cl ENDBRANCH  20  22ENDBRANCH   7  16TORSDOF 4TERENDMDL