REMARK SMILES COc1ccccc1CC=C(Nc1ccccc1Cl)N(N)N
REMARK SMILES IDX 10 1 9 2 8 3 3 4 4 5 5 6 7 7 6 8 2 9 1 10 11 11 12 12 13 14
REMARK SMILES IDX 14 15 18 16 15 17 17 18 16 19 19 20 20 21 21 22 22 25
REMARK H PARENT 12 13 21 23 21 24 22 26 22 27
ROOT
ATOM      1  C   UNL     1       0.411  -1.198  -0.829  1.00  0.00     0.025 C 
ENDROOT
BRANCH   1   2
ATOM      2  C   UNL     1       0.968   0.079  -1.397  1.00  0.00     0.070 C 
BRANCH   2   3
ATOM      3  C   UNL     1       1.746   0.864  -0.360  1.00  0.00    -0.002 A 
ATOM      4  C   UNL     1       3.130   0.682  -0.175  1.00  0.00     0.122 A 
ATOM      5  C   UNL     1       3.794   1.422   0.810  1.00  0.00     0.047 A 
ATOM      6  C   UNL     1       3.094   2.328   1.611  1.00  0.00     0.004 A 
ATOM      7  C   UNL     1       1.053   1.771   0.462  1.00  0.00     0.008 A 
ATOM      8  C   UNL     1       1.725   2.501   1.439  1.00  0.00     0.001 A 
BRANCH   4   9
ATOM      9  O   UNL     1       3.729  -0.240  -0.993  1.00  0.00    -0.496 OA
ATOM     10  C   UNL     1       5.133  -0.417  -0.862  1.00  0.00     0.278 C 
ENDBRANCH   4   9
ENDBRANCH   2   3
ENDBRANCH   1   2
BRANCH   1  11
ATOM     11  C   UNL     1      -0.887  -1.548  -0.654  1.00  0.00     0.133 C 
BRANCH  11  12
ATOM     12  N   UNL     1      -1.897  -0.680  -1.087  1.00  0.00    -0.339 N 
ATOM     13  H   UNL     1      -1.626  -0.138  -1.904  1.00  0.00     0.168 HD
BRANCH  12  14
ATOM     14  C   UNL     1      -2.669   0.143  -0.216  1.00  0.00     0.058 A 
ATOM     15  C   UNL     1      -2.811  -0.137   1.151  1.00  0.00     0.027 A 
ATOM     16  C   UNL     1      -3.406   1.225  -0.742  1.00  0.00     0.064 A 
ATOM     17  C   UNL     1      -3.625   0.654   1.970  1.00  0.00     0.002 A 
ATOM     18  C   UNL     1      -4.220   2.016   0.074  1.00  0.00     0.023 A 
ATOM     19  C   UNL     1      -4.327   1.730   1.433  1.00  0.00     0.002 A 
ATOM     20  Cl  UNL     1      -3.297   1.632  -2.421  1.00  0.00    -0.082 Cl
ENDBRANCH  12  14
ENDBRANCH  11  12
BRANCH  11  21
ATOM     21  N   UNL     1      -1.253  -2.784  -0.062  1.00  0.00    -0.230 N 
BRANCH  21  22
ATOM     22  N   UNL     1      -0.337  -3.736   0.329  1.00  0.00    -0.231 NA
ATOM     23  H   UNL     1       0.100  -4.121  -0.507  1.00  0.00     0.145 HD
ATOM     24  H   UNL     1       0.397  -3.309   0.890  1.00  0.00     0.145 HD
ENDBRANCH  21  22
BRANCH  21  25
ATOM     25  N   UNL     1      -2.434  -3.368  -0.481  1.00  0.00    -0.231 NA
ATOM     26  H   UNL     1      -3.119  -2.625  -0.631  1.00  0.00     0.145 HD
ATOM     27  H   UNL     1      -2.789  -3.930   0.289  1.00  0.00     0.145 HD
ENDBRANCH  21  25
ENDBRANCH  11  21
ENDBRANCH   1  11
TORSDOF 9
