MODEL        1USER    Run = 1USERUSER    Estimated Free Energy of Binding    =  -5.93 kcal/mol  [=(1)+(2)+(3)-(4)]USERUSER    (1) Final Intermolecular Energy     =  -8.91 kcal/molUSER        vdW + Hbond + desolv Energy     =  -9.08 kcal/molUSER        Electrostatic Energy            =  +0.04 kcal/molUSER        Moving Ligand-Fixed Receptor    =  -9.04 kcal/molUSER        Moving Ligand-Moving Receptor   =  +0.13 kcal/molUSER    (2) Final Total Internal Energy     =  -1.26 kcal/molUSER    (3) Torsional Free Energy           =  +2.98 kcal/molUSER    (4) Unbound System's Energy         =  -1.26 kcal/molUSERUSERREMARK SMILES CN1CCN(c2cc(N[C@@H]3C=CCN=CC3)c(-c3c(F)c(F)cc(F)c3F)cn2)CC1REMARK SMILES IDX 10 1 9 2 8 4 6 5 7 6 29 7 28 8 17 9 5 10 2 11 3 12 31 13REMARK SMILES IDX 4 14 30 15 1 16 18 17 19 18 26 19 21 20 24 21 23 22 20 23REMARK SMILES IDX 27 24 22 25 25 26 11 27 16 29 15 30 14 31 13 32 12 33REMARK H PARENT 9 3REMARK Flexibility Score:   64.900USER                              x       y       z     vdW  Elec       q    TypeUSER                           _______ _______ _______ _____ _____    ______ ____ROOTATOM      1  C   UNL     1      37.575  45.818  14.547 -0.39 -0.04    +0.107 C  ENDROOTBRANCH   1   2ATOM      2  N   UNL     1      37.503  44.762  15.557 -0.10 +0.12    -0.378 N  ATOM      3  H   UNL     1      37.599  43.845  15.130 +0.12 -0.05    +0.161 HD BRANCH   2   4ATOM      4  C   UNL     1      36.557  44.757  16.596 -0.31 -0.02    +0.048 A  ATOM      5  C   UNL     1      34.252  44.618  17.415 -0.22 -0.06    +0.130 A  ATOM      6  C   UNL     1      35.186  44.549  16.374 -0.27 -0.04    +0.073 A  ATOM      7  N   UNL     1      34.652  44.883  18.672 -0.22 +0.08    -0.239 NA ATOM      8  C   UNL     1      35.963  45.134  18.884 -0.11 -0.03    +0.124 A  ATOM      9  C   UNL     1      36.952  45.106  17.903 -0.33 -0.01    +0.030 A  BRANCH   5  10ATOM     10  N   UNL     1      32.901  44.372  17.172 -0.08 +0.14    -0.354 N  ATOM     11  N   UNL     1      30.403  42.830  16.591 -0.11 +0.11    -0.303 NA ATOM     12  C   UNL     1      31.043  43.791  15.662 -0.33 -0.05    +0.105 C  ATOM     13  C   UNL     1      31.246  42.588  17.779 -0.27 -0.02    +0.105 C  ATOM     14  C   UNL     1      32.577  43.896  15.815 -0.30 -0.07    +0.133 C  ATOM     15  C   UNL     1      32.102  43.784  18.262 -0.28 -0.02    +0.133 C  ATOM     16  C   UNL     1      29.063  43.282  16.955 -0.23 -0.03    +0.105 C  ENDBRANCH   5  10BRANCH   9  17ATOM     17  C   UNL     1      38.336  45.433  18.261 -0.35 -0.01    +0.063 A  ATOM     18  C   UNL     1      39.040  44.680  19.209 -0.27 -0.01    +0.169 A  ATOM     19  C   UNL     1      39.006  46.508  17.662 -0.28 -0.04    +0.169 A  ATOM     20  C   UNL     1      40.361  44.986  19.535 -0.31 +0.00    +0.162 A  ATOM     21  C   UNL     1      40.327  46.808  17.994 -0.36 -0.02    +0.162 A  ATOM     22  C   UNL     1      41.015  46.050  18.932 -0.42 +0.00    +0.084 A  ATOM     23  F   UNL     1      38.445  43.638  19.812 -0.03 +0.01    -0.203 F  ATOM     24  F   UNL     1      38.375  47.271  16.756 -0.11 +0.09    -0.203 F  ATOM     25  F   UNL     1      41.014  44.248  20.443 -0.09 -0.02    -0.204 F  ATOM     26  F   UNL     1      40.947  47.841  17.408 -0.18 +0.02    -0.204 F  ENDBRANCH   9  17ENDBRANCH   2   4ENDBRANCH   1   2BRANCH   1  27ATOM     27  C   UNL     1      36.598  46.909  14.844 -0.48 +0.00    -0.005 CG0ATOM     28  G   UNL     1      36.624  48.140  14.316 +0.00 +0.00    +0.000 G0 ENDBRANCH   1  27BRANCH   1  29ATOM     29  C   UNL     1      37.350  45.243  13.158 -0.45 -0.02    +0.076 C  BRANCH  29  30ATOM     30  C   UNL     1      36.786  46.143  12.094 -0.65 -0.03    +0.080 C  BRANCH  30  31ATOM     31  N   UNL     1      36.874  47.408  11.922 -0.91 +0.10    -0.293 NA BRANCH  31  32ATOM     32  C   UNL     1      36.629  48.480  12.863 -0.28 -0.06    +0.169 C  BRANCH  32  33ATOM     33  C   UNL     1      36.625  48.139  14.315 -0.48 +0.00    -0.006 CG0ATOM     34  G   UNL     1      36.597  46.908  14.844 +0.00 +0.00    +0.000 G0 ENDBRANCH  32  33ENDBRANCH  31  32ENDBRANCH  30  31ENDBRANCH  29  30ENDBRANCH   1  29TORSDOF 4TERENDMDL