REMARK SMILES COC(=O)N[C@H](C)CC[C@@]1(O)CCN(C(=O)c2c[nH]c3ncc(-c4ccc(N)cc4F)cc23)C1
REMARK SMILES IDX 10 1 12 2 13 3 14 4 34 5 9 6 8 7 6 8 7 9 5 10 3 11 4 12 2 14
REMARK SMILES IDX 1 15 11 16 15 18 16 19 17 20 18 21 33 22 19 23 32 24 20 25
REMARK SMILES IDX 23 26 21 27 22 28 24 30 25 31 30 32 26 33 29 34 27 35 31 36
REMARK SMILES IDX 28 37
REMARK H PARENT 5 13 11 17 19 29 28 38 28 39
ROOT
ATOM      1  C   UNL     1      -2.246  -0.865  -1.984  1.00  0.00     0.084 C 
ATOM      2  C   UNL     1      -1.727   0.517  -2.409  1.00  0.00     0.058 C 
ATOM      3  C   UNL     1      -0.875   0.998  -1.244  1.00  0.00     0.123 C 
ATOM      4  N   UNL     1      -0.427  -0.211  -0.575  1.00  0.00    -0.336 N 
ATOM      5  C   UNL     1      -1.143  -1.385  -1.046  1.00  0.00     0.155 C 
ENDROOT
BRANCH   1   6
ATOM      6  C   UNL     1      -3.649  -0.856  -1.348  1.00  0.00     0.039 C 
BRANCH   6   7
ATOM      7  C   UNL     1      -3.837   0.023  -0.106  1.00  0.00     0.028 C 
BRANCH   7   8
ATOM      8  C   UNL     1      -5.217  -0.175   0.545  1.00  0.00     0.082 C 
ATOM      9  C   UNL     1      -5.307   0.614   1.852  1.00  0.00     0.031 C 
BRANCH   8  10
ATOM     10  N   UNL     1      -6.280   0.234  -0.355  1.00  0.00    -0.319 N 
ATOM     11  C   UNL     1      -7.550  -0.251  -0.264  1.00  0.00     0.407 C 
ATOM     12  O   UNL     1      -7.917  -1.151   0.475  1.00  0.00    -0.225 OA
ATOM     13  H   UNL     1      -6.187   1.071  -0.914  1.00  0.00     0.167 HD
BRANCH  11  14
ATOM     14  O   UNL     1      -8.346   0.440  -1.116  1.00  0.00    -0.453 OA
ATOM     15  C   UNL     1      -9.710   0.021  -1.100  1.00  0.00     0.284 C 
ENDBRANCH  11  14
ENDBRANCH   8  10
ENDBRANCH   7   8
ENDBRANCH   6   7
ENDBRANCH   1   6
BRANCH   1  16
ATOM     16  O   UNL     1      -2.345  -1.690  -3.152  1.00  0.00    -0.388 OA
ATOM     17  H   UNL     1      -1.461  -1.777  -3.550  1.00  0.00     0.211 HD
ENDBRANCH   1  16
BRANCH   4  18
ATOM     18  C   UNL     1       0.685  -0.363   0.238  1.00  0.00     0.256 C 
ATOM     19  O   UNL     1       1.102  -1.480   0.539  1.00  0.00    -0.269 OA
BRANCH  18  20
ATOM     20  C   UNL     1       1.377   0.837   0.701  1.00  0.00     0.067 A 
ATOM     21  C   UNL     1       0.812   2.017   1.167  1.00  0.00     0.098 A 
ATOM     22  C   UNL     1       2.796   0.991   0.831  1.00  0.00     0.032 A 
ATOM     23  N   UNL     1       1.824   2.874   1.516  1.00  0.00    -0.345 N 
ATOM     24  C   UNL     1       3.923   0.187   0.577  1.00  0.00     0.023 A 
ATOM     25  C   UNL     1       3.032   2.269   1.318  1.00  0.00     0.138 A 
ATOM     26  C   UNL     1       5.205   0.709   0.822  1.00  0.00     0.004 A 
ATOM     27  N   UNL     1       4.219   2.845   1.572  1.00  0.00    -0.238 NA
ATOM     28  C   UNL     1       5.268   2.023   1.304  1.00  0.00     0.122 A 
ATOM     29  H   UNL     1       1.725   3.807   1.889  1.00  0.00     0.167 HD
BRANCH  26  30
ATOM     30  C   UNL     1       6.417  -0.095   0.589  1.00  0.00     0.019 A 
ATOM     31  C   UNL     1       6.511  -1.413   1.065  1.00  0.00     0.014 A 
ATOM     32  C   UNL     1       7.529   0.414  -0.097  1.00  0.00     0.133 A 
ATOM     33  C   UNL     1       7.660  -2.183   0.844  1.00  0.00     0.026 A 
ATOM     34  C   UNL     1       8.675  -0.352  -0.320  1.00  0.00     0.065 A 
ATOM     35  C   UNL     1       8.731  -1.678   0.104  1.00  0.00     0.034 A 
ATOM     36  F   UNL     1       7.516   1.673  -0.563  1.00  0.00    -0.206 F 
BRANCH  35  37
ATOM     37  N   UNL     1       9.917  -2.409  -0.010  1.00  0.00    -0.399 N 
ATOM     38  H   UNL     1      10.507  -2.128  -0.787  1.00  0.00     0.156 HD
ATOM     39  H   UNL     1       9.791  -3.415   0.033  1.00  0.00     0.156 HD
ENDBRANCH  35  37
ENDBRANCH  26  30
ENDBRANCH  18  20
ENDBRANCH   4  18
TORSDOF 10
