MODEL        6USER    Run = 6USERUSER    Estimated Free Energy of Binding    =  -9.46 kcal/mol  [=(1)+(2)+(3)-(4)]USERUSER    (1) Final Intermolecular Energy     = -13.04 kcal/molUSER        vdW + Hbond + desolv Energy     = -12.76 kcal/molUSER        Electrostatic Energy            =  -0.28 kcal/molUSER        Moving Ligand-Fixed Receptor    = -13.04 kcal/molUSER        Moving Ligand-Moving Receptor   =  +0.00 kcal/molUSER    (2) Final Total Internal Energy     =  -5.10 kcal/molUSER    (3) Torsional Free Energy           =  +3.58 kcal/molUSER    (4) Unbound System's Energy         =  -5.10 kcal/molUSERUSERREMARK SMILES Cc1c(C[CH]NC(=O)[C@@H]2CCCN2C(=O)C(C)(C)Oc2cc(C(=O)N[C@H](C)C=O)ccc2O)ccc2ccccc12REMARK SMILES IDX 14 1 15 2 13 3 9 4 10 5 11 6 12 7 7 8 6 9 8 11 5 12 4 13REMARK SMILES IDX 3 14 2 15 41 16 34 17 40 18 36 19 35 20 39 21 37 22 38 23REMARK SMILES IDX 1 24 16 25 17 26 18 27 19 28 20 29 21 30 32 31 22 32 31 33REMARK SMILES IDX 30 34 33 35 23 37 25 38 24 39 26 41 27 42 28 43 29 44REMARK H PARENT 6 10 33 36 25 40USER                              x       y       z     vdW  Elec       q    TypeUSER                           _______ _______ _______ _____ _____    ______ ____ROOTATOM      1  C   UNL     1      38.079  44.546  25.089 -0.16 +0.01    +0.266 C  ATOM      2  O   UNL     1      36.899  44.754  24.765 -0.42 -0.03    -0.270 OA ENDROOTBRANCH   1   3ATOM      3  N   UNL     1      38.968  44.244  24.072 -0.06 -0.01    -0.327 N  ATOM      4  C   UNL     1      39.670  45.111  23.111 -0.19 +0.01    +0.174 C  ATOM      5  C   UNL     1      40.917  44.302  22.741 -0.24 +0.00    +0.037 C  ATOM      6  C   UNL     1      40.424  42.863  22.791 -0.32 +0.00    +0.024 C  ATOM      7  C   UNL     1      39.465  42.871  23.969 -0.20 +0.01    +0.120 C  BRANCH   4   8ATOM      8  C   UNL     1      38.865  45.391  21.817 -0.24 +0.02    +0.243 C  ATOM      9  N   UNL     1      37.688  44.663  21.723 -0.18 -0.02    -0.349 N  ATOM     10  H   UNL     1      37.340  44.281  22.599 +0.08 +0.02    +0.163 HD ATOM     11  O   UNL     1      39.303  46.150  20.955 -0.12 -0.01    -0.273 OA BRANCH   9  12ATOM     12  C   UNL     1      36.931  44.441  20.598 -0.28 -0.00    +0.109 C  BRANCH  12  13ATOM     13  C   UNL     1      37.471  43.854  19.326 -0.30 -0.01    +0.062 C  BRANCH  13  14ATOM     14  C   UNL     1      38.220  44.864  18.464 -0.36 +0.01    -0.042 A  ATOM     15  C   UNL     1      37.581  45.780  17.588 -0.34 +0.01    -0.040 A  ATOM     16  C   UNL     1      38.366  46.616  16.728 -0.39 +0.01    -0.015 A  ATOM     17  C   UNL     1      39.621  44.862  18.534 -0.41 -0.00    +0.005 A  ATOM     18  C   UNL     1      37.814  47.493  15.763 -0.43 -0.01    +0.009 A  ATOM     19  C   UNL     1      39.779  46.574  16.823 -0.46 +0.00    -0.018 A  ATOM     20  C   UNL     1      40.387  45.707  17.735 -0.44 -0.00    +0.009 A  ATOM     21  C   UNL     1      38.615  48.298  14.948 -0.53 -0.00    +0.001 A  ATOM     22  C   UNL     1      40.573  47.394  16.004 -0.50 -0.00    +0.009 A  ATOM     23  C   UNL     1      39.994  48.253  15.072 -0.56 -0.00    +0.001 A  ATOM     24  C   UNL     1      36.072  45.858  17.521 -0.38 -0.02    +0.045 C  ENDBRANCH  13  14ENDBRANCH  12  13ENDBRANCH   9  12ENDBRANCH   4   8ENDBRANCH   1   3BRANCH   1  25ATOM     25  C   UNL     1      38.493  44.567  26.606 -0.17 -0.01    +0.181 C  ATOM     26  C   UNL     1      39.845  43.902  26.863 -0.17 -0.00    +0.067 C  ATOM     27  C   UNL     1      37.365  43.911  27.411 -0.36 -0.01    +0.067 C  BRANCH  25  28ATOM     28  O   UNL     1      38.561  45.998  26.888 -0.07 +0.02    -0.474 OA BRANCH  28  29ATOM     29  C   UNL     1      38.852  46.859  25.868 -0.17 +0.01    +0.163 A  ATOM     30  C   UNL     1      40.188  47.127  25.566 -0.16 +0.00    +0.064 A  ATOM     31  C   UNL     1      37.835  47.594  25.250 -0.27 +0.02    +0.157 A  ATOM     32  C   UNL     1      40.505  48.067  24.578 -0.28 +0.01    +0.043 A  ATOM     33  C   UNL     1      38.142  48.544  24.277 -0.33 +0.01    +0.051 A  ATOM     34  C   UNL     1      39.477  48.776  23.939 -0.09 +0.00    +0.018 A  BRANCH  31  35ATOM     35  O   UNL     1      36.535  47.380  25.610 -0.56 +0.00    -0.504 OA ATOM     36  H   UNL     1      36.458  46.500  26.014 -0.22 -0.05    +0.293 HD ENDBRANCH  31  35BRANCH  32  37ATOM     37  C   UNL     1      41.910  48.379  24.200 -0.27 +0.04    +0.251 C  ATOM     38  N   UNL     1      42.830  47.372  24.369 -0.05 -0.05    -0.343 N  ATOM     39  O   UNL     1      42.200  49.475  23.733 -0.87 -0.10    -0.269 OA ATOM     40  H   UNL     1      42.553  46.447  24.678 +0.06 +0.02    +0.164 HD BRANCH  38  41ATOM     41  C   UNL     1      44.236  47.549  24.038 -0.18 +0.03    +0.143 C  ATOM     42  C   UNL     1      44.834  48.776  24.711 -0.25 +0.01    +0.039 C  BRANCH  41  43ATOM     43  C   UNL     1      44.349  47.697  22.527 -0.22 +0.08    +0.248 C  ATOM     44  O   UNL     1      44.696  46.788  21.774 -0.68 -0.27    -0.301 OA ENDBRANCH  41  43ENDBRANCH  38  41ENDBRANCH  32  37ENDBRANCH  28  29ENDBRANCH  25  28ENDBRANCH   1  25TORSDOF 12TERENDMDL