MODEL        10USER    Run = 10USERUSER    Estimated Free Energy of Binding    =  -7.59 kcal/mol  [=(1)+(2)+(3)-(4)]USERUSER    (1) Final Intermolecular Energy     = -11.76 kcal/molUSER        vdW + Hbond + desolv Energy     = -11.93 kcal/molUSER        Electrostatic Energy            =  -0.13 kcal/molUSER        Moving Ligand-Fixed Receptor    = -12.05 kcal/molUSER        Moving Ligand-Moving Receptor   =  +0.29 kcal/molUSER    (2) Final Total Internal Energy     =  -2.49 kcal/molUSER    (3) Torsional Free Energy           =  +4.18 kcal/molUSER    (4) Unbound System's Energy         =  -2.49 kcal/molUSERUSERREMARK SMILES COc1ccc(O)c(C(=O)c2ccc(C(=O)N[C@@H]3CCCNC[C@H]3NC(=O)c3ccncc3)cc2)c1FREMARK SMILES IDX 15 1 16 2 17 3 14 5 11 6 12 7 35 8 13 9 34 10 9 11 10 12REMARK SMILES IDX 8 13 3 14 4 15 36 16 5 17 6 18 37 19 2 20 1 21 7 22 18 24REMARK SMILES IDX 19 25 24 27 23 28 22 29 21 31 20 32 25 34 26 35 27 37 28 38REMARK SMILES IDX 29 39 33 40 30 41 32 42 31 43REMARK H PARENT 17 4 7 23 22 30 25 36REMARK Flexibility Score:   88.900USER                              x       y       z     vdW  Elec       q    TypeUSER                           _______ _______ _______ _____ _____    ______ ____ROOTATOM      1  C   UNL     1      36.322  44.067  19.293 -0.26 -0.04    +0.251 C  ATOM      2  O   UNL     1      36.095  42.870  19.157 -0.24 +0.03    -0.269 OA ATOM      3  N   UNL     1      35.371  45.046  19.090 -0.15 +0.09    -0.347 N  ATOM      4  H   UNL     1      35.685  46.005  19.019 +0.11 -0.05    +0.164 HD ENDROOTBRANCH   1   5ATOM      5  C   UNL     1      37.696  44.539  19.622 -0.33 -0.00    +0.039 A  ATOM      6  C   UNL     1      40.281  45.504  20.123 -0.38 +0.00    +0.023 A  ATOM      7  C   UNL     1      39.883  45.215  18.814 -0.43 -0.00    +0.013 A  ATOM      8  C   UNL     1      39.387  45.310  21.182 -0.33 +0.00    +0.013 A  ATOM      9  C   UNL     1      38.598  44.722  18.566 -0.37 -0.00    +0.014 A  ATOM     10  C   UNL     1      38.099  44.817  20.934 -0.30 +0.00    +0.014 A  BRANCH   6  11ATOM     11  C   UNL     1      41.620  46.098  20.325 -0.31 +0.03    +0.199 C  ATOM     12  O   UNL     1      41.983  46.986  19.552 -0.35 -0.03    -0.288 OA BRANCH  11  13ATOM     13  C   UNL     1      42.536  45.725  21.428 -0.23 +0.03    +0.104 A  ATOM     14  C   UNL     1      43.664  44.063  22.816 -0.16 +0.03    +0.155 A  ATOM     15  C   UNL     1      44.296  45.086  23.529 -0.10 +0.01    +0.053 A  ATOM     16  C   UNL     1      42.790  44.395  21.767 -0.14 +0.04    +0.179 A  ATOM     17  C   UNL     1      44.071  46.421  23.182 -0.16 +0.02    +0.051 A  ATOM     18  C   UNL     1      43.211  46.733  22.133 -0.24 +0.04    +0.130 A  ATOM     19  F   UNL     1      42.220  43.399  21.068 -0.11 -0.03    -0.202 F  BRANCH  14  20ATOM     20  O   UNL     1      43.817  42.723  23.051 -0.12 -0.01    -0.494 OA ATOM     21  C   UNL     1      45.008  42.109  22.567 -0.23 -0.00    +0.278 C  ENDBRANCH  14  20BRANCH  18  22ATOM     22  O   UNL     1      43.076  48.066  21.844 -0.13 -0.05    -0.507 OA ATOM     23  H   UNL     1      43.221  48.173  20.874 -0.37 -0.03    +0.293 HD ENDBRANCH  18  22ENDBRANCH  11  13ENDBRANCH   6  11ENDBRANCH   1   5BRANCH   3  24ATOM     24  C   UNL     1      34.069  44.720  18.495 -0.37 -0.04    +0.106 C  BRANCH  24  25ATOM     25  C   UNL     1      33.304  43.761  19.416 -0.48 -0.00    +0.028 CG0ATOM     26  G   UNL     1      31.871  43.416  18.977 +0.00 +0.00    +0.000 G0 ENDBRANCH  24  25BRANCH  24  27ATOM     27  C   UNL     1      34.254  44.190  17.045 -0.28 -0.05    +0.118 C  BRANCH  27  28ATOM     28  C   UNL     1      32.969  43.640  16.382 -0.31 -0.05    +0.108 C  BRANCH  28  29ATOM     29  N   UNL     1      32.519  42.308  16.798 -0.09 +0.15    -0.315 NA ATOM     30  H   UNL     1      32.029  41.852  16.031 -0.49 -0.09    +0.122 HD BRANCH  29  31ATOM     31  C   UNL     1      31.704  42.251  18.006 -0.31 -0.02    +0.081 C  BRANCH  31  32ATOM     32  C   UNL     1      31.869  43.417  18.977 -0.39 -0.00    +0.017 CG0ATOM     33  G   UNL     1      33.302  43.762  19.413 +0.00 +0.00    +0.000 G0 ENDBRANCH  31  32ENDBRANCH  29  31ENDBRANCH  28  29ENDBRANCH  27  28BRANCH  27  34ATOM     34  N   UNL     1      34.880  45.220  16.206 -0.10 +0.24    -0.346 N  ATOM     35  C   UNL     1      35.936  44.928  15.373 -0.24 -0.12    +0.251 C  ATOM     36  H   UNL     1      34.353  46.064  16.045 -0.01 -0.21    +0.164 HD ATOM     37  O   UNL     1      36.486  43.834  15.332 -0.30 +0.09    -0.269 OA BRANCH  35  38ATOM     38  C   UNL     1      36.384  46.016  14.471 -0.38 -0.02    +0.042 A  ATOM     39  C   UNL     1      37.009  47.129  15.035 -0.40 -0.02    +0.034 A  ATOM     40  C   UNL     1      36.172  45.967  13.092 -0.51 -0.02    +0.034 A  ATOM     41  C   UNL     1      37.419  48.140  14.190 -0.46 -0.06    +0.112 A  ATOM     42  C   UNL     1      36.620  47.033  12.332 -0.59 -0.05    +0.112 A  ATOM     43  N   UNL     1      37.243  48.115  12.851 -0.89 +0.06    -0.265 NA ENDBRANCH  35  38ENDBRANCH  27  34ENDBRANCH  24  27ENDBRANCH   3  24TORSDOF 8TERENDMDL