REMARK SMILES COc1ccc(O)c(C(=O)c2ccc(C(=O)N[C@@H]3CCCNC[C@H]3NC(=O)c3ccncc3F)cc2)c1F
REMARK SMILES IDX 15 1 16 2 17 3 14 5 11 6 12 7 36 8 13 9 35 10 9 11 10 12
REMARK SMILES IDX 8 13 3 14 4 15 37 16 5 17 6 18 38 19 2 20 1 21 7 22 18 24
REMARK SMILES IDX 19 25 24 27 23 28 22 29 21 31 20 32 25 34 26 35 27 37 28 38
REMARK SMILES IDX 29 39 33 40 30 41 32 42 31 43 34 44
REMARK H PARENT 17 4 7 23 22 30 25 36
REMARK Flexibility Score:   88.900
ROOT
ATOM      1  C   UNL     1      -0.502   1.722  -0.594  1.00  0.00     0.251 C 
ATOM      2  O   UNL     1      -0.976   2.851  -0.530  1.00  0.00    -0.269 OA
ATOM      3  N   UNL     1      -1.216   0.582  -0.310  1.00  0.00    -0.347 N 
ATOM      4  H   UNL     1      -0.782  -0.336  -0.347  1.00  0.00     0.164 HD
ENDROOT
BRANCH   1   5
ATOM      5  C   UNL     1       0.909   1.530  -1.027  1.00  0.00     0.039 A 
ATOM      6  C   UNL     1       3.569   1.267  -1.874  1.00  0.00     0.023 A 
ATOM      7  C   UNL     1       3.015   0.321  -1.002  1.00  0.00     0.013 A 
ATOM      8  C   UNL     1       2.788   2.332  -2.337  1.00  0.00     0.013 A 
ATOM      9  C   UNL     1       1.691   0.458  -0.572  1.00  0.00     0.014 A 
ATOM     10  C   UNL     1       1.467   2.470  -1.904  1.00  0.00     0.014 A 
BRANCH   6  11
ATOM     11  C   UNL     1       4.956   1.140  -2.377  1.00  0.00     0.199 C 
ATOM     12  O   UNL     1       5.179   1.384  -3.564  1.00  0.00    -0.288 OA
BRANCH  11  13
ATOM     13  C   UNL     1       6.086   0.680  -1.540  1.00  0.00     0.104 A 
ATOM     14  C   UNL     1       7.218   0.484   0.612  1.00  0.00     0.155 A 
ATOM     15  C   UNL     1       8.252  -0.228   0.001  1.00  0.00     0.053 A 
ATOM     16  C   UNL     1       6.144   0.937  -0.169  1.00  0.00     0.179 A 
ATOM     17  C   UNL     1       8.220  -0.466  -1.375  1.00  0.00     0.051 A 
ATOM     18  C   UNL     1       7.152  -0.002  -2.139  1.00  0.00     0.130 A 
ATOM     19  F   UNL     1       5.172   1.647   0.427  1.00  0.00    -0.202 F 
BRANCH  14  20
ATOM     20  O   UNL     1       7.145   0.788   1.944  1.00  0.00    -0.494 OA
ATOM     21  C   UNL     1       8.252   0.421   2.757  1.00  0.00     0.278 C 
ENDBRANCH  14  20
BRANCH  18  22
ATOM     22  O   UNL     1       7.214  -0.254  -3.484  1.00  0.00    -0.507 OA
ATOM     23  H   UNL     1       6.530   0.301  -3.925  1.00  0.00     0.293 HD
ENDBRANCH  18  22
ENDBRANCH  11  13
ENDBRANCH   6  11
ENDBRANCH   1   5
BRANCH   3  24
ATOM     24  C   UNL     1      -2.550   0.604   0.289  1.00  0.00     0.106 C 
BRANCH  24  25
ATOM     25  C   UNL     1      -2.434   0.662   1.824  1.00  0.00     0.028 CG0
ATOM     26  G   UNL     1      -2.381  -0.679   2.559  1.00  0.00     0.000 G0
ENDBRANCH  24  25
BRANCH  24  27
ATOM     27  C   UNL     1      -3.427  -0.559  -0.258  1.00  0.00     0.118 C 
BRANCH  27  28
ATOM     28  C   UNL     1      -2.920  -1.993   0.096  1.00  0.00     0.108 C 
BRANCH  28  29
ATOM     29  N   UNL     1      -1.532  -2.064   0.578  1.00  0.00    -0.315 NA
ATOM     30  H   UNL     1      -1.193  -3.021   0.452  1.00  0.00     0.122 HD
BRANCH  29  31
ATOM     31  C   UNL     1      -1.403  -1.716   2.000  1.00  0.00     0.081 C 
BRANCH  31  32
ATOM     32  C   UNL     1      -2.381  -0.679   2.559  1.00  0.00     0.017 CG0
ATOM     33  G   UNL     1      -2.434   0.662   1.824  1.00  0.00     0.000 G0
ENDBRANCH  31  32
ENDBRANCH  29  31
ENDBRANCH  28  29
ENDBRANCH  27  28
BRANCH  27  34
ATOM     34  N   UNL     1      -4.834  -0.384   0.117  1.00  0.00    -0.346 N 
ATOM     35  C   UNL     1      -5.850  -1.063  -0.520  1.00  0.00     0.254 C 
ATOM     36  H   UNL     1      -5.056   0.249   0.878  1.00  0.00     0.164 HD
ATOM     37  O   UNL     1      -5.642  -1.863  -1.427  1.00  0.00    -0.269 OA
BRANCH  35  38
ATOM     38  C   UNL     1      -7.242  -0.810  -0.062  1.00  0.00     0.078 A 
ATOM     39  C   UNL     1      -8.287  -1.466  -0.723  1.00  0.00     0.037 A 
ATOM     40  C   UNL     1      -7.549   0.040   0.995  1.00  0.00     0.154 A 
ATOM     41  C   UNL     1      -9.584  -1.244  -0.292  1.00  0.00     0.112 A 
ATOM     42  C   UNL     1      -8.876   0.202   1.353  1.00  0.00     0.151 A 
ATOM     43  N   UNL     1      -9.901  -0.425   0.735  1.00  0.00    -0.262 NA
ATOM     44  F   UNL     1      -6.601   0.699   1.678  1.00  0.00    -0.204 F 
ENDBRANCH  35  38
ENDBRANCH  27  34
ENDBRANCH  24  27
ENDBRANCH   3  24
TORSDOF 8
