MODEL        4USER    Run = 4USERUSER    Estimated Free Energy of Binding    =  -7.53 kcal/mol  [=(1)+(2)+(3)-(4)]USERUSER    (1) Final Intermolecular Energy     = -11.71 kcal/molUSER        vdW + Hbond + desolv Energy     = -12.34 kcal/molUSER        Electrostatic Energy            =  -0.14 kcal/molUSER        Moving Ligand-Fixed Receptor    = -12.48 kcal/molUSER        Moving Ligand-Moving Receptor   =  +0.77 kcal/molUSER    (2) Final Total Internal Energy     =  -2.24 kcal/molUSER    (3) Torsional Free Energy           =  +4.18 kcal/molUSER    (4) Unbound System's Energy         =  -2.24 kcal/molUSERUSERREMARK SMILES COc1ccc(O)c(C(=O)c2ccc(C(=O)N[C@@H]3CCCNC[C@H]3NC(=O)c3ccncc3F)cc2)c1FREMARK SMILES IDX 15 1 16 2 17 3 14 5 11 6 12 7 36 8 13 9 35 10 9 11 10 12REMARK SMILES IDX 8 13 3 14 4 15 37 16 5 17 6 18 38 19 2 20 1 21 7 22 18 24REMARK SMILES IDX 19 25 24 27 23 28 22 29 21 31 20 32 25 34 26 35 27 37 28 38REMARK SMILES IDX 29 39 33 40 30 41 32 42 31 43 34 44REMARK H PARENT 17 4 7 23 22 30 25 36REMARK Flexibility Score:   88.900USER                              x       y       z     vdW  Elec       q    TypeUSER                           _______ _______ _______ _____ _____    ______ ____ROOTATOM      1  C   UNL     1      36.448  44.560  17.617 -0.21 -0.08    +0.251 C  ATOM      2  O   UNL     1      36.495  43.825  16.637 -0.23 +0.09    -0.269 OA ATOM      3  N   UNL     1      36.280  45.922  17.536 -0.14 +0.17    -0.347 N  ATOM      4  H   UNL     1      36.273  46.504  18.369 +0.10 -0.06    +0.164 HD ENDROOTBRANCH   1   5ATOM      5  C   UNL     1      36.543  43.985  18.986 -0.33 -0.01    +0.039 A  ATOM      6  C   UNL     1      36.797  42.968  21.587 -0.42 +0.00    +0.023 A  ATOM      7  C   UNL     1      35.658  42.671  20.827 -0.39 +0.00    +0.013 A  ATOM      8  C   UNL     1      37.816  43.756  21.040 -0.35 +0.00    +0.013 A  ATOM      9  C   UNL     1      35.527  43.186  19.533 -0.41 -0.00    +0.014 A  ATOM     10  C   UNL     1      37.682  44.274  19.749 -0.35 -0.00    +0.014 A  BRANCH   6  11ATOM     11  C   UNL     1      36.987  42.416  22.948 -0.38 +0.02    +0.199 C  ATOM     12  O   UNL     1      37.204  41.210  23.072 -0.29 -0.03    -0.288 OA BRANCH  11  13ATOM     13  C   UNL     1      36.875  43.230  24.179 -0.29 +0.01    +0.104 A  ATOM     14  C   UNL     1      37.221  45.304  25.415 -0.24 +0.01    +0.155 A  ATOM     15  C   UNL     1      36.626  44.731  26.540 -0.32 -0.01    +0.053 A  ATOM     16  C   UNL     1      37.344  44.543  24.243 -0.21 +0.02    +0.179 A  ATOM     17  C   UNL     1      36.179  43.408  26.498 -0.39 -0.01    +0.051 A  ATOM     18  C   UNL     1      36.317  42.661  25.330 -0.26 -0.00    +0.130 A  ATOM     19  F   UNL     1      37.946  45.098  23.178 -0.10 -0.02    -0.202 F  BRANCH  14  20ATOM     20  O   UNL     1      37.705  46.582  25.340 -0.52 -0.05    -0.494 OA ATOM     21  C   UNL     1      36.876  47.623  25.839 -0.27 -0.01    +0.278 C  ENDBRANCH  14  20BRANCH  18  22ATOM     22  O   UNL     1      35.879  41.365  25.384 -0.11 +0.14    -0.507 OA ATOM     23  H   UNL     1      36.626  40.784  25.110 -0.02 -0.15    +0.293 HD ENDBRANCH  18  22ENDBRANCH  11  13ENDBRANCH   6  11ENDBRANCH   1   5BRANCH   3  24ATOM     24  C   UNL     1      36.341  46.661  16.275 -0.35 -0.09    +0.106 C  BRANCH  24  25ATOM     25  C   UNL     1      35.296  46.102  15.290 -0.38 -0.03    +0.028 CG0ATOM     26  G   UNL     1      35.756  45.895  13.845 +0.00 +0.00    +0.000 G0 ENDBRANCH  24  25BRANCH  24  27ATOM     27  C   UNL     1      37.796  46.710  15.727 -0.38 -0.06    +0.118 C  BRANCH  27  28ATOM     28  C   UNL     1      38.063  47.817  14.657 -0.50 -0.05    +0.108 C  BRANCH  28  29ATOM     29  N   UNL     1      37.712  47.449  13.277 -0.54 +0.09    -0.315 NA ATOM     30  H   UNL     1      37.934  48.238  12.664 +0.10 +0.01    +0.122 HD BRANCH  29  31ATOM     31  C   UNL     1      36.286  47.132  13.115 -0.61 -0.04    +0.081 C  BRANCH  31  32ATOM     32  C   UNL     1      35.758  45.892  13.842 -0.49 -0.01    +0.017 CG0ATOM     33  G   UNL     1      35.306  46.101  15.289 +0.00 +0.00    +0.000 G0 ENDBRANCH  31  32ENDBRANCH  29  31ENDBRANCH  28  29ENDBRANCH  27  28BRANCH  27  34ATOM     34  N   UNL     1      38.772  46.779  16.819 -0.19 +0.11    -0.346 N  ATOM     35  C   UNL     1      40.105  46.485  16.628 -0.34 -0.04    +0.254 C  ATOM     36  H   UNL     1      38.450  47.065  17.737 +0.08 -0.06    +0.164 HD ATOM     37  O   UNL     1      40.559  46.162  15.535 -0.37 +0.01    -0.269 OA BRANCH  35  38ATOM     38  C   UNL     1      41.009  46.585  17.804 -0.45 -0.01    +0.078 A  ATOM     39  C   UNL     1      41.846  47.702  17.904 -0.41 -0.00    +0.037 A  ATOM     40  C   UNL     1      41.052  45.625  18.810 -0.36 +0.00    +0.154 A  ATOM     41  C   UNL     1      42.681  47.806  19.004 -0.36 +0.00    +0.112 A  ATOM     42  C   UNL     1      41.921  45.814  19.870 -0.25 +0.03    +0.151 A  ATOM     43  N   UNL     1      42.734  46.886  19.992 -0.30 -0.06    -0.262 NA ATOM     44  F   UNL     1      40.277  44.531  18.785 -0.12 +0.00    -0.204 F  ENDBRANCH  35  38ENDBRANCH  27  34ENDBRANCH  24  27ENDBRANCH   3  24TORSDOF 8TERENDMDL