MODEL        7USER    Run = 7USERUSER    Estimated Free Energy of Binding    =  -7.59 kcal/mol  [=(1)+(2)+(3)-(4)]USERUSER    (1) Final Intermolecular Energy     = -11.77 kcal/molUSER        vdW + Hbond + desolv Energy     = -11.95 kcal/molUSER        Electrostatic Energy            =  -0.18 kcal/molUSER        Moving Ligand-Fixed Receptor    = -12.13 kcal/molUSER        Moving Ligand-Moving Receptor   =  +0.37 kcal/molUSER    (2) Final Total Internal Energy     =  -2.84 kcal/molUSER    (3) Torsional Free Energy           =  +4.18 kcal/molUSER    (4) Unbound System's Energy         =  -2.84 kcal/molUSERUSERREMARK SMILES COc1ccc(O)c(C(=O)c2ccc(C(=O)N[C@@H]3CCCNC[C@H]3NC(=O)c3ccnc(F)c3)cc2)c1FREMARK SMILES IDX 15 1 16 2 17 3 14 5 11 6 12 7 36 8 13 9 35 10 9 11 10 12REMARK SMILES IDX 8 13 3 14 4 15 37 16 5 17 6 18 38 19 2 20 1 21 7 22 18 24REMARK SMILES IDX 19 25 24 27 23 28 22 29 21 31 20 32 25 34 26 35 27 37 28 38REMARK SMILES IDX 29 39 34 40 30 41 32 42 31 43 33 44REMARK H PARENT 17 4 7 23 22 30 25 36REMARK Flexibility Score:   88.900USER                              x       y       z     vdW  Elec       q    TypeUSER                           _______ _______ _______ _____ _____    ______ ____ROOTATOM      1  C   UNL     1      38.333  43.707  22.896 -0.22 +0.02    +0.251 C  ATOM      2  O   UNL     1      37.878  42.569  22.940 -0.25 -0.02    -0.269 OA ATOM      3  N   UNL     1      38.296  44.587  23.959 -0.10 -0.03    -0.347 N  ATOM      4  H   UNL     1      38.865  45.425  23.909 +0.08 +0.01    +0.164 HD ENDROOTBRANCH   1   5ATOM      5  C   UNL     1      38.980  44.190  21.644 -0.29 +0.00    +0.039 A  ATOM      6  C   UNL     1      40.072  45.132  19.228 -0.42 -0.00    +0.023 A  ATOM      7  C   UNL     1      40.735  45.355  20.443 -0.37 +0.00    +0.013 A  ATOM      8  C   UNL     1      38.843  44.462  19.229 -0.35 -0.00    +0.013 A  ATOM      9  C   UNL     1      40.195  44.889  21.645 -0.28 +0.00    +0.014 A  ATOM     10  C   UNL     1      38.307  43.988  20.431 -0.30 -0.00    +0.014 A  BRANCH   6  11ATOM     11  C   UNL     1      40.660  45.708  17.990 -0.39 -0.01    +0.199 C  ATOM     12  O   UNL     1      41.831  45.449  17.707 -0.25 -0.01    -0.288 OA BRANCH  11  13ATOM     13  C   UNL     1      39.943  46.650  17.108 -0.41 -0.02    +0.104 A  ATOM     14  C   UNL     1      38.027  47.250  15.727 -0.32 -0.08    +0.155 A  ATOM     15  C   UNL     1      38.593  48.506  15.499 -0.46 -0.03    +0.053 A  ATOM     16  C   UNL     1      38.718  46.326  16.522 -0.29 -0.05    +0.179 A  ATOM     17  C   UNL     1      39.842  48.825  16.039 -0.47 -0.02    +0.051 A  ATOM     18  C   UNL     1      40.518  47.896  16.826 -0.42 -0.02    +0.130 A  ATOM     19  F   UNL     1      38.187  45.106  16.705 -0.07 +0.05    -0.202 F  BRANCH  14  20ATOM     20  O   UNL     1      36.823  46.819  15.235 -0.08 +0.34    -0.494 OA ATOM     21  C   UNL     1      36.500  47.180  13.898 -0.35 -0.17    +0.278 C  ENDBRANCH  14  20BRANCH  18  22ATOM     22  O   UNL     1      41.748  48.275  17.294 -0.54 -0.00    -0.507 OA ATOM     23  H   UNL     1      42.343  47.492  17.255 -0.35 -0.07    +0.293 HD ENDBRANCH  18  22ENDBRANCH  11  13ENDBRANCH   6  11ENDBRANCH   1   5BRANCH   3  24ATOM     24  C   UNL     1      37.721  44.210  25.260 -0.27 +0.00    +0.106 C  BRANCH  24  25ATOM     25  C   UNL     1      36.281  43.671  25.107 -0.23 +0.00    +0.028 CG0ATOM     26  G   UNL     1      35.852  42.692  26.200 +0.00 +0.00    +0.000 G0 ENDBRANCH  24  25BRANCH  24  27ATOM     27  C   UNL     1      37.847  45.361  26.294 -0.27 -0.01    +0.118 C  BRANCH  27  28ATOM     28  C   UNL     1      37.929  44.885  27.762 -0.20 -0.01    +0.108 C  BRANCH  28  29ATOM     29  N   UNL     1      37.622  43.455  27.896 -0.17 +0.06    -0.315 NA ATOM     30  H   UNL     1      37.841  43.154  28.849 -0.17 -0.03    +0.122 HD BRANCH  29  31ATOM     31  C   UNL     1      36.231  43.106  27.623 -0.43 -0.02    +0.081 C  BRANCH  31  32ATOM     32  C   UNL     1      35.852  42.691  26.198 -0.49 -0.00    +0.017 CG0ATOM     33  G   UNL     1      36.281  43.668  25.103 +0.00 +0.00    +0.000 G0 ENDBRANCH  31  32ENDBRANCH  29  31ENDBRANCH  28  29ENDBRANCH  27  28BRANCH  27  34ATOM     34  N   UNL     1      39.015  46.204  26.007 -0.06 -0.01    -0.346 N  ATOM     35  C   UNL     1      39.023  47.140  25.004 -0.20 +0.02    +0.251 C  ATOM     36  H   UNL     1      39.832  45.970  26.555 +0.05 +0.01    +0.164 HD ATOM     37  O   UNL     1      38.022  47.416  24.357 -0.54 -0.05    -0.269 OA BRANCH  35  38ATOM     38  C   UNL     1      40.302  47.857  24.739 -0.26 +0.00    +0.045 A  ATOM     39  C   UNL     1      40.824  48.831  25.593 -0.28 +0.00    +0.034 A  ATOM     40  C   UNL     1      41.007  47.519  23.582 -0.23 +0.01    +0.074 A  ATOM     41  C   UNL     1      42.021  49.432  25.240 -0.22 +0.02    +0.115 A  ATOM     42  C   UNL     1      42.189  48.178  23.323 -0.23 +0.04    +0.213 A  ATOM     43  N   UNL     1      42.711  49.132  24.121 -0.74 -0.07    -0.228 NA ATOM     44  F   UNL     1      42.866  47.867  22.208 -0.13 -0.03    -0.185 F  ENDBRANCH  35  38ENDBRANCH  27  34ENDBRANCH  24  27ENDBRANCH   3  24TORSDOF 8TERENDMDL