MODEL        8USER    Run = 8USERUSER    Estimated Free Energy of Binding    =  -7.49 kcal/mol  [=(1)+(2)+(3)-(4)]USERUSER    (1) Final Intermolecular Energy     = -11.67 kcal/molUSER        vdW + Hbond + desolv Energy     = -12.39 kcal/molUSER        Electrostatic Energy            =  -0.34 kcal/molUSER        Moving Ligand-Fixed Receptor    = -12.72 kcal/molUSER        Moving Ligand-Moving Receptor   =  +1.06 kcal/molUSER    (2) Final Total Internal Energy     =  -2.26 kcal/molUSER    (3) Torsional Free Energy           =  +4.18 kcal/molUSER    (4) Unbound System's Energy         =  -2.26 kcal/molUSERUSERREMARK SMILES COc1ccc(O)c(C(=O)c2ccc(C(=O)N[C@@H]3CCCNC[C@H]3NC(=O)c3ccnc(F)c3)cc2)c1FREMARK SMILES IDX 15 1 16 2 17 3 14 5 11 6 12 7 36 8 13 9 35 10 9 11 10 12REMARK SMILES IDX 8 13 3 14 4 15 37 16 5 17 6 18 38 19 2 20 1 21 7 22 18 24REMARK SMILES IDX 19 25 24 27 23 28 22 29 21 31 20 32 25 34 26 35 27 37 28 38REMARK SMILES IDX 29 39 34 40 30 41 32 42 31 43 33 44REMARK H PARENT 17 4 7 23 22 30 25 36REMARK Flexibility Score:   88.900USER                              x       y       z     vdW  Elec       q    TypeUSER                           _______ _______ _______ _____ _____    ______ ____ROOTATOM      1  C   UNL     1      40.185  46.210  16.209 -0.29 -0.03    +0.251 C  ATOM      2  O   UNL     1      40.787  45.868  15.197 -0.42 -0.01    -0.269 OA ATOM      3  N   UNL     1      38.835  46.498  16.235 -0.17 +0.11    -0.347 N  ATOM      4  H   UNL     1      38.377  46.576  17.137 +0.09 -0.06    +0.164 HD ENDROOTBRANCH   1   5ATOM      5  C   UNL     1      40.921  46.317  17.501 -0.44 -0.00    +0.039 A  ATOM      6  C   UNL     1      42.289  46.662  19.934 -0.42 +0.00    +0.023 A  ATOM      7  C   UNL     1      41.488  45.532  19.723 -0.39 +0.00    +0.013 A  ATOM      8  C   UNL     1      42.379  47.637  18.934 -0.46 +0.00    +0.013 A  ATOM      9  C   UNL     1      40.806  45.357  18.515 -0.45 +0.00    +0.014 A  ATOM     10  C   UNL     1      41.703  47.459  17.722 -0.30 -0.00    +0.014 A  BRANCH   6  11ATOM     11  C   UNL     1      42.937  46.826  21.262 -0.30 +0.05    +0.199 C  ATOM     12  O   UNL     1      44.105  46.458  21.408 -0.44 -0.22    -0.288 OA BRANCH  11  13ATOM     13  C   UNL     1      42.234  47.336  22.456 -0.21 +0.02    +0.104 A  ATOM     14  C   UNL     1      40.328  47.344  23.974 -0.20 +0.02    +0.155 A  ATOM     15  C   UNL     1      40.977  48.288  24.774 -0.28 +0.01    +0.053 A  ATOM     16  C   UNL     1      40.961  46.886  22.811 -0.09 +0.02    +0.179 A  ATOM     17  C   UNL     1      42.231  48.783  24.403 -0.36 +0.01    +0.051 A  ATOM     18  C   UNL     1      42.846  48.320  23.243 -0.30 +0.03    +0.130 A  ATOM     19  F   UNL     1      40.315  46.008  22.026 -0.07 -0.01    -0.202 F  BRANCH  14  20ATOM     20  O   UNL     1      39.094  46.804  24.225 -0.10 -0.05    -0.494 OA ATOM     21  C   UNL     1      38.153  47.621  24.907 -0.26 +0.03    +0.278 C  ENDBRANCH  14  20BRANCH  18  22ATOM     22  O   UNL     1      44.060  48.875  22.935 -0.44 -0.15    -0.507 OA ATOM     23  H   UNL     1      44.341  48.524  22.058 -0.46 +0.03    +0.293 HD ENDBRANCH  18  22ENDBRANCH  11  13ENDBRANCH   6  11ENDBRANCH   1   5BRANCH   3  24ATOM     24  C   UNL     1      37.993  46.386  15.032 -0.39 -0.04    +0.106 C  BRANCH  24  25ATOM     25  C   UNL     1      38.417  47.405  13.950 -0.53 -0.01    +0.028 CG0ATOM     26  G   UNL     1      37.286  48.304  13.450 +0.00 +0.00    +0.000 G0 ENDBRANCH  24  25BRANCH  24  27ATOM     27  C   UNL     1      36.483  46.447  15.386 -0.36 -0.08    +0.118 C  BRANCH  27  28ATOM     28  C   UNL     1      35.554  45.886  14.286 -0.39 -0.07    +0.108 C  BRANCH  28  29ATOM     29  N   UNL     1      35.115  46.929  13.349 -0.25 +0.24    -0.315 NA ATOM     30  H   UNL     1      34.590  47.640  13.864 +0.11 -0.13    +0.122 HD BRANCH  29  31ATOM     31  C   UNL     1      36.199  47.598  12.635 -0.67 -0.04    +0.081 C  BRANCH  31  32ATOM     32  C   UNL     1      37.280  48.307  13.455 -0.59 -0.01    +0.017 CG0ATOM     33  G   UNL     1      38.408  47.407  13.958 +0.00 +0.00    +0.000 G0 ENDBRANCH  31  32ENDBRANCH  29  31ENDBRANCH  28  29ENDBRANCH  27  28BRANCH  27  34ATOM     34  N   UNL     1      36.205  45.740  16.642 -0.12 +0.20    -0.346 N  ATOM     35  C   UNL     1      36.480  44.406  16.817 -0.22 -0.09    +0.251 C  ATOM     36  H   UNL     1      35.718  46.300  17.328 +0.10 -0.12    +0.164 HD ATOM     37  O   UNL     1      37.079  43.745  15.978 -0.26 +0.08    -0.269 OA BRANCH  35  38ATOM     38  C   UNL     1      36.053  43.775  18.097 -0.29 -0.01    +0.045 A  ATOM     39  C   UNL     1      35.068  42.789  18.171 -0.36 -0.01    +0.034 A  ATOM     40  C   UNL     1      36.685  44.194  19.269 -0.32 -0.01    +0.074 A  ATOM     41  C   UNL     1      34.752  42.277  19.419 -0.32 -0.01    +0.115 A  ATOM     42  C   UNL     1      36.295  43.622  20.460 -0.27 -0.01    +0.213 A  ATOM     43  N   UNL     1      35.338  42.677  20.565 -0.34 -0.01    -0.228 NA ATOM     44  F   UNL     1      36.890  44.027  21.592 -0.13 -0.01    -0.185 F  ENDBRANCH  35  38ENDBRANCH  27  34ENDBRANCH  24  27ENDBRANCH   3  24TORSDOF 8TERENDMDL