REMARK SMILES CNc1ccc2c(n1)N=C2C(=O)Nc1ccc(O)c(CN2CCOCC2)c1F
REMARK SMILES IDX 11 1 12 2 13 3 10 5 3 6 4 7 8 8 5 9 7 10 6 11 9 12 2 13 1 14
REMARK SMILES IDX 14 16 15 17 27 18 16 19 19 20 17 21 28 22 20 23 21 24 22 25
REMARK SMILES IDX 26 26 23 27 25 28 24 29 18 30
REMARK H PARENT 13 4 2 15 18 31
ROOT
ATOM      1  C   UNL     1       2.272  -0.979  -0.842  1.00  0.00     0.275 C 
ATOM      2  O   UNL     1       2.442  -1.461  -1.949  1.00  0.00    -0.267 OA
ATOM      3  N   UNL     1       1.109  -0.664  -0.185  1.00  0.00    -0.318 N 
ATOM      4  H   UNL     1       1.217  -0.262   0.746  1.00  0.00     0.170 HD
ENDROOT
BRANCH   1   5
ATOM      5  C   UNL     1       3.466  -0.667  -0.041  1.00  0.00     0.142 C 
ATOM      6  C   UNL     1       7.195  -0.338   1.007  1.00  0.00     0.128 A 
ATOM      7  C   UNL     1       7.159  -0.920  -0.296  1.00  0.00     0.047 A 
ATOM      8  N   UNL     1       6.072  -0.001   1.686  1.00  0.00    -0.211 NA
ATOM      9  C   UNL     1       5.941  -1.162  -0.951  1.00  0.00     0.018 A 
ATOM     10  C   UNL     1       4.979  -0.264   0.998  1.00  0.00     0.164 A 
ATOM     11  C   UNL     1       4.849  -0.802  -0.234  1.00  0.00     0.051 A 
ATOM     12  N   UNL     1       3.602  -0.142   1.148  1.00  0.00    -0.222 NA
BRANCH   6  13
ATOM     13  N   UNL     1       8.463  -0.170   1.596  1.00  0.00    -0.373 N 
ATOM     14  C   UNL     1       8.435   0.460   2.907  1.00  0.00     0.141 C 
ATOM     15  H   UNL     1       9.072   0.326   0.952  1.00  0.00     0.161 HD
ENDBRANCH   6  13
ENDBRANCH   1   5
BRANCH   3  16
ATOM     16  C   UNL     1      -0.213  -0.830  -0.643  1.00  0.00     0.078 A 
ATOM     17  C   UNL     1      -0.544  -1.370  -1.885  1.00  0.00     0.033 A 
ATOM     18  C   UNL     1      -1.247  -0.429   0.217  1.00  0.00     0.154 A 
ATOM     19  C   UNL     1      -1.887  -1.506  -2.248  1.00  0.00     0.049 A 
ATOM     20  C   UNL     1      -2.598  -0.538  -0.131  1.00  0.00     0.046 A 
ATOM     21  C   UNL     1      -2.894  -1.095  -1.379  1.00  0.00     0.123 A 
ATOM     22  F   UNL     1      -0.920   0.072   1.422  1.00  0.00    -0.204 F 
BRANCH  20  23
ATOM     23  C   UNL     1      -3.653  -0.150   0.880  1.00  0.00     0.127 C 
BRANCH  23  24
ATOM     24  N   UNL     1      -4.888   0.394   0.267  1.00  0.00    -0.294 NA
ATOM     25  C   UNL     1      -5.975   0.427   1.276  1.00  0.00     0.113 C 
ATOM     26  C   UNL     1      -4.668   1.785  -0.213  1.00  0.00     0.113 C 
ATOM     27  C   UNL     1      -7.249   1.071   0.704  1.00  0.00     0.175 C 
ATOM     28  C   UNL     1      -5.970   2.396  -0.756  1.00  0.00     0.175 C 
ATOM     29  O   UNL     1      -6.992   2.404   0.248  1.00  0.00    -0.379 OA
ENDBRANCH  23  24
ENDBRANCH  20  23
BRANCH  21  30
ATOM     30  O   UNL     1      -4.182  -1.254  -1.810  1.00  0.00    -0.508 OA
ATOM     31  H   UNL     1      -4.754  -0.770  -1.174  1.00  0.00     0.293 HD
ENDBRANCH  21  30
ENDBRANCH   3  16
TORSDOF 6
