MODEL        2USER    Run = 2USERUSER    Estimated Free Energy of Binding    =  -9.41 kcal/mol  [=(1)+(2)+(3)-(4)]USERUSER    (1) Final Intermolecular Energy     = -10.90 kcal/molUSER        vdW + Hbond + desolv Energy     = -10.78 kcal/molUSER        Electrostatic Energy            =  -0.12 kcal/molUSER        Moving Ligand-Fixed Receptor    = -10.90 kcal/molUSER        Moving Ligand-Moving Receptor   =  +0.00 kcal/molUSER    (2) Final Total Internal Energy     =  -1.44 kcal/molUSER    (3) Torsional Free Energy           =  +1.49 kcal/molUSER    (4) Unbound System's Energy         =  -1.44 kcal/molUSERUSERREMARK SMILES CC(C)c1nnc2ccc(-c3ccc(O)c(CN4CCN(C)CC4)c3F)cn12REMARK SMILES IDX 11 1 12 2 13 3 14 4 16 5 25 6 26 7 10 8 4 9 5 10 28 11 6 12REMARK SMILES IDX 27 13 7 14 8 15 9 16 2 17 1 18 3 19 17 20 18 21 19 22 24 23REMARK SMILES IDX 20 24 23 25 21 26 22 27 15 28REMARK H PARENT 15 29USER                              x       y       z     vdW  Elec       q    TypeUSER                           _______ _______ _______ _____ _____    ______ ____ROOTATOM      1  C   UNL     1      35.041  45.237  16.920 -0.31 -0.01    +0.020 A  ATOM      2  C   UNL     1      33.693  45.460  17.231 -0.34 -0.01    +0.015 A  ATOM      3  C   UNL     1      33.111  44.828  18.332 -0.33 -0.02    +0.047 A  ATOM      4  C   UNL     1      33.877  43.977  19.131 -0.31 -0.02    +0.123 A  ATOM      5  C   UNL     1      35.228  43.743  18.853 -0.33 -0.01    +0.044 A  ATOM      6  C   UNL     1      35.791  44.380  17.739 -0.22 -0.05    +0.139 A  ATOM      7  F   UNL     1      37.080  44.146  17.435 -0.06 +0.05    -0.206 F  ENDROOTBRANCH   1   8ATOM      8  C   UNL     1      35.661  45.906  15.762 -0.36 -0.00    +0.001 A  ATOM      9  C   UNL     1      38.585  47.954  14.719 -0.41 -0.06    +0.139 A  ATOM     10  N   UNL     1      38.722  48.329  13.459 -0.46 +0.03    -0.134 NA ATOM     11  N   UNL     1      37.422  47.213  14.843 -0.21 +0.16    -0.286 N  ATOM     12  N   UNL     1      37.655  47.854  12.739 -0.98 +0.02    -0.130 NA ATOM     13  C   UNL     1      36.821  46.577  15.930 -0.31 -0.07    +0.103 A  ATOM     14  C   UNL     1      36.878  47.192  13.564 -0.42 -0.08    +0.160 A  ATOM     15  C   UNL     1      35.654  46.503  13.375 -0.48 -0.03    +0.050 A  ATOM     16  C   UNL     1      35.069  45.890  14.421 -0.37 -0.01    +0.014 A  BRANCH   9  17ATOM     17  C   UNL     1      39.561  48.296  15.804 -0.56 -0.02    +0.052 C  ATOM     18  C   UNL     1      40.130  47.058  16.494 -0.55 -0.00    +0.016 C  ATOM     19  C   UNL     1      40.659  49.246  15.329 -0.71 -0.00    +0.016 C  ENDBRANCH   9  17ENDBRANCH   1   8BRANCH   5  20ATOM     20  C   UNL     1      36.086  42.842  19.710 -0.38 -0.01    +0.127 C  BRANCH  20  21ATOM     21  N   UNL     1      35.951  43.113  21.155 -0.20 -0.02    -0.296 NA ATOM     22  C   UNL     1      36.171  41.905  21.978 -0.50 +0.01    +0.100 C  ATOM     23  C   UNL     1      36.902  44.160  21.583 -0.35 +0.01    +0.100 C  ATOM     24  C   UNL     1      37.645  41.438  22.077 -0.40 +0.01    +0.099 C  ATOM     25  C   UNL     1      38.379  43.702  21.673 -0.32 +0.00    +0.099 C  ATOM     26  N   UNL     1      38.606  42.486  22.479 -0.15 -0.03    -0.304 NA ATOM     27  C   UNL     1      38.515  42.772  23.910 -0.25 +0.01    +0.105 C  ENDBRANCH  20  21ENDBRANCH   5  20BRANCH   4  28ATOM     28  O   UNL     1      33.302  43.362  20.207 -0.71 -0.07    -0.508 OA ATOM     29  H   UNL     1      33.980  43.197  20.884 +0.22 +0.10    +0.293 HD ENDBRANCH   4  28TORSDOF 5TERENDMDL