MODEL        2USER    Run = 2USERUSER    Estimated Free Energy of Binding    = -12.56 kcal/mol  [=(1)+(2)+(3)-(4)]USERUSER    (1) Final Intermolecular Energy     = -14.65 kcal/molUSER        vdW + Hbond + desolv Energy     = -14.31 kcal/molUSER        Electrostatic Energy            =  -0.34 kcal/molUSER        Moving Ligand-Fixed Receptor    = -14.65 kcal/molUSER        Moving Ligand-Moving Receptor   =  +0.00 kcal/molUSER    (2) Final Total Internal Energy     =  -1.49 kcal/molUSER    (3) Torsional Free Energy           =  +2.09 kcal/molUSER    (4) Unbound System's Energy         =  -1.49 kcal/molUSERUSERREMARK SMILES Oc1cc(-c2nc3ccccc3nc2-c2ccc(CN3CCC(n4c(O)nc5ccccc54)CC3)cc2)ccn1REMARK SMILES IDX 15 1 16 2 17 3 18 4 36 5 37 6 14 7 5 8 6 9 7 10 13 11 8 12REMARK SMILES IDX 12 13 9 14 11 15 10 16 4 17 2 18 3 19 40 20 39 21 38 22 1 23REMARK SMILES IDX 19 25 20 26 21 27 35 28 22 29 34 30 23 31 24 32 25 33 33 34REMARK SMILES IDX 27 35 32 36 28 37 31 38 29 39 30 40 26 41REMARK H PARENT 1 24 26 42USER                              x       y       z     vdW  Elec       q    TypeUSER                           _______ _______ _______ _____ _____    ______ ____ROOTATOM      1  C   UNL     1      32.333  44.935  15.351 -0.37 -0.00    +0.002 A  ATOM      2  C   UNL     1      31.876  43.608  15.408 -0.36 -0.01    +0.011 A  ATOM      3  C   UNL     1      30.508  43.310  15.440 -0.31 -0.00    +0.006 A  ATOM      4  C   UNL     1      29.551  44.330  15.373 -0.25 +0.02    -0.034 A  ATOM      5  C   UNL     1      29.992  45.655  15.287 -0.39 -0.00    +0.006 A  ATOM      6  C   UNL     1      31.359  45.948  15.279 -0.45 -0.01    +0.011 A  ENDROOTBRANCH   1   7ATOM      7  C   UNL     1      33.768  45.291  15.341 -0.24 -0.08    +0.097 A  ATOM      8  C   UNL     1      34.724  44.891  16.288 -0.25 -0.06    +0.098 A  ATOM      9  N   UNL     1      36.031  45.255  16.164 -0.17 +0.13    -0.244 NA ATOM     10  C   UNL     1      36.366  46.044  15.128 -0.32 -0.06    +0.089 A  ATOM     11  N   UNL     1      34.120  46.086  14.289 -0.19 +0.23    -0.244 NA ATOM     12  C   UNL     1      37.682  46.469  14.981 -0.38 -0.01    +0.030 A  ATOM     13  C   UNL     1      35.403  46.462  14.186 -0.36 -0.07    +0.089 A  ATOM     14  C   UNL     1      38.065  47.294  13.923 -0.50 -0.00    +0.002 A  ATOM     15  C   UNL     1      35.794  47.281  13.134 -0.54 -0.02    +0.030 A  ATOM     16  C   UNL     1      37.116  47.701  12.994 -0.58 -0.00    +0.002 A  BRANCH   8  17ATOM     17  C   UNL     1      34.461  44.095  17.499 -0.30 -0.00    +0.009 A  ATOM     18  C   UNL     1      33.296  43.773  19.572 -0.28 -0.02    +0.211 A  ATOM     19  C   UNL     1      33.526  44.543  18.446 -0.32 -0.02    +0.078 A  ATOM     20  N   UNL     1      33.913  42.611  19.827 -0.61 -0.02    -0.222 NA ATOM     21  C   UNL     1      34.790  42.175  18.902 -0.32 -0.02    +0.116 A  ATOM     22  C   UNL     1      35.089  42.866  17.738 -0.36 -0.01    +0.031 A  BRANCH  18  23ATOM     23  O   UNL     1      32.406  44.174  20.526 -0.49 -0.01    -0.493 OA ATOM     24  H   UNL     1      32.491  45.132  20.628 -0.36 -0.08    +0.295 HD ENDBRANCH  18  23ENDBRANCH   8  17ENDBRANCH   1   7BRANCH   4  25ATOM     25  C   UNL     1      28.075  43.996  15.403 -0.11 -0.09    +0.120 C  BRANCH  25  26ATOM     26  N   UNL     1      27.540  43.900  16.770 -0.10 +0.06    -0.299 NA ATOM     27  C   UNL     1      26.076  44.011  16.812 -0.35 -0.01    +0.087 C  ATOM     28  C   UNL     1      28.085  42.764  17.514 -0.20 -0.01    +0.087 C  ATOM     29  C   UNL     1      25.414  43.092  17.839 -0.40 -0.00    +0.041 C  ATOM     30  C   UNL     1      27.317  41.460  17.315 -0.23 -0.00    +0.041 C  ATOM     31  C   UNL     1      25.805  41.638  17.536 -0.25 -0.01    +0.095 C  BRANCH  31  32ATOM     32  N   UNL     1      25.250  40.674  18.478 -0.11 +0.03    -0.291 N  ATOM     33  C   UNL     1      24.931  39.361  18.199 -0.17 -0.05    +0.295 A  ATOM     34  C   UNL     1      24.931  40.896  19.803 -0.29 -0.01    +0.072 A  ATOM     35  N   UNL     1      24.358  38.766  19.211 -0.25 +0.13    -0.195 NA ATOM     36  C   UNL     1      25.065  41.990  20.670 -0.48 -0.01    +0.029 A  ATOM     37  C   UNL     1      24.363  39.690  20.220 -0.29 -0.04    +0.092 A  ATOM     38  C   UNL     1      24.594  41.840  21.980 -0.61 -0.00    +0.002 A  ATOM     39  C   UNL     1      23.898  39.559  21.537 -0.34 -0.01    +0.031 A  ATOM     40  C   UNL     1      24.019  40.644  22.410 -0.48 -0.00    +0.002 A  BRANCH  33  41ATOM     41  O   UNL     1      25.151  38.726  17.059 -0.74 -0.06    -0.480 OA ATOM     42  H   UNL     1      24.322  38.340  16.748 -0.21 -0.14    +0.296 HD ENDBRANCH  33  41ENDBRANCH  31  32ENDBRANCH  25  26ENDBRANCH   4  25TORSDOF 7TERENDMDL