MODEL        4USER    Run = 4USERUSER    Estimated Free Energy of Binding    =  -8.64 kcal/mol  [=(1)+(2)+(3)-(4)]USERUSER    (1) Final Intermolecular Energy     = -10.43 kcal/molUSER        vdW + Hbond + desolv Energy     = -10.40 kcal/molUSER        Electrostatic Energy            =  -0.03 kcal/molUSER        Moving Ligand-Fixed Receptor    = -10.43 kcal/molUSER        Moving Ligand-Moving Receptor   =  +0.00 kcal/molUSER    (2) Final Total Internal Energy     =  -1.49 kcal/molUSER    (3) Torsional Free Energy           =  +1.79 kcal/molUSER    (4) Unbound System's Energy         =  -1.49 kcal/molUSERUSERREMARK SMILES CNc1ccc2c(n1)N=C2C(=O)Nc1ccc(O)c(CN2CCOCC2)c1FREMARK SMILES IDX 11 1 12 2 13 3 10 5 3 6 4 7 8 8 5 9 7 10 6 11 9 12 2 13 1 14REMARK SMILES IDX 14 16 15 17 27 18 16 19 19 20 17 21 28 22 20 23 21 24 22 25REMARK SMILES IDX 26 26 23 27 25 28 24 29 18 30REMARK H PARENT 13 4 2 15 18 31USER                              x       y       z     vdW  Elec       q    TypeUSER                           _______ _______ _______ _____ _____    ______ ____ROOTATOM      1  C   UNL     1      38.943  45.179  18.313 -0.28 -0.03    +0.275 C  ATOM      2  O   UNL     1      38.599  44.371  17.467 -0.21 +0.04    -0.267 OA ATOM      3  N   UNL     1      38.713  45.194  19.665 -0.19 +0.01    -0.318 N  ATOM      4  H   UNL     1      39.104  45.986  20.176 +0.08 +0.00    +0.170 HD ENDROOTBRANCH   1   5ATOM      5  C   UNL     1      39.732  46.340  17.869 -0.42 -0.02    +0.142 C  ATOM      6  C   UNL     1      40.898  49.391  15.762 -0.53 -0.03    +0.128 A  ATOM      7  C   UNL     1      39.734  48.850  15.137 -0.50 -0.02    +0.047 A  ATOM      8  N   UNL     1      41.435  48.860  16.887 -0.93 -0.00    -0.211 NA ATOM      9  C   UNL     1      39.074  47.733  15.673 -0.49 -0.01    +0.018 A  ATOM     10  C   UNL     1      40.753  47.817  17.317 -0.36 -0.02    +0.164 A  ATOM     11  C   UNL     1      39.645  47.244  16.800 -0.44 -0.01    +0.051 A  ATOM     12  N   UNL     1      40.801  46.905  18.365 -0.34 +0.02    -0.222 NA BRANCH   6  13ATOM     13  N   UNL     1      41.511  50.489  15.128 -0.36 +0.09    -0.373 N  ATOM     14  C   UNL     1      42.519  50.124  14.144 -0.57 -0.02    +0.141 C  ATOM     15  H   UNL     1      41.882  51.122  15.830 -0.41 -0.04    +0.161 HD ENDBRANCH   6  13ENDBRANCH   1   5BRANCH   3  16ATOM     16  C   UNL     1      38.004  44.247  20.431 -0.31 -0.00    +0.078 A  ATOM     17  C   UNL     1      37.089  43.342  19.895 -0.30 -0.00    +0.033 A  ATOM     18  C   UNL     1      38.250  44.222  21.812 -0.26 +0.01    +0.154 A  ATOM     19  C   UNL     1      36.441  42.430  20.733 -0.44 -0.00    +0.049 A  ATOM     20  C   UNL     1      37.601  43.332  22.674 -0.35 +0.00    +0.046 A  ATOM     21  C   UNL     1      36.698  42.430  22.102 -0.39 +0.01    +0.123 A  ATOM     22  F   UNL     1      39.150  45.085  22.318 -0.07 -0.01    -0.204 F  BRANCH  20  23ATOM     23  C   UNL     1      37.974  43.320  24.139 -0.28 +0.01    +0.127 C  BRANCH  23  24ATOM     24  N   UNL     1      36.859  42.922  25.031 -0.19 -0.00    -0.294 NA ATOM     25  C   UNL     1      37.278  41.779  25.878 -0.35 -0.01    +0.113 C  ATOM     26  C   UNL     1      36.481  44.044  25.933 -0.35 -0.01    +0.113 C  ATOM     27  C   UNL     1      36.179  41.394  26.882 -0.47 -0.05    +0.175 C  ATOM     28  C   UNL     1      35.396  43.610  26.932 -0.43 -0.03    +0.175 C  ATOM     29  O   UNL     1      35.841  42.502  27.724 -0.25 +0.13    -0.379 OA ENDBRANCH  23  24ENDBRANCH  20  23BRANCH  21  30ATOM     30  O   UNL     1      36.019  41.513  22.855 -0.21 -0.02    -0.508 OA ATOM     31  H   UNL     1      35.990  41.868  23.772 +0.19 +0.01    +0.293 HD ENDBRANCH  21  30ENDBRANCH   3  16TORSDOF 6TERENDMDL