REMARK SMILES Oc1cc(-c2nc3ccccc3nc2-c2ccc(CN3CCC(n4c(O)nc5ccccc54)CC3)cc2)ccn1
REMARK SMILES IDX 15 1 16 2 17 3 18 4 36 5 37 6 14 7 5 8 6 9 7 10 13 11 8 12
REMARK SMILES IDX 12 13 9 14 11 15 10 16 4 17 2 18 3 19 40 20 39 21 38 22 1 23
REMARK SMILES IDX 19 25 20 26 21 27 35 28 22 29 34 30 23 31 24 32 25 33 33 34
REMARK SMILES IDX 27 35 32 36 28 37 31 38 29 39 30 40 26 41
REMARK H PARENT 1 24 26 42
ROOT
ATOM      1  C   UNL     1      -2.945  -1.157   0.308  1.00  0.00     0.002 A 
ATOM      2  C   UNL     1      -2.446  -1.325  -0.994  1.00  0.00     0.011 A 
ATOM      3  C   UNL     1      -1.084  -1.554  -1.227  1.00  0.00     0.006 A 
ATOM      4  C   UNL     1      -0.183  -1.665  -0.161  1.00  0.00    -0.034 A 
ATOM      5  C   UNL     1      -0.672  -1.529   1.143  1.00  0.00     0.006 A 
ATOM      6  C   UNL     1      -2.029  -1.277   1.369  1.00  0.00     0.011 A 
ENDROOT
BRANCH   1   7
ATOM      7  C   UNL     1      -4.371  -0.890   0.594  1.00  0.00     0.097 A 
ATOM      8  C   UNL     1      -5.191   0.026  -0.085  1.00  0.00     0.098 A 
ATOM      9  N   UNL     1      -6.505   0.171   0.244  1.00  0.00    -0.244 NA
ATOM     10  C   UNL     1      -6.979  -0.561   1.267  1.00  0.00     0.089 A 
ATOM     11  N   UNL     1      -4.864  -1.634   1.626  1.00  0.00    -0.244 NA
ATOM     12  C   UNL     1      -8.305  -0.421   1.660  1.00  0.00     0.030 A 
ATOM     13  C   UNL     1      -6.152  -1.468   1.962  1.00  0.00     0.089 A 
ATOM     14  C   UNL     1      -8.830  -1.158   2.722  1.00  0.00     0.002 A 
ATOM     15  C   UNL     1      -6.684  -2.201   3.016  1.00  0.00     0.030 A 
ATOM     16  C   UNL     1      -8.016  -2.054   3.402  1.00  0.00     0.002 A 
BRANCH   8  17
ATOM     17  C   UNL     1      -4.764   0.932  -1.165  1.00  0.00     0.009 A 
ATOM     18  C   UNL     1      -5.070   1.852  -3.360  1.00  0.00     0.211 A 
ATOM     19  C   UNL     1      -5.492   0.990  -2.364  1.00  0.00     0.078 A 
ATOM     20  N   UNL     1      -3.997   2.649  -3.260  1.00  0.00    -0.222 NA
ATOM     21  C   UNL     1      -3.318   2.606  -2.097  1.00  0.00     0.116 A 
ATOM     22  C   UNL     1      -3.659   1.783  -1.035  1.00  0.00     0.031 A 
BRANCH  18  23
ATOM     23  O   UNL     1      -5.738   1.934  -4.547  1.00  0.00    -0.493 OA
ATOM     24  H   UNL     1      -6.501   1.341  -4.500  1.00  0.00     0.295 HD
ENDBRANCH  18  23
ENDBRANCH   8  17
ENDBRANCH   1   7
BRANCH   4  25
ATOM     25  C   UNL     1       1.286  -1.917  -0.424  1.00  0.00     0.120 C 
BRANCH  25  26
ATOM     26  N   UNL     1       2.036  -0.682  -0.698  1.00  0.00    -0.299 NA
ATOM     27  C   UNL     1       2.183   0.165   0.494  1.00  0.00     0.087 C 
ATOM     28  C   UNL     1       3.281  -0.924  -1.428  1.00  0.00     0.087 C 
ATOM     29  C   UNL     1       3.542   0.857   0.598  1.00  0.00     0.041 C 
ATOM     30  C   UNL     1       4.478  -1.239  -0.536  1.00  0.00     0.041 C 
ATOM     31  C   UNL     1       4.649  -0.208   0.592  1.00  0.00     0.095 C 
BRANCH  31  32
ATOM     32  N   UNL     1       5.995   0.346   0.658  1.00  0.00    -0.291 N 
ATOM     33  C   UNL     1       6.928   0.093   1.642  1.00  0.00     0.295 A 
ATOM     34  C   UNL     1       6.575   1.228  -0.233  1.00  0.00     0.072 A 
ATOM     35  N   UNL     1       8.011   0.807   1.492  1.00  0.00    -0.195 NA
ATOM     36  C   UNL     1       6.162   1.810  -1.440  1.00  0.00     0.029 A 
ATOM     37  C   UNL     1       7.823   1.504   0.330  1.00  0.00     0.092 A 
ATOM     38  C   UNL     1       7.045   2.698  -2.066  1.00  0.00     0.002 A 
ATOM     39  C   UNL     1       8.694   2.396  -0.314  1.00  0.00     0.031 A 
ATOM     40  C   UNL     1       8.293   2.989  -1.514  1.00  0.00     0.002 A 
BRANCH  33  41
ATOM     41  O   UNL     1       6.796  -0.759   2.646  1.00  0.00    -0.480 OA
ATOM     42  H   UNL     1       6.175  -1.454   2.390  1.00  0.00     0.296 HD
ENDBRANCH  33  41
ENDBRANCH  31  32
ENDBRANCH  25  26
ENDBRANCH   4  25
TORSDOF 7
