MODEL        4USER    Run = 4USERUSER    Estimated Free Energy of Binding    = -10.67 kcal/mol  [=(1)+(2)+(3)-(4)]USERUSER    (1) Final Intermolecular Energy     = -12.17 kcal/molUSER        vdW + Hbond + desolv Energy     = -12.03 kcal/molUSER        Electrostatic Energy            =  -0.13 kcal/molUSER        Moving Ligand-Fixed Receptor    = -12.17 kcal/molUSER        Moving Ligand-Moving Receptor   =  +0.00 kcal/molUSER    (2) Final Total Internal Energy     =  -1.56 kcal/molUSER    (3) Torsional Free Energy           =  +1.49 kcal/molUSER    (4) Unbound System's Energy         =  -1.56 kcal/molUSERUSERREMARK SMILES CNC1=C(c2ccc(C(N)=O)cc2)C=C(c2cc3ccc(F)cc3cn2)N[C@H]1NREMARK SMILES IDX 3 1 4 2 14 3 15 4 27 5 28 6 2 8 1 9 5 11 6 12 13 13 7 14REMARK SMILES IDX 12 15 8 16 9 17 10 18 11 19 29 22 16 25 17 26 26 27 18 28REMARK SMILES IDX 25 29 19 30 24 31 20 32 23 33 21 34 22 35REMARK H PARENT 27 7 2 10 10 20 10 21 29 23 29 24USER                              x       y       z     vdW  Elec       q    TypeUSER                           _______ _______ _______ _____ _____    ______ ____ROOTATOM      1  C   UNL     1      40.787  47.474  17.447 -0.54 -0.01    +0.056 C  ATOM      2  C   UNL     1      39.618  46.809  17.238 -0.52 -0.00    +0.006 C  ATOM      3  C   UNL     1      39.028  46.037  18.329 -0.42 -0.01    +0.038 C  ATOM      4  C   UNL     1      39.700  45.798  19.467 -0.40 -0.00    +0.062 C  ATOM      5  N   UNL     1      40.976  46.319  19.660 -0.17 -0.01    -0.363 N  ATOM      6  C   UNL     1      41.437  47.442  18.872 -0.07 -0.00    +0.193 C  ATOM      7  H   UNL     1      41.166  46.460  20.648 +0.09 +0.01    +0.162 HD ENDROOTBRANCH   1   8ATOM      8  N   UNL     1      41.525  48.235  16.510 -0.09 +0.01    -0.388 N  ATOM      9  C   UNL     1      41.107  48.479  15.141 -0.47 -0.02    +0.139 C  ATOM     10  H   UNL     1      42.490  47.878  16.534 -0.37 -0.03    +0.160 HD ENDBRANCH   1   8BRANCH   2  11ATOM     11  C   UNL     1      38.892  46.881  15.951 -0.43 +0.01    -0.016 A  ATOM     12  C   UNL     1      38.041  47.961  15.680 -0.46 -0.01    +0.009 A  ATOM     13  C   UNL     1      39.001  45.843  15.018 -0.36 -0.00    +0.009 A  ATOM     14  C   UNL     1      37.328  48.018  14.478 -0.52 -0.01    +0.014 A  ATOM     15  C   UNL     1      38.291  45.898  13.817 -0.32 -0.00    +0.014 A  ATOM     16  C   UNL     1      37.460  46.991  13.535 -0.49 -0.01    +0.039 A  BRANCH  16  17ATOM     17  C   UNL     1      36.729  47.003  12.240 -0.54 -0.10    +0.248 C  ATOM     18  N   UNL     1      35.416  46.617  12.250 -0.27 +0.24    -0.366 N  ATOM     19  O   UNL     1      37.260  47.378  11.202 -0.91 +0.07    -0.270 OA ATOM     20  H   UNL     1      34.874  46.577  13.101 -0.02 -0.12    +0.159 HD ATOM     21  H   UNL     1      34.911  46.757  11.384 -0.16 -0.15    +0.159 HD ENDBRANCH  16  17ENDBRANCH   2  11BRANCH   6  22ATOM     22  N   UNL     1      42.891  47.503  18.728 -0.36 -0.02    -0.306 NA ATOM     23  H   UNL     1      43.087  47.470  17.733 -0.51 -0.02    +0.121 HD ATOM     24  H   UNL     1      43.132  48.452  19.012 -0.42 -0.01    +0.121 HD ENDBRANCH   6  22BRANCH   4  25ATOM     25  C   UNL     1      39.080  44.977  20.540 -0.31 +0.00    +0.087 A  ATOM     26  C   UNL     1      38.107  44.027  20.235 -0.31 -0.00    +0.039 A  ATOM     27  N   UNL     1      39.515  45.189  21.805 -0.17 -0.01    -0.254 NA ATOM     28  C   UNL     1      37.548  43.256  21.263 -0.36 -0.00    -0.014 A  ATOM     29  C   UNL     1      38.967  44.437  22.788 -0.22 +0.01    +0.120 A  ATOM     30  C   UNL     1      36.559  42.288  21.012 -0.48 +0.00    +0.012 A  ATOM     31  C   UNL     1      37.990  43.463  22.584 -0.35 +0.00    +0.003 A  ATOM     32  C   UNL     1      36.024  41.536  22.059 -0.43 +0.00    +0.040 A  ATOM     33  C   UNL     1      37.446  42.701  23.631 -0.36 +0.00    +0.049 A  ATOM     34  C   UNL     1      36.471  41.750  23.356 -0.36 +0.00    +0.123 A  ATOM     35  F   UNL     1      35.955  41.027  24.358 +0.04 +0.05    -0.207 F  ENDBRANCH   4  25TORSDOF 5TERENDMDL