REMARK SMILES CNC1=C(c2ccc(C(N)=O)cc2)C=C(c2cc3ccc(F)cc3cn2)N[C@H]1N
REMARK SMILES IDX 3 1 4 2 14 3 15 4 27 5 28 6 2 8 1 9 5 11 6 12 13 13 7 14
REMARK SMILES IDX 12 15 8 16 9 17 10 18 11 19 29 22 16 25 17 26 26 27 18 28
REMARK SMILES IDX 25 29 19 30 24 31 20 32 23 33 21 34 22 35
REMARK H PARENT 27 7 2 10 10 20 10 21 29 23 29 24
ROOT
ATOM      1  C   UNL     1      -1.284  -1.921  -0.173  1.00  0.00     0.056 C 
ATOM      2  C   UNL     1      -1.216  -0.563  -0.106  1.00  0.00     0.006 C 
ATOM      3  C   UNL     1       0.071   0.100  -0.304  1.00  0.00     0.038 C 
ATOM      4  C   UNL     1       1.221  -0.592  -0.349  1.00  0.00     0.062 C 
ATOM      5  N   UNL     1       1.218  -1.980  -0.251  1.00  0.00    -0.363 N 
ATOM      6  C   UNL     1       0.011  -2.732  -0.520  1.00  0.00     0.193 C 
ATOM      7  H   UNL     1       2.016  -2.381  -0.734  1.00  0.00     0.162 HD
ENDROOT
BRANCH   1   8
ATOM      8  N   UNL     1      -2.422  -2.738   0.028  1.00  0.00    -0.388 N 
ATOM      9  C   UNL     1      -3.412  -2.523   1.068  1.00  0.00     0.139 C 
ATOM     10  H   UNL     1      -2.087  -3.711   0.044  1.00  0.00     0.160 HD
ENDBRANCH   1   8
BRANCH   2  11
ATOM     11  C   UNL     1      -2.416   0.274   0.110  1.00  0.00    -0.016 A 
ATOM     12  C   UNL     1      -3.349   0.452  -0.920  1.00  0.00     0.009 A 
ATOM     13  C   UNL     1      -2.600   0.945   1.325  1.00  0.00     0.009 A 
ATOM     14  C   UNL     1      -4.469   1.268  -0.731  1.00  0.00     0.014 A 
ATOM     15  C   UNL     1      -3.718   1.760   1.517  1.00  0.00     0.014 A 
ATOM     16  C   UNL     1      -4.664   1.916   0.495  1.00  0.00     0.039 A 
BRANCH  16  17
ATOM     17  C   UNL     1      -5.839   2.792   0.752  1.00  0.00     0.248 C 
ATOM     18  N   UNL     1      -6.946   2.613  -0.032  1.00  0.00    -0.366 N 
ATOM     19  O   UNL     1      -5.841   3.621   1.653  1.00  0.00    -0.270 OA
ATOM     20  H   UNL     1      -7.088   1.776  -0.578  1.00  0.00     0.159 HD
ATOM     21  H   UNL     1      -7.769   3.131   0.247  1.00  0.00     0.159 HD
ENDBRANCH  16  17
ENDBRANCH   2  11
BRANCH   6  22
ATOM     22  N   UNL     1      -0.044  -4.023   0.166  1.00  0.00    -0.306 NA
ATOM     23  H   UNL     1       0.816  -4.511  -0.063  1.00  0.00     0.121 HD
ATOM     24  H   UNL     1       0.043  -3.786   1.154  1.00  0.00     0.121 HD
ENDBRANCH   6  22
BRANCH   4  25
ATOM     25  C   UNL     1       2.514   0.122  -0.515  1.00  0.00     0.087 A 
ATOM     26  C   UNL     1       3.666  -0.337   0.121  1.00  0.00     0.039 A 
ATOM     27  N   UNL     1       2.515   1.215  -1.315  1.00  0.00    -0.254 NA
ATOM     28  C   UNL     1       4.876   0.345  -0.063  1.00  0.00    -0.014 A 
ATOM     29  C   UNL     1       3.690   1.864  -1.484  1.00  0.00     0.120 A 
ATOM     30  C   UNL     1       6.066  -0.072   0.559  1.00  0.00     0.012 A 
ATOM     31  C   UNL     1       4.894   1.483  -0.893  1.00  0.00     0.003 A 
ATOM     32  C   UNL     1       7.255   0.630   0.354  1.00  0.00     0.040 A 
ATOM     33  C   UNL     1       6.095   2.183  -1.094  1.00  0.00     0.049 A 
ATOM     34  C   UNL     1       7.258   1.749  -0.469  1.00  0.00     0.123 A 
ATOM     35  F   UNL     1       8.400   2.420  -0.664  1.00  0.00    -0.207 F 
ENDBRANCH   4  25
TORSDOF 5
