MODEL        2USER    Run = 2USERUSER    Estimated Free Energy of Binding    = -11.55 kcal/mol  [=(1)+(2)+(3)-(4)]USERUSER    (1) Final Intermolecular Energy     = -13.94 kcal/molUSER        vdW + Hbond + desolv Energy     = -13.52 kcal/molUSER        Electrostatic Energy            =  -0.42 kcal/molUSER        Moving Ligand-Fixed Receptor    = -13.94 kcal/molUSER        Moving Ligand-Moving Receptor   =  +0.00 kcal/molUSER    (2) Final Total Internal Energy     =  -2.02 kcal/molUSER    (3) Torsional Free Energy           =  +2.39 kcal/molUSER    (4) Unbound System's Energy         =  -2.02 kcal/molUSERUSERREMARK SMILES COc1ccc(-c2nc3ccc(F)cc3nc2-c2ccc(CN3CCC(n4c(O)nc5ccccc54)CC3)cc2O)cc1REMARK SMILES IDX 18 1 19 2 20 3 21 4 39 5 40 6 17 7 7 8 8 9 9 10 16 11 10 12REMARK SMILES IDX 15 13 11 14 14 15 12 16 13 17 6 18 3 19 4 20 43 21 5 22REMARK SMILES IDX 42 23 2 24 1 25 41 26 22 28 23 29 24 30 38 31 25 32 37 33REMARK SMILES IDX 26 34 27 35 28 36 36 37 30 38 35 39 31 40 34 41 32 42 33 43REMARK SMILES IDX 29 44REMARK H PARENT 41 27 29 45USER                              x       y       z     vdW  Elec       q    TypeUSER                           _______ _______ _______ _____ _____    ______ ____ROOTATOM      1  C   UNL     1      34.246  44.179  17.754 -0.28 -0.02    +0.044 A  ATOM      2  C   UNL     1      33.635  45.305  17.178 -0.33 -0.01    +0.014 A  ATOM      3  C   UNL     1      32.472  45.187  16.408 -0.32 -0.00    +0.006 A  ATOM      4  C   UNL     1      31.880  43.936  16.195 -0.31 +0.01    -0.030 A  ATOM      5  C   UNL     1      32.466  42.812  16.791 -0.28 -0.02    +0.052 A  ATOM      6  C   UNL     1      33.612  42.938  17.580 -0.26 -0.04    +0.125 A  ENDROOTBRANCH   1   7ATOM      7  C   UNL     1      35.512  44.334  18.487 -0.27 -0.03    +0.101 A  ATOM      8  C   UNL     1      36.679  44.901  17.949 -0.27 -0.03    +0.097 A  ATOM      9  N   UNL     1      37.843  44.896  18.657 -0.22 +0.04    -0.244 NA ATOM     10  C   UNL     1      37.823  44.373  19.894 -0.31 -0.00    +0.090 A  ATOM     11  N   UNL     1      35.488  43.819  19.748 -0.24 +0.03    -0.244 NA ATOM     12  C   UNL     1      38.991  44.343  20.646 -0.31 +0.00    +0.033 A  ATOM     13  C   UNL     1      36.635  43.841  20.449 -0.35 -0.00    +0.092 A  ATOM     14  C   UNL     1      39.009  43.806  21.932 -0.26 +0.00    +0.041 A  ATOM     15  C   UNL     1      36.657  43.318  21.734 -0.35 +0.01    +0.069 A  ATOM     16  C   UNL     1      37.835  43.302  22.466 -0.29 +0.01    +0.125 A  ATOM     17  F   UNL     1      37.839  42.788  23.702 -0.07 -0.01    -0.207 F  BRANCH   8  18ATOM     18  C   UNL     1      36.785  45.510  16.608 -0.35 -0.00    +0.003 A  ATOM     19  C   UNL     1      37.060  46.698  14.045 -0.37 -0.06    +0.118 A  ATOM     20  C   UNL     1      36.702  45.357  14.163 -0.38 -0.02    +0.047 A  ATOM     21  C   UNL     1      37.249  47.452  15.202 -0.41 -0.03    +0.047 A  ATOM     22  C   UNL     1      36.559  44.773  15.431 -0.36 -0.01    +0.014 A  ATOM     23  C   UNL     1      37.113  46.868  16.466 -0.32 -0.01    +0.014 A  BRANCH  19  24ATOM     24  O   UNL     1      37.243  47.380  12.875 -0.57 +0.16    -0.497 OA ATOM     25  C   UNL     1      36.131  48.116  12.383 -0.39 -0.14    +0.278 C  ENDBRANCH  19  24ENDBRANCH   8  18ENDBRANCH   1   7BRANCH   6  26ATOM     26  O   UNL     1      34.050  41.782  18.165 -0.13 +0.13    -0.507 OA ATOM     27  H   UNL     1      34.683  41.998  18.870 +0.19 -0.04    +0.293 HD ENDBRANCH   6  26BRANCH   4  28ATOM     28  C   UNL     1      30.643  43.792  15.339 -0.31 -0.07    +0.120 C  BRANCH  28  29ATOM     29  N   UNL     1      29.503  43.124  15.961 -0.11 +0.15    -0.299 NA ATOM     30  C   UNL     1      28.196  43.685  15.649 -0.21 -0.06    +0.087 C  ATOM     31  C   UNL     1      29.582  41.669  16.058 -0.34 -0.03    +0.087 C  ATOM     32  C   UNL     1      27.089  42.878  16.316 -0.26 -0.01    +0.041 C  ATOM     33  C   UNL     1      28.443  40.930  15.351 -0.38 -0.01    +0.041 C  ATOM     34  C   UNL     1      27.050  41.459  15.735 -0.29 -0.03    +0.095 C  BRANCH  34  35ATOM     35  N   UNL     1      26.266  40.564  16.581 -0.16 -0.00    -0.291 N  ATOM     36  C   UNL     1      25.656  39.399  16.207 -0.14 +0.07    +0.295 A  ATOM     37  C   UNL     1      26.072  40.695  17.943 -0.22 -0.00    +0.072 A  ATOM     38  N   UNL     1      25.088  38.769  17.198 -0.84 -0.01    -0.195 NA ATOM     39  C   UNL     1      26.457  41.656  18.887 -0.24 -0.00    +0.029 A  ATOM     40  C   UNL     1      25.340  39.558  18.293 -0.28 -0.01    +0.092 A  ATOM     41  C   UNL     1      26.080  41.434  20.220 -0.34 -0.00    +0.002 A  ATOM     42  C   UNL     1      24.973  39.354  19.633 -0.29 -0.01    +0.031 A  ATOM     43  C   UNL     1      25.352  40.303  20.589 -0.35 -0.00    +0.002 A  BRANCH  36  44ATOM     44  O   UNL     1      25.639  38.907  14.986 -0.72 -0.14    -0.480 OA ATOM     45  H   UNL     1      24.777  38.454  14.981 -0.22 -0.14    +0.296 HD ENDBRANCH  36  44ENDBRANCH  34  35ENDBRANCH  28  29ENDBRANCH   4  28TORSDOF 8TERENDMDL