REMARK SMILES COc1ccc(-c2nc3ccc(F)cc3nc2-c2ccc(CN3CCC(n4c(O)nc5ccccc54)CC3)cc2O)cc1
REMARK SMILES IDX 18 1 19 2 20 3 21 4 39 5 40 6 17 7 7 8 8 9 9 10 16 11 10 12
REMARK SMILES IDX 15 13 11 14 14 15 12 16 13 17 6 18 3 19 4 20 43 21 5 22
REMARK SMILES IDX 42 23 2 24 1 25 41 26 22 28 23 29 24 30 38 31 25 32 37 33
REMARK SMILES IDX 26 34 27 35 28 36 36 37 30 38 35 39 31 40 34 41 32 42 33 43
REMARK SMILES IDX 29 44
REMARK H PARENT 41 27 29 45
ROOT
ATOM      1  C   UNL     1      -2.079  -0.755  -0.260  1.00  0.00     0.044 A 
ATOM      2  C   UNL     1      -1.512  -1.046  -1.513  1.00  0.00     0.014 A 
ATOM      3  C   UNL     1      -0.609  -0.168  -2.123  1.00  0.00     0.006 A 
ATOM      4  C   UNL     1      -0.240   1.028  -1.496  1.00  0.00    -0.030 A 
ATOM      5  C   UNL     1      -0.778   1.311  -0.234  1.00  0.00     0.052 A 
ATOM      6  C   UNL     1      -1.659   0.420   0.383  1.00  0.00     0.125 A 
ENDROOT
BRANCH   1   7
ATOM      7  C   UNL     1      -3.086  -1.663   0.310  1.00  0.00     0.101 A 
ATOM      8  C   UNL     1      -4.418  -1.307   0.579  1.00  0.00     0.097 A 
ATOM      9  N   UNL     1      -5.252  -2.173   1.220  1.00  0.00    -0.244 NA
ATOM     10  C   UNL     1      -4.770  -3.385   1.544  1.00  0.00     0.090 A 
ATOM     11  N   UNL     1      -2.603  -2.898   0.624  1.00  0.00    -0.244 NA
ATOM     12  C   UNL     1      -5.587  -4.294   2.204  1.00  0.00     0.033 A 
ATOM     13  C   UNL     1      -3.440  -3.755   1.234  1.00  0.00     0.092 A 
ATOM     14  C   UNL     1      -5.121  -5.559   2.558  1.00  0.00     0.041 A 
ATOM     15  C   UNL     1      -2.986  -5.020   1.579  1.00  0.00     0.069 A 
ATOM     16  C   UNL     1      -3.821  -5.911   2.235  1.00  0.00     0.125 A 
ATOM     17  F   UNL     1      -3.364  -7.125   2.566  1.00  0.00    -0.207 F 
BRANCH   8  18
ATOM     18  C   UNL     1      -5.032  -0.007   0.244  1.00  0.00     0.003 A 
ATOM     19  C   UNL     1      -6.172   2.524  -0.347  1.00  0.00     0.118 A 
ATOM     20  C   UNL     1      -5.487   1.815  -1.331  1.00  0.00     0.047 A 
ATOM     21  C   UNL     1      -6.316   1.958   0.919  1.00  0.00     0.047 A 
ATOM     22  C   UNL     1      -4.931   0.560  -1.039  1.00  0.00     0.014 A 
ATOM     23  C   UNL     1      -5.755   0.710   1.212  1.00  0.00     0.014 A 
BRANCH  19  24
ATOM     24  O   UNL     1      -6.747   3.755  -0.497  1.00  0.00    -0.497 OA
ATOM     25  C   UNL     1      -6.453   4.456  -1.698  1.00  0.00     0.278 C 
ENDBRANCH  19  24
ENDBRANCH   8  18
ENDBRANCH   1   7
BRANCH   6  26
ATOM     26  O   UNL     1      -2.061   0.772   1.642  1.00  0.00    -0.507 OA
ATOM     27  H   UNL     1      -2.404  -0.013   2.101  1.00  0.00     0.293 HD
ENDBRANCH   6  26
BRANCH   4  28
ATOM     28  C   UNL     1       0.709   1.999  -2.161  1.00  0.00     0.120 C 
BRANCH  28  29
ATOM     29  N   UNL     1       2.120   1.864  -1.808  1.00  0.00    -0.299 NA
ATOM     30  C   UNL     1       2.474   2.277  -0.458  1.00  0.00     0.087 C 
ATOM     31  C   UNL     1       2.806   0.686  -2.331  1.00  0.00     0.087 C 
ATOM     32  C   UNL     1       3.957   2.046  -0.194  1.00  0.00     0.041 C 
ATOM     33  C   UNL     1       3.408  -0.220  -1.254  1.00  0.00     0.041 C 
ATOM     34  C   UNL     1       4.271   0.545  -0.235  1.00  0.00     0.095 C 
BRANCH  34  35
ATOM     35  N   UNL     1       5.707   0.310  -0.348  1.00  0.00    -0.291 N 
ATOM     36  C   UNL     1       6.479   0.444  -1.468  1.00  0.00     0.295 A 
ATOM     37  C   UNL     1       6.563  -0.009   0.689  1.00  0.00     0.072 A 
ATOM     38  N   UNL     1       7.749   0.240  -1.251  1.00  0.00    -0.195 NA
ATOM     39  C   UNL     1       6.377  -0.259   2.055  1.00  0.00     0.029 A 
ATOM     40  C   UNL     1       7.825  -0.039   0.091  1.00  0.00     0.092 A 
ATOM     41  C   UNL     1       7.520  -0.542   2.817  1.00  0.00     0.002 A 
ATOM     42  C   UNL     1       8.957  -0.324   0.872  1.00  0.00     0.031 A 
ATOM     43  C   UNL     1       8.789  -0.573   2.239  1.00  0.00     0.002 A 
BRANCH  36  44
ATOM     44  O   UNL     1       6.034   0.770  -2.664  1.00  0.00    -0.480 OA
ATOM     45  H   UNL     1       6.869   0.827  -3.162  1.00  0.00     0.296 HD
ENDBRANCH  36  44
ENDBRANCH  34  35
ENDBRANCH  28  29
ENDBRANCH   4  28
TORSDOF 8
