REMARK SMILES COc1ccc(O)c(C(=O)c2ccc(S(=O)(=O)N[C@@H]3CCCNC[C@@H]3NC(=O)c3ccncc3)cc2)c1
REMARK SMILES IDX 18 1 15 3 16 4 17 5 14 6 11 7 12 8 36 9 13 10 35 11 9 12
REMARK SMILES IDX 10 13 8 14 3 15 4 16 37 17 5 18 6 19 2 20 1 21 7 22 19 24
REMARK SMILES IDX 25 26 24 27 23 28 22 30 21 31 20 32 26 34 27 35 28 37 29 38
REMARK SMILES IDX 30 39 34 40 31 41 33 42 32 43
REMARK H PARENT 18 2 7 23 23 29 26 36
REMARK Flexibility Score:   99.900
ROOT
ATOM      1  N   UNL     1      -2.003   1.703  -1.429  1.00  0.00    -0.206 NA
ATOM      2  H   UNL     1      -2.608   1.874  -0.612  1.00  0.00     0.141 HD
ENDROOT
BRANCH   1   3
ATOM      3  S   UNL     1      -1.054   3.008  -1.864  1.00  0.00     0.240 S 
ATOM      4  O   UNL     1      -1.715   4.207  -1.405  1.00  0.00    -0.207 OA
ATOM      5  O   UNL     1      -0.666   2.827  -3.246  1.00  0.00    -0.207 OA
BRANCH   3   6
ATOM      6  C   UNL     1       0.393   2.775  -0.857  1.00  0.00     0.082 A 
ATOM      7  C   UNL     1       2.624   2.319   0.745  1.00  0.00     0.023 A 
ATOM      8  C   UNL     1       2.735   2.227  -0.650  1.00  0.00     0.013 A 
ATOM      9  C   UNL     1       1.408   2.694   1.332  1.00  0.00     0.013 A 
ATOM     10  C   UNL     1       1.615   2.448  -1.453  1.00  0.00     0.022 A 
ATOM     11  C   UNL     1       0.288   2.922   0.531  1.00  0.00     0.022 A 
BRANCH   7  12
ATOM     12  C   UNL     1       3.786   2.059   1.628  1.00  0.00     0.196 C 
ATOM     13  O   UNL     1       3.973   2.788   2.601  1.00  0.00    -0.288 OA
BRANCH  12  14
ATOM     14  C   UNL     1       4.740   0.948   1.371  1.00  0.00     0.068 A 
ATOM     15  C   UNL     1       5.258  -1.235   0.439  1.00  0.00     0.119 A 
ATOM     16  C   UNL     1       6.572  -1.105   0.897  1.00  0.00     0.050 A 
ATOM     17  C   UNL     1       4.339  -0.214   0.689  1.00  0.00     0.062 A 
ATOM     18  C   UNL     1       6.971   0.030   1.603  1.00  0.00     0.051 A 
ATOM     19  C   UNL     1       6.054   1.046   1.849  1.00  0.00     0.127 A 
BRANCH  15  20
ATOM     20  O   UNL     1       4.999  -2.402  -0.226  1.00  0.00    -0.497 OA
ATOM     21  C   UNL     1       3.711  -2.549  -0.808  1.00  0.00     0.278 C 
ENDBRANCH  15  20
BRANCH  19  22
ATOM     22  O   UNL     1       6.507   2.119   2.568  1.00  0.00    -0.507 OA
ATOM     23  H   UNL     1       5.728   2.662   2.825  1.00  0.00     0.293 HD
ENDBRANCH  19  22
ENDBRANCH  12  14
ENDBRANCH   7  12
ENDBRANCH   3   6
ENDBRANCH   1   3
BRANCH   1  24
ATOM     24  C   UNL     1      -1.533   0.314  -1.653  1.00  0.00     0.093 CG0
ATOM     25  G   UNL     1      -2.537  -0.348  -2.609  1.00  0.00     0.000 G0
BRANCH  24  26
ATOM     26  C   UNL     1      -1.401  -0.419  -0.285  1.00  0.00     0.114 C 
BRANCH  26  27
ATOM     27  C   UNL     1      -0.460  -1.644  -0.342  1.00  0.00     0.107 C 
BRANCH  27  28
ATOM     28  N   UNL     1      -0.438  -2.482  -1.538  1.00  0.00    -0.315 NA
ATOM     29  H   UNL     1       0.028  -3.363  -1.315  1.00  0.00     0.122 HD
BRANCH  28  30
ATOM     30  C   UNL     1      -1.727  -2.760  -2.153  1.00  0.00     0.081 C 
BRANCH  30  31
ATOM     31  C   UNL     1      -2.100  -1.694  -3.178  1.00  0.00     0.017 C 
BRANCH  31  32
ATOM     32  C   UNL     1      -2.537  -0.348  -2.609  1.00  0.00     0.023 CG0
ATOM     33  G   UNL     1      -1.533   0.314  -1.653  1.00  0.00     0.000 G0
ENDBRANCH  31  32
ENDBRANCH  30  31
ENDBRANCH  28  30
ENDBRANCH  27  28
ENDBRANCH  26  27
BRANCH  26  34
ATOM     34  N   UNL     1      -2.693  -0.761   0.331  1.00  0.00    -0.346 N 
ATOM     35  C   UNL     1      -3.485   0.182   0.948  1.00  0.00     0.251 C 
ATOM     36  H   UNL     1      -2.958  -1.736   0.369  1.00  0.00     0.164 HD
ATOM     37  O   UNL     1      -3.166   1.364   1.028  1.00  0.00    -0.269 OA
BRANCH  35  38
ATOM     38  C   UNL     1      -4.763  -0.292   1.537  1.00  0.00     0.042 A 
ATOM     39  C   UNL     1      -5.279   0.400   2.632  1.00  0.00     0.034 A 
ATOM     40  C   UNL     1      -5.465  -1.375   1.008  1.00  0.00     0.034 A 
ATOM     41  C   UNL     1      -6.469  -0.044   3.177  1.00  0.00     0.112 A 
ATOM     42  C   UNL     1      -6.651  -1.737   1.624  1.00  0.00     0.112 A 
ATOM     43  N   UNL     1      -7.159  -1.103   2.701  1.00  0.00    -0.265 NA
ENDBRANCH  35  38
ENDBRANCH  26  34
ENDBRANCH  24  26
ENDBRANCH   1  24
TORSDOF 9
