MODEL        2USER    Run = 2USERUSER    Estimated Free Energy of Binding    =  -7.82 kcal/mol  [=(1)+(2)+(3)-(4)]USERUSER    (1) Final Intermolecular Energy     = -12.29 kcal/molUSER        vdW + Hbond + desolv Energy     = -12.67 kcal/molUSER        Electrostatic Energy            =  +0.04 kcal/molUSER        Moving Ligand-Fixed Receptor    = -12.64 kcal/molUSER        Moving Ligand-Moving Receptor   =  +0.34 kcal/molUSER    (2) Final Total Internal Energy     =  -3.25 kcal/molUSER    (3) Torsional Free Energy           =  +4.47 kcal/molUSER    (4) Unbound System's Energy         =  -3.25 kcal/molUSERUSERREMARK SMILES COc1ccc(O)c(C(=O)c2ccc(S(=O)(=O)N[C@@H]3CCCNC[C@@H]3NC(=O)c3ccncc3)cc2)c1REMARK SMILES IDX 18 1 15 3 16 4 17 5 14 6 11 7 12 8 36 9 13 10 35 11 9 12REMARK SMILES IDX 10 13 8 14 3 15 4 16 37 17 5 18 6 19 2 20 1 21 7 22 19 24REMARK SMILES IDX 25 26 24 27 23 28 22 30 21 31 20 32 26 34 27 35 28 37 29 38REMARK SMILES IDX 30 39 34 40 31 41 33 42 32 43REMARK H PARENT 18 2 7 23 23 29 26 36REMARK Flexibility Score:   99.900USER                              x       y       z     vdW  Elec       q    TypeUSER                           _______ _______ _______ _____ _____    ______ ____ROOTATOM      1  N   UNL     1      35.843  44.261  20.377 -0.27 +0.01    -0.206 NA ATOM      2  H   UNL     1      35.353  44.712  21.163 +0.10 +0.00    +0.141 HD ENDROOTBRANCH   1   3ATOM      3  S   UNL     1      37.160  43.338  20.830 -0.40 -0.00    +0.240 S  ATOM      4  O   UNL     1      38.354  44.054  20.446 -0.27 +0.00    -0.207 OA ATOM      5  O   UNL     1      36.911  41.978  20.403 -0.34 +0.01    -0.207 OA BRANCH   3   6ATOM      6  C   UNL     1      37.058  43.379  22.605 -0.33 +0.01    +0.082 A  ATOM      7  C   UNL     1      36.983  43.389  25.388 -0.34 -0.00    +0.023 A  ATOM      8  C   UNL     1      37.381  44.542  24.695 -0.32 +0.00    +0.013 A  ATOM      9  C   UNL     1      36.570  42.251  24.682 -0.40 -0.00    +0.013 A  ATOM     10  C   UNL     1      37.426  44.534  23.300 -0.28 +0.00    +0.022 A  ATOM     11  C   UNL     1      36.607  42.243  23.287 -0.43 +0.00    +0.022 A  BRANCH   7  12ATOM     12  C   UNL     1      36.954  43.353  26.869 -0.29 -0.03    +0.196 C  ATOM     13  O   UNL     1      37.574  42.468  27.458 -0.22 +0.05    -0.288 OA BRANCH  12  14ATOM     14  C   UNL     1      36.193  44.349  27.669 -0.42 -0.02    +0.068 A  ATOM     15  C   UNL     1      35.846  46.619  28.462 -0.28 -0.03    +0.119 A  ATOM     16  C   UNL     1      34.723  46.187  29.171 -0.34 -0.01    +0.050 A  ATOM     17  C   UNL     1      36.589  45.697  27.722 -0.33 -0.01    +0.062 A  ATOM     18  C   UNL     1      34.341  44.845  29.151 -0.37 -0.01    +0.051 A  ATOM     19  C   UNL     1      35.082  43.929  28.412 -0.45 -0.04    +0.127 A  BRANCH  15  20ATOM     20  O   UNL     1      36.115  47.955  28.579 -0.14 +0.10    -0.497 OA ATOM     21  C   UNL     1      36.338  48.684  27.379 -0.25 -0.03    +0.278 C  ENDBRANCH  15  20BRANCH  19  22ATOM     22  O   UNL     1      34.664  42.626  28.456 -0.17 +0.20    -0.507 OA ATOM     23  H   UNL     1      35.463  42.053  28.496 -0.26 -0.17    +0.293 HD ENDBRANCH  19  22ENDBRANCH  12  14ENDBRANCH   7  12ENDBRANCH   3   6ENDBRANCH   1   3BRANCH   1  24ATOM     24  C   UNL     1      35.038  43.902  19.184 -0.38 -0.02    +0.093 CG0ATOM     25  G   UNL     1      34.624  42.432  19.352 +0.00 +0.00    +0.000 G0 BRANCH  24  26ATOM     26  C   UNL     1      35.867  44.171  17.894 -0.30 -0.03    +0.114 C  BRANCH  26  27ATOM     27  C   UNL     1      36.037  42.915  17.009 -0.25 -0.03    +0.107 C  BRANCH  27  28ATOM     28  N   UNL     1      34.872  42.338  16.344 -0.23 +0.14    -0.315 NA ATOM     29  H   UNL     1      35.023  41.335  16.226 -0.48 -0.08    +0.122 HD BRANCH  28  30ATOM     30  C   UNL     1      33.587  42.560  16.989 -0.37 -0.03    +0.081 C  BRANCH  30  31ATOM     31  C   UNL     1      33.548  41.949  18.386 -0.46 -0.00    +0.017 C  BRANCH  31  32ATOM     32  C   UNL     1      34.625  42.431  19.353 -0.46 -0.00    +0.023 CG0ATOM     33  G   UNL     1      35.043  43.900  19.185 +0.00 +0.00    +0.000 G0 ENDBRANCH  31  32ENDBRANCH  30  31ENDBRANCH  28  30ENDBRANCH  27  28ENDBRANCH  26  27BRANCH  26  34ATOM     34  N   UNL     1      37.159  44.830  18.146 -0.13 +0.08    -0.346 N  ATOM     35  C   UNL     1      37.950  45.312  17.127 -0.26 -0.07    +0.251 C  ATOM     36  H   UNL     1      37.504  44.850  19.097 +0.10 -0.02    +0.164 HD ATOM     37  O   UNL     1      37.633  45.220  15.945 -0.21 +0.09    -0.269 OA BRANCH  35  38ATOM     38  C   UNL     1      39.233  45.950  17.513 -0.40 -0.01    +0.042 A  ATOM     39  C   UNL     1      39.582  47.151  16.897 -0.45 -0.01    +0.034 A  ATOM     40  C   UNL     1      40.069  45.402  18.486 -0.43 -0.00    +0.034 A  ATOM     41  C   UNL     1      40.777  47.743  17.260 -0.44 -0.02    +0.112 A  ATOM     42  C   UNL     1      41.242  46.075  18.782 -0.41 +0.00    +0.112 A  ATOM     43  N   UNL     1      41.617  47.224  18.182 -0.35 +0.01    -0.265 NA ENDBRANCH  35  38ENDBRANCH  26  34ENDBRANCH  24  26ENDBRANCH   1  24TORSDOF 9TERENDMDL