MODEL        10USER    Run = 10USERUSER    Estimated Free Energy of Binding    =  -8.67 kcal/mol  [=(1)+(2)+(3)-(4)]USERUSER    (1) Final Intermolecular Energy     = -12.85 kcal/molUSER        vdW + Hbond + desolv Energy     = -13.21 kcal/molUSER        Electrostatic Energy            =  -0.09 kcal/molUSER        Moving Ligand-Fixed Receptor    = -13.30 kcal/molUSER        Moving Ligand-Moving Receptor   =  +0.45 kcal/molUSER    (2) Final Total Internal Energy     =  -2.92 kcal/molUSER    (3) Torsional Free Energy           =  +4.18 kcal/molUSER    (4) Unbound System's Energy         =  -2.92 kcal/molUSERUSERREMARK SMILES Cn1cc(C(=O)N[C@H]2CNCCC[C@H]2NC(=O)c2ccc(C(=O)c3ccc(C#N)cc3O)cc2)cn1REMARK SMILES IDX 15 1 16 2 17 3 14 5 8 6 7 7 5 8 6 9 4 11 2 12 3 13 36 14REMARK SMILES IDX 35 15 1 16 9 17 10 18 11 20 13 22 12 23 18 25 19 26 34 27REMARK SMILES IDX 20 28 33 29 21 30 22 31 23 32 24 33 25 34 31 35 26 36 30 37REMARK SMILES IDX 27 38 32 39 28 41 29 42REMARK H PARENT 15 4 7 10 10 19 32 40REMARK Flexibility Score:   72.900USER                              x       y       z     vdW  Elec       q    TypeUSER                           _______ _______ _______ _____ _____    ______ ____ROOTATOM      1  N   UNL     1      38.518  44.308  23.637 -0.09 -0.02    -0.347 N  ATOM      2  C   UNL     1      39.237  43.614  22.690 -0.17 +0.01    +0.251 C  ATOM      3  O   UNL     1      39.482  42.415  22.779 -0.20 -0.03    -0.269 OA ATOM      4  H   UNL     1      38.289  45.288  23.487 +0.08 +0.02    +0.164 HD ENDROOTBRANCH   1   5ATOM      5  C   UNL     1      37.991  43.674  24.848 -0.26 +0.00    +0.106 C  BRANCH   5   6ATOM      6  C   UNL     1      38.464  44.412  26.138 -0.19 -0.00    +0.118 C  BRANCH   6   7ATOM      7  N   UNL     1      37.783  45.702  26.345 -0.12 +0.02    -0.346 N  ATOM      8  C   UNL     1      37.890  46.769  25.487 -0.23 +0.02    +0.254 C  ATOM      9  O   UNL     1      38.568  46.726  24.465 -0.33 -0.03    -0.269 OA ATOM     10  H   UNL     1      37.069  45.745  27.058 +0.05 -0.03    +0.164 HD BRANCH   8  11ATOM     11  C   UNL     1      37.115  47.942  25.847 -0.37 -0.00    +0.077 A  ATOM     12  N   UNL     1      36.094  49.891  25.931 -0.29 +0.01    -0.275 N  ATOM     13  C   UNL     1      36.908  49.120  25.150 -0.39 +0.00    +0.122 A  ATOM     14  N   UNL     1      35.752  49.306  27.089 -0.26 +0.01    -0.181 NA ATOM     15  C   UNL     1      36.369  48.123  27.035 -0.27 -0.02    +0.149 A  ATOM     16  C   UNL     1      35.590  51.210  25.631 -0.28 +0.00    +0.173 C  ENDBRANCH   8  11ENDBRANCH   6   7BRANCH   6  17ATOM     17  C   UNL     1      38.352  43.547  27.430 -0.28 -0.01    +0.108 C  BRANCH  17  18ATOM     18  N   UNL     1      37.067  43.527  28.119 -0.16 +0.08    -0.315 NA ATOM     19  H   UNL     1      36.961  42.686  28.686 -0.40 -0.07    +0.122 HD BRANCH  18  20ATOM     20  C   UNL     1      35.893  43.725  27.267 -0.48 -0.02    +0.081 CG0ATOM     21  G   UNL     1      35.790  42.897  25.983 +0.00 +0.00    +0.000 G0 ENDBRANCH  18  20ENDBRANCH  17  18ENDBRANCH   6  17ENDBRANCH   5   6BRANCH   5  22ATOM     22  C   UNL     1      36.465  43.511  24.757 -0.26 +0.00    +0.028 C  BRANCH  22  23ATOM     23  C   UNL     1      35.788  42.898  25.982 -0.39 -0.00    +0.017 CG0ATOM     24  G   UNL     1      35.887  43.726  27.267 +0.00 +0.00    +0.000 G0 ENDBRANCH  22  23ENDBRANCH   5  22ENDBRANCH   1   5BRANCH   2  25ATOM     25  C   UNL     1      39.713  44.382  21.504 -0.28 +0.00    +0.039 A  ATOM     26  C   UNL     1      38.768  45.132  20.787 -0.34 +0.00    +0.014 A  ATOM     27  C   UNL     1      41.045  44.362  21.073 -0.32 +0.00    +0.014 A  ATOM     28  C   UNL     1      39.149  45.866  19.659 -0.29 -0.00    +0.013 A  ATOM     29  C   UNL     1      41.429  45.096  19.946 -0.37 +0.00    +0.013 A  ATOM     30  C   UNL     1      40.479  45.832  19.229 -0.43 -0.00    +0.023 A  BRANCH  30  31ATOM     31  C   UNL     1      40.929  46.605  18.048 -0.43 -0.01    +0.196 C  ATOM     32  O   UNL     1      42.059  47.091  18.047 -0.35 +0.02    -0.288 OA BRANCH  31  33ATOM     33  C   UNL     1      40.058  46.830  16.864 -0.44 -0.01    +0.064 A  ATOM     34  C   UNL     1      38.975  45.988  16.579 -0.39 -0.00    +0.017 A  ATOM     35  C   UNL     1      40.349  47.884  15.985 -0.44 -0.03    +0.128 A  ATOM     36  C   UNL     1      38.176  46.228  15.453 -0.38 -0.01    +0.020 A  ATOM     37  C   UNL     1      39.552  48.129  14.868 -0.49 -0.02    +0.066 A  ATOM     38  C   UNL     1      38.460  47.301  14.600 -0.44 -0.02    +0.056 A  BRANCH  35  39ATOM     39  O   UNL     1      41.418  48.723  16.160 -0.70 +0.01    -0.507 OA ATOM     40  H   UNL     1      42.162  48.192  16.524 -0.24 +0.02    +0.293 HD ENDBRANCH  35  39BRANCH  38  41ATOM     41  C   UNL     1      37.638  47.540  13.450 -0.54 -0.03    +0.099 C  ATOM     42  N   UNL     1      36.965  47.727  12.523 -1.05 +0.06    -0.192 NA ENDBRANCH  38  41ENDBRANCH  31  33ENDBRANCH  30  31ENDBRANCH   2  25TORSDOF 8TERENDMDL