
     RDKit          3D

 53 56  0  0  0  0  0  0  0  0999 V2000
   -7.6252    0.6752   -1.3624 N   0  0  0  0  0  0  0  0  0  0  0  0
   -7.6406    0.9269   -0.0169 C   0  0  0  0  0  0  0  0  0  0  0  0
   -8.4982    1.6411    0.4908 O   0  0  0  0  0  0  0  0  0  0  0  0
   -6.5552    0.2015    0.7854 C   0  0  0  0  0  0  0  0  0  0  0  0
   -5.2783    0.1512    0.0278 N   0  0  0  0  0  0  0  0  0  0  0  0
   -4.6307    1.4860   -0.0511 C   0  0  0  0  0  0  0  0  0  0  0  0
   -3.3504    1.6604    0.7868 C   0  0  0  0  0  0  0  0  0  0  0  0
   -2.3684    0.6113    0.5181 N   0  0  0  0  0  0  0  0  0  0  0  0
   -1.0372    0.8635    0.8373 C   0  0  0  0  0  0  0  0  0  0  0  0
   -0.6684    1.8959    1.3938 O   0  0  0  0  0  0  0  0  0  0  0  0
   -0.0113   -0.1539    0.5081 C   0  0  0  0  0  0  0  0  0  0  0  0
    0.8897   -0.5402    1.5038 C   0  0  0  0  0  0  0  0  0  0  0  0
    1.8794   -1.4827    1.2189 C   0  0  0  0  0  0  0  0  0  0  0  0
    1.9859   -2.0366   -0.0657 C   0  0  0  0  0  0  0  0  0  0  0  0
    3.0717   -3.0433   -0.3709 C   0  0  0  0  0  0  0  0  0  0  0  0
    4.1728   -2.5268   -1.3042 C   0  0  0  0  0  0  0  0  0  0  0  0
    4.9189   -1.3487   -0.7524 C   0  0  0  0  0  0  0  0  0  0  0  0
    4.7735   -0.1205   -1.2010 N   0  0  0  0  0  0  0  0  0  0  0  0
    5.5770    0.7460   -0.4794 C   0  0  0  0  0  0  0  0  0  0  0  0
    5.6612    2.1420   -0.6641 C   0  0  0  0  0  0  0  0  0  0  0  0
    6.5231    2.8996    0.1362 C   0  0  0  0  0  0  0  0  0  0  0  0
    7.3000    2.2837    1.1133 C   0  0  0  0  0  0  0  0  0  0  0  0
    7.2349    0.9000    1.3170 C   0  0  0  0  0  0  0  0  0  0  0  0
    6.3638    0.1494    0.5086 C   0  0  0  0  0  0  0  0  0  0  0  0
    6.0609   -1.5472    0.5157 S   0  0  0  0  0  0  0  0  0  0  0  0
    1.0905   -1.6246   -1.0646 C   0  0  0  0  0  0  0  0  0  0  0  0
    0.1016   -0.6792   -0.7831 C   0  0  0  0  0  0  0  0  0  0  0  0
   -2.9137   -0.7101    0.1859 C   0  0  0  0  0  0  0  0  0  0  0  0
   -4.3812   -0.8573    0.6326 C   0  0  0  0  0  0  0  0  0  0  0  0
   -6.7508    0.3392   -1.7536 H   0  0  0  0  0  0  0  0  0  0  0  0
   -8.2327    1.2385   -1.9416 H   0  0  0  0  0  0  0  0  0  0  0  0
   -6.9359   -0.8138    0.9598 H   0  0  0  0  0  0  0  0  0  0  0  0
   -6.4247    0.6972    1.7552 H   0  0  0  0  0  0  0  0  0  0  0  0
   -4.3613    1.6321   -1.1058 H   0  0  0  0  0  0  0  0  0  0  0  0
   -5.3282    2.2965    0.1923 H   0  0  0  0  0  0  0  0  0  0  0  0
   -2.9032    2.6403    0.5822 H   0  0  0  0  0  0  0  0  0  0  0  0
   -3.5876    1.6239    1.8578 H   0  0  0  0  0  0  0  0  0  0  0  0
    0.8270   -0.1010    2.4970 H   0  0  0  0  0  0  0  0  0  0  0  0
    2.5751   -1.7691    2.0045 H   0  0  0  0  0  0  0  0  0  0  0  0
    3.5128   -3.4066    0.5663 H   0  0  0  0  0  0  0  0  0  0  0  0
    2.5988   -3.9214   -0.8307 H   0  0  0  0  0  0  0  0  0  0  0  0
    4.8791   -3.3411   -1.5104 H   0  0  0  0  0  0  0  0  0  0  0  0
    3.7399   -2.2464   -2.2729 H   0  0  0  0  0  0  0  0  0  0  0  0
    5.0516    2.6173   -1.4270 H   0  0  0  0  0  0  0  0  0  0  0  0
    6.5825    3.9767   -0.0086 H   0  0  0  0  0  0  0  0  0  0  0  0
    7.9662    2.8859    1.7284 H   0  0  0  0  0  0  0  0  0  0  0  0
    7.8415    0.4216    2.0806 H   0  0  0  0  0  0  0  0  0  0  0  0
    1.1702   -2.0241   -2.0741 H   0  0  0  0  0  0  0  0  0  0  0  0
   -0.5601   -0.3411   -1.5765 H   0  0  0  0  0  0  0  0  0  0  0  0
   -2.3101   -1.4915    0.6582 H   0  0  0  0  0  0  0  0  0  0  0  0
   -2.8444   -0.8295   -0.9016 H   0  0  0  0  0  0  0  0  0  0  0  0
   -4.7372   -1.8574    0.3575 H   0  0  0  0  0  0  0  0  0  0  0  0
   -4.4145   -0.7890    1.7293 H   0  0  0  0  0  0  0  0  0  0  0  0
  1  2  1  0
  2  3  2  0
  2  4  1  0
  4  5  1  0
  5  6  1  0
  6  7  1  0
  7  8  1  0
  8  9  1  0
  9 10  2  0
  9 11  1  0
 11 12  2  0
 12 13  1  0
 13 14  2  0
 14 15  1  0
 15 16  1  0
 16 17  1  0
 17 18  2  0
 18 19  1  0
 19 20  2  0
 20 21  1  0
 21 22  2  0
 22 23  1  0
 23 24  2  0
 24 25  1  0
 14 26  1  0
 26 27  2  0
  8 28  1  0
 28 29  1  0
 29  5  1  0
 27 11  1  0
 25 17  1  0
 24 19  1  0
  1 30  1  0
  1 31  1  0
  4 32  1  0
  4 33  1  0
  6 34  1  0
  6 35  1  0
  7 36  1  0
  7 37  1  0
 12 38  1  0
 13 39  1  0
 15 40  1  0
 15 41  1  0
 16 42  1  0
 16 43  1  0
 20 44  1  0
 21 45  1  0
 22 46  1  0
 23 47  1  0
 26 48  1  0
 27 49  1  0
 28 50  1  0
 28 51  1  0
 29 52  1  0
 29 53  1  0
M  END
$$$$
