
     RDKit          3D

 75 81  0  0  0  0  0  0  0  0999 V2000
    4.3085    1.3908   -2.0766 C   0  0  0  0  0  0  0  0  0  0  0  0
    4.5887    1.7408   -0.6831 N   0  0  0  0  0  0  0  0  0  0  0  0
    5.5038    2.8805   -0.5847 C   0  0  0  0  0  0  0  0  0  0  0  0
    6.9559    2.5473   -0.9311 C   0  0  0  0  0  0  0  0  0  0  0  0
    7.4324    1.2469   -0.2877 C   0  0  0  0  0  0  0  0  0  0  0  0
    6.4273    0.7222    0.7295 C   0  0  0  0  0  0  0  0  0  0  0  0
    5.0298    0.5531    0.0926 C   0  0  0  0  0  0  0  0  0  0  0  0
    4.0067    0.2295    1.2101 C   0  0  0  0  0  0  0  0  0  0  0  0
    2.6898   -0.3122    0.7048 C   0  0  0  0  0  0  0  0  0  0  0  0
    2.5087   -1.6761    0.5035 C   0  0  0  0  0  0  0  0  0  0  0  0
    1.2871   -2.1562    0.0296 C   0  0  0  0  0  0  0  0  0  0  0  0
    0.1955   -1.3000   -0.2668 C   0  0  0  0  0  0  0  0  0  0  0  0
    0.3805    0.0837   -0.0543 C   0  0  0  0  0  0  0  0  0  0  0  0
    1.6286    0.5519    0.4174 C   0  0  0  0  0  0  0  0  0  0  0  0
   -0.6594    1.1396   -0.3406 C   0  0  0  0  0  0  0  0  0  0  0  0
   -2.0110    0.6638   -0.0723 N   0  0  0  0  0  0  0  0  0  0  0  0
   -2.8184    1.1354    1.3181 S   0  0  0  0  0  0  0  0  0  0  0  0
   -1.8511    1.5694    2.3036 O   0  0  0  0  0  0  0  0  0  0  0  0
   -3.7640    0.0836    1.6426 O   0  0  0  0  0  0  0  0  0  0  0  0
   -3.7438    2.5808    0.8522 C   0  0  0  0  0  0  0  0  0  0  0  0
   -3.0724    3.7945    0.6585 C   0  0  0  0  0  0  0  0  0  0  0  0
   -3.8018    4.9340    0.3168 C   0  0  0  0  0  0  0  0  0  0  0  0
   -5.1857    4.8529    0.1881 C   0  0  0  0  0  0  0  0  0  0  0  0
   -5.8810    5.9492   -0.1397 F   0  0  0  0  0  0  0  0  0  0  0  0
   -5.8598    3.6543    0.4020 C   0  0  0  0  0  0  0  0  0  0  0  0
   -5.1391    2.5098    0.7444 C   0  0  0  0  0  0  0  0  0  0  0  0
   -2.6537    0.0017   -1.1527 C   0  0  0  0  0  0  0  0  0  0  0  0
   -3.6427    0.6411   -1.9082 C   0  0  0  0  0  0  0  0  0  0  0  0
   -4.2077    0.0099   -3.0165 C   0  0  0  0  0  0  0  0  0  0  0  0
   -3.7670   -1.2523   -3.3916 C   0  0  0  0  0  0  0  0  0  0  0  0
   -2.7485   -1.8717   -2.6683 C   0  0  0  0  0  0  0  0  0  0  0  0
   -2.1538   -1.2438   -1.5522 C   0  0  0  0  0  0  0  0  0  0  0  0
   -1.0721   -2.0062   -0.7896 C   0  0  0  0  0  0  0  0  0  0  0  0
   -1.6740   -2.9510    0.2333 C   0  0  0  0  0  0  0  0  0  0  0  0
   -1.4947   -4.2617    0.2744 N   0  0  0  0  0  0  0  0  0  0  0  0
   -2.2183   -4.7020    1.3551 C   0  0  0  0  0  0  0  0  0  0  0  0
   -2.3773   -5.9994    1.8627 C   0  0  0  0  0  0  0  0  0  0  0  0
   -3.1844   -6.1849    2.9929 C   0  0  0  0  0  0  0  0  0  0  0  0
   -3.8213   -5.1005    3.6031 C   0  0  0  0  0  0  0  0  0  0  0  0
   -3.6758   -3.7994    3.1085 C   0  0  0  0  0  0  0  0  0  0  0  0
   -2.8631   -3.6456    1.9839 C   0  0  0  0  0  0  0  0  0  0  0  0
   -2.5083   -2.5448    1.2483 N   0  0  0  0  0  0  0  0  0  0  0  0
    3.9170    2.2577   -2.6199 H   0  0  0  0  0  0  0  0  0  0  0  0
    3.5358    0.6167   -2.1345 H   0  0  0  0  0  0  0  0  0  0  0  0
    5.1971    1.0262   -2.6033 H   0  0  0  0  0  0  0  0  0  0  0  0
    5.4584    3.2717    0.4403 H   0  0  0  0  0  0  0  0  0  0  0  0
    5.1555    3.7092   -1.2141 H   0  0  0  0  0  0  0  0  0  0  0  0
    7.5951    3.3746   -0.5990 H   0  0  0  0  0  0  0  0  0  0  0  0
    7.0843    2.4813   -2.0183 H   0  0  0  0  0  0  0  0  0  0  0  0
    8.4081    1.3980    0.1881 H   0  0  0  0  0  0  0  0  0  0  0  0
    7.5828    0.4918   -1.0694 H   0  0  0  0  0  0  0  0  0  0  0  0
    6.7750   -0.2437    1.1167 H   0  0  0  0  0  0  0  0  0  0  0  0
    6.3826    1.4042    1.5890 H   0  0  0  0  0  0  0  0  0  0  0  0
    5.0958   -0.3217   -0.5707 H   0  0  0  0  0  0  0  0  0  0  0  0
    4.4358   -0.5127    1.8971 H   0  0  0  0  0  0  0  0  0  0  0  0
    3.8244    1.1189    1.8289 H   0  0  0  0  0  0  0  0  0  0  0  0
    3.3087   -2.3805    0.7171 H   0  0  0  0  0  0  0  0  0  0  0  0
    1.1809   -3.2342   -0.1059 H   0  0  0  0  0  0  0  0  0  0  0  0
    1.7844    1.6213    0.5636 H   0  0  0  0  0  0  0  0  0  0  0  0
   -0.5596    1.4565   -1.3870 H   0  0  0  0  0  0  0  0  0  0  0  0
   -0.4564    2.0391    0.2508 H   0  0  0  0  0  0  0  0  0  0  0  0
   -1.9950    3.8642    0.7853 H   0  0  0  0  0  0  0  0  0  0  0  0
   -3.3053    5.8874    0.1609 H   0  0  0  0  0  0  0  0  0  0  0  0
   -6.9413    3.6220    0.3077 H   0  0  0  0  0  0  0  0  0  0  0  0
   -5.6677    1.5751    0.9212 H   0  0  0  0  0  0  0  0  0  0  0  0
   -3.9739    1.6457   -1.6745 H   0  0  0  0  0  0  0  0  0  0  0  0
   -4.9849    0.5080   -3.5910 H   0  0  0  0  0  0  0  0  0  0  0  0
   -4.2086   -1.7547   -4.2490 H   0  0  0  0  0  0  0  0  0  0  0  0
   -2.4213   -2.8652   -2.9752 H   0  0  0  0  0  0  0  0  0  0  0  0
   -0.6485   -2.6682   -1.5647 H   0  0  0  0  0  0  0  0  0  0  0  0
   -1.8835   -6.8353    1.3800 H   0  0  0  0  0  0  0  0  0  0  0  0
   -3.3154   -7.1853    3.3974 H   0  0  0  0  0  0  0  0  0  0  0  0
   -4.4436   -5.2695    4.4796 H   0  0  0  0  0  0  0  0  0  0  0  0
   -4.1693   -2.9546    3.5767 H   0  0  0  0  0  0  0  0  0  0  0  0
   -2.8408   -1.6028    1.4133 H   0  0  0  0  0  0  0  0  0  0  0  0
  1  2  1  0
  2  3  1  0
  3  4  1  0
  4  5  1  0
  5  6  1  0
  6  7  1  0
  7  8  1  0
  8  9  1  0
  9 10  2  0
 10 11  1  0
 11 12  2  0
 12 13  1  0
 13 14  2  0
 13 15  1  0
 15 16  1  0
 16 17  1  0
 17 18  2  0
 17 19  2  0
 17 20  1  0
 20 21  2  0
 21 22  1  0
 22 23  2  0
 23 24  1  0
 23 25  1  0
 25 26  2  0
 16 27  1  0
 27 28  2  0
 28 29  1  0
 29 30  2  0
 30 31  1  0
 31 32  2  0
 32 33  1  0
 33 34  1  0
 34 35  2  0
 35 36  1  0
 36 37  2  0
 37 38  1  0
 38 39  2  0
 39 40  1  0
 40 41  2  0
 41 42  1  0
  7  2  1  0
 14  9  1  0
 26 20  1  0
 32 27  1  0
 42 34  1  0
 33 12  1  0
 41 36  1  0
  1 43  1  0
  1 44  1  0
  1 45  1  0
  3 46  1  0
  3 47  1  0
  4 48  1  0
  4 49  1  0
  5 50  1  0
  5 51  1  0
  6 52  1  0
  6 53  1  0
  7 54  1  0
  8 55  1  0
  8 56  1  0
 10 57  1  0
 11 58  1  0
 14 59  1  0
 15 60  1  0
 15 61  1  0
 21 62  1  0
 22 63  1  0
 25 64  1  0
 26 65  1  0
 28 66  1  0
 29 67  1  0
 30 68  1  0
 31 69  1  0
 33 70  1  0
 37 71  1  0
 38 72  1  0
 39 73  1  0
 40 74  1  0
 42 75  1  0
M  END
$$$$
