MODEL        10USER    Run = 10USERUSER    Estimated Free Energy of Binding    =  -9.98 kcal/mol  [=(1)+(2)+(3)-(4)]USERUSER    (1) Final Intermolecular Energy     = -12.37 kcal/molUSER        vdW + Hbond + desolv Energy     = -12.00 kcal/molUSER        Electrostatic Energy            =  -0.37 kcal/molUSER        Moving Ligand-Fixed Receptor    = -12.37 kcal/molUSER        Moving Ligand-Moving Receptor   =  +0.00 kcal/molUSER    (2) Final Total Internal Energy     =  -2.40 kcal/molUSER    (3) Torsional Free Energy           =  +2.39 kcal/molUSER    (4) Unbound System's Energy         =  -2.40 kcal/molUSERUSERREMARK SMILES COc1cc(F)c(O)c(C(=O)c2ccc(C(=O)N[C@@H]3CCN(C)C[C@H]3NC(=O)c3ccncc3)cc2)c1REMARK SMILES IDX 12 1 13 2 14 3 15 4 35 5 36 6 10 7 11 8 9 9 3 10 4 11 37 12REMARK SMILES IDX 5 13 7 14 6 15 2 16 1 17 8 18 16 20 18 21 17 22 19 24 20 25REMARK SMILES IDX 25 26 21 27 24 28 22 29 23 30 26 31 27 32 28 34 29 35 30 36REMARK SMILES IDX 34 37 31 38 33 39 32 40REMARK H PARENT 8 19 18 23 26 33USER                              x       y       z     vdW  Elec       q    TypeUSER                           _______ _______ _______ _____ _____    ______ ____ROOTATOM      1  C   UNL     1      42.504  46.885  19.917 -0.44 +0.00    +0.023 A  ATOM      2  C   UNL     1      42.578  47.844  18.892 -0.44 +0.00    +0.013 A  ATOM      3  C   UNL     1      41.736  47.747  17.778 -0.44 -0.00    +0.014 A  ATOM      4  C   UNL     1      40.835  46.682  17.682 -0.48 -0.00    +0.039 A  ATOM      5  C   UNL     1      40.761  45.716  18.694 -0.46 -0.00    +0.014 A  ATOM      6  C   UNL     1      41.593  45.821  19.812 -0.40 +0.00    +0.013 A  ENDROOTBRANCH   1   7ATOM      7  C   UNL     1      43.296  47.013  21.171 -0.32 +0.06    +0.196 C  ATOM      8  O   UNL     1      44.485  46.711  21.200 -0.62 -0.30    -0.288 OA BRANCH   7   9ATOM      9  C   UNL     1      42.641  47.399  22.431 -0.27 +0.01    +0.071 A  ATOM     10  C   UNL     1      40.734  47.146  23.906 -0.19 +0.01    +0.122 A  ATOM     11  C   UNL     1      41.307  48.081  24.775 -0.24 +0.01    +0.089 A  ATOM     12  C   UNL     1      41.416  46.785  22.744 -0.20 +0.01    +0.062 A  ATOM     13  C   UNL     1      42.536  48.658  24.465 -0.28 +0.03    +0.169 A  ATOM     14  C   UNL     1      43.208  48.336  23.289 -0.27 +0.04    +0.162 A  ATOM     15  F   UNL     1      43.080  49.553  25.303 -0.14 -0.03    -0.203 F  BRANCH  10  16ATOM     16  O   UNL     1      39.519  46.656  24.305 -0.05 -0.04    -0.497 OA ATOM     17  C   UNL     1      38.759  45.955  23.320 -0.22 +0.03    +0.278 C  ENDBRANCH  10  16BRANCH  14  18ATOM     18  O   UNL     1      44.412  48.922  23.004 -0.23 -0.15    -0.504 OA ATOM     19  H   UNL     1      44.634  48.698  22.077 -0.44 +0.04    +0.293 HD ENDBRANCH  14  18ENDBRANCH   7   9ENDBRANCH   1   7BRANCH   4  20ATOM     20  C   UNL     1      39.922  46.608  16.523 -0.35 -0.04    +0.251 C  ATOM     21  N   UNL     1      38.812  45.823  16.722 -0.15 +0.08    -0.347 N  ATOM     22  O   UNL     1      40.165  47.230  15.502 -0.32 +0.05    -0.269 OA ATOM     23  H   UNL     1      38.718  45.316  17.593 +0.10 -0.03    +0.164 HD BRANCH  21  24ATOM     24  C   UNL     1      37.760  45.719  15.717 -0.35 -0.04    +0.107 C  ATOM     25  C   UNL     1      38.366  45.458  14.333 -0.40 -0.01    +0.042 C  ATOM     26  C   UNL     1      36.832  46.969  15.708 -0.38 -0.09    +0.118 C  ATOM     27  C   UNL     1      37.287  45.459  13.249 -0.47 -0.03    +0.086 C  ATOM     28  C   UNL     1      36.772  47.610  14.303 -0.47 -0.07    +0.111 C  ATOM     29  N   UNL     1      36.362  46.607  13.307 -0.29 +0.16    -0.304 NA ATOM     30  C   UNL     1      36.202  47.220  11.984 -0.63 -0.05    +0.105 C  BRANCH  26  31ATOM     31  N   UNL     1      35.481  46.584  16.129 -0.11 +0.39    -0.346 N  ATOM     32  C   UNL     1      35.266  45.779  17.224 -0.24 -0.17    +0.251 C  ATOM     33  H   UNL     1      34.765  46.698  15.422 +0.06 -0.26    +0.164 HD ATOM     34  O   UNL     1      36.098  45.578  18.104 -0.23 +0.10    -0.269 OA BRANCH  32  35ATOM     35  C   UNL     1      33.932  45.127  17.308 -0.31 -0.03    +0.042 A  ATOM     36  C   UNL     1      33.109  45.152  16.179 -0.30 -0.02    +0.034 A  ATOM     37  C   UNL     1      33.461  44.555  18.494 -0.36 -0.01    +0.034 A  ATOM     38  C   UNL     1      31.856  44.573  16.275 -0.25 -0.05    +0.112 A  ATOM     39  C   UNL     1      32.189  44.005  18.486 -0.24 -0.02    +0.112 A  ATOM     40  N   UNL     1      31.383  43.994  17.401 -0.18 +0.05    -0.265 NA ENDBRANCH  32  35ENDBRANCH  26  31ENDBRANCH  21  24ENDBRANCH   4  20TORSDOF 8TERENDMDL