REMARK SMILES COc1ccc(O)c(C(=O)c2ccc(C(=O)N[C@@H]3CCN(c4ncc(F)cn4)C[C@H]3NC(=O)c3ccncc3)cc2)c1F
REMARK SMILES IDX 11 1 12 2 13 3 14 4 40 5 41 6 9 7 10 8 8 9 3 10 4 11 42 12
REMARK SMILES IDX 5 13 6 14 43 15 2 16 1 17 7 18 15 20 17 21 16 22 18 24 19 25
REMARK SMILES IDX 30 26 20 27 29 28 21 29 31 30 32 31 33 33 34 34 35 35 39 36
REMARK SMILES IDX 36 37 38 38 37 39 22 40 23 41 28 42 24 43 27 44 25 45 26 46
REMARK H PARENT 7 19 17 23 31 32
ROOT
ATOM      1  C   UNL     1       3.597  -1.007   1.957  1.00  0.00     0.023 A 
ATOM      2  C   UNL     1       2.494  -1.357   2.744  1.00  0.00     0.013 A 
ATOM      3  C   UNL     1       1.285  -1.708   2.137  1.00  0.00     0.014 A 
ATOM      4  C   UNL     1       1.175  -1.711   0.741  1.00  0.00     0.039 A 
ATOM      5  C   UNL     1       2.289  -1.396  -0.047  1.00  0.00     0.014 A 
ATOM      6  C   UNL     1       3.501  -1.051   0.560  1.00  0.00     0.013 A 
ENDROOT
BRANCH   1   7
ATOM      7  C   UNL     1       4.868  -0.673   2.641  1.00  0.00     0.199 C 
ATOM      8  O   UNL     1       5.182  -1.312   3.646  1.00  0.00    -0.288 OA
BRANCH   7   9
ATOM      9  C   UNL     1       5.810   0.363   2.158  1.00  0.00     0.104 A 
ATOM     10  C   UNL     1       6.281   2.466   1.012  1.00  0.00     0.155 A 
ATOM     11  C   UNL     1       7.644   2.297   1.266  1.00  0.00     0.053 A 
ATOM     12  C   UNL     1       5.375   1.495   1.466  1.00  0.00     0.179 A 
ATOM     13  C   UNL     1       8.089   1.185   1.984  1.00  0.00     0.051 A 
ATOM     14  C   UNL     1       7.176   0.235   2.438  1.00  0.00     0.130 A 
ATOM     15  F   UNL     1       4.064   1.688   1.246  1.00  0.00    -0.202 F 
BRANCH  10  16
ATOM     16  O   UNL     1       5.726   3.517   0.333  1.00  0.00    -0.494 OA
ATOM     17  C   UNL     1       6.583   4.603   0.004  1.00  0.00     0.278 C 
ENDBRANCH  10  16
BRANCH  14  18
ATOM     18  O   UNL     1       7.696  -0.805   3.162  1.00  0.00    -0.507 OA
ATOM     19  H   UNL     1       6.947  -1.282   3.586  1.00  0.00     0.293 HD
ENDBRANCH  14  18
ENDBRANCH   7   9
ENDBRANCH   1   7
BRANCH   4  20
ATOM     20  C   UNL     1      -0.132  -2.079   0.135  1.00  0.00     0.251 C 
ATOM     21  N   UNL     1      -0.443  -1.470  -1.065  1.00  0.00    -0.347 N 
ATOM     22  O   UNL     1      -0.898  -2.841   0.719  1.00  0.00    -0.269 OA
ATOM     23  H   UNL     1       0.094  -0.651  -1.324  1.00  0.00     0.164 HD
BRANCH  21  24
ATOM     24  C   UNL     1      -1.763  -1.641  -1.698  1.00  0.00     0.108 C 
ATOM     25  C   UNL     1      -1.671  -1.371  -3.205  1.00  0.00     0.048 C 
ATOM     26  C   UNL     1      -2.849  -0.786  -0.980  1.00  0.00     0.124 C 
ATOM     27  C   UNL     1      -2.301  -0.038  -3.594  1.00  0.00     0.122 C 
ATOM     28  C   UNL     1      -4.080  -0.608  -1.898  1.00  0.00     0.146 C 
ATOM     29  N   UNL     1      -3.699  -0.036  -3.195  1.00  0.00    -0.339 N 
BRANCH  26  30
ATOM     30  N   UNL     1      -3.184  -1.373   0.322  1.00  0.00    -0.345 N 
ATOM     31  C   UNL     1      -3.868  -0.663   1.283  1.00  0.00     0.251 C 
ATOM     32  H   UNL     1      -2.558  -2.115   0.637  1.00  0.00     0.164 HD
ATOM     33  O   UNL     1      -4.363   0.439   1.072  1.00  0.00    -0.269 OA
BRANCH  31  34
ATOM     34  C   UNL     1      -3.951  -1.269   2.643  1.00  0.00     0.042 A 
ATOM     35  C   UNL     1      -4.327  -0.442   3.703  1.00  0.00     0.034 A 
ATOM     36  C   UNL     1      -3.681  -2.616   2.890  1.00  0.00     0.034 A 
ATOM     37  C   UNL     1      -4.399  -0.994   4.968  1.00  0.00     0.112 A 
ATOM     38  C   UNL     1      -3.779  -3.070   4.194  1.00  0.00     0.112 A 
ATOM     39  N   UNL     1      -4.128  -2.288   5.238  1.00  0.00    -0.265 NA
ENDBRANCH  31  34
ENDBRANCH  26  30
BRANCH  29  40
ATOM     40  C   UNL     1      -4.499   0.978  -3.693  1.00  0.00     0.225 A 
ATOM     41  N   UNL     1      -5.796   1.017  -3.332  1.00  0.00    -0.218 NA
ATOM     42  N   UNL     1      -3.960   1.874  -4.545  1.00  0.00    -0.218 NA
ATOM     43  C   UNL     1      -6.564   2.008  -3.837  1.00  0.00     0.156 A 
ATOM     44  C   UNL     1      -4.765   2.848  -5.025  1.00  0.00     0.156 A 
ATOM     45  C   UNL     1      -6.089   2.959  -4.697  1.00  0.00     0.159 A 
ATOM     46  F   UNL     1      -6.865   3.933  -5.186  1.00  0.00    -0.204 F 
ENDBRANCH  29  40
ENDBRANCH  21  24
ENDBRANCH   4  20
TORSDOF 9
