REMARK SMILES CC[C@@H](C)NC(=O)c1ccc(-c2ccc(N3CCCC3)c(O)c2)cc1C#N
REMARK SMILES IDX 8 1 9 2 10 3 11 4 24 5 25 6 6 7 5 8 7 10 3 11 4 12 2 13 1 14
REMARK SMILES IDX 26 15 27 16 12 17 13 18 23 19 14 20 21 21 15 22 22 23 16 25
REMARK SMILES IDX 17 26 20 27 18 28 19 29
REMARK H PARENT 5 9 22 24
ROOT
ATOM      1  C   UNL     1       2.661   0.829  -0.089  1.00  0.00     0.057 A 
ATOM      2  C   UNL     1       2.083   0.069   0.936  1.00  0.00     0.016 A 
ATOM      3  C   UNL     1       0.697  -0.103   0.983  1.00  0.00     0.009 A 
ATOM      4  C   UNL     1      -0.137   0.479   0.015  1.00  0.00    -0.017 A 
ATOM      5  C   UNL     1       0.461   1.240  -1.005  1.00  0.00     0.029 A 
ATOM      6  C   UNL     1       1.853   1.423  -1.065  1.00  0.00     0.065 A 
ENDROOT
BRANCH   1   7
ATOM      7  C   UNL     1       4.128   1.023  -0.093  1.00  0.00     0.252 C 
ATOM      8  N   UNL     1       4.875  -0.128   0.040  1.00  0.00    -0.350 N 
ATOM      9  H   UNL     1       4.409  -1.021  -0.062  1.00  0.00     0.164 HD
ATOM     10  O   UNL     1       4.594   2.147  -0.211  1.00  0.00    -0.269 OA
BRANCH   8  11
ATOM     11  C   UNL     1       6.330  -0.108  -0.088  1.00  0.00     0.079 C 
ATOM     12  C   UNL     1       6.722  -0.127  -1.566  1.00  0.00     0.031 C 
BRANCH  11  13
ATOM     13  C   UNL     1       6.924  -1.289   0.694  1.00  0.00     0.021 C 
ATOM     14  C   UNL     1       8.444  -1.269   0.767  1.00  0.00     0.006 C 
ENDBRANCH  11  13
ENDBRANCH   8  11
ENDBRANCH   1   7
BRANCH   6  15
ATOM     15  C   UNL     1       2.397   2.170  -2.163  1.00  0.00     0.100 C 
ATOM     16  N   UNL     1       2.776   2.746  -3.097  1.00  0.00    -0.192 NA
ENDBRANCH   6  15
BRANCH   4  17
ATOM     17  C   UNL     1      -1.596   0.302   0.069  1.00  0.00    -0.015 A 
ATOM     18  C   UNL     1      -2.458   1.401   0.088  1.00  0.00     0.011 A 
ATOM     19  C   UNL     1      -2.174  -0.972   0.101  1.00  0.00     0.057 A 
ATOM     20  C   UNL     1      -3.849   1.229   0.143  1.00  0.00     0.030 A 
ATOM     21  C   UNL     1      -3.570  -1.135   0.152  1.00  0.00     0.139 A 
ATOM     22  C   UNL     1      -4.458  -0.039   0.181  1.00  0.00     0.079 A 
BRANCH  21  23
ATOM     23  O   UNL     1      -4.053  -2.423   0.151  1.00  0.00    -0.506 OA
ATOM     24  H   UNL     1      -3.317  -3.040   0.027  1.00  0.00     0.293 HD
ENDBRANCH  21  23
BRANCH  22  25
ATOM     25  N   UNL     1      -5.832  -0.150   0.240  1.00  0.00    -0.369 N 
ATOM     26  C   UNL     1      -6.550  -1.394   0.508  1.00  0.00     0.116 C 
ATOM     27  C   UNL     1      -6.757   0.968   0.068  1.00  0.00     0.116 C 
ATOM     28  C   UNL     1      -7.983  -0.941   0.786  1.00  0.00     0.023 C 
ATOM     29  C   UNL     1      -8.121   0.300  -0.077  1.00  0.00     0.023 C 
ENDBRANCH  22  25
ENDBRANCH   4  17
TORSDOF 7
