REMARK SMILES CCC[C@H](C)NC(=O)c1ccc(-c2ccc(N3CC[C@H](F)C3)cc2)cc1C#N
REMARK SMILES IDX 6 1 7 2 8 3 4 5 5 6 3 7 2 8 1 9 9 10 10 11 26 12 11 13 25 14
REMARK SMILES IDX 12 15 27 16 28 17 13 18 14 19 24 20 15 21 23 22 16 23 17 24
REMARK SMILES IDX 18 25 22 26 19 27 20 28 21 29
REMARK H PARENT 6 4
ROOT
ATOM      1  N   UNL     1      -4.575  -0.848  -0.008  1.00  0.00    -0.350 N 
ATOM      2  C   UNL     1      -3.779  -0.962  -1.127  1.00  0.00     0.252 C 
ATOM      3  O   UNL     1      -4.202  -1.156  -2.259  1.00  0.00    -0.269 OA
ATOM      4  H   UNL     1      -4.161  -0.728   0.907  1.00  0.00     0.164 HD
ENDROOT
BRANCH   1   5
ATOM      5  C   UNL     1      -6.008  -1.107  -0.062  1.00  0.00     0.079 C 
ATOM      6  C   UNL     1      -6.256  -2.610   0.083  1.00  0.00     0.031 C 
BRANCH   5   7
ATOM      7  C   UNL     1      -6.759  -0.336   1.038  1.00  0.00     0.024 C 
BRANCH   7   8
ATOM      8  C   UNL     1      -6.918   1.166   0.773  1.00  0.00    -0.001 C 
ATOM      9  C   UNL     1      -5.626   1.964   0.836  1.00  0.00     0.004 C 
ENDBRANCH   7   8
ENDBRANCH   5   7
ENDBRANCH   1   5
BRANCH   2  10
ATOM     10  C   UNL     1      -2.322  -0.777  -0.924  1.00  0.00     0.057 A 
ATOM     11  C   UNL     1      -1.673   0.115  -1.787  1.00  0.00     0.016 A 
ATOM     12  C   UNL     1      -1.584  -1.473   0.040  1.00  0.00     0.065 A 
ATOM     13  C   UNL     1      -0.298   0.338  -1.667  1.00  0.00     0.009 A 
ATOM     14  C   UNL     1      -0.203  -1.239   0.153  1.00  0.00     0.029 A 
ATOM     15  C   UNL     1       0.459  -0.331  -0.693  1.00  0.00    -0.017 A 
BRANCH  12  16
ATOM     16  C   UNL     1      -2.185  -2.440   0.908  1.00  0.00     0.100 C 
ATOM     17  N   UNL     1      -2.673  -3.191   1.646  1.00  0.00    -0.192 NA
ENDBRANCH  12  16
BRANCH  15  18
ATOM     18  C   UNL     1       1.907  -0.098  -0.567  1.00  0.00    -0.018 A 
ATOM     19  C   UNL     1       2.761  -0.229  -1.666  1.00  0.00     0.011 A 
ATOM     20  C   UNL     1       2.484   0.257   0.656  1.00  0.00     0.011 A 
ATOM     21  C   UNL     1       4.142  -0.008  -1.542  1.00  0.00     0.026 A 
ATOM     22  C   UNL     1       3.866   0.477   0.770  1.00  0.00     0.026 A 
ATOM     23  C   UNL     1       4.733   0.361  -0.325  1.00  0.00     0.037 A 
BRANCH  23  24
ATOM     24  N   UNL     1       6.090   0.563  -0.209  1.00  0.00    -0.369 N 
ATOM     25  C   UNL     1       6.746   1.010   1.018  1.00  0.00     0.119 C 
ATOM     26  C   UNL     1       6.963   0.802  -1.368  1.00  0.00     0.154 C 
ATOM     27  C   UNL     1       8.229   0.987   0.663  1.00  0.00     0.061 C 
ATOM     28  C   UNL     1       8.225   1.441  -0.781  1.00  0.00     0.187 C 
ATOM     29  F   UNL     1       8.103   2.799  -0.808  1.00  0.00    -0.245 F 
ENDBRANCH  23  24
ENDBRANCH  15  18
ENDBRANCH   2  10
TORSDOF 7
