MODEL        4USER    Run = 4USERUSER    Estimated Free Energy of Binding    =  -9.42 kcal/mol  [=(1)+(2)+(3)-(4)]USERUSER    (1) Final Intermolecular Energy     = -11.50 kcal/molUSER        vdW + Hbond + desolv Energy     = -11.26 kcal/molUSER        Electrostatic Energy            =  -0.25 kcal/molUSER        Moving Ligand-Fixed Receptor    = -11.50 kcal/molUSER        Moving Ligand-Moving Receptor   =  +0.00 kcal/molUSER    (2) Final Total Internal Energy     =  -1.45 kcal/molUSER    (3) Torsional Free Energy           =  +2.09 kcal/molUSER    (4) Unbound System's Energy         =  -1.45 kcal/molUSERUSERREMARK SMILES CC[C@@H](C)NC(=O)c1ccc(-c2ccc(N3CCCC3)c(O)c2)cc1C#NREMARK SMILES IDX 8 1 9 2 10 3 11 4 24 5 25 6 6 7 5 8 7 10 3 11 4 12 2 13 1 14REMARK SMILES IDX 26 15 27 16 12 17 13 18 23 19 14 20 21 21 15 22 22 23 16 25REMARK SMILES IDX 17 26 20 27 18 28 19 29REMARK H PARENT 5 9 22 24USER                              x       y       z     vdW  Elec       q    TypeUSER                           _______ _______ _______ _____ _____    ______ ____ROOTATOM      1  C   UNL     1      34.202  43.689  18.009 -0.27 -0.02    +0.057 A  ATOM      2  C   UNL     1      35.530  43.492  18.411 -0.33 -0.00    +0.016 A  ATOM      3  C   UNL     1      36.535  44.345  17.947 -0.32 -0.00    +0.009 A  ATOM      4  C   UNL     1      36.239  45.405  17.076 -0.33 +0.01    -0.017 A  ATOM      5  C   UNL     1      34.901  45.587  16.683 -0.31 -0.02    +0.029 A  ATOM      6  C   UNL     1      33.880  44.737  17.139 -0.27 -0.03    +0.065 A  ENDROOTBRANCH   1   7ATOM      7  C   UNL     1      33.165  42.749  18.488 -0.25 -0.04    +0.252 C  ATOM      8  N   UNL     1      32.642  41.910  17.527 -0.13 +0.12    -0.350 N  ATOM      9  H   UNL     1      33.112  41.846  16.633 -0.33 -0.10    +0.164 HD ATOM     10  O   UNL     1      32.832  42.755  19.664 -0.66 -0.02    -0.269 OA BRANCH   8  11ATOM     11  C   UNL     1      31.715  40.837  17.879 -0.38 -0.02    +0.079 C  ATOM     12  C   UNL     1      32.459  39.502  17.925 -0.47 -0.00    +0.031 C  BRANCH  11  13ATOM     13  C   UNL     1      30.548  40.827  16.881 -0.40 -0.00    +0.021 C  ATOM     14  C   UNL     1      30.491  42.065  15.998 -0.39 -0.00    +0.006 C  ENDBRANCH  11  13ENDBRANCH   8  11ENDBRANCH   1   7BRANCH   6  15ATOM     15  C   UNL     1      32.530  45.013  16.736 -0.30 -0.05    +0.100 C  ATOM     16  N   UNL     1      31.416  45.224  16.487 -0.78 +0.05    -0.192 NA ENDBRANCH   6  15BRANCH   4  17ATOM     17  C   UNL     1      37.299  46.299  16.585 -0.36 +0.01    -0.015 A  ATOM     18  C   UNL     1      38.497  46.453  17.285 -0.38 -0.00    +0.011 A  ATOM     19  C   UNL     1      37.147  47.025  15.398 -0.37 -0.04    +0.057 A  ATOM     20  C   UNL     1      39.505  47.308  16.816 -0.45 -0.01    +0.030 A  ATOM     21  C   UNL     1      38.164  47.877  14.933 -0.40 -0.07    +0.139 A  ATOM     22  C   UNL     1      39.378  48.054  15.629 -0.46 -0.03    +0.079 A  BRANCH  21  23ATOM     23  O   UNL     1      37.942  48.529  13.743 -0.38 +0.20    -0.506 OA ATOM     24  H   UNL     1      38.083  49.479  13.868 -0.28 -0.20    +0.293 HD ENDBRANCH  21  23BRANCH  22  25ATOM     25  N   UNL     1      40.400  48.885  15.217 -0.28 +0.11    -0.369 N  ATOM     26  C   UNL     1      41.398  48.531  14.211 -0.21 -0.01    +0.116 C  ATOM     27  C   UNL     1      40.607  50.244  15.712 -0.48 -0.05    +0.116 C  ATOM     28  C   UNL     1      42.080  49.859  13.883 -0.73 -0.00    +0.023 C  ATOM     29  C   UNL     1      41.992  50.619  15.194 -0.55 -0.00    +0.023 C  ENDBRANCH  22  25ENDBRANCH   4  17TORSDOF 7TERENDMDL