MODEL        2USER    Run = 2USERUSER    Estimated Free Energy of Binding    =  -9.21 kcal/mol  [=(1)+(2)+(3)-(4)]USERUSER    (1) Final Intermolecular Energy     = -11.30 kcal/molUSER        vdW + Hbond + desolv Energy     = -11.12 kcal/molUSER        Electrostatic Energy            =  -0.18 kcal/molUSER        Moving Ligand-Fixed Receptor    = -11.30 kcal/molUSER        Moving Ligand-Moving Receptor   =  +0.00 kcal/molUSER    (2) Final Total Internal Energy     =  -1.18 kcal/molUSER    (3) Torsional Free Energy           =  +2.09 kcal/molUSER    (4) Unbound System's Energy         =  -1.18 kcal/molUSERUSERREMARK SMILES CCC[C@H](C)NC(=O)c1ccc(-c2ccc(N3CC[C@H](F)C3)cc2)cc1C#NREMARK SMILES IDX 6 1 7 2 8 3 4 5 5 6 3 7 2 8 1 9 9 10 10 11 26 12 11 13 25 14REMARK SMILES IDX 12 15 27 16 28 17 13 18 14 19 24 20 15 21 23 22 16 23 17 24REMARK SMILES IDX 18 25 22 26 19 27 20 28 21 29REMARK H PARENT 6 4USER                              x       y       z     vdW  Elec       q    TypeUSER                           _______ _______ _______ _____ _____    ______ ____ROOTATOM      1  N   UNL     1      39.568  47.597  16.424 -0.22 +0.11    -0.350 N  ATOM      2  C   UNL     1      40.160  46.435  16.869 -0.35 -0.04    +0.252 C  ATOM      3  O   UNL     1      41.048  45.840  16.272 -0.27 -0.01    -0.269 OA ATOM      4  H   UNL     1      38.810  48.019  16.944 +0.10 -0.09    +0.164 HD ENDROOTBRANCH   1   5ATOM      5  C   UNL     1      39.852  48.140  15.101 -0.56 -0.02    +0.079 C  ATOM      6  C   UNL     1      38.534  48.467  14.395 -0.56 -0.01    +0.031 C  BRANCH   5   7ATOM      7  C   UNL     1      40.734  49.397  15.189 -0.69 -0.01    +0.024 C  BRANCH   7   8ATOM      8  C   UNL     1      41.677  49.603  13.998 -0.71 +0.00    -0.001 C  ATOM      9  C   UNL     1      42.654  50.757  14.150 -0.68 -0.00    +0.004 C  ENDBRANCH   7   8ENDBRANCH   5   7ENDBRANCH   1   5BRANCH   2  10ATOM     10  C   UNL     1      39.712  45.927  18.187 -0.41 -0.01    +0.057 A  ATOM     11  C   UNL     1      38.421  45.386  18.249 -0.38 -0.00    +0.016 A  ATOM     12  C   UNL     1      40.489  46.005  19.348 -0.37 -0.00    +0.065 A  ATOM     13  C   UNL     1      37.920  44.894  19.458 -0.31 -0.00    +0.009 A  ATOM     14  C   UNL     1      39.976  45.505  20.557 -0.34 +0.00    +0.029 A  ATOM     15  C   UNL     1      38.690  44.941  20.631 -0.34 -0.00    -0.017 A  BRANCH  12  16ATOM     16  C   UNL     1      41.791  46.602  19.355 -0.47 +0.01    +0.100 C  ATOM     17  N   UNL     1      42.849  47.076  19.313 -0.41 -0.04    -0.192 NA ENDBRANCH  12  16BRANCH  15  18ATOM     18  C   UNL     1      38.163  44.424  21.904 -0.35 -0.00    -0.018 A  ATOM     19  C   UNL     1      38.309  45.143  23.094 -0.31 +0.00    +0.011 A  ATOM     20  C   UNL     1      37.502  43.194  21.974 -0.39 +0.00    +0.011 A  ATOM     21  C   UNL     1      37.806  44.647  24.308 -0.29 +0.00    +0.026 A  ATOM     22  C   UNL     1      37.002  42.707  23.192 -0.40 +0.00    +0.026 A  ATOM     23  C   UNL     1      37.130  43.421  24.391 -0.33 +0.00    +0.037 A  BRANCH  23  24ATOM     24  N   UNL     1      36.652  42.935  25.587 -0.14 +0.02    -0.369 N  ATOM     25  C   UNL     1      35.840  41.726  25.710 -0.35 -0.02    +0.119 C  ATOM     26  C   UNL     1      36.500  43.774  26.785 -0.35 -0.02    +0.154 C  ATOM     27  C   UNL     1      35.653  41.570  27.216 -0.63 -0.02    +0.061 C  ATOM     28  C   UNL     1      35.522  43.005  27.678 -0.44 -0.05    +0.187 C  ATOM     29  F   UNL     1      34.249  43.427  27.429 -0.15 +0.03    -0.245 F  ENDBRANCH  23  24ENDBRANCH  15  18ENDBRANCH   2  10TORSDOF 7TERENDMDL