REMARK SMILES CCNC(=O)c1ccc(-c2ccc(N3CCCC3)cc2)cc1C#N
REMARK SMILES IDX 6 1 7 2 8 3 9 4 21 5 22 6 4 7 3 8 5 10 2 11 1 12 23 13 24 14
REMARK SMILES IDX 10 15 11 16 20 17 12 18 19 19 13 20 14 21 15 22 18 23 16 24
REMARK SMILES IDX 17 25
REMARK H PARENT 3 9
ROOT
ATOM      1  C   UNL     1       3.629   0.546   0.357  1.00  0.00     0.057 A 
ATOM      2  C   UNL     1       2.805   1.517   0.941  1.00  0.00     0.016 A 
ATOM      3  C   UNL     1       1.414   1.392   0.878  1.00  0.00     0.009 A 
ATOM      4  C   UNL     1       0.815   0.292   0.246  1.00  0.00    -0.017 A 
ATOM      5  C   UNL     1       1.655  -0.686  -0.315  1.00  0.00     0.029 A 
ATOM      6  C   UNL     1       3.055  -0.572  -0.259  1.00  0.00     0.065 A 
ENDROOT
BRANCH   1   7
ATOM      7  C   UNL     1       5.092   0.751   0.476  1.00  0.00     0.252 C 
ATOM      8  N   UNL     1       5.828   0.625  -0.681  1.00  0.00    -0.352 N 
ATOM      9  H   UNL     1       5.387   0.382  -1.558  1.00  0.00     0.163 HD
ATOM     10  O   UNL     1       5.564   1.056   1.565  1.00  0.00    -0.269 OA
BRANCH   8  11
ATOM     11  C   UNL     1       7.273   0.735  -0.673  1.00  0.00     0.112 C 
ATOM     12  C   UNL     1       7.931  -0.584  -0.307  1.00  0.00     0.027 C 
ENDBRANCH   8  11
ENDBRANCH   1   7
BRANCH   6  13
ATOM     13  C   UNL     1       3.847  -1.626  -0.819  1.00  0.00     0.100 C 
ATOM     14  N   UNL     1       4.479  -2.465  -1.312  1.00  0.00    -0.192 NA
ENDBRANCH   6  13
BRANCH   4  15
ATOM     15  C   UNL     1      -0.649   0.162   0.179  1.00  0.00    -0.018 A 
ATOM     16  C   UNL     1      -1.447   1.188  -0.335  1.00  0.00     0.011 A 
ATOM     17  C   UNL     1      -1.298  -0.994   0.626  1.00  0.00     0.011 A 
ATOM     18  C   UNL     1      -2.844   1.058  -0.400  1.00  0.00     0.026 A 
ATOM     19  C   UNL     1      -2.695  -1.113   0.558  1.00  0.00     0.026 A 
ATOM     20  C   UNL     1      -3.508  -0.093   0.044  1.00  0.00     0.037 A 
BRANCH  20  21
ATOM     21  N   UNL     1      -4.875  -0.216  -0.022  1.00  0.00    -0.372 N 
ATOM     22  C   UNL     1      -5.631  -1.326   0.554  1.00  0.00     0.116 C 
ATOM     23  C   UNL     1      -5.759   0.754  -0.665  1.00  0.00     0.116 C 
ATOM     24  C   UNL     1      -7.081  -0.853   0.497  1.00  0.00     0.023 C 
ATOM     25  C   UNL     1      -7.104   0.035  -0.734  1.00  0.00     0.023 C 
ENDBRANCH  20  21
ENDBRANCH   4  15
TORSDOF 5
