REMARK SMILES CCC[C@H](C)NC(=O)c1ccc(-c2ccc(N3CCCC3)cc2F)cc1C#N
REMARK SMILES IDX 6 1 7 2 8 3 4 5 5 6 3 7 2 8 1 9 9 10 10 11 26 12 11 13 25 14
REMARK SMILES IDX 12 15 27 16 28 17 13 18 14 19 23 20 15 21 22 22 16 23 24 24
REMARK SMILES IDX 17 25 18 26 21 27 19 28 20 29
REMARK H PARENT 6 4
ROOT
ATOM      1  N   UNL     1       4.288   0.477   0.138  1.00  0.00    -0.350 N 
ATOM      2  C   UNL     1       3.533  -0.662  -0.031  1.00  0.00     0.252 C 
ATOM      3  O   UNL     1       3.986  -1.792  -0.154  1.00  0.00    -0.269 OA
ATOM      4  H   UNL     1       3.831   1.358   0.338  1.00  0.00     0.164 HD
ENDROOT
BRANCH   1   5
ATOM      5  C   UNL     1       5.752   0.482   0.163  1.00  0.00     0.079 C 
ATOM      6  C   UNL     1       6.269  -0.241   1.408  1.00  0.00     0.031 C 
BRANCH   5   7
ATOM      7  C   UNL     1       6.343  -0.076  -1.147  1.00  0.00     0.024 C 
BRANCH   7   8
ATOM      8  C   UNL     1       7.576   0.675  -1.663  1.00  0.00    -0.001 C 
ATOM      9  C   UNL     1       8.788   0.605  -0.751  1.00  0.00     0.004 C 
ENDBRANCH   7   8
ENDBRANCH   5   7
ENDBRANCH   1   5
BRANCH   2  10
ATOM     10  C   UNL     1       2.063  -0.477  -0.017  1.00  0.00     0.057 A 
ATOM     11  C   UNL     1       1.325  -1.312   0.830  1.00  0.00     0.016 A 
ATOM     12  C   UNL     1       1.401   0.450  -0.829  1.00  0.00     0.065 A 
ATOM     13  C   UNL     1      -0.067  -1.199   0.892  1.00  0.00     0.010 A 
ATOM     14  C   UNL     1       0.001   0.553  -0.758  1.00  0.00     0.029 A 
ATOM     15  C   UNL     1      -0.754  -0.263   0.104  1.00  0.00    -0.014 A 
BRANCH  12  16
ATOM     16  C   UNL     1       2.102   1.290  -1.755  1.00  0.00     0.100 C 
ATOM     17  N   UNL     1       2.653   2.004  -2.486  1.00  0.00    -0.192 NA
ENDBRANCH  12  16
BRANCH  15  18
ATOM     18  C   UNL     1      -2.220  -0.146   0.167  1.00  0.00     0.018 A 
ATOM     19  C   UNL     1      -3.003  -0.202  -0.992  1.00  0.00     0.014 A 
ATOM     20  C   UNL     1      -2.899   0.024   1.377  1.00  0.00     0.133 A 
ATOM     21  C   UNL     1      -4.402  -0.088  -0.927  1.00  0.00     0.027 A 
ATOM     22  C   UNL     1      -4.292   0.139   1.437  1.00  0.00     0.065 A 
ATOM     23  C   UNL     1      -5.086   0.086   0.286  1.00  0.00     0.040 A 
ATOM     24  F   UNL     1      -2.213   0.094   2.530  1.00  0.00    -0.206 F 
BRANCH  23  25
ATOM     25  N   UNL     1      -6.454   0.199   0.339  1.00  0.00    -0.371 N 
ATOM     26  C   UNL     1      -7.208   0.510   1.552  1.00  0.00     0.116 C 
ATOM     27  C   UNL     1      -7.343   0.015  -0.807  1.00  0.00     0.116 C 
ATOM     28  C   UNL     1      -8.613   0.819   1.043  1.00  0.00     0.023 C 
ATOM     29  C   UNL     1      -8.735  -0.066  -0.184  1.00  0.00     0.023 C 
ENDBRANCH  23  25
ENDBRANCH  15  18
ENDBRANCH   2  10
TORSDOF 7
