MODEL        7USER    Run = 7USERUSER    Estimated Free Energy of Binding    =  -9.29 kcal/mol  [=(1)+(2)+(3)-(4)]USERUSER    (1) Final Intermolecular Energy     = -11.38 kcal/molUSER        vdW + Hbond + desolv Energy     = -11.39 kcal/molUSER        Electrostatic Energy            =  +0.01 kcal/molUSER        Moving Ligand-Fixed Receptor    = -11.38 kcal/molUSER        Moving Ligand-Moving Receptor   =  +0.00 kcal/molUSER    (2) Final Total Internal Energy     =  -1.40 kcal/molUSER    (3) Torsional Free Energy           =  +2.09 kcal/molUSER    (4) Unbound System's Energy         =  -1.40 kcal/molUSERUSERREMARK SMILES CCC[C@H](C)NC(=O)c1ccc(-c2ccc(N3CCCC3)cc2F)cc1C#NREMARK SMILES IDX 6 1 7 2 8 3 4 5 5 6 3 7 2 8 1 9 9 10 10 11 26 12 11 13 25 14REMARK SMILES IDX 12 15 27 16 28 17 13 18 14 19 23 20 15 21 22 22 16 23 24 24REMARK SMILES IDX 17 25 18 26 21 27 19 28 20 29REMARK H PARENT 6 4USER                              x       y       z     vdW  Elec       q    TypeUSER                           _______ _______ _______ _____ _____    ______ ____ROOTATOM      1  N   UNL     1      39.465  47.214  16.625 -0.21 +0.10    -0.350 N  ATOM      2  C   UNL     1      38.726  46.052  16.663 -0.29 -0.07    +0.252 C  ATOM      3  O   UNL     1      38.285  45.470  15.681 -0.22 +0.08    -0.269 OA ATOM      4  H   UNL     1      39.881  47.572  17.476 +0.09 -0.04    +0.164 HD ENDROOTBRANCH   1   5ATOM      5  C   UNL     1      39.795  47.924  15.388 -0.55 -0.02    +0.079 C  ATOM      6  C   UNL     1      38.530  48.491  14.742 -0.58 -0.02    +0.031 C  BRANCH   5   7ATOM      7  C   UNL     1      40.883  48.991  15.621 -0.68 -0.00    +0.024 C  BRANCH   7   8ATOM      8  C   UNL     1      41.433  49.633  14.342 -0.76 +0.00    -0.001 C  ATOM      9  C   UNL     1      42.452  50.734  14.573 -0.69 -0.00    +0.004 C  ENDBRANCH   7   8ENDBRANCH   5   7ENDBRANCH   1   5BRANCH   2  10ATOM     10  C   UNL     1      38.501  45.466  18.005 -0.36 -0.01    +0.057 A  ATOM     11  C   UNL     1      37.275  44.827  18.222 -0.34 -0.00    +0.016 A  ATOM     12  C   UNL     1      39.429  45.563  19.047 -0.38 -0.00    +0.065 A  ATOM     13  C   UNL     1      36.989  44.256  19.466 -0.37 -0.00    +0.010 A  ATOM     14  C   UNL     1      39.130  44.985  20.293 -0.35 -0.00    +0.029 A  ATOM     15  C   UNL     1      37.911  44.320  20.522 -0.36 +0.00    -0.014 A  BRANCH  12  16ATOM     16  C   UNL     1      40.675  46.255  18.896 -0.46 -0.00    +0.100 C  ATOM     17  N   UNL     1      41.672  46.828  18.736 -0.39 -0.00    -0.192 NA ENDBRANCH  12  16BRANCH  15  18ATOM     18  C   UNL     1      37.610  43.721  21.832 -0.37 +0.00    +0.018 A  ATOM     19  C   UNL     1      37.827  44.428  23.020 -0.33 +0.00    +0.014 A  ATOM     20  C   UNL     1      37.095  42.427  21.955 -0.38 +0.01    +0.133 A  ATOM     21  C   UNL     1      37.539  43.851  24.269 -0.31 +0.00    +0.027 A  ATOM     22  C   UNL     1      36.811  41.856  23.200 -0.44 +0.00    +0.065 A  ATOM     23  C   UNL     1      37.025  42.552  24.396 -0.37 +0.00    +0.040 A  ATOM     24  F   UNL     1      36.868  41.686  20.858 -0.15 +0.00    -0.206 F  BRANCH  23  25ATOM     25  N   UNL     1      36.749  41.996  25.621 -0.16 +0.05    -0.371 N  ATOM     26  C   UNL     1      37.754  41.400  26.500 -0.35 -0.01    +0.116 C  ATOM     27  C   UNL     1      35.413  41.915  26.210 -0.40 -0.02    +0.116 C  ATOM     28  C   UNL     1      37.020  41.212  27.824 -0.54 -0.01    +0.023 C  ATOM     29  C   UNL     1      35.588  40.961  27.390 -0.70 -0.01    +0.023 C  ENDBRANCH  23  25ENDBRANCH  15  18ENDBRANCH   2  10TORSDOF 7TERENDMDL