MODEL        8USER    Run = 8USERUSER    Estimated Free Energy of Binding    =  -9.06 kcal/mol  [=(1)+(2)+(3)-(4)]USERUSER    (1) Final Intermolecular Energy     = -10.55 kcal/molUSER        vdW + Hbond + desolv Energy     = -10.44 kcal/molUSER        Electrostatic Energy            =  -0.11 kcal/molUSER        Moving Ligand-Fixed Receptor    = -10.55 kcal/molUSER        Moving Ligand-Moving Receptor   =  +0.00 kcal/molUSER    (2) Final Total Internal Energy     =  -0.88 kcal/molUSER    (3) Torsional Free Energy           =  +1.49 kcal/molUSER    (4) Unbound System's Energy         =  -0.88 kcal/molUSERUSERREMARK SMILES CCNC(=O)c1ccc(-c2ccc(N3CCCC3)cc2)cc1C#NREMARK SMILES IDX 6 1 7 2 8 3 9 4 21 5 22 6 4 7 3 8 5 10 2 11 1 12 23 13 24 14REMARK SMILES IDX 10 15 11 16 20 17 12 18 19 19 13 20 14 21 15 22 18 23 16 24REMARK SMILES IDX 17 25REMARK H PARENT 3 9USER                              x       y       z     vdW  Elec       q    TypeUSER                           _______ _______ _______ _____ _____    ______ ____ROOTATOM      1  C   UNL     1      40.076  48.433  15.807 -0.52 -0.02    +0.057 A  ATOM      2  C   UNL     1      38.935  48.508  14.998 -0.52 -0.01    +0.016 A  ATOM      3  C   UNL     1      37.863  47.635  15.208 -0.47 -0.01    +0.009 A  ATOM      4  C   UNL     1      37.899  46.681  16.236 -0.38 +0.01    -0.017 A  ATOM      5  C   UNL     1      39.041  46.633  17.054 -0.41 -0.01    +0.029 A  ATOM      6  C   UNL     1      40.126  47.505  16.853 -0.46 -0.01    +0.065 A  ENDROOTBRANCH   1   7ATOM      7  C   UNL     1      41.162  49.400  15.522 -0.49 -0.04    +0.252 C  ATOM      8  N   UNL     1      41.446  49.635  14.195 -0.36 +0.07    -0.352 N  ATOM      9  H   UNL     1      40.949  49.150  13.460 +0.12 -0.03    +0.163 HD ATOM     10  O   UNL     1      41.718  49.964  16.457 -1.04 -0.02    -0.269 OA BRANCH   8  11ATOM     11  C   UNL     1      42.533  50.506  13.797 -0.65 -0.03    +0.112 C  ATOM     12  C   UNL     1      42.558  50.717  12.293 -0.70 -0.01    +0.027 C  ENDBRANCH   8  11ENDBRANCH   1   7BRANCH   6  13ATOM     13  C   UNL     1      41.240  47.424  17.750 -0.50 -0.01    +0.100 C  ATOM     14  N   UNL     1      42.116  47.369  18.509 -0.45 +0.00    -0.192 NA ENDBRANCH   6  13BRANCH   4  15ATOM     15  C   UNL     1      36.771  45.762  16.455 -0.35 +0.01    -0.018 A  ATOM     16  C   UNL     1      36.787  44.458  15.952 -0.35 -0.00    +0.011 A  ATOM     17  C   UNL     1      35.640  46.157  17.178 -0.36 -0.01    +0.011 A  ATOM     18  C   UNL     1      35.710  43.583  16.166 -0.39 -0.01    +0.026 A  ATOM     19  C   UNL     1      34.568  45.275  17.385 -0.33 -0.02    +0.026 A  ATOM     20  C   UNL     1      34.571  43.965  16.887 -0.29 -0.02    +0.037 A  BRANCH  20  21ATOM     21  N   UNL     1      33.519  43.105  17.095 -0.09 +0.14    -0.372 N  ATOM     22  C   UNL     1      33.654  41.753  17.632 -0.39 -0.04    +0.116 C  ATOM     23  C   UNL     1      32.121  43.433  16.822 -0.29 -0.04    +0.116 C  ATOM     24  C   UNL     1      32.222  41.343  17.963 -0.43 -0.01    +0.023 C  ATOM     25  C   UNL     1      31.403  42.090  16.926 -0.34 -0.01    +0.023 C  ENDBRANCH  20  21ENDBRANCH   4  15TORSDOF 5TERENDMDL