MODEL        5USER    Run = 5USERUSER    Estimated Free Energy of Binding    =  -9.11 kcal/mol  [=(1)+(2)+(3)-(4)]USERUSER    (1) Final Intermolecular Energy     = -10.90 kcal/molUSER        vdW + Hbond + desolv Energy     = -10.77 kcal/molUSER        Electrostatic Energy            =  -0.13 kcal/molUSER        Moving Ligand-Fixed Receptor    = -10.90 kcal/molUSER        Moving Ligand-Moving Receptor   =  +0.00 kcal/molUSER    (2) Final Total Internal Energy     =  -1.49 kcal/molUSER    (3) Torsional Free Energy           =  +1.79 kcal/molUSER    (4) Unbound System's Energy         =  -1.49 kcal/molUSERUSERREMARK SMILES COC=C1Cc2c(-c3cncc(NC(=O)CN4CCOCC4)c3)c[nH]c2C=C1FREMARK SMILES IDX 4 1 5 2 6 3 7 4 24 5 25 6 26 7 27 8 28 9 29 10 3 12 2 13REMARK SMILES IDX 1 14 8 15 9 16 23 17 10 18 12 19 11 20 13 21 14 22 15 24REMARK SMILES IDX 16 25 17 26 18 27 22 28 19 29 21 30 20 31REMARK H PARENT 25 11 13 23USER                              x       y       z     vdW  Elec       q    TypeUSER                           _______ _______ _______ _____ _____    ______ ____ROOTATOM      1  C   UNL     1      38.504  48.004  14.868 -0.57 -0.01    +0.027 C  ATOM      2  C   UNL     1      38.039  47.066  15.988 -0.42 -0.04    +0.080 C  ATOM      3  C   UNL     1      39.155  46.671  16.909 -0.43 +0.00    -0.010 A  ATOM      4  C   UNL     1      39.189  45.854  18.075 -0.42 -0.00    +0.005 A  ATOM      5  C   UNL     1      40.498  45.881  18.534 -0.41 -0.00    +0.092 A  ATOM      6  N   UNL     1      41.247  46.674  17.695 -0.23 +0.03    -0.361 N  ATOM      7  C   UNL     1      40.431  47.154  16.718 -0.47 -0.01    +0.045 A  ATOM      8  C   UNL     1      40.856  48.019  15.693 -0.53 -0.01    +0.066 C  ATOM      9  C   UNL     1      39.914  48.414  14.819 -0.51 -0.04    +0.131 C  ATOM     10  F   UNL     1      40.285  49.246  13.818 -0.13 +0.07    -0.206 F  ATOM     11  H   UNL     1      42.233  46.871  17.806 -0.33 -0.02    +0.166 HD ENDROOTBRANCH   1  12ATOM     12  C   UNL     1      37.637  48.441  13.938 -0.45 -0.09    +0.193 C  BRANCH  12  13ATOM     13  O   UNL     1      37.492  47.833  12.719 -0.79 +0.08    -0.504 OA ATOM     14  C   UNL     1      36.159  47.379  12.496 -0.51 -0.14    +0.277 C  ENDBRANCH  12  13ENDBRANCH   1  12BRANCH   4  15ATOM     15  C   UNL     1      38.134  45.108  18.738 -0.38 -0.00    +0.004 A  ATOM     16  C   UNL     1      36.894  44.922  18.135 -0.26 -0.03    +0.119 A  ATOM     17  C   UNL     1      38.327  44.545  20.008 -0.34 -0.00    +0.038 A  ATOM     18  N   UNL     1      35.866  44.244  18.696 -0.17 +0.06    -0.262 NA ATOM     19  C   UNL     1      37.299  43.833  20.621 -0.35 -0.00    +0.060 A  ATOM     20  C   UNL     1      36.096  43.722  19.924 -0.31 -0.01    +0.137 A  BRANCH  19  21ATOM     21  N   UNL     1      37.397  43.228  21.887 -0.18 -0.02    -0.324 N  ATOM     22  C   UNL     1      36.716  42.124  22.366 -0.40 +0.02    +0.238 C  ATOM     23  H   UNL     1      37.986  43.670  22.589 +0.10 +0.01    +0.170 HD ATOM     24  O   UNL     1      35.898  41.444  21.753 -0.43 -0.01    -0.273 OA BRANCH  22  25ATOM     25  C   UNL     1      37.132  41.764  23.803 -0.29 +0.01    +0.185 C  BRANCH  25  26ATOM     26  N   UNL     1      37.674  42.955  24.522 -0.16 -0.01    -0.290 NA ATOM     27  C   UNL     1      36.558  43.780  25.068 -0.30 +0.01    +0.113 C  ATOM     28  C   UNL     1      38.546  42.515  25.632 -0.25 -0.00    +0.113 C  ATOM     29  C   UNL     1      36.455  43.810  26.604 -0.33 -0.02    +0.175 C  ATOM     30  C   UNL     1      37.798  41.862  26.812 -0.33 -0.02    +0.175 C  ATOM     31  O   UNL     1      36.551  42.491  27.140 -0.18 +0.09    -0.379 OA ENDBRANCH  25  26ENDBRANCH  22  25ENDBRANCH  19  21ENDBRANCH   4  15TORSDOF 6TERENDMDL