REMARK SMILES COC=C1Cc2c(-c3cncc(NC(=O)CN4CCOCC4)c3)c[nH]c2C=C1F
REMARK SMILES IDX 4 1 5 2 6 3 7 4 24 5 25 6 26 7 27 8 28 9 29 10 3 12 2 13
REMARK SMILES IDX 1 14 8 15 9 16 23 17 10 18 12 19 11 20 13 21 14 22 15 24
REMARK SMILES IDX 16 25 17 26 18 27 22 28 19 29 21 30 20 31
REMARK H PARENT 25 11 13 23
ROOT
ATOM      1  C   UNL     1       5.862  -0.179  -0.472  1.00  0.00     0.027 C 
ATOM      2  C   UNL     1       4.352  -0.239  -0.734  1.00  0.00     0.080 C 
ATOM      3  C   UNL     1       3.599  -0.899   0.383  1.00  0.00    -0.010 A 
ATOM      4  C   UNL     1       2.212  -1.151   0.584  1.00  0.00     0.005 A 
ATOM      5  C   UNL     1       2.100  -1.762   1.824  1.00  0.00     0.092 A 
ATOM      6  N   UNL     1       3.356  -1.888   2.372  1.00  0.00    -0.361 N 
ATOM      7  C   UNL     1       4.259  -1.361   1.501  1.00  0.00     0.045 A 
ATOM      8  C   UNL     1       5.643  -1.301   1.743  1.00  0.00     0.066 C 
ATOM      9  C   UNL     1       6.391  -0.729   0.783  1.00  0.00     0.131 C 
ATOM     10  F   UNL     1       7.728  -0.654   0.980  1.00  0.00    -0.206 F 
ATOM     11  H   UNL     1       3.560  -2.292   3.277  1.00  0.00     0.166 HD
ENDROOT
BRANCH   1  12
ATOM     12  C   UNL     1       6.692   0.362  -1.380  1.00  0.00     0.193 C 
BRANCH  12  13
ATOM     13  O   UNL     1       6.248   0.893  -2.563  1.00  0.00    -0.504 OA
ATOM     14  C   UNL     1       7.289   1.000  -3.531  1.00  0.00     0.277 C 
ENDBRANCH  12  13
ENDBRANCH   1  12
BRANCH   4  15
ATOM     15  C   UNL     1       1.067  -0.865  -0.262  1.00  0.00     0.004 A 
ATOM     16  C   UNL     1       1.096  -1.129  -1.628  1.00  0.00     0.119 A 
ATOM     17  C   UNL     1      -0.110  -0.316   0.266  1.00  0.00     0.038 A 
ATOM     18  N   UNL     1       0.069  -0.883  -2.475  1.00  0.00    -0.262 NA
ATOM     19  C   UNL     1      -1.195  -0.052  -0.567  1.00  0.00     0.060 A 
ATOM     20  C   UNL     1      -1.045  -0.349  -1.922  1.00  0.00     0.137 A 
BRANCH  19  21
ATOM     21  N   UNL     1      -2.417   0.491  -0.133  1.00  0.00    -0.324 N 
ATOM     22  C   UNL     1      -2.818   0.780   1.158  1.00  0.00     0.238 C 
ATOM     23  H   UNL     1      -3.150   0.643  -0.823  1.00  0.00     0.170 HD
ATOM     24  O   UNL     1      -2.158   0.631   2.182  1.00  0.00    -0.273 OA
BRANCH  22  25
ATOM     25  C   UNL     1      -4.229   1.393   1.204  1.00  0.00     0.185 C 
BRANCH  25  26
ATOM     26  N   UNL     1      -5.046   0.954   0.034  1.00  0.00    -0.290 NA
ATOM     27  C   UNL     1      -5.504  -0.453   0.223  1.00  0.00     0.113 C 
ATOM     28  C   UNL     1      -6.223   1.836  -0.113  1.00  0.00     0.113 C 
ATOM     29  C   UNL     1      -7.021  -0.628   0.421  1.00  0.00     0.175 C 
ATOM     30  C   UNL     1      -7.293   1.663   0.984  1.00  0.00     0.175 C 
ATOM     31  O   UNL     1      -7.513   0.303   1.384  1.00  0.00    -0.379 OA
ENDBRANCH  25  26
ENDBRANCH  22  25
ENDBRANCH  19  21
ENDBRANCH   4  15
TORSDOF 6
