MODEL        8USER    Run = 8USERUSER    Estimated Free Energy of Binding    =  -9.17 kcal/mol  [=(1)+(2)+(3)-(4)]USERUSER    (1) Final Intermolecular Energy     = -10.66 kcal/molUSER        vdW + Hbond + desolv Energy     = -10.50 kcal/molUSER        Electrostatic Energy            =  -0.16 kcal/molUSER        Moving Ligand-Fixed Receptor    = -10.66 kcal/molUSER        Moving Ligand-Moving Receptor   =  +0.00 kcal/molUSER    (2) Final Total Internal Energy     =  -1.80 kcal/molUSER    (3) Torsional Free Energy           =  +1.49 kcal/molUSER    (4) Unbound System's Energy         =  -1.80 kcal/molUSERUSERREMARK SMILES Cc1ncc2n1[C@]2(NS(=O)(=O)Cc1cc(Cl)ccc1Cl)c1ccccc1FREMARK SMILES IDX 8 1 7 3 2 4 3 5 6 6 4 7 5 8 1 9 21 10 22 11 26 12 23 13REMARK SMILES IDX 25 14 24 15 27 16 9 17 10 18 11 19 12 20 13 21 14 22 19 23REMARK SMILES IDX 15 24 18 25 17 26 20 27 16 28REMARK H PARENT 8 2USER                              x       y       z     vdW  Elec       q    TypeUSER                           _______ _______ _______ _____ _____    ______ ____ROOTATOM      1  N   UNL     1      35.475  46.953  16.626 -0.17 +0.24    -0.180 NA ATOM      2  H   UNL     1      35.383  47.942  16.860 -0.10 -0.33    +0.144 HD ENDROOTBRANCH   1   3ATOM      3  C   UNL     1      36.414  46.625  15.540 -0.31 -0.14    +0.181 C  ATOM      4  C   UNL     1      36.380  46.816  13.013 -0.52 -0.05    +0.108 A  ATOM      5  N   UNL     1      36.917  45.718  12.537 -0.36 +0.09    -0.241 NA ATOM      6  N   UNL     1      35.832  46.571  14.234 -0.23 +0.22    -0.299 N  ATOM      7  C   UNL     1      36.660  44.787  13.505 -0.26 -0.05    +0.139 A  ATOM      8  C   UNL     1      36.233  45.327  14.701 -0.32 -0.04    +0.087 A  ATOM      9  C   UNL     1      36.252  48.117  12.322 -0.56 -0.04    +0.088 C  BRANCH   3  10ATOM     10  C   UNL     1      37.829  47.147  15.710 -0.40 -0.02    +0.036 A  ATOM     11  C   UNL     1      38.174  48.460  15.331 -0.52 -0.01    +0.011 A  ATOM     12  C   UNL     1      38.846  46.377  16.297 -0.32 -0.04    +0.130 A  ATOM     13  C   UNL     1      39.472  48.956  15.499 -0.51 -0.00    +0.001 A  ATOM     14  C   UNL     1      40.142  46.860  16.471 -0.46 -0.01    +0.040 A  ATOM     15  C   UNL     1      40.458  48.153  16.066 -0.57 -0.00    +0.003 A  ATOM     16  F   UNL     1      38.571  45.142  16.739 -0.07 +0.05    -0.207 F  ENDBRANCH   3  10ENDBRANCH   1   3BRANCH   1  17ATOM     17  S   UNL     1      35.308  45.962  17.964 -0.40 -0.13    +0.218 S  ATOM     18  O   UNL     1      36.671  45.779  18.427 -0.16 +0.06    -0.212 OA ATOM     19  O   UNL     1      34.308  46.550  18.826 -0.82 +0.13    -0.212 OA BRANCH  17  20ATOM     20  C   UNL     1      34.733  44.388  17.288 -0.23 -0.08    +0.191 C  BRANCH  20  21ATOM     21  C   UNL     1      33.285  44.536  16.884 -0.31 +0.01    -0.011 A  ATOM     22  C   UNL     1      32.975  45.230  15.696 -0.32 -0.02    +0.026 A  ATOM     23  C   UNL     1      32.228  43.991  17.633 -0.27 -0.01    +0.045 A  ATOM     24  C   UNL     1      31.650  45.371  15.279 -0.40 -0.03    +0.041 A  ATOM     25  C   UNL     1      30.904  44.137  17.207 -0.21 -0.00    +0.022 A  ATOM     26  C   UNL     1      30.614  44.827  16.030 -0.33 -0.01    +0.022 A  ATOM     27  Cl  UNL     1      32.496  43.145  19.115 -0.56 +0.01    -0.084 Cl ATOM     28  Cl  UNL     1      31.299  46.226  13.829 -0.81 +0.05    -0.084 Cl ENDBRANCH  20  21ENDBRANCH  17  20ENDBRANCH   1  17TORSDOF 5TERENDMDL