MODEL        8USER    Run = 8USERUSER    Estimated Free Energy of Binding    =  -9.62 kcal/mol  [=(1)+(2)+(3)-(4)]USERUSER    (1) Final Intermolecular Energy     = -11.11 kcal/molUSER        vdW + Hbond + desolv Energy     = -11.11 kcal/molUSER        Electrostatic Energy            =  +0.00 kcal/molUSER        Moving Ligand-Fixed Receptor    = -11.11 kcal/molUSER        Moving Ligand-Moving Receptor   =  +0.00 kcal/molUSER    (2) Final Total Internal Energy     =  -1.85 kcal/molUSER    (3) Torsional Free Energy           =  +1.49 kcal/molUSER    (4) Unbound System's Energy         =  -1.85 kcal/molUSERUSERREMARK SMILES Cc1ncc2n1[C@]2(NS(=O)(=O)Cc1cc(Cl)ccc1Cl)c1ccccc1REMARK SMILES IDX 9 1 10 2 11 3 8 4 7 6 2 7 3 8 6 9 4 10 5 11 1 12 21 13 22 14REMARK SMILES IDX 26 15 23 16 25 17 24 18 12 19 13 20 14 21 19 22 15 23 18 24REMARK SMILES IDX 17 25 20 26 16 27REMARK H PARENT 8 5USER                              x       y       z     vdW  Elec       q    TypeUSER                           _______ _______ _______ _____ _____    ______ ____ROOTATOM      1  S   UNL     1      40.246  46.801  17.586 -0.52 -0.03    +0.218 S  ATOM      2  O   UNL     1      41.303  47.446  18.335 -0.46 +0.01    -0.212 OA ATOM      3  O   UNL     1      38.917  47.376  17.567 -0.28 +0.08    -0.212 OA ENDROOTBRANCH   1   4ATOM      4  N   UNL     1      40.707  46.687  15.970 -0.31 +0.01    -0.180 NA ATOM      5  H   UNL     1      40.507  45.747  15.618 +0.10 -0.00    +0.144 HD BRANCH   4   6ATOM      6  C   UNL     1      40.185  47.751  15.079 -0.45 -0.04    +0.178 C  ATOM      7  C   UNL     1      41.868  49.686  14.156 -0.55 -0.02    +0.108 A  ATOM      8  N   UNL     1      41.688  50.750  14.885 -0.49 +0.06    -0.241 NA ATOM      9  N   UNL     1      41.104  48.626  14.471 -0.30 +0.04    -0.299 N  ATOM     10  C   UNL     1      40.723  50.386  15.747 -0.37 -0.06    +0.139 A  ATOM     11  C   UNL     1      40.293  49.107  15.604 -0.53 -0.03    +0.087 A  ATOM     12  C   UNL     1      42.838  49.574  13.036 -0.56 -0.02    +0.088 C  BRANCH   6  13ATOM     13  C   UNL     1      38.898  47.432  14.338 -0.48 +0.00    -0.000 A  ATOM     14  C   UNL     1      38.475  46.110  14.102 -0.38 -0.00    +0.008 A  ATOM     15  C   UNL     1      38.050  48.462  13.881 -0.48 -0.00    +0.008 A  ATOM     16  C   UNL     1      37.279  45.829  13.436 -0.48 -0.00    +0.000 A  ATOM     17  C   UNL     1      36.853  48.187  13.214 -0.58 -0.00    +0.000 A  ATOM     18  C   UNL     1      36.470  46.869  12.990 -0.62 -0.00    +0.000 A  ENDBRANCH   6  13ENDBRANCH   4   6ENDBRANCH   1   4BRANCH   1  19ATOM     19  C   UNL     1      40.144  45.083  18.113 -0.33 -0.01    +0.191 C  BRANCH  19  20ATOM     20  C   UNL     1      38.709  44.678  18.351 -0.37 +0.00    -0.011 A  ATOM     21  C   UNL     1      37.868  44.455  17.241 -0.31 -0.01    +0.026 A  ATOM     22  C   UNL     1      38.168  44.509  19.637 -0.33 -0.00    +0.045 A  ATOM     23  C   UNL     1      36.538  44.071  17.416 -0.30 -0.01    +0.041 A  ATOM     24  C   UNL     1      36.834  44.121  19.805 -0.37 -0.00    +0.022 A  ATOM     25  C   UNL     1      36.018  43.900  18.695 -0.33 -0.00    +0.022 A  ATOM     26  Cl  UNL     1      39.095  44.780  21.067 -0.48 -0.00    -0.084 Cl ATOM     27  Cl  UNL     1      35.537  43.804  16.044 -0.53 +0.03    -0.084 Cl ENDBRANCH  19  20ENDBRANCH   1  19TORSDOF 5TERENDMDL