REMARK SMILES Cc1ncc2n1[C@]2(NS(=O)(=O)Cc1cc(Cl)ccc1Cl)c1ccccc1F
REMARK SMILES IDX 8 1 7 3 2 4 3 5 6 6 4 7 5 8 1 9 21 10 22 11 26 12 23 13
REMARK SMILES IDX 25 14 24 15 27 16 9 17 10 18 11 19 12 20 13 21 14 22 19 23
REMARK SMILES IDX 15 24 18 25 17 26 20 27 16 28
REMARK H PARENT 8 2
ROOT
ATOM      1  N   UNL     1      -0.338  -0.920   1.414  1.00  0.00    -0.180 NA
ATOM      2  H   UNL     1      -0.623  -0.436   2.266  1.00  0.00     0.144 HD
ENDROOT
BRANCH   1   3
ATOM      3  C   UNL     1      -1.210  -0.742   0.241  1.00  0.00     0.181 C 
ATOM      4  C   UNL     1      -2.777  -2.235  -1.078  1.00  0.00     0.108 A 
ATOM      5  N   UNL     1      -2.598  -1.956  -2.347  1.00  0.00    -0.241 NA
ATOM      6  N   UNL     1      -1.644  -1.957  -0.378  1.00  0.00    -0.299 N 
ATOM      7  C   UNL     1      -1.305  -1.514  -2.400  1.00  0.00     0.139 A 
ATOM      8  C   UNL     1      -0.758  -1.234  -1.165  1.00  0.00     0.087 A 
ATOM      9  C   UNL     1      -3.964  -2.870  -0.465  1.00  0.00     0.088 C 
BRANCH   3  10
ATOM     10  C   UNL     1      -2.146   0.452   0.288  1.00  0.00     0.036 A 
ATOM     11  C   UNL     1      -3.330   0.423   1.052  1.00  0.00     0.011 A 
ATOM     12  C   UNL     1      -1.859   1.655  -0.377  1.00  0.00     0.130 A 
ATOM     13  C   UNL     1      -4.190   1.525   1.115  1.00  0.00     0.001 A 
ATOM     14  C   UNL     1      -2.707   2.760  -0.321  1.00  0.00     0.040 A 
ATOM     15  C   UNL     1      -3.880   2.693   0.424  1.00  0.00     0.003 A 
ATOM     16  F   UNL     1      -0.717   1.773  -1.070  1.00  0.00    -0.207 F 
ENDBRANCH   3  10
ENDBRANCH   1   3
BRANCH   1  17
ATOM     17  S   UNL     1       1.326  -1.011   1.258  1.00  0.00     0.218 S 
ATOM     18  O   UNL     1       1.808  -0.834   2.615  1.00  0.00    -0.212 OA
ATOM     19  O   UNL     1       1.634  -2.212   0.515  1.00  0.00    -0.212 OA
BRANCH  17  20
ATOM     20  C   UNL     1       1.769   0.464   0.313  1.00  0.00     0.191 C 
BRANCH  20  21
ATOM     21  C   UNL     1       3.274   0.530   0.197  1.00  0.00    -0.011 A 
ATOM     22  C   UNL     1       4.011   1.157   1.222  1.00  0.00     0.026 A 
ATOM     23  C   UNL     1       3.977  -0.028  -0.884  1.00  0.00     0.045 A 
ATOM     24  C   UNL     1       5.404   1.222   1.161  1.00  0.00     0.041 A 
ATOM     25  C   UNL     1       5.373   0.041  -0.937  1.00  0.00     0.022 A 
ATOM     26  C   UNL     1       6.088   0.666   0.085  1.00  0.00     0.022 A 
ATOM     27  Cl  UNL     1       3.170  -0.796  -2.204  1.00  0.00    -0.084 Cl
ATOM     28  Cl  UNL     1       6.279   1.997   2.422  1.00  0.00    -0.084 Cl
ENDBRANCH  20  21
ENDBRANCH  17  20
ENDBRANCH   1  17
TORSDOF 5
