REMARK SMILES CN1CCN(c2cc3ncc(-c4ccc(CN5CCC(n6c(O)nc7ccccc76)CC5)cc4)nc3cn2)CC1
REMARK SMILES IDX 16 1 15 2 12 3 13 4 34 5 14 6 33 7 11 8 6 9 7 10 38 11 8 12
REMARK SMILES IDX 37 13 9 14 36 15 10 16 35 17 5 18 2 19 3 20 40 21 4 22 39 23
REMARK SMILES IDX 1 24 17 25 18 26 32 27 19 28 31 29 20 30 21 31 22 32 30 33
REMARK SMILES IDX 24 34 29 35 25 36 28 37 26 38 27 39 23 40
REMARK H PARENT 23 41
ROOT
ATOM      1  C   UNL     1      -3.168  -1.895   0.994  1.00  0.00     0.120 C 
ENDROOT
BRANCH   1   2
ATOM      2  C   UNL     1      -1.774  -1.320   0.857  1.00  0.00    -0.034 A 
ATOM      3  C   UNL     1       0.878  -0.315   0.617  1.00  0.00     0.002 A 
ATOM      4  C   UNL     1       0.262  -1.014  -0.436  1.00  0.00     0.011 A 
ATOM      5  C   UNL     1       0.131  -0.134   1.795  1.00  0.00     0.011 A 
ATOM      6  C   UNL     1      -1.043  -1.505  -0.322  1.00  0.00     0.006 A 
ATOM      7  C   UNL     1      -1.173  -0.630   1.915  1.00  0.00     0.006 A 
BRANCH   3   8
ATOM      8  C   UNL     1       2.259   0.180   0.484  1.00  0.00     0.089 A 
ATOM      9  C   UNL     1       7.077   0.597  -0.570  1.00  0.00     0.130 A 
ATOM     10  C   UNL     1       6.171   1.391   0.128  1.00  0.00     0.077 A 
ATOM     11  N   UNL     1       6.654  -0.533  -1.169  1.00  0.00    -0.237 NA
ATOM     12  C   UNL     1       4.841   1.019   0.258  1.00  0.00     0.094 A 
ATOM     13  C   UNL     1       5.349  -0.882  -1.037  1.00  0.00     0.144 A 
ATOM     14  N   UNL     1       3.993   1.798   0.959  1.00  0.00    -0.252 NA
ATOM     15  C   UNL     1       4.395  -0.170  -0.341  1.00  0.00     0.108 A 
ATOM     16  C   UNL     1       2.712   1.361   1.058  1.00  0.00     0.140 A 
ATOM     17  N   UNL     1       3.111  -0.591  -0.238  1.00  0.00    -0.243 NA
BRANCH   9  18
ATOM     18  N   UNL     1       8.410   0.966  -0.700  1.00  0.00    -0.354 N 
ATOM     19  N   UNL     1      11.380   0.746  -0.350  1.00  0.00    -0.303 NA
ATOM     20  C   UNL     1      10.418   0.795   0.773  1.00  0.00     0.105 C 
ATOM     21  C   UNL     1      10.680   0.655  -1.652  1.00  0.00     0.105 C 
ATOM     22  C   UNL     1       9.111   1.559   0.455  1.00  0.00     0.133 C 
ATOM     23  C   UNL     1       9.232   0.118  -1.581  1.00  0.00     0.133 C 
ATOM     24  C   UNL     1      12.319  -0.358  -0.167  1.00  0.00     0.105 C 
ENDBRANCH   9  18
ENDBRANCH   3   8
ENDBRANCH   1   2
BRANCH   1  25
ATOM     25  N   UNL     1      -4.127  -1.326   0.032  1.00  0.00    -0.299 NA
ATOM     26  C   UNL     1      -4.453   0.079   0.320  1.00  0.00     0.087 C 
ATOM     27  C   UNL     1      -5.299  -2.199  -0.098  1.00  0.00     0.087 C 
ATOM     28  C   UNL     1      -5.927   0.333   0.629  1.00  0.00     0.041 C 
ATOM     29  C   UNL     1      -6.355  -1.578  -1.009  1.00  0.00     0.041 C 
ATOM     30  C   UNL     1      -6.820  -0.205  -0.494  1.00  0.00     0.095 C 
BRANCH  30  31
ATOM     31  N   UNL     1      -8.227  -0.174  -0.114  1.00  0.00    -0.291 N 
ATOM     32  C   UNL     1      -8.843  -0.981   0.802  1.00  0.00     0.295 A 
ATOM     33  C   UNL     1      -9.188   0.695  -0.589  1.00  0.00     0.072 A 
ATOM     34  N   UNL     1     -10.111  -0.719   0.956  1.00  0.00    -0.195 NA
ATOM     35  C   UNL     1      -9.168   1.742  -1.520  1.00  0.00     0.029 A 
ATOM     36  C   UNL     1     -10.348   0.327   0.097  1.00  0.00     0.092 A 
ATOM     37  C   UNL     1     -10.372   2.420  -1.747  1.00  0.00     0.002 A 
ATOM     38  C   UNL     1     -11.544   1.019  -0.146  1.00  0.00     0.031 A 
ATOM     39  C   UNL     1     -11.542   2.067  -1.073  1.00  0.00     0.002 A 
BRANCH  32  40
ATOM     40  O   UNL     1      -8.248  -1.939   1.482  1.00  0.00    -0.480 OA
ATOM     41  H   UNL     1      -8.991  -2.284   2.012  1.00  0.00     0.296 HD
ENDBRANCH  32  40
ENDBRANCH  30  31
ENDBRANCH   1  25
TORSDOF 6
