MODEL        3USER    Run = 3USERUSER    Estimated Free Energy of Binding    = -12.42 kcal/mol  [=(1)+(2)+(3)-(4)]USERUSER    (1) Final Intermolecular Energy     = -14.21 kcal/molUSER        vdW + Hbond + desolv Energy     = -14.04 kcal/molUSER        Electrostatic Energy            =  -0.17 kcal/molUSER        Moving Ligand-Fixed Receptor    = -14.21 kcal/molUSER        Moving Ligand-Moving Receptor   =  +0.00 kcal/molUSER    (2) Final Total Internal Energy     =  -1.82 kcal/molUSER    (3) Torsional Free Energy           =  +1.79 kcal/molUSER    (4) Unbound System's Energy         =  -1.82 kcal/molUSERUSERREMARK SMILES CN1CCN(c2cc3ncc(-c4ccc(CN5CCC(n6c(O)nc7ccccc76)CC5)cc4)nc3cn2)CC1REMARK SMILES IDX 16 1 15 2 12 3 13 4 34 5 14 6 33 7 11 8 6 9 7 10 38 11 8 12REMARK SMILES IDX 37 13 9 14 36 15 10 16 35 17 5 18 2 19 3 20 40 21 4 22 39 23REMARK SMILES IDX 1 24 17 25 18 26 32 27 19 28 31 29 20 30 21 31 22 32 30 33REMARK SMILES IDX 24 34 29 35 25 36 28 37 26 38 27 39 23 40REMARK H PARENT 23 41USER                              x       y       z     vdW  Elec       q    TypeUSER                           _______ _______ _______ _____ _____    ______ ____ROOTATOM      1  C   UNL     1      35.278  45.628  14.580 -0.33 -0.08    +0.120 C  ENDROOTBRANCH   1   2ATOM      2  C   UNL     1      35.516  45.073  15.968 -0.31 +0.02    -0.034 A  ATOM      3  C   UNL     1      35.996  44.105  18.601 -0.34 -0.00    +0.002 A  ATOM      4  C   UNL     1      34.871  44.895  18.306 -0.36 -0.00    +0.011 A  ATOM      5  C   UNL     1      36.876  43.814  17.543 -0.20 -0.00    +0.011 A  ATOM      6  C   UNL     1      34.631  45.368  17.011 -0.33 -0.00    +0.006 A  ATOM      7  C   UNL     1      36.642  44.291  16.248 -0.35 -0.00    +0.006 A  BRANCH   3   8ATOM      8  C   UNL     1      36.241  43.629  19.974 -0.35 -0.01    +0.089 A  ATOM      9  C   UNL     1      37.759  43.241  24.669 -0.23 +0.00    +0.130 A  ATOM     10  C   UNL     1      37.083  42.388  23.801 -0.37 +0.00    +0.077 A  ATOM     11  N   UNL     1      38.083  44.486  24.267 -0.17 -0.02    -0.237 NA ATOM     12  C   UNL     1      36.772  42.778  22.507 -0.35 +0.01    +0.094 A  ATOM     13  C   UNL     1      37.769  44.855  22.999 -0.21 +0.02    +0.144 A  ATOM     14  N   UNL     1      36.137  41.921  21.683 -0.34 -0.01    -0.252 NA ATOM     15  C   UNL     1      37.128  44.064  22.069 -0.30 +0.01    +0.108 A  ATOM     16  C   UNL     1      35.882  42.366  20.426 -0.37 -0.00    +0.140 A  ATOM     17  N   UNL     1      36.862  44.497  20.813 -0.21 -0.00    -0.243 NA BRANCH   9  18ATOM     18  N   UNL     1      38.073  42.852  25.965 -0.07 +0.02    -0.354 N  ATOM     19  N   UNL     1      39.230  41.118  28.121 -0.25 -0.00    -0.303 NA ATOM     20  C   UNL     1      38.228  40.654  27.136 -0.30 -0.01    +0.105 C  ATOM     21  C   UNL     1      39.701  42.486  27.802 -0.26 -0.00    +0.105 C  ATOM     22  C   UNL     1      37.299  41.770  26.602 -0.38 -0.02    +0.133 C  ATOM     23  C   UNL     1      39.499  42.922  26.332 -0.18 -0.00    +0.133 C  ATOM     24  C   UNL     1      40.340  40.173  28.201 -0.23 -0.00    +0.105 C  ENDBRANCH   9  18ENDBRANCH   3   8ENDBRANCH   1   2BRANCH   1  25ATOM     25  N   UNL     1      36.274  46.636  14.180 -0.21 +0.19    -0.299 NA ATOM     26  C   UNL     1      37.491  46.038  13.610 -0.46 -0.03    +0.087 C  ATOM     27  C   UNL     1      36.525  47.571  15.282 -0.33 -0.08    +0.087 C  ATOM     28  C   UNL     1      38.767  46.338  14.394 -0.45 -0.01    +0.041 C  ATOM     29  C   UNL     1      37.632  48.562  14.928 -0.58 -0.03    +0.041 C  ATOM     30  C   UNL     1      38.949  47.848  14.579 -0.51 -0.03    +0.095 C  BRANCH  30  31ATOM     31  N   UNL     1      40.032  48.141  15.510 -0.30 +0.08    -0.291 N  ATOM     32  C   UNL     1      40.940  49.159  15.412 -0.37 -0.06    +0.295 A  ATOM     33  C   UNL     1      40.320  47.462  16.676 -0.47 -0.01    +0.072 A  ATOM     34  N   UNL     1      41.790  49.194  16.400 -0.90 -0.04    -0.195 NA ATOM     35  C   UNL     1      39.749  46.353  17.315 -0.44 -0.00    +0.029 A  ATOM     36  C   UNL     1      41.420  48.143  17.204 -0.42 -0.01    +0.092 A  ATOM     37  C   UNL     1      40.328  45.940  18.521 -0.47 -0.00    +0.002 A  ATOM     38  C   UNL     1      41.986  47.712  18.413 -0.47 -0.00    +0.031 A  ATOM     39  C   UNL     1      41.428  46.606  19.064 -0.49 +0.00    +0.002 A  BRANCH  32  40ATOM     40  O   UNL     1      40.984  50.037  14.432 -0.24 +0.18    -0.480 OA ATOM     41  H   UNL     1      40.441  50.759  14.801 -0.13 -0.21    +0.296 HD ENDBRANCH  32  40ENDBRANCH  30  31ENDBRANCH   1  25TORSDOF 6TERENDMDL