MODEL        4USER    Run = 4USERUSER    Estimated Free Energy of Binding    = -11.09 kcal/mol  [=(1)+(2)+(3)-(4)]USERUSER    (1) Final Intermolecular Energy     = -13.48 kcal/molUSER        vdW + Hbond + desolv Energy     = -13.09 kcal/molUSER        Electrostatic Energy            =  -0.39 kcal/molUSER        Moving Ligand-Fixed Receptor    = -13.48 kcal/molUSER        Moving Ligand-Moving Receptor   =  +0.00 kcal/molUSER    (2) Final Total Internal Energy     =  -1.03 kcal/molUSER    (3) Torsional Free Energy           =  +2.39 kcal/molUSER    (4) Unbound System's Energy         =  -1.03 kcal/molUSERUSERREMARK SMILES OCN1CCN(c2ccc3nc(-c4ccc(CN5CCC(n6c(O)nc7ncccc76)CC5)c(F)c4)cnc3c2)CC1REMARK SMILES IDX 13 1 14 2 15 3 16 4 34 5 35 6 36 7 12 8 7 9 8 10 40 11 9 12REMARK SMILES IDX 39 13 10 14 38 15 11 16 37 17 6 18 3 19 4 20 42 21 5 22REMARK SMILES IDX 41 23 2 24 1 25 17 27 18 28 19 29 33 30 20 31 32 32 21 33REMARK SMILES IDX 22 34 23 35 31 36 25 37 30 38 26 39 29 40 27 41 28 42 24 43REMARK H PARENT 1 26 24 44USER                              x       y       z     vdW  Elec       q    TypeUSER                           _______ _______ _______ _____ _____    ______ ____ROOTATOM      1  C   UNL     1      32.434  42.130  17.438 -0.34 -0.00    +0.005 A  ATOM      2  C   UNL     1      32.329  40.734  17.590 -0.34 -0.00    +0.011 A  ATOM      3  C   UNL     1      31.099  40.117  17.855 -0.38 -0.00    +0.009 A  ATOM      4  C   UNL     1      29.933  40.879  17.991 -0.22 -0.00    +0.002 A  ATOM      5  C   UNL     1      30.032  42.262  17.846 -0.06 -0.02    +0.128 A  ATOM      6  F   UNL     1      28.936  43.028  17.954 -0.02 +0.02    -0.207 F  ATOM      7  C   UNL     1      31.253  42.879  17.581 -0.25 -0.01    +0.050 A  ENDROOTBRANCH   1   8ATOM      8  C   UNL     1      33.717  42.800  17.144 -0.31 -0.03    +0.089 A  ATOM      9  C   UNL     1      37.292  46.211  16.393 -0.35 -0.02    +0.039 A  ATOM     10  C   UNL     1      36.110  46.875  16.736 -0.17 -0.03    +0.028 A  ATOM     11  C   UNL     1      37.216  44.810  16.333 -0.31 -0.02    +0.056 A  ATOM     12  C   UNL     1      34.927  46.178  17.010 -0.30 -0.03    +0.033 A  ATOM     13  C   UNL     1      36.049  44.095  16.600 -0.29 -0.03    +0.091 A  ATOM     14  C   UNL     1      34.876  44.796  16.948 -0.25 -0.05    +0.090 A  ATOM     15  N   UNL     1      36.054  42.752  16.518 -0.26 +0.09    -0.252 NA ATOM     16  N   UNL     1      33.719  44.156  17.217 -0.13 +0.10    -0.245 NA ATOM     17  C   UNL     1      34.881  42.128  16.789 -0.27 -0.06    +0.140 A  BRANCH   9  18ATOM     18  N   UNL     1      38.465  46.892  16.122 -0.15 +0.15    -0.369 N  ATOM     19  N   UNL     1      41.055  48.251  15.421 -0.35 +0.03    -0.278 NA ATOM     20  C   UNL     1      39.958  47.993  14.458 -0.39 -0.02    +0.108 C  ATOM     21  C   UNL     1      40.687  47.781  16.776 -0.53 -0.02    +0.108 C  ATOM     22  C   UNL     1      38.535  47.910  15.059 -0.47 -0.06    +0.132 C  ATOM     23  C   UNL     1      39.733  46.563  16.794 -0.43 -0.03    +0.132 C  BRANCH  19  24ATOM     24  C   UNL     1      41.411  49.657  15.469 -0.50 -0.03    +0.243 C  BRANCH  24  25ATOM     25  O   UNL     1      41.769  49.988  16.793 -0.83 -0.05    -0.381 OA ATOM     26  H   UNL     1      41.568  50.939  16.841 -0.45 -0.07    +0.212 HD ENDBRANCH  24  25ENDBRANCH  19  24ENDBRANCH   9  18ENDBRANCH   1   8BRANCH   4  27ATOM     27  C   UNL     1      28.592  40.230  18.237 -0.20 +0.01    +0.123 C  BRANCH  27  28ATOM     28  N   UNL     1      27.895  39.819  17.004 -0.10 -0.09    -0.299 NA ATOM     29  C   UNL     1      26.429  39.875  17.109 -0.30 +0.02    +0.087 C  ATOM     30  C   UNL     1      28.370  40.571  15.834 -0.34 -0.01    +0.087 C  ATOM     31  C   UNL     1      25.855  41.292  17.119 -0.29 -0.00    +0.041 C  ATOM     32  C   UNL     1      27.891  42.022  15.795 -0.28 -0.02    +0.041 C  ATOM     33  C   UNL     1      26.364  42.085  15.910 -0.27 -0.03    +0.095 C  BRANCH  33  34ATOM     34  N   UNL     1      25.860  43.450  15.867 -0.14 +0.06    -0.289 N  ATOM     35  C   UNL     1      25.831  44.307  16.935 -0.20 +0.00    +0.296 A  ATOM     36  C   UNL     1      25.303  44.126  14.805 -0.28 -0.02    +0.091 A  ATOM     37  N   UNL     1      25.307  45.468  16.661 -0.69 -0.08    -0.175 NA ATOM     38  C   UNL     1      25.041  43.823  13.467 -0.30 -0.00    +0.032 A  ATOM     39  C   UNL     1      24.972  45.374  15.338 -0.17 +0.04    +0.181 A  ATOM     40  C   UNL     1      24.441  44.838  12.724 -0.23 +0.01    +0.022 A  ATOM     41  N   UNL     1      24.386  46.361  14.625 -0.72 -0.07    -0.235 NA ATOM     42  C   UNL     1      24.144  46.051  13.335 -0.19 +0.00    +0.114 A  BRANCH  35  43ATOM     43  O   UNL     1      26.273  44.014  18.141 -0.13 +0.04    -0.480 OA ATOM     44  H   UNL     1      25.506  44.258  18.693 +0.10 -0.05    +0.296 HD ENDBRANCH  35  43ENDBRANCH  33  34ENDBRANCH  27  28ENDBRANCH   4  27TORSDOF 8TERENDMDL