MODEL        1USER    Run = 1USERUSER    Estimated Free Energy of Binding    = -11.55 kcal/mol  [=(1)+(2)+(3)-(4)]USERUSER    (1) Final Intermolecular Energy     = -13.34 kcal/molUSER        vdW + Hbond + desolv Energy     = -13.15 kcal/molUSER        Electrostatic Energy            =  -0.19 kcal/molUSER        Moving Ligand-Fixed Receptor    = -13.34 kcal/molUSER        Moving Ligand-Moving Receptor   =  +0.00 kcal/molUSER    (2) Final Total Internal Energy     =  -0.96 kcal/molUSER    (3) Torsional Free Energy           =  +1.79 kcal/molUSER    (4) Unbound System's Energy         =  -0.96 kcal/molUSERUSERREMARK SMILES CC(=O)Nc1ccc2nc(-c3ccc(CN4CCC(n5c(O)nc6ccccc65)CC4)c(F)c3)cnc2c1REMARK SMILES IDX 15 1 14 2 11 3 12 4 34 5 13 6 32 7 33 8 10 9 5 10 6 11 38 12REMARK SMILES IDX 7 13 37 14 8 15 36 16 9 17 35 18 4 19 2 20 1 21 3 22 16 24REMARK SMILES IDX 17 25 31 26 18 27 30 28 19 29 20 30 21 31 29 32 23 33 28 34REMARK SMILES IDX 24 35 27 36 25 37 26 38 22 39REMARK H PARENT 4 23 22 40USER                              x       y       z     vdW  Elec       q    TypeUSER                           _______ _______ _______ _____ _____    ______ ____ROOTATOM      1  C   UNL     1      37.653  42.179  22.606 -0.41 +0.01    +0.123 C  ENDROOTBRANCH   1   2ATOM      2  C   UNL     1      38.254  43.208  21.676 -0.26 +0.00    +0.002 A  ATOM      3  C   UNL     1      39.374  45.111  19.881 -0.38 -0.00    +0.005 A  ATOM      4  C   UNL     1      40.056  44.714  21.047 -0.32 +0.00    +0.011 A  ATOM      5  C   UNL     1      38.120  44.525  19.637 -0.33 -0.00    +0.050 A  ATOM      6  C   UNL     1      39.507  43.776  21.931 -0.25 +0.00    +0.009 A  ATOM      7  C   UNL     1      37.575  43.597  20.521 -0.26 -0.00    +0.128 A  ATOM      8  F   UNL     1      36.364  43.089  20.250 -0.09 +0.01    -0.207 F  BRANCH   3   9ATOM      9  C   UNL     1      39.937  46.092  18.937 -0.35 -0.01    +0.089 A  ATOM     10  C   UNL     1      40.640  49.137  15.082 -0.59 -0.01    +0.043 A  ATOM     11  C   UNL     1      39.400  48.533  14.904 -0.52 -0.01    +0.028 A  ATOM     12  C   UNL     1      41.389  48.805  16.216 -0.40 -0.00    +0.056 A  ATOM     13  C   UNL     1      38.925  47.616  15.848 -0.45 -0.01    +0.033 A  ATOM     14  C   UNL     1      40.928  47.892  17.159 -0.45 -0.01    +0.091 A  ATOM     15  C   UNL     1      39.666  47.283  16.972 -0.40 -0.02    +0.090 A  ATOM     16  N   UNL     1      41.687  47.605  18.232 -0.39 +0.01    -0.252 NA ATOM     17  N   UNL     1      39.174  46.394  17.858 -0.27 +0.05    -0.245 NA ATOM     18  C   UNL     1      41.173  46.706  19.107 -0.32 +0.00    +0.140 A  BRANCH  10  19ATOM     19  N   UNL     1      41.198  50.075  14.189 -0.29 +0.11    -0.326 N  ATOM     20  C   UNL     1      42.223  49.867  13.283 -0.47 -0.05    +0.221 C  ATOM     21  C   UNL     1      42.539  51.107  12.485 -0.49 -0.05    +0.114 C  ATOM     22  O   UNL     1      42.860  48.833  13.117 -0.32 +0.01    -0.275 OA ATOM     23  H   UNL     1      40.819  51.014  14.236 -0.15 -0.10    +0.169 HD ENDBRANCH  10  19ENDBRANCH   3   9ENDBRANCH   1   2BRANCH   1  24ATOM     24  N   UNL     1      36.661  42.738  23.533 -0.21 -0.03    -0.299 NA ATOM     25  C   UNL     1      36.422  41.897  24.711 -0.35 -0.01    +0.087 C  ATOM     26  C   UNL     1      36.899  44.154  23.835 -0.19 +0.01    +0.087 C  ATOM     27  C   UNL     1      35.849  42.686  25.885 -0.37 -0.00    +0.041 C  ATOM     28  C   UNL     1      37.610  44.392  25.166 -0.32 +0.00    +0.041 C  ATOM     29  C   UNL     1      36.864  43.739  26.345 -0.35 -0.01    +0.095 C  BRANCH  29  30ATOM     30  N   UNL     1      36.266  44.680  27.283 -0.22 +0.07    -0.291 N  ATOM     31  C   UNL     1      35.300  44.419  28.213 -0.31 -0.08    +0.295 A  ATOM     32  C   UNL     1      36.614  46.010  27.434 -0.22 -0.02    +0.072 A  ATOM     33  N   UNL     1      34.978  45.457  28.934 -0.37 +0.05    -0.195 NA ATOM     34  C   UNL     1      37.545  46.843  26.798 -0.31 -0.00    +0.029 A  ATOM     35  C   UNL     1      35.789  46.462  28.466 -0.28 -0.03    +0.092 A  ATOM     36  C   UNL     1      37.621  48.171  27.237 -0.29 -0.00    +0.002 A  ATOM     37  C   UNL     1      35.879  47.797  28.888 -0.32 -0.01    +0.031 A  ATOM     38  C   UNL     1      36.803  48.643  28.263 -0.24 -0.00    +0.002 A  BRANCH  31  39ATOM     39  O   UNL     1      34.728  43.247  28.398 -0.29 +0.16    -0.480 OA ATOM     40  H   UNL     1      34.985  43.052  29.317 -0.32 -0.21    +0.296 HD ENDBRANCH  31  39ENDBRANCH  29  30ENDBRANCH   1  24TORSDOF 6TERENDMDL