MODEL        10USER    Run = 10USERUSER    Estimated Free Energy of Binding    =  -6.74 kcal/mol  [=(1)+(2)+(3)-(4)]USERUSER    (1) Final Intermolecular Energy     = -11.22 kcal/molUSER        vdW + Hbond + desolv Energy     = -12.44 kcal/molUSER        Electrostatic Energy            =  -0.04 kcal/molUSER        Moving Ligand-Fixed Receptor    = -12.48 kcal/molUSER        Moving Ligand-Moving Receptor   =  +1.26 kcal/molUSER    (2) Final Total Internal Energy     =  -2.93 kcal/molUSER    (3) Torsional Free Energy           =  +4.47 kcal/molUSER    (4) Unbound System's Energy         =  -2.93 kcal/molUSERUSERREMARK SMILES COc1ccc(O)c(C(=O)c2ccc(C(=O)N[C@@H]3CCCN([C@H]4C[C@@H]4F)C[C@H]3NC(=O)c3cnn(C)c3)cc2)c1FREMARK SMILES IDX 15 1 16 2 17 3 14 5 11 6 12 7 39 8 13 9 38 10 9 11 10 12REMARK SMILES IDX 8 13 3 14 4 15 40 16 5 17 6 18 41 19 2 20 1 21 7 22 18 24REMARK SMILES IDX 19 25 28 27 27 28 22 29 21 30 20 31 23 33 24 34 25 35 26 36REMARK SMILES IDX 29 37 30 38 31 40 32 41 33 42 37 43 34 44 35 45 36 46REMARK H PARENT 17 4 7 23 29 39REMARK Flexibility Score:   72.900USER                              x       y       z     vdW  Elec       q    TypeUSER                           _______ _______ _______ _____ _____    ______ ____ROOTATOM      1  C   UNL     1      37.500  44.337  20.092 -0.26 -0.01    +0.251 C  ATOM      2  O   UNL     1      36.439  44.656  19.566 -0.26 +0.03    -0.269 OA ATOM      3  N   UNL     1      38.723  44.477  19.467 -0.15 +0.02    -0.347 N  ATOM      4  H   UNL     1      39.571  44.226  19.957 +0.10 -0.00    +0.164 HD ENDROOTBRANCH   1   5ATOM      5  C   UNL     1      37.511  43.775  21.466 -0.36 +0.00    +0.039 A  ATOM      6  C   UNL     1      37.408  42.709  24.054 -0.37 +0.00    +0.023 A  ATOM      7  C   UNL     1      38.270  43.774  23.766 -0.28 +0.00    +0.013 A  ATOM      8  C   UNL     1      36.574  42.195  23.053 -0.45 +0.00    +0.013 A  ATOM      9  C   UNL     1      38.326  44.306  22.474 -0.33 +0.00    +0.014 A  ATOM     10  C   UNL     1      36.628  42.730  21.763 -0.44 +0.00    +0.014 A  BRANCH   6  11ATOM     11  C   UNL     1      37.343  42.213  25.449 -0.29 -0.01    +0.199 C  ATOM     12  O   UNL     1      38.039  41.250  25.775 -0.14 +0.01    -0.288 OA BRANCH  11  13ATOM     13  C   UNL     1      36.524  42.855  26.497 -0.34 -0.01    +0.104 A  ATOM     14  C   UNL     1      35.973  44.763  27.909 -0.33 -0.04    +0.155 A  ATOM     15  C   UNL     1      34.934  44.030  28.487 -0.55 -0.02    +0.053 A  ATOM     16  C   UNL     1      36.761  44.164  26.916 -0.26 -0.03    +0.179 A  ATOM     17  C   UNL     1      34.673  42.726  28.057 -0.47 -0.02    +0.051 A  ATOM     18  C   UNL     1      35.454  42.151  27.058 -0.46 -0.03    +0.130 A  ATOM     19  F   UNL     1      37.739  44.887  26.344 -0.04 +0.01    -0.202 F  BRANCH  14  20ATOM     20  O   UNL     1      36.308  46.050  28.233 -0.17 +0.13    -0.494 OA ATOM     21  C   UNL     1      35.313  46.838  28.871 -0.27 -0.06    +0.278 C  ENDBRANCH  14  20BRANCH  18  22ATOM     22  O   UNL     1      35.117  40.882  26.672 -0.26 +0.23    -0.507 OA ATOM     23  H   UNL     1      35.908  40.474  26.253 -0.25 -0.18    +0.293 HD ENDBRANCH  18  22ENDBRANCH  11  13ENDBRANCH   6  11ENDBRANCH   1   5BRANCH   3  24ATOM     24  C   UNL     1      38.842  45.164  18.172 -0.39 -0.01    +0.106 C  BRANCH  24  25ATOM     25  C   UNL     1      38.081  44.391  17.090 -0.29 -0.01    +0.028 CG0ATOM     26  G   UNL     1      37.469  45.259  15.976 +0.00 +0.00    +0.000 G0 ENDBRANCH  24  25BRANCH  24  27ATOM     27  C   UNL     1      40.341  45.400  17.822 -0.38 -0.01    +0.118 C  BRANCH  27  28ATOM     28  C   UNL     1      40.576  46.163  16.491 -0.36 -0.01    +0.112 C  BRANCH  28  29ATOM     29  N   UNL     1      39.435  46.924  15.955 -0.22 +0.08    -0.295 NA BRANCH  29  30ATOM     30  C   UNL     1      38.455  46.146  15.187 -0.40 -0.03    +0.085 C  BRANCH  30  31ATOM     31  C   UNL     1      37.476  45.273  15.982 -0.40 -0.01    +0.018 CG0ATOM     32  G   UNL     1      38.073  44.390  17.093 +0.00 +0.00    +0.000 G0 ENDBRANCH  30  31ENDBRANCH  29  30BRANCH  29  33ATOM     33  C   UNL     1      39.896  48.120  15.211 -0.55 -0.03    +0.094 C  ATOM     34  C   UNL     1      39.905  49.451  15.920 -0.43 -0.03    +0.061 C  ATOM     35  C   UNL     1      41.194  48.788  15.567 -0.46 -0.02    +0.185 C  ATOM     36  F   UNL     1      41.925  49.337  14.530 -0.14 +0.01    -0.246 F  ENDBRANCH  29  33ENDBRANCH  28  29ENDBRANCH  27  28BRANCH  27  37ATOM     37  N   UNL     1      41.031  46.024  18.954 -0.23 -0.01    -0.346 N  ATOM     38  C   UNL     1      41.410  45.320  20.072 -0.27 +0.03    +0.254 C  ATOM     39  H   UNL     1      40.974  47.037  19.027 +0.09 -0.00    +0.164 HD ATOM     40  O   UNL     1      41.262  44.106  20.175 -0.27 -0.03    -0.269 OA BRANCH  38  41ATOM     41  C   UNL     1      41.996  46.114  21.136 -0.29 +0.01    +0.077 A  ATOM     42  C   UNL     1      42.632  47.371  21.001 -0.13 +0.02    +0.149 A  ATOM     43  C   UNL     1      42.074  45.857  22.493 -0.16 +0.02    +0.122 A  ATOM     44  N   UNL     1      43.051  47.873  22.166 -0.30 -0.03    -0.181 NA ATOM     45  N   UNL     1      42.701  46.931  23.056 -0.11 -0.05    -0.275 N  ATOM     46  C   UNL     1      42.981  47.136  24.457 -0.12 +0.02    +0.173 C  ENDBRANCH  38  41ENDBRANCH  27  37ENDBRANCH  24  27ENDBRANCH   3  24TORSDOF 9TERENDMDL