REMARK SMILES OCN1CCN(c2ccc3nc(-c4ccc(CN5CCC(n6c(O)nc7ncccc76)CC5)c(F)c4)cnc3c2)CC1
REMARK SMILES IDX 13 1 14 2 15 3 16 4 34 5 35 6 36 7 12 8 7 9 8 10 40 11 9 12
REMARK SMILES IDX 39 13 10 14 38 15 11 16 37 17 6 18 3 19 4 20 42 21 5 22
REMARK SMILES IDX 41 23 2 24 1 25 17 27 18 28 19 29 33 30 20 31 32 32 21 33
REMARK SMILES IDX 22 34 23 35 31 36 25 37 30 38 26 39 29 40 27 41 28 42 24 43
REMARK H PARENT 1 26 24 44
ROOT
ATOM      1  C   UNL     1      -0.096  -0.884  -1.194  1.00  0.00     0.005 A 
ATOM      2  C   UNL     1       0.509  -0.857  -2.465  1.00  0.00     0.011 A 
ATOM      3  C   UNL     1       1.898  -0.964  -2.618  1.00  0.00     0.009 A 
ATOM      4  C   UNL     1       2.731  -1.088  -1.500  1.00  0.00     0.002 A 
ATOM      5  C   UNL     1       2.138  -1.111  -0.238  1.00  0.00     0.128 A 
ATOM      6  F   UNL     1       2.899  -1.244   0.858  1.00  0.00    -0.207 F 
ATOM      7  C   UNL     1       0.757  -1.006  -0.083  1.00  0.00     0.050 A 
ENDROOT
BRANCH   1   8
ATOM      8  C   UNL     1      -1.558  -0.787  -1.011  1.00  0.00     0.089 A 
ATOM      9  C   UNL     1      -6.120   0.025   0.863  1.00  0.00     0.039 A 
ATOM     10  C   UNL     1      -5.173   0.400   1.822  1.00  0.00     0.028 A 
ATOM     11  C   UNL     1      -5.608  -0.475  -0.345  1.00  0.00     0.056 A 
ATOM     12  C   UNL     1      -3.798   0.289   1.581  1.00  0.00     0.033 A 
ATOM     13  C   UNL     1      -4.244  -0.596  -0.606  1.00  0.00     0.091 A 
ATOM     14  C   UNL     1      -3.316  -0.204   0.381  1.00  0.00     0.090 A 
ATOM     15  N   UNL     1      -3.830  -1.089  -1.788  1.00  0.00    -0.252 NA
ATOM     16  N   UNL     1      -1.985  -0.299   0.182  1.00  0.00    -0.245 NA
ATOM     17  C   UNL     1      -2.489  -1.179  -1.966  1.00  0.00     0.140 A 
BRANCH   9  18
ATOM     18  N   UNL     1      -7.480   0.132   1.092  1.00  0.00    -0.369 N 
ATOM     19  N   UNL     1     -10.419   0.532   1.587  1.00  0.00    -0.278 NA
ATOM     20  C   UNL     1      -9.702   1.007   0.380  1.00  0.00     0.108 C 
ATOM     21  C   UNL     1      -9.500  -0.194   2.494  1.00  0.00     0.108 C 
ATOM     22  C   UNL     1      -8.444   0.201  -0.021  1.00  0.00     0.132 C 
ATOM     23  C   UNL     1      -8.034   0.297   2.446  1.00  0.00     0.132 C 
BRANCH  19  24
ATOM     24  C   UNL     1     -11.545  -0.318   1.246  1.00  0.00     0.243 C 
BRANCH  24  25
ATOM     25  O   UNL     1     -12.545   0.476   0.644  1.00  0.00    -0.381 OA
ATOM     26  H   UNL     1     -12.454   1.327   1.108  1.00  0.00     0.212 HD
ENDBRANCH  24  25
ENDBRANCH  19  24
ENDBRANCH   9  18
ENDBRANCH   1   8
BRANCH   4  27
ATOM     27  C   UNL     1       4.226  -1.245  -1.645  1.00  0.00     0.123 C 
BRANCH  27  28
ATOM     28  N   UNL     1       4.844  -0.250  -2.541  1.00  0.00    -0.299 NA
ATOM     29  C   UNL     1       4.797   1.124  -2.018  1.00  0.00     0.087 C 
ATOM     30  C   UNL     1       6.215  -0.627  -2.912  1.00  0.00     0.087 C 
ATOM     31  C   UNL     1       5.753   1.384  -0.853  1.00  0.00     0.041 C 
ATOM     32  C   UNL     1       7.230  -0.456  -1.782  1.00  0.00     0.041 C 
ATOM     33  C   UNL     1       7.180   0.973  -1.230  1.00  0.00     0.095 C 
BRANCH  33  34
ATOM     34  N   UNL     1       8.140   1.187  -0.157  1.00  0.00    -0.289 N 
ATOM     35  C   UNL     1       9.228   2.016  -0.235  1.00  0.00     0.296 A 
ATOM     36  C   UNL     1       8.177   0.607   1.091  1.00  0.00     0.091 A 
ATOM     37  N   UNL     1       9.961   2.022   0.843  1.00  0.00    -0.175 NA
ATOM     38  C   UNL     1       7.380  -0.311   1.779  1.00  0.00     0.032 A 
ATOM     39  C   UNL     1       9.322   1.150   1.680  1.00  0.00     0.181 A 
ATOM     40  C   UNL     1       7.804  -0.632   3.067  1.00  0.00     0.022 A 
ATOM     41  N   UNL     1       9.741   0.839   2.927  1.00  0.00    -0.235 NA
ATOM     42  C   UNL     1       8.957  -0.046   3.576  1.00  0.00     0.114 A 
BRANCH  35  43
ATOM     43  O   UNL     1       9.539   2.745  -1.288  1.00  0.00    -0.480 OA
ATOM     44  H   UNL     1      10.354   3.187  -0.983  1.00  0.00     0.296 HD
ENDBRANCH  35  43
ENDBRANCH  33  34
ENDBRANCH  27  28
ENDBRANCH   4  27
TORSDOF 8
