MODEL        6USER    Run = 6USERUSER    Estimated Free Energy of Binding    = -10.22 kcal/mol  [=(1)+(2)+(3)-(4)]USERUSER    (1) Final Intermolecular Energy     = -11.41 kcal/molUSER        vdW + Hbond + desolv Energy     = -10.82 kcal/molUSER        Electrostatic Energy            =  -0.59 kcal/molUSER        Moving Ligand-Fixed Receptor    = -11.41 kcal/molUSER        Moving Ligand-Moving Receptor   =  +0.00 kcal/molUSER    (2) Final Total Internal Energy     =  -0.49 kcal/molUSER    (3) Torsional Free Energy           =  +1.19 kcal/molUSER    (4) Unbound System's Energy         =  -0.49 kcal/molUSERUSERREMARK SMILES Cn1cc(-c2ccc(C(=O)N3CCC(n4c(O)nc5ccccc54)CC3)cc2)cn1REMARK SMILES IDX 9 1 10 2 11 3 12 4 13 5 14 6 25 7 26 8 8 9 5 10 6 11 28 12REMARK SMILES IDX 7 13 27 14 4 15 2 16 3 17 30 18 29 19 1 20 15 21 16 22 24 23REMARK SMILES IDX 18 24 23 25 19 26 22 27 20 28 21 29 17 30REMARK H PARENT 17 31USER                              x       y       z     vdW  Elec       q    TypeUSER                           _______ _______ _______ _____ _____    ______ ____ROOTATOM      1  C   UNL     1      37.144  44.688  16.438 -0.23 -0.08    +0.253 C  ATOM      2  O   UNL     1      37.566  43.807  17.181 -0.16 +0.06    -0.269 OA ATOM      3  N   UNL     1      35.849  44.720  15.919 -0.11 +0.16    -0.338 N  ATOM      4  C   UNL     1      35.271  45.894  15.263 -0.33 -0.10    +0.122 C  ATOM      5  C   UNL     1      33.776  45.751  14.997 -0.22 -0.05    +0.047 C  ATOM      6  C   UNL     1      33.034  45.302  16.266 -0.30 -0.07    +0.096 C  ATOM      7  C   UNL     1      33.729  44.140  17.003 -0.33 -0.02    +0.047 C  ATOM      8  C   UNL     1      34.939  43.621  16.235 -0.35 -0.05    +0.122 C  ENDROOTBRANCH   1   9ATOM      9  C   UNL     1      38.067  45.792  16.101 -0.34 -0.01    +0.040 A  ATOM     10  C   UNL     1      39.863  47.863  15.502 -0.53 +0.00    -0.015 A  ATOM     11  C   UNL     1      39.577  47.529  16.835 -0.45 -0.00    +0.009 A  ATOM     12  C   UNL     1      39.250  47.130  14.474 -0.45 -0.00    +0.009 A  ATOM     13  C   UNL     1      38.689  46.493  17.136 -0.40 -0.00    +0.014 A  ATOM     14  C   UNL     1      38.360  46.093  14.769 -0.40 -0.00    +0.014 A  BRANCH  10  15ATOM     15  C   UNL     1      40.790  48.935  15.178 -0.61 -0.00    +0.020 A  ATOM     16  N   UNL     1      42.162  50.250  14.071 -0.47 +0.06    -0.275 N  ATOM     17  C   UNL     1      41.346  49.163  13.935 -0.21 -0.02    +0.117 A  ATOM     18  N   UNL     1      42.186  50.748  15.320 -0.66 +0.02    -0.181 NA ATOM     19  C   UNL     1      41.351  49.950  15.990 -0.42 -0.02    +0.143 A  ATOM     20  C   UNL     1      42.960  50.872  13.044 -0.52 -0.07    +0.173 C  ENDBRANCH  10  15ENDBRANCH   1   9BRANCH   6  21ATOM     21  N   UNL     1      31.628  45.034  15.988 -0.17 +0.13    -0.291 N  ATOM     22  C   UNL     1      30.690  45.952  15.603 -0.21 -0.10    +0.295 A  ATOM     23  C   UNL     1      30.984  43.818  16.080 -0.28 -0.03    +0.072 A  ATOM     24  N   UNL     1      29.503  45.439  15.436 -0.25 +0.08    -0.195 NA ATOM     25  C   UNL     1      31.403  42.526  16.425 -0.29 -0.01    +0.029 A  ATOM     26  C   UNL     1      29.663  44.107  15.728 -0.24 -0.05    +0.092 A  ATOM     27  C   UNL     1      30.437  41.513  16.405 -0.34 -0.00    +0.002 A  ATOM     28  C   UNL     1      28.712  43.076  15.714 -0.21 -0.02    +0.031 A  ATOM     29  C   UNL     1      29.113  41.780  16.056 -0.32 -0.00    +0.002 A  BRANCH  22  30ATOM     30  O   UNL     1      30.930  47.232  15.408 -0.71 +0.19    -0.480 OA ATOM     31  H   UNL     1      31.904  47.237  15.360 -0.33 -0.56    +0.296 HD ENDBRANCH  22  30ENDBRANCH   6  21TORSDOF 4TERENDMDL