MODEL        7USER    Run = 7USERUSER    Estimated Free Energy of Binding    = -10.27 kcal/mol  [=(1)+(2)+(3)-(4)]USERUSER    (1) Final Intermolecular Energy     = -11.46 kcal/molUSER        vdW + Hbond + desolv Energy     = -11.39 kcal/molUSER        Electrostatic Energy            =  -0.07 kcal/molUSER        Moving Ligand-Fixed Receptor    = -11.46 kcal/molUSER        Moving Ligand-Moving Receptor   =  +0.00 kcal/molUSER    (2) Final Total Internal Energy     =  -0.63 kcal/molUSER    (3) Torsional Free Energy           =  +1.19 kcal/molUSER    (4) Unbound System's Energy         =  -0.63 kcal/molUSERUSERREMARK SMILES O=C(c1ccc(-c2ncnc3[nH]ccc23)cc1)N1CCC(n2c(O)nc3cc(F)ccc32)CC1REMARK SMILES IDX 1 1 2 2 18 3 19 4 20 5 21 6 33 7 34 8 3 9 4 10 17 11 5 12REMARK SMILES IDX 16 13 6 14 7 15 8 16 15 17 9 18 14 19 11 20 10 21 13 22REMARK SMILES IDX 12 23 22 25 23 26 32 27 25 28 31 29 26 30 30 31 27 32 28 33REMARK SMILES IDX 29 34 24 35REMARK H PARENT 12 24 24 36USER                              x       y       z     vdW  Elec       q    TypeUSER                           _______ _______ _______ _____ _____    ______ ____ROOTATOM      1  O   UNL     1      41.372  42.662  22.096 -0.31 +0.00    -0.269 OA ATOM      2  C   UNL     1      40.329  43.283  21.915 -0.04 +0.01    +0.253 C  ATOM      3  N   UNL     1      40.054  44.032  20.769 -0.08 -0.01    -0.338 N  ATOM      4  C   UNL     1      38.945  44.982  20.673 -0.34 +0.00    +0.122 C  ATOM      5  C   UNL     1      39.009  45.846  19.419 -0.31 -0.00    +0.047 C  ATOM      6  C   UNL     1      40.403  46.472  19.253 -0.22 -0.00    +0.096 C  ATOM      7  C   UNL     1      41.555  45.469  19.473 -0.42 +0.01    +0.047 C  ATOM      8  C   UNL     1      41.041  44.052  19.691 -0.24 +0.01    +0.122 C  ENDROOTBRANCH   2   9ATOM      9  C   UNL     1      39.322  43.251  22.997 -0.25 +0.00    +0.040 A  ATOM     10  C   UNL     1      39.620  43.867  24.213 -0.18 +0.00    +0.014 A  ATOM     11  C   UNL     1      38.114  42.575  22.826 -0.36 +0.00    +0.014 A  ATOM     12  C   UNL     1      38.684  43.837  25.252 -0.19 +0.00    +0.011 A  ATOM     13  C   UNL     1      37.183  42.551  23.870 -0.40 +0.00    +0.011 A  ATOM     14  C   UNL     1      37.452  43.175  25.104 -0.33 +0.00    +0.001 A  BRANCH  14  15ATOM     15  C   UNL     1      36.456  43.139  26.178 -0.34 -0.01    +0.083 A  ATOM     16  N   UNL     1      35.709  42.008  26.305 -0.31 +0.05    -0.236 NA ATOM     17  C   UNL     1      36.253  44.192  27.082 -0.39 -0.01    +0.045 A  ATOM     18  C   UNL     1      34.781  41.964  27.280 -0.38 -0.07    +0.224 A  ATOM     19  C   UNL     1      36.811  45.478  27.345 -0.34 -0.01    +0.032 A  ATOM     20  C   UNL     1      35.262  43.995  28.034 -0.46 -0.04    +0.141 A  ATOM     21  N   UNL     1      34.487  42.911  28.185 -0.37 +0.06    -0.219 NA ATOM     22  C   UNL     1      36.136  46.020  28.420 -0.28 -0.02    +0.085 A  ATOM     23  N   UNL     1      35.197  45.108  28.826 -0.28 +0.09    -0.346 N  ATOM     24  H   UNL     1      34.553  45.212  29.597 +0.03 -0.04    +0.167 HD ENDBRANCH  14  15ENDBRANCH   2   9BRANCH   6  25ATOM     25  N   UNL     1      40.515  47.192  17.989 -0.29 +0.04    -0.291 N  ATOM     26  C   UNL     1      41.552  47.996  17.606 -0.21 -0.02    +0.295 A  ATOM     27  C   UNL     1      39.609  47.180  16.949 -0.42 -0.02    +0.072 A  ATOM     28  N   UNL     1      41.398  48.506  16.416 -0.85 +0.01    -0.195 NA ATOM     29  C   UNL     1      38.375  46.547  16.749 -0.38 -0.01    +0.032 A  ATOM     30  C   UNL     1      40.191  48.011  15.985 -0.48 -0.02    +0.095 A  ATOM     31  C   UNL     1      37.732  46.780  15.529 -0.38 -0.02    +0.041 A  ATOM     32  C   UNL     1      39.532  48.232  14.769 -0.48 -0.02    +0.070 A  ATOM     33  C   UNL     1      38.304  47.606  14.566 -0.40 -0.05    +0.125 A  ATOM     34  F   UNL     1      37.655  47.803  13.411 -0.16 +0.07    -0.207 F  BRANCH  26  35ATOM     35  O   UNL     1      42.612  48.254  18.343 -0.30 -0.01    -0.480 OA ATOM     36  H   UNL     1      43.272  47.654  17.946 -0.28 -0.02    +0.296 HD ENDBRANCH  26  35ENDBRANCH   6  25TORSDOF 4TERENDMDL