REMARK SMILES Cn1cc(-c2ccc(C(=O)N3CCC(n4c(O)nc5ccccc54)CC3)cc2)c(C#N)n1
REMARK SMILES IDX 9 1 10 2 11 3 12 4 13 5 14 6 25 7 26 8 8 9 5 10 6 11 28 12
REMARK SMILES IDX 7 13 27 14 4 15 2 16 3 17 32 18 29 19 1 20 30 21 31 22 15 23
REMARK SMILES IDX 16 24 24 25 18 26 23 27 19 28 22 29 20 30 21 31 17 32
REMARK H PARENT 17 33
ROOT
ATOM      1  C   UNL     1       0.820   0.377  -2.237  1.00  0.00     0.253 C 
ATOM      2  O   UNL     1       0.969   0.616  -3.433  1.00  0.00    -0.269 OA
ATOM      3  N   UNL     1      -0.432   0.322  -1.608  1.00  0.00    -0.338 N 
ATOM      4  C   UNL     1      -0.685  -0.602  -0.499  1.00  0.00     0.122 C 
ATOM      5  C   UNL     1      -1.854  -0.143   0.363  1.00  0.00     0.047 C 
ATOM      6  C   UNL     1      -3.093   0.110  -0.505  1.00  0.00     0.096 C 
ATOM      7  C   UNL     1      -2.777   1.106  -1.627  1.00  0.00     0.047 C 
ATOM      8  C   UNL     1      -1.587   0.627  -2.449  1.00  0.00     0.122 C 
ENDROOT
BRANCH   1   9
ATOM      9  C   UNL     1       2.037   0.172  -1.420  1.00  0.00     0.040 A 
ATOM     10  C   UNL     1       4.386  -0.187   0.066  1.00  0.00    -0.014 A 
ATOM     11  C   UNL     1       4.184  -0.901  -1.124  1.00  0.00     0.010 A 
ATOM     12  C   UNL     1       3.408   0.723   0.495  1.00  0.00     0.010 A 
ATOM     13  C   UNL     1       3.017  -0.716  -1.870  1.00  0.00     0.014 A 
ATOM     14  C   UNL     1       2.239   0.907  -0.247  1.00  0.00     0.014 A 
BRANCH  10  15
ATOM     15  C   UNL     1       5.596  -0.384   0.842  1.00  0.00     0.038 A 
ATOM     16  N   UNL     1       7.416   0.055   1.991  1.00  0.00    -0.274 N 
ATOM     17  C   UNL     1       6.372   0.644   1.339  1.00  0.00     0.118 A 
ATOM     18  N   UNL     1       7.376  -1.290   1.967  1.00  0.00    -0.162 NA
ATOM     19  C   UNL     1       6.266  -1.561   1.263  1.00  0.00     0.170 A 
ATOM     20  C   UNL     1       8.504   0.720   2.669  1.00  0.00     0.173 C 
BRANCH  19  21
ATOM     21  C   UNL     1       5.887  -2.926   1.039  1.00  0.00     0.122 C 
ATOM     22  N   UNL     1       5.550  -4.019   0.831  1.00  0.00    -0.191 NA
ENDBRANCH  19  21
ENDBRANCH  10  15
ENDBRANCH   1   9
BRANCH   6  23
ATOM     23  N   UNL     1      -4.256   0.502   0.279  1.00  0.00    -0.291 N 
ATOM     24  C   UNL     1      -4.377   1.617   1.061  1.00  0.00     0.295 A 
ATOM     25  C   UNL     1      -5.449  -0.184   0.374  1.00  0.00     0.072 A 
ATOM     26  N   UNL     1      -5.535   1.711   1.653  1.00  0.00    -0.195 NA
ATOM     27  C   UNL     1      -5.928  -1.375  -0.188  1.00  0.00     0.029 A 
ATOM     28  C   UNL     1      -6.222   0.597   1.238  1.00  0.00     0.092 A 
ATOM     29  C   UNL     1      -7.229  -1.766   0.149  1.00  0.00     0.002 A 
ATOM     30  C   UNL     1      -7.523   0.186   1.563  1.00  0.00     0.031 A 
ATOM     31  C   UNL     1      -8.017  -1.001   1.010  1.00  0.00     0.002 A 
BRANCH  24  32
ATOM     32  O   UNL     1      -3.441   2.528   1.227  1.00  0.00    -0.480 OA
ATOM     33  H   UNL     1      -3.890   3.153   1.826  1.00  0.00     0.296 HD
ENDBRANCH  24  32
ENDBRANCH   6  23
TORSDOF 5
