MODEL        6USER    Run = 6USERUSER    Estimated Free Energy of Binding    = -10.60 kcal/mol  [=(1)+(2)+(3)-(4)]USERUSER    (1) Final Intermolecular Energy     = -12.09 kcal/molUSER        vdW + Hbond + desolv Energy     = -11.96 kcal/molUSER        Electrostatic Energy            =  -0.13 kcal/molUSER        Moving Ligand-Fixed Receptor    = -12.09 kcal/molUSER        Moving Ligand-Moving Receptor   =  +0.00 kcal/molUSER    (2) Final Total Internal Energy     =  -0.93 kcal/molUSER    (3) Torsional Free Energy           =  +1.49 kcal/molUSER    (4) Unbound System's Energy         =  -0.93 kcal/molUSERUSERREMARK SMILES Cn1cc(-c2ccc(C(=O)N3CCC(n4c(O)nc5ccccc54)CC3)cc2)c(C#N)n1REMARK SMILES IDX 9 1 10 2 11 3 12 4 13 5 14 6 25 7 26 8 8 9 5 10 6 11 28 12REMARK SMILES IDX 7 13 27 14 4 15 2 16 3 17 32 18 29 19 1 20 30 21 31 22 15 23REMARK SMILES IDX 16 24 24 25 18 26 23 27 19 28 22 29 20 30 21 31 17 32REMARK H PARENT 17 33USER                              x       y       z     vdW  Elec       q    TypeUSER                           _______ _______ _______ _____ _____    ______ ____ROOTATOM      1  C   UNL     1      40.852  44.518  20.842 -0.24 +0.02    +0.253 C  ATOM      2  O   UNL     1      42.023  44.148  20.860 -0.24 -0.05    -0.269 OA ATOM      3  N   UNL     1      39.958  44.312  21.902 -0.08 -0.01    -0.338 N  ATOM      4  C   UNL     1      38.908  45.286  22.212 -0.31 +0.01    +0.122 C  ATOM      5  C   UNL     1      37.761  44.654  22.989 -0.35 +0.00    +0.047 C  ATOM      6  C   UNL     1      38.292  43.926  24.230 -0.25 +0.00    +0.096 C  ATOM      7  C   UNL     1      39.363  42.899  23.842 -0.25 +0.00    +0.047 C  ATOM      8  C   UNL     1      40.477  43.563  23.044 -0.23 +0.00    +0.122 C  ENDROOTBRANCH   1   9ATOM      9  C   UNL     1      40.361  45.186  19.616 -0.39 +0.00    +0.040 A  ATOM     10  C   UNL     1      39.498  46.429  17.256 -0.45 +0.00    -0.014 A  ATOM     11  C   UNL     1      40.655  46.876  17.911 -0.50 -0.00    +0.010 A  ATOM     12  C   UNL     1      38.788  45.340  17.785 -0.39 -0.00    +0.010 A  ATOM     13  C   UNL     1      41.090  46.251  19.083 -0.47 +0.00    +0.014 A  ATOM     14  C   UNL     1      39.219  44.717  18.958 -0.39 -0.00    +0.014 A  BRANCH  10  15ATOM     15  C   UNL     1      39.044  47.081  16.043 -0.42 -0.01    +0.038 A  ATOM     16  N   UNL     1      37.892  47.498  14.220 -0.27 +0.12    -0.274 N  ATOM     17  C   UNL     1      37.994  46.631  15.269 -0.32 -0.05    +0.118 A  ATOM     18  N   UNL     1      38.795  48.494  14.255 -0.42 +0.07    -0.162 NA ATOM     19  C   UNL     1      39.503  48.241  15.367 -0.40 -0.06    +0.170 A  ATOM     20  C   UNL     1      36.944  47.438  13.132 -0.54 -0.07    +0.173 C  BRANCH  19  21ATOM     21  C   UNL     1      40.570  49.123  15.742 -0.59 -0.03    +0.122 C  ATOM     22  N   UNL     1      41.407  49.869  16.048 -1.04 +0.02    -0.191 NA ENDBRANCH  19  21ENDBRANCH  10  15ENDBRANCH   1   9BRANCH   6  23ATOM     23  N   UNL     1      37.228  43.346  25.038 -0.16 -0.00    -0.291 N  ATOM     24  C   UNL     1      36.566  42.174  24.799 -0.20 -0.01    +0.295 A  ATOM     25  C   UNL     1      36.695  43.878  26.194 -0.32 -0.01    +0.072 A  ATOM     26  N   UNL     1      35.655  41.903  25.691 -0.24 +0.03    -0.195 NA ATOM     27  C   UNL     1      36.954  45.039  26.935 -0.35 -0.00    +0.029 A  ATOM     28  C   UNL     1      35.718  42.953  26.574 -0.40 -0.01    +0.092 A  ATOM     29  C   UNL     1      36.189  45.249  28.088 -0.42 -0.00    +0.002 A  ATOM     30  C   UNL     1      34.962  43.184  27.732 -0.58 -0.01    +0.031 A  ATOM     31  C   UNL     1      35.208  44.339  28.484 -0.56 -0.00    +0.002 A  BRANCH  24  32ATOM     32  O   UNL     1      36.795  41.372  23.781 -0.19 +0.00    -0.480 OA ATOM     33  H   UNL     1      36.167  40.649  23.965 +0.01 -0.08    +0.296 HD ENDBRANCH  24  32ENDBRANCH   6  23TORSDOF 5TERENDMDL