REMARK SMILES Cn1cc(-c2ccc(C(=O)N3CCC(n4c(O)nc5ccccc54)CC3)cc2)cn1
REMARK SMILES IDX 9 1 10 2 11 3 12 4 13 5 14 6 25 7 26 8 8 9 5 10 6 11 28 12
REMARK SMILES IDX 7 13 27 14 4 15 2 16 3 17 30 18 29 19 1 20 15 21 16 22 24 23
REMARK SMILES IDX 18 24 23 25 19 26 22 27 20 28 21 29 17 30
REMARK H PARENT 17 31
ROOT
ATOM      1  C   UNL     1      -0.896   0.892  -2.133  1.00  0.00     0.253 C 
ATOM      2  O   UNL     1      -1.005   1.759  -2.995  1.00  0.00    -0.269 OA
ATOM      3  N   UNL     1       0.308   0.273  -1.795  1.00  0.00    -0.338 N 
ATOM      4  C   UNL     1       0.483  -0.552  -0.599  1.00  0.00     0.122 C 
ATOM      5  C   UNL     1       1.940  -0.918  -0.336  1.00  0.00     0.047 C 
ATOM      6  C   UNL     1       2.836   0.330  -0.384  1.00  0.00     0.096 C 
ATOM      7  C   UNL     1       2.549   1.244  -1.593  1.00  0.00     0.047 C 
ATOM      8  C   UNL     1       1.516   0.635  -2.534  1.00  0.00     0.122 C 
ENDROOT
BRANCH   1   9
ATOM      9  C   UNL     1      -2.118   0.509  -1.396  1.00  0.00     0.040 A 
ATOM     10  C   UNL     1      -4.469  -0.166  -0.021  1.00  0.00    -0.015 A 
ATOM     11  C   UNL     1      -3.946   1.135   0.055  1.00  0.00     0.009 A 
ATOM     12  C   UNL     1      -3.807  -1.117  -0.813  1.00  0.00     0.009 A 
ATOM     13  C   UNL     1      -2.779   1.475  -0.635  1.00  0.00     0.014 A 
ATOM     14  C   UNL     1      -2.639  -0.782  -1.505  1.00  0.00     0.014 A 
BRANCH  10  15
ATOM     15  C   UNL     1      -5.685  -0.529   0.688  1.00  0.00     0.020 A 
ATOM     16  N   UNL     1      -7.289  -0.593   2.191  1.00  0.00    -0.275 N 
ATOM     17  C   UNL     1      -6.126   0.044   1.864  1.00  0.00     0.117 A 
ATOM     18  N   UNL     1      -7.639  -1.551   1.315  1.00  0.00    -0.181 NA
ATOM     19  C   UNL     1      -6.665  -1.509   0.402  1.00  0.00     0.143 A 
ATOM     20  C   UNL     1      -8.126  -0.341   3.338  1.00  0.00     0.173 C 
ENDBRANCH  10  15
ENDBRANCH   1   9
BRANCH   6  21
ATOM     21  N   UNL     1       4.245  -0.026  -0.267  1.00  0.00    -0.291 N 
ATOM     22  C   UNL     1       4.991  -0.692  -1.199  1.00  0.00     0.295 A 
ATOM     23  C   UNL     1       5.075   0.226   0.805  1.00  0.00     0.072 A 
ATOM     24  N   UNL     1       6.225  -0.891  -0.828  1.00  0.00    -0.195 NA
ATOM     25  C   UNL     1       4.892   0.861   2.041  1.00  0.00     0.029 A 
ATOM     26  C   UNL     1       6.300  -0.325   0.421  1.00  0.00     0.092 A 
ATOM     27  C   UNL     1       5.999   0.927   2.896  1.00  0.00     0.002 A 
ATOM     28  C   UNL     1       7.396  -0.246   1.294  1.00  0.00     0.031 A 
ATOM     29  C   UNL     1       7.231   0.384   2.532  1.00  0.00     0.002 A 
BRANCH  22  30
ATOM     30  O   UNL     1       4.540  -1.103  -2.366  1.00  0.00    -0.480 OA
ATOM     31  H   UNL     1       5.339  -1.517  -2.743  1.00  0.00     0.296 HD
ENDBRANCH  22  30
ENDBRANCH   6  21
TORSDOF 4
