
     RDKit          3D

 42 45  0  0  0  0  0  0  0  0999 V2000
    5.3793    2.4810   -0.7468 O   0  0  0  0  0  0  0  0  0  0  0  0
    5.6403    1.1184   -0.4505 C   0  0  0  0  0  0  0  0  0  0  0  0
    4.4886    0.5199    0.3241 C   0  0  0  0  0  0  0  0  0  0  0  0
    4.6231    0.4165    1.7208 C   0  0  0  0  0  0  0  0  0  0  0  0
    3.6132   -0.1380    2.4993 C   0  0  0  0  0  0  0  0  0  0  0  0
    2.4510   -0.5990    1.8914 C   0  0  0  0  0  0  0  0  0  0  0  0
    2.2766   -0.4937    0.5006 C   0  0  0  0  0  0  0  0  0  0  0  0
    1.0324   -1.0176   -0.0603 C   0  0  0  0  0  0  0  0  0  0  0  0
    1.0363   -2.0537   -0.9156 N   0  0  0  0  0  0  0  0  0  0  0  0
   -0.2644   -2.2728   -1.1681 N   0  0  0  0  0  0  0  0  0  0  0  0
   -1.1157   -1.4053   -0.5417 C   0  0  0  0  0  0  0  0  0  0  0  0
   -2.5117   -1.2949   -0.5591 C   0  0  0  0  0  0  0  0  0  0  0  0
   -3.1077   -0.2799    0.2145 C   0  0  0  0  0  0  0  0  0  0  0  0
   -4.5709   -0.1224    0.2340 C   0  0  0  0  0  0  0  0  0  0  0  0
   -5.2869   -0.1651    1.4359 C   0  0  0  0  0  0  0  0  0  0  0  0
   -6.6647   -0.0159    1.4036 C   0  0  0  0  0  0  0  0  0  0  0  0
   -7.3729    0.1738    0.2715 N   0  0  0  0  0  0  0  0  0  0  0  0
   -6.6707    0.2170   -0.8792 C   0  0  0  0  0  0  0  0  0  0  0  0
   -5.2935    0.0744   -0.9484 C   0  0  0  0  0  0  0  0  0  0  0  0
   -2.2872    0.5784    0.9662 C   0  0  0  0  0  0  0  0  0  0  0  0
   -0.8898    0.4517    0.9695 C   0  0  0  0  0  0  0  0  0  0  0  0
   -0.2968   -0.5650    0.2002 C   0  0  0  0  0  0  0  0  0  0  0  0
    3.2868    0.0900   -0.3023 C   0  0  0  0  0  0  0  0  0  0  0  0
    3.1014    0.2358   -1.7966 C   0  0  0  0  0  0  0  0  0  0  0  0
    3.3171    1.5957   -2.1795 O   0  0  0  0  0  0  0  0  0  0  0  0
    4.4999    2.4782   -1.1837 H   0  0  0  0  0  0  0  0  0  0  0  0
    6.5709    1.0679    0.1250 H   0  0  0  0  0  0  0  0  0  0  0  0
    5.8206    0.5704   -1.3812 H   0  0  0  0  0  0  0  0  0  0  0  0
    5.5285    0.7735    2.2090 H   0  0  0  0  0  0  0  0  0  0  0  0
    3.7363   -0.2185    3.5758 H   0  0  0  0  0  0  0  0  0  0  0  0
    1.6784   -1.0538    2.5083 H   0  0  0  0  0  0  0  0  0  0  0  0
   -0.5094   -3.0372   -1.7867 H   0  0  0  0  0  0  0  0  0  0  0  0
   -3.1178   -1.9823   -1.1426 H   0  0  0  0  0  0  0  0  0  0  0  0
   -4.7851   -0.3233    2.3851 H   0  0  0  0  0  0  0  0  0  0  0  0
   -7.2516   -0.0480    2.3171 H   0  0  0  0  0  0  0  0  0  0  0  0
   -7.2618    0.3766   -1.7764 H   0  0  0  0  0  0  0  0  0  0  0  0
   -4.7948    0.1303   -1.9106 H   0  0  0  0  0  0  0  0  0  0  0  0
   -2.7338    1.3771    1.5570 H   0  0  0  0  0  0  0  0  0  0  0  0
   -0.2792    1.1353    1.5530 H   0  0  0  0  0  0  0  0  0  0  0  0
    3.8139   -0.4046   -2.3270 H   0  0  0  0  0  0  0  0  0  0  0  0
    2.0965   -0.0196   -2.1364 H   0  0  0  0  0  0  0  0  0  0  0  0
    3.0752    1.6482   -3.1212 H   0  0  0  0  0  0  0  0  0  0  0  0
  1  2  1  0
  2  3  1  0
  3  4  2  0
  4  5  1  0
  5  6  2  0
  6  7  1  0
  7  8  1  0
  8  9  2  0
  9 10  1  0
 10 11  1  0
 11 12  2  0
 12 13  1  0
 13 14  1  0
 14 15  2  0
 15 16  1  0
 16 17  2  0
 17 18  1  0
 18 19  2  0
 13 20  2  0
 20 21  1  0
 21 22  2  0
  7 23  2  0
 23 24  1  0
 24 25  1  0
 23  3  1  0
 22  8  1  0
 22 11  1  0
 19 14  1  0
  1 26  1  0
  2 27  1  0
  2 28  1  0
  4 29  1  0
  5 30  1  0
  6 31  1  0
 10 32  1  0
 12 33  1  0
 15 34  1  0
 16 35  1  0
 18 36  1  0
 19 37  1  0
 20 38  1  0
 21 39  1  0
 24 40  1  0
 24 41  1  0
 25 42  1  0
M  END
$$$$
