
     RDKit          3D

 41 44  0  0  0  0  0  0  0  0999 V2000
   -3.1476    1.7600   -0.6713 C   0  0  0  0  0  0  0  0  0  0  0  0
   -3.3122    0.5027    0.1509 C   0  0  0  0  0  0  0  0  0  0  0  0
   -4.4824    0.2875    0.9228 C   0  0  0  0  0  0  0  0  0  0  0  0
   -5.6210    1.2810    0.9621 C   0  0  0  0  0  0  0  0  0  0  0  0
   -6.2667    1.3727   -0.3010 O   0  0  0  0  0  0  0  0  0  0  0  0
   -4.6155   -0.9018    1.6624 C   0  0  0  0  0  0  0  0  0  0  0  0
   -3.6215   -1.8754    1.6410 C   0  0  0  0  0  0  0  0  0  0  0  0
   -2.4820   -1.6811    0.8679 C   0  0  0  0  0  0  0  0  0  0  0  0
   -2.3194   -0.5069    0.1155 C   0  0  0  0  0  0  0  0  0  0  0  0
   -1.1101   -0.3823   -0.6974 C   0  0  0  0  0  0  0  0  0  0  0  0
   -1.1741   -0.3119   -2.0369 N   0  0  0  0  0  0  0  0  0  0  0  0
    0.1086   -0.2280   -2.4221 N   0  0  0  0  0  0  0  0  0  0  0  0
    1.0093   -0.2343   -1.3934 C   0  0  0  0  0  0  0  0  0  0  0  0
    2.4078   -0.1614   -1.3797 C   0  0  0  0  0  0  0  0  0  0  0  0
    3.0627   -0.1955   -0.1332 C   0  0  0  0  0  0  0  0  0  0  0  0
    4.5310   -0.1243   -0.0629 C   0  0  0  0  0  0  0  0  0  0  0  0
    5.2314    0.9472   -0.6287 C   0  0  0  0  0  0  0  0  0  0  0  0
    6.6144    0.9702   -0.5367 C   0  0  0  0  0  0  0  0  0  0  0  0
    7.3425    0.0099    0.0690 N   0  0  0  0  0  0  0  0  0  0  0  0
    6.6555   -1.0171    0.6098 C   0  0  0  0  0  0  0  0  0  0  0  0
    5.2741   -1.1262    0.5718 C   0  0  0  0  0  0  0  0  0  0  0  0
    2.2959   -0.2971    1.0400 C   0  0  0  0  0  0  0  0  0  0  0  0
    0.8949   -0.3667    1.0050 C   0  0  0  0  0  0  0  0  0  0  0  0
    0.2427   -0.3378   -0.2406 C   0  0  0  0  0  0  0  0  0  0  0  0
   -3.7022    2.6035   -0.2523 H   0  0  0  0  0  0  0  0  0  0  0  0
   -2.1032    2.0873   -0.6978 H   0  0  0  0  0  0  0  0  0  0  0  0
   -3.4982    1.5861   -1.6933 H   0  0  0  0  0  0  0  0  0  0  0  0
   -5.2667    2.2717    1.2633 H   0  0  0  0  0  0  0  0  0  0  0  0
   -6.3777    0.9832    1.6959 H   0  0  0  0  0  0  0  0  0  0  0  0
   -5.9395    0.6406   -0.8525 H   0  0  0  0  0  0  0  0  0  0  0  0
   -5.5097   -1.0817    2.2571 H   0  0  0  0  0  0  0  0  0  0  0  0
   -3.7427   -2.7920    2.2123 H   0  0  0  0  0  0  0  0  0  0  0  0
   -1.7245   -2.4617    0.8361 H   0  0  0  0  0  0  0  0  0  0  0  0
    0.3059   -0.1678   -3.4141 H   0  0  0  0  0  0  0  0  0  0  0  0
    2.9708   -0.0932   -2.3062 H   0  0  0  0  0  0  0  0  0  0  0  0
    4.7117    1.7614   -1.1233 H   0  0  0  0  0  0  0  0  0  0  0  0
    7.1890    1.7892   -0.9600 H   0  0  0  0  0  0  0  0  0  0  0  0
    7.2631   -1.7786    1.0902 H   0  0  0  0  0  0  0  0  0  0  0  0
    4.7899   -1.9871    1.0215 H   0  0  0  0  0  0  0  0  0  0  0  0
    2.7889   -0.3092    2.0112 H   0  0  0  0  0  0  0  0  0  0  0  0
    0.3267   -0.4350    1.9283 H   0  0  0  0  0  0  0  0  0  0  0  0
  1  2  1  0
  2  3  2  0
  3  4  1  0
  4  5  1  0
  3  6  1  0
  6  7  2  0
  7  8  1  0
  8  9  2  0
  9 10  1  0
 10 11  2  0
 11 12  1  0
 12 13  1  0
 13 14  2  0
 14 15  1  0
 15 16  1  0
 16 17  2  0
 17 18  1  0
 18 19  2  0
 19 20  1  0
 20 21  2  0
 15 22  2  0
 22 23  1  0
 23 24  2  0
  9  2  1  0
 24 10  1  0
 24 13  1  0
 21 16  1  0
  1 25  1  0
  1 26  1  0
  1 27  1  0
  4 28  1  0
  4 29  1  0
  5 30  1  0
  6 31  1  0
  7 32  1  0
  8 33  1  0
 12 34  1  0
 14 35  1  0
 17 36  1  0
 18 37  1  0
 20 38  1  0
 21 39  1  0
 22 40  1  0
 23 41  1  0
M  END
$$$$
