MODEL        9USER    Run = 9USERUSER    Estimated Free Energy of Binding    = -11.96 kcal/mol  [=(1)+(2)+(3)-(4)]USERUSER    (1) Final Intermolecular Energy     = -14.05 kcal/molUSER        vdW + Hbond + desolv Energy     = -13.80 kcal/molUSER        Electrostatic Energy            =  -0.26 kcal/molUSER        Moving Ligand-Fixed Receptor    = -14.05 kcal/molUSER        Moving Ligand-Moving Receptor   =  +0.00 kcal/molUSER    (2) Final Total Internal Energy     =  -1.70 kcal/molUSER    (3) Torsional Free Energy           =  +2.09 kcal/molUSER    (4) Unbound System's Energy         =  -1.70 kcal/molUSERUSERREMARK SMILES Oc1ccc(-c2nc3ccccc3nc2-c2ccc(CN3CCC(n4c(O)nc5ccccc54)CC3)cc2)cc1REMARK SMILES IDX 16 1 17 2 18 3 19 4 37 5 38 6 15 7 6 8 7 9 8 10 14 11 9 12REMARK SMILES IDX 13 13 10 14 12 15 11 16 5 17 2 18 3 19 40 20 4 21 39 22 1 23REMARK SMILES IDX 20 25 21 26 22 27 36 28 23 29 35 30 24 31 25 32 26 33 34 34REMARK SMILES IDX 28 35 33 36 29 37 32 38 30 39 31 40 27 41REMARK H PARENT 1 24 27 42USER                              x       y       z     vdW  Elec       q    TypeUSER                           _______ _______ _______ _____ _____    ______ ____ROOTATOM      1  C   UNL     1      35.086  44.556  17.270 -0.31 -0.00    +0.002 A  ATOM      2  C   UNL     1      33.985  45.323  17.686 -0.38 -0.01    +0.011 A  ATOM      3  C   UNL     1      32.678  44.975  17.325 -0.28 -0.00    +0.006 A  ATOM      4  C   UNL     1      32.435  43.865  16.508 -0.30 +0.01    -0.034 A  ATOM      5  C   UNL     1      33.524  43.102  16.071 -0.31 -0.00    +0.006 A  ATOM      6  C   UNL     1      34.826  43.443  16.447 -0.38 -0.00    +0.011 A  ENDROOTBRANCH   1   7ATOM      7  C   UNL     1      36.474  44.894  17.643 -0.27 -0.03    +0.097 A  ATOM      8  C   UNL     1      37.419  45.515  16.811 -0.30 -0.04    +0.097 A  ATOM      9  N   UNL     1      38.696  45.737  17.236 -0.23 +0.06    -0.244 NA ATOM     10  C   UNL     1      39.007  45.374  18.493 -0.36 -0.01    +0.089 A  ATOM     11  N   UNL     1      36.798  44.532  18.920 -0.20 +0.04    -0.244 NA ATOM     12  C   UNL     1      40.291  45.602  18.975 -0.43 -0.00    +0.030 A  ATOM     13  C   UNL     1      38.052  44.773  19.340 -0.31 -0.01    +0.089 A  ATOM     14  C   UNL     1      40.652  45.248  20.276 -0.38 +0.00    +0.002 A  ATOM     15  C   UNL     1      38.421  44.422  20.635 -0.35 -0.00    +0.030 A  ATOM     16  C   UNL     1      39.712  44.654  21.110 -0.32 +0.00    +0.002 A  BRANCH   8  17ATOM     17  C   UNL     1      37.164  46.009  15.446 -0.37 -0.00    +0.003 A  ATOM     18  C   UNL     1      36.681  46.991  12.857 -0.54 -0.05    +0.115 A  ATOM     19  C   UNL     1      36.665  45.622  13.089 -0.48 -0.02    +0.047 A  ATOM     20  C   UNL     1      36.923  47.885  13.895 -0.52 -0.03    +0.047 A  ATOM     21  C   UNL     1      36.900  45.134  14.377 -0.40 -0.01    +0.014 A  ATOM     22  C   UNL     1      37.157  47.393  15.183 -0.43 -0.01    +0.014 A  BRANCH  18  23ATOM     23  O   UNL     1      36.447  47.425  11.586 -0.49 +0.24    -0.508 OA ATOM     24  H   UNL     1      35.867  48.205  11.627 -0.12 -0.19    +0.293 HD ENDBRANCH  18  23ENDBRANCH   8  17ENDBRANCH   1   7BRANCH   4  25ATOM     25  C   UNL     1      31.020  43.503  16.109 -0.30 -0.05    +0.120 C  BRANCH  25  26ATOM     26  N   UNL     1      30.424  42.461  16.958 -0.11 +0.09    -0.299 NA ATOM     27  C   UNL     1      30.421  41.141  16.306 -0.33 -0.03    +0.087 C  ATOM     28  C   UNL     1      29.118  42.863  17.495 -0.20 -0.02    +0.087 C  ATOM     29  C   UNL     1      29.226  40.272  16.691 -0.40 +0.00    +0.041 C  ATOM     30  C   UNL     1      27.948  42.488  16.592 -0.25 -0.01    +0.041 C  ATOM     31  C   UNL     1      27.923  40.978  16.289 -0.29 -0.01    +0.095 C  BRANCH  31  32ATOM     32  N   UNL     1      26.741  40.308  16.817 -0.14 -0.03    -0.291 N  ATOM     33  C   UNL     1      25.864  39.533  16.114 -0.12 +0.08    +0.295 A  ATOM     34  C   UNL     1      26.313  40.309  18.131 -0.22 -0.00    +0.072 A  ATOM     35  N   UNL     1      24.913  39.029  16.852 -0.63 +0.01    -0.195 NA ATOM     36  C   UNL     1      26.790  40.909  19.306 -0.18 -0.00    +0.029 A  ATOM     37  C   UNL     1      25.173  39.503  18.114 -0.29 -0.01    +0.092 A  ATOM     38  C   UNL     1      26.067  40.677  20.481 -0.34 -0.00    +0.002 A  ATOM     39  C   UNL     1      24.466  39.279  19.305 -0.33 -0.01    +0.031 A  ATOM     40  C   UNL     1      24.928  39.872  20.485 -0.34 -0.00    +0.002 A  BRANCH  33  41ATOM     41  O   UNL     1      25.930  39.306  14.818 -0.75 -0.14    -0.480 OA ATOM     42  H   UNL     1      25.002  39.085  14.614 -0.13 -0.05    +0.296 HD ENDBRANCH  33  41ENDBRANCH  31  32ENDBRANCH  25  26ENDBRANCH   4  25TORSDOF 7TERENDMDL