MODEL        5USER    Run = 5USERUSER    Estimated Free Energy of Binding    =  -7.00 kcal/mol  [=(1)+(2)+(3)-(4)]USERUSER    (1) Final Intermolecular Energy     = -11.47 kcal/molUSER        vdW + Hbond + desolv Energy     = -11.75 kcal/molUSER        Electrostatic Energy            =  -0.10 kcal/molUSER        Moving Ligand-Fixed Receptor    = -11.85 kcal/molUSER        Moving Ligand-Moving Receptor   =  +0.38 kcal/molUSER    (2) Final Total Internal Energy     =  -3.03 kcal/molUSER    (3) Torsional Free Energy           =  +4.47 kcal/molUSER    (4) Unbound System's Energy         =  -3.03 kcal/molUSERUSERREMARK SMILES COc1ccc(O)c(C(=O)c2ccc(C(=O)N[C@@H]3CCCNC[C@H]3NC(=O)c3cncc(C(N)=O)c3)cc2)c1FREMARK SMILES IDX 18 1 17 3 15 4 16 5 14 7 11 8 12 9 38 10 13 11 37 12 9 13REMARK SMILES IDX 10 14 8 15 3 16 4 17 39 18 5 19 6 20 40 21 2 22 1 23 7 24REMARK SMILES IDX 24 26 23 27 22 28 21 30 20 31 19 32 25 34 26 35 27 37 28 38REMARK SMILES IDX 29 39 36 40 30 41 32 42 31 43 33 44 34 45 35 46REMARK H PARENT 17 6 7 25 22 29 25 36 34 47 34 48REMARK Flexibility Score:  100.900USER                              x       y       z     vdW  Elec       q    TypeUSER                           _______ _______ _______ _____ _____    ______ ____ROOTATOM      1  C   UNL     1      37.907  46.470  15.094 -0.39 -0.04    +0.106 CG0ATOM      2  G   UNL     1      38.324  47.374  13.927 +0.00 +0.00    +0.000 G0 ENDROOTBRANCH   1   3ATOM      3  N   UNL     1      38.867  46.591  16.194 -0.17 +0.11    -0.347 N  ATOM      4  C   UNL     1      38.976  45.627  17.174 -0.28 -0.05    +0.251 C  ATOM      5  O   UNL     1      38.369  44.563  17.133 -0.21 +0.05    -0.269 OA ATOM      6  H   UNL     1      39.416  47.438  16.257 +0.12 -0.05    +0.164 HD BRANCH   4   7ATOM      7  C   UNL     1      39.901  45.921  18.303 -0.43 -0.00    +0.039 A  ATOM      8  C   UNL     1      41.562  46.444  20.500 -0.27 +0.00    +0.023 A  ATOM      9  C   UNL     1      40.414  45.661  20.666 -0.32 +0.00    +0.013 A  ATOM     10  C   UNL     1      41.887  46.951  19.236 -0.47 +0.00    +0.013 A  ATOM     11  C   UNL     1      39.582  45.412  19.570 -0.39 -0.00    +0.014 A  ATOM     12  C   UNL     1      41.053  46.702  18.142 -0.51 -0.00    +0.014 A  BRANCH   8  13ATOM     13  C   UNL     1      42.495  46.706  21.621 -0.26 +0.04    +0.199 C  ATOM     14  O   UNL     1      42.466  47.812  22.162 -0.22 -0.04    -0.288 OA BRANCH  13  15ATOM     15  C   UNL     1      43.493  45.721  22.095 -0.19 +0.04    +0.104 A  ATOM     16  C   UNL     1      44.088  43.520  22.962 -0.18 +0.02    +0.155 A  ATOM     17  C   UNL     1      45.433  43.894  22.985 -0.17 +0.02    +0.053 A  ATOM     18  C   UNL     1      43.128  44.442  22.519 -0.15 +0.04    +0.179 A  ATOM     19  C   UNL     1      45.808  45.182  22.594 -0.11 +0.04    +0.051 A  ATOM     20  C   UNL     1      44.843  46.091  22.168 -0.10 +0.11    +0.130 A  ATOM     21  F   UNL     1      41.835  44.082  22.539 -0.04 -0.02    -0.202 F  BRANCH  16  22ATOM     22  O   UNL     1      43.599  42.298  23.339 -0.12 +0.03    -0.494 OA ATOM     23  C   UNL     1      44.012  41.792  24.602 -0.11 -0.02    +0.278 C  ENDBRANCH  16  22BRANCH  20  24ATOM     24  O   UNL     1      45.293  47.342  21.836 -0.67 -0.47    -0.507 OA ATOM     25  H   UNL     1      44.510  47.913  21.674 -0.27 +0.10    +0.293 HD ENDBRANCH  20  24ENDBRANCH  13  15ENDBRANCH   8  13ENDBRANCH   4   7ENDBRANCH   1   3BRANCH   1  26ATOM     26  C   UNL     1      36.436  46.639  15.574 -0.36 -0.09    +0.118 C  BRANCH  26  27ATOM     27  C   UNL     1      35.483  46.986  14.400 -0.19 -0.10    +0.108 C  BRANCH  27  28ATOM     28  N   UNL     1      35.494  46.142  13.204 -0.25 +0.19    -0.315 NA ATOM     29  H   UNL     1      35.027  45.262  13.434 +0.11 -0.06    +0.122 HD BRANCH  28  30ATOM     30  C   UNL     1      36.779  45.847  12.593 -0.59 -0.03    +0.081 C  BRANCH  30  31ATOM     31  C   UNL     1      37.791  46.991  12.548 -0.46 -0.00    +0.017 C  BRANCH  31  32ATOM     32  C   UNL     1      38.327  47.372  13.928 -0.54 -0.01    +0.028 CG0ATOM     33  G   UNL     1      37.910  46.470  15.096 +0.00 +0.00    +0.000 G0 ENDBRANCH  31  32ENDBRANCH  30  31ENDBRANCH  28  30ENDBRANCH  27  28ENDBRANCH  26  27BRANCH  26  34ATOM     34  N   UNL     1      35.985  45.482  16.365 -0.10 +0.20    -0.346 N  ATOM     35  C   UNL     1      35.320  45.635  17.564 -0.25 -0.15    +0.253 C  ATOM     36  H   UNL     1      36.456  44.603  16.197 +0.11 -0.07    +0.164 HD ATOM     37  O   UNL     1      34.999  46.721  18.031 -0.44 +0.22    -0.269 OA BRANCH  35  38ATOM     38  C   UNL     1      35.002  44.396  18.310 -0.29 -0.02    +0.058 A  ATOM     39  C   UNL     1      35.723  44.106  19.463 -0.30 -0.02    +0.124 A  ATOM     40  C   UNL     1      33.985  43.515  17.935 -0.30 -0.01    +0.031 A  ATOM     41  N   UNL     1      35.507  43.009  20.233 -0.27 +0.00    -0.263 NA ATOM     42  C   UNL     1      33.743  42.371  18.702 -0.36 -0.01    +0.058 A  ATOM     43  C   UNL     1      34.516  42.172  19.838 -0.24 +0.00    +0.124 A  BRANCH  42  44ATOM     44  C   UNL     1      32.662  41.447  18.287 -0.29 -0.04    +0.250 C  ATOM     45  N   UNL     1      32.999  40.295  17.635 -0.17 +0.14    -0.366 N  ATOM     46  O   UNL     1      31.487  41.725  18.494 -0.19 +0.03    -0.269 OA ATOM     47  H   UNL     1      32.226  39.742  17.284 -0.01 -0.05    +0.159 HD ATOM     48  H   UNL     1      33.905  40.115  17.229 -0.44 -0.13    +0.159 HD ENDBRANCH  42  44ENDBRANCH  35  38ENDBRANCH  26  34ENDBRANCH   1  26TORSDOF 9TERENDMDL