REMARK SMILES COc1ccc(O)c(C(=O)c2ccc(C(=O)N[C@@H]3CCCNC[C@H]3NC(=O)c3cncc(C(N)=O)c3)cc2)c1F
REMARK SMILES IDX 18 1 17 3 15 4 16 5 14 7 11 8 12 9 38 10 13 11 37 12 9 13
REMARK SMILES IDX 10 14 8 15 3 16 4 17 39 18 5 19 6 20 40 21 2 22 1 23 7 24
REMARK SMILES IDX 24 26 23 27 22 28 21 30 20 31 19 32 25 34 26 35 27 37 28 38
REMARK SMILES IDX 29 39 36 40 30 41 32 42 31 43 33 44 34 45 35 46
REMARK H PARENT 17 6 7 25 22 29 25 36 34 47 34 48
REMARK Flexibility Score:  100.900
ROOT
ATOM      1  C   UNL     1      -1.937   1.004   0.818  1.00  0.00     0.106 CG0
ATOM      2  G   UNL     1      -2.723   1.530   2.026  1.00  0.00     0.000 G0
ENDROOT
BRANCH   1   3
ATOM      3  N   UNL     1      -0.514   0.898   1.150  1.00  0.00    -0.347 N 
ATOM      4  C   UNL     1       0.465   0.960   0.181  1.00  0.00     0.251 C 
ATOM      5  O   UNL     1       0.226   1.220  -0.993  1.00  0.00    -0.269 OA
ATOM      6  H   UNL     1      -0.261   0.713   2.111  1.00  0.00     0.164 HD
BRANCH   4   7
ATOM      7  C   UNL     1       1.865   0.718   0.627  1.00  0.00     0.039 A 
ATOM      8  C   UNL     1       4.537   0.298   1.366  1.00  0.00     0.023 A 
ATOM      9  C   UNL     1       4.238   1.112   0.268  1.00  0.00     0.013 A 
ATOM     10  C   UNL     1       3.502  -0.292   2.102  1.00  0.00     0.013 A 
ATOM     11  C   UNL     1       2.905   1.310  -0.105  1.00  0.00     0.014 A 
ATOM     12  C   UNL     1       2.170  -0.094   1.727  1.00  0.00     0.014 A 
BRANCH   8  13
ATOM     13  C   UNL     1       5.930   0.088   1.823  1.00  0.00     0.199 C 
ATOM     14  O   UNL     1       6.163   0.128   3.032  1.00  0.00    -0.288 OA
BRANCH  13  15
ATOM     15  C   UNL     1       7.067  -0.121   0.899  1.00  0.00     0.104 A 
ATOM     16  C   UNL     1       7.997  -0.927  -1.208  1.00  0.00     0.155 A 
ATOM     17  C   UNL     1       9.263  -0.490  -0.815  1.00  0.00     0.053 A 
ATOM     18  C   UNL     1       6.908  -0.740  -0.342  1.00  0.00     0.179 A 
ATOM     19  C   UNL     1       9.441   0.102   0.438  1.00  0.00     0.051 A 
ATOM     20  C   UNL     1       8.354   0.270   1.292  1.00  0.00     0.130 A 
ATOM     21  F   UNL     1       5.704  -1.200  -0.717  1.00  0.00    -0.202 F 
BRANCH  16  22
ATOM     22  O   UNL     1       7.703  -1.537  -2.398  1.00  0.00    -0.494 OA
ATOM     23  C   UNL     1       8.792  -1.847  -3.258  1.00  0.00     0.278 C 
ENDBRANCH  16  22
BRANCH  20  24
ATOM     24  O   UNL     1       8.624   0.828   2.514  1.00  0.00    -0.507 OA
ATOM     25  H   UNL     1       7.823   0.731   3.075  1.00  0.00     0.293 HD
ENDBRANCH  20  24
ENDBRANCH  13  15
ENDBRANCH   8  13
ENDBRANCH   4   7
ENDBRANCH   1   3
BRANCH   1  26
ATOM     26  C   UNL     1      -2.493  -0.302   0.180  1.00  0.00     0.118 C 
BRANCH  26  27
ATOM     27  C   UNL     1      -2.375  -1.511   1.146  1.00  0.00     0.108 C 
BRANCH  27  28
ATOM     28  N   UNL     1      -3.420  -1.722   2.149  1.00  0.00    -0.315 NA
ATOM     29  H   UNL     1      -4.193  -2.218   1.700  1.00  0.00     0.122 HD
BRANCH  28  30
ATOM     30  C   UNL     1      -3.945  -0.556   2.839  1.00  0.00     0.081 C 
BRANCH  30  31
ATOM     31  C   UNL     1      -2.942   0.546   3.175  1.00  0.00     0.017 C 
BRANCH  31  32
ATOM     32  C   UNL     1      -2.723   1.530   2.026  1.00  0.00     0.028 CG0
ATOM     33  G   UNL     1      -1.937   1.004   0.818  1.00  0.00     0.000 G0
ENDBRANCH  31  32
ENDBRANCH  30  31
ENDBRANCH  28  30
ENDBRANCH  27  28
ENDBRANCH  26  27
BRANCH  26  34
ATOM     34  N   UNL     1      -3.854  -0.113  -0.349  1.00  0.00    -0.346 N 
ATOM     35  C   UNL     1      -4.476  -1.076  -1.116  1.00  0.00     0.253 C 
ATOM     36  H   UNL     1      -4.183   0.840  -0.430  1.00  0.00     0.164 HD
ATOM     37  O   UNL     1      -3.986  -2.170  -1.365  1.00  0.00    -0.269 OA
BRANCH  35  38
ATOM     38  C   UNL     1      -5.806  -0.728  -1.667  1.00  0.00     0.058 A 
ATOM     39  C   UNL     1      -6.273  -1.423  -2.777  1.00  0.00     0.124 A 
ATOM     40  C   UNL     1      -6.638   0.243  -1.105  1.00  0.00     0.031 A 
ATOM     41  N   UNL     1      -7.481  -1.200  -3.354  1.00  0.00    -0.263 NA
ATOM     42  C   UNL     1      -7.886   0.503  -1.681  1.00  0.00     0.058 A 
ATOM     43  C   UNL     1      -8.262  -0.247  -2.787  1.00  0.00     0.124 A 
BRANCH  42  44
ATOM     44  C   UNL     1      -8.753   1.538  -1.073  1.00  0.00     0.250 C 
ATOM     45  N   UNL     1      -9.815   2.009  -1.792  1.00  0.00    -0.366 N 
ATOM     46  O   UNL     1      -8.504   1.989   0.039  1.00  0.00    -0.269 OA
ATOM     47  H   UNL     1     -10.321   2.783  -1.378  1.00  0.00     0.159 HD
ATOM     48  H   UNL     1      -9.942   1.862  -2.782  1.00  0.00     0.159 HD
ENDBRANCH  42  44
ENDBRANCH  35  38
ENDBRANCH  26  34
ENDBRANCH   1  26
TORSDOF 9
