MODEL        10USER    Run = 10USERUSER    Estimated Free Energy of Binding    =  -5.87 kcal/mol  [=(1)+(2)+(3)-(4)]USERUSER    (1) Final Intermolecular Energy     = -10.35 kcal/molUSER        vdW + Hbond + desolv Energy     = -10.74 kcal/molUSER        Electrostatic Energy            =  -0.14 kcal/molUSER        Moving Ligand-Fixed Receptor    = -10.88 kcal/molUSER        Moving Ligand-Moving Receptor   =  +0.53 kcal/molUSER    (2) Final Total Internal Energy     =  -3.23 kcal/molUSER    (3) Torsional Free Energy           =  +4.47 kcal/molUSER    (4) Unbound System's Energy         =  -3.23 kcal/molUSERUSERREMARK SMILES COc1ccc(O)c(C(=O)c2ccc(NC[C@@H]3CCCNC[C@@H]3NC(=O)c3ccncc3)cc2)c1FREMARK SMILES IDX 16 1 15 2 14 4 11 5 12 6 34 7 13 8 33 9 9 10 10 11 8 12 3 13REMARK SMILES IDX 4 14 35 15 5 16 6 17 36 18 2 19 1 20 7 21 17 23 18 24 23 26REMARK SMILES IDX 22 27 21 28 20 30 19 31 24 33 25 34 26 36 27 37 28 38 32 39REMARK SMILES IDX 29 40 31 41 30 42REMARK H PARENT 15 3 7 22 21 29 24 35REMARK Flexibility Score:   99.900USER                              x       y       z     vdW  Elec       q    TypeUSER                           _______ _______ _______ _____ _____    ______ ____ROOTATOM      1  C   UNL     1      38.844  46.892  15.889 -0.41 -0.04    +0.118 C  ENDROOTBRANCH   1   2ATOM      2  N   UNL     1      39.305  45.672  16.557 -0.08 +0.07    -0.385 N  ATOM      3  H   UNL     1      38.683  44.881  16.422 +0.11 -0.03    +0.160 HD BRANCH   2   4ATOM      4  C   UNL     1      39.928  45.688  17.802 -0.42 -0.00    +0.034 A  ATOM      5  C   UNL     1      41.175  45.896  20.335 -0.36 +0.00    +0.023 A  ATOM      6  C   UNL     1      40.250  44.881  20.082 -0.38 +0.00    +0.014 A  ATOM      7  C   UNL     1      41.437  46.844  19.344 -0.34 +0.00    +0.014 A  ATOM      8  C   UNL     1      39.629  44.786  18.830 -0.40 -0.00    +0.026 A  ATOM      9  C   UNL     1      40.811  46.736  18.096 -0.49 -0.00    +0.026 A  BRANCH   5  10ATOM     10  C   UNL     1      41.782  45.980  21.684 -0.22 +0.03    +0.199 C  ATOM     11  O   UNL     1      42.777  45.298  21.937 -0.14 -0.07    -0.288 OA BRANCH  10  12ATOM     12  C   UNL     1      41.222  46.806  22.777 -0.16 +0.01    +0.104 A  ATOM     13  C   UNL     1      39.406  47.418  24.286 -0.25 +0.02    +0.155 A  ATOM     14  C   UNL     1      40.220  48.395  24.864 -0.28 +0.01    +0.053 A  ATOM     15  C   UNL     1      39.916  46.635  23.238 -0.18 +0.02    +0.179 A  ATOM     16  C   UNL     1      41.517  48.597  24.387 -0.33 +0.01    +0.051 A  ATOM     17  C   UNL     1      42.007  47.818  23.342 -0.24 +0.02    +0.130 A  ATOM     18  F   UNL     1      39.110  45.728  22.663 -0.09 -0.02    -0.202 F  BRANCH  13  19ATOM     19  O   UNL     1      38.117  47.141  24.655 -0.42 -0.08    -0.494 OA ATOM     20  C   UNL     1      37.462  48.084  25.494 -0.30 +0.02    +0.278 C  ENDBRANCH  13  19BRANCH  17  21ATOM     21  O   UNL     1      43.276  48.103  22.914 -0.28 -0.11    -0.507 OA ATOM     22  H   UNL     1      43.636  47.297  22.478 +0.12 +0.08    +0.293 HD ENDBRANCH  17  21ENDBRANCH  10  12ENDBRANCH   5  10ENDBRANCH   2   4ENDBRANCH   1   2BRANCH   1  23ATOM     23  C   UNL     1      38.511  46.645  14.396 -0.48 -0.01    +0.032 C  BRANCH  23  24ATOM     24  C   UNL     1      37.848  47.898  13.788 -0.60 -0.00    +0.009 CG0ATOM     25  G   UNL     1      37.077  47.755  12.475 +0.00 +0.00    +0.000 G0 ENDBRANCH  23  24BRANCH  23  26ATOM     26  C   UNL     1      37.717  45.329  14.233 -0.38 -0.03    +0.101 C  BRANCH  26  27ATOM     27  C   UNL     1      37.200  45.151  12.786 -0.45 -0.03    +0.106 C  BRANCH  27  28ATOM     28  N   UNL     1      35.827  45.619  12.553 -0.19 +0.15    -0.315 NA ATOM     29  H   UNL     1      35.542  45.282  11.631 +0.06 -0.05    +0.122 HD BRANCH  28  30ATOM     30  C   UNL     1      35.713  47.078  12.554 -0.57 -0.05    +0.081 C  BRANCH  30  31ATOM     31  C   UNL     1      37.075  47.754  12.471 -0.47 -0.00    +0.016 CG0ATOM     32  G   UNL     1      37.849  47.901  13.782 +0.00 +0.00    +0.000 G0 ENDBRANCH  30  31ENDBRANCH  28  30ENDBRANCH  27  28ENDBRANCH  26  27BRANCH  26  33ATOM     33  N   UNL     1      36.600  45.212  15.168 -0.12 +0.16    -0.348 N  ATOM     34  C   UNL     1      36.590  44.334  16.225 -0.24 -0.09    +0.251 C  ATOM     35  H   UNL     1      35.776  45.743  14.914 +0.12 -0.11    +0.164 HD ATOM     36  O   UNL     1      37.517  43.569  16.467 -0.20 +0.07    -0.269 OA BRANCH  34  37ATOM     37  C   UNL     1      35.372  44.323  17.077 -0.28 -0.02    +0.042 A  ATOM     38  C   UNL     1      35.449  44.915  18.339 -0.33 -0.01    +0.034 A  ATOM     39  C   UNL     1      34.162  43.775  16.650 -0.31 -0.01    +0.034 A  ATOM     40  C   UNL     1      34.317  44.912  19.132 -0.30 -0.04    +0.112 A  ATOM     41  C   UNL     1      33.086  43.824  17.519 -0.23 -0.04    +0.112 A  ATOM     42  N   UNL     1      33.138  44.374  18.750 -0.21 +0.06    -0.265 NA ENDBRANCH  34  37ENDBRANCH  26  33ENDBRANCH  23  26ENDBRANCH   1  23TORSDOF 9TERENDMDL