MODEL        3USER    Run = 3USERUSER    Estimated Free Energy of Binding    = -12.20 kcal/mol  [=(1)+(2)+(3)-(4)]USERUSER    (1) Final Intermolecular Energy     = -13.99 kcal/molUSER        vdW + Hbond + desolv Energy     = -13.74 kcal/molUSER        Electrostatic Energy            =  -0.25 kcal/molUSER        Moving Ligand-Fixed Receptor    = -13.99 kcal/molUSER        Moving Ligand-Moving Receptor   =  +0.00 kcal/molUSER    (2) Final Total Internal Energy     =  -1.74 kcal/molUSER    (3) Torsional Free Energy           =  +1.79 kcal/molUSER    (4) Unbound System's Energy         =  -1.74 kcal/molUSERUSERREMARK SMILES Cn1ccc2ccc3c4[nH]c5c(CCCN[C@H]6CC[C@H](O)CC6)cccc5c4c4c(c3c21)C(=O)NC4=OREMARK SMILES IDX 15 1 14 2 13 3 12 4 2 5 3 6 32 7 4 8 31 9 5 10 30 11 8 12REMARK SMILES IDX 6 13 29 14 33 15 7 16 9 17 28 18 36 19 35 20 10 21 27 22REMARK SMILES IDX 11 23 26 24 25 25 24 26 1 27 34 28 37 29 16 32 17 34 23 35REMARK SMILES IDX 18 36 22 37 19 38 20 39 21 40REMARK H PARENT 35 30 10 31 16 33 21 41USER                              x       y       z     vdW  Elec       q    TypeUSER                           _______ _______ _______ _____ _____    ______ ____ROOTATOM      1  C   UNL     1      35.704  42.256  21.373 -0.32 +0.01    +0.081 C  ENDROOTBRANCH   1   2ATOM      2  C   UNL     1      36.775  43.032  22.146 -0.45 +0.00    +0.020 C  BRANCH   2   3ATOM      3  C   UNL     1      38.076  42.242  22.324 -0.37 +0.00    +0.039 C  BRANCH   3   4ATOM      4  C   UNL     1      39.327  43.072  22.175 -0.14 -0.00    -0.024 A  ATOM      5  N   UNL     1      39.671  47.901  14.979 -0.23 +0.10    -0.350 N  ATOM      6  C   UNL     1      38.691  48.282  14.093 -0.41 -0.03    +0.086 A  ATOM      7  C   UNL     1      39.112  47.270  16.084 -0.42 -0.02    +0.057 A  ATOM      8  C   UNL     1      37.515  47.712  14.500 -0.49 -0.02    +0.028 A  ATOM      9  C   UNL     1      39.631  46.820  17.355 -0.45 -0.00    +0.022 A  ATOM     10  C   UNL     1      37.781  47.010  15.704 -0.42 -0.00    +0.000 A  ATOM     11  C   UNL     1      40.834  47.176  17.986 -0.46 -0.01    +0.063 A  ATOM     12  C   UNL     1      38.801  45.899  18.069 -0.40 -0.00    +0.009 A  ATOM     13  C   UNL     1      36.973  46.181  16.499 -0.37 -0.01    +0.011 A  ATOM     14  C   UNL     1      41.280  46.560  19.162 -0.41 +0.00    +0.063 A  ATOM     15  C   UNL     1      41.782  48.277  17.742 -0.17 -0.00    +0.259 C  ATOM     16  C   UNL     1      37.500  45.591  17.643 -0.35 -0.00    +0.012 A  ATOM     17  C   UNL     1      39.290  45.285  19.264 -0.37 -0.00    +0.055 A  ATOM     18  C   UNL     1      40.540  45.578  19.824 -0.40 +0.00    +0.022 A  ATOM     19  C   UNL     1      42.546  47.183  19.544 -0.37 +0.04    +0.259 C  ATOM     20  N   UNL     1      42.830  48.097  18.585 -0.30 -0.00    -0.288 N  ATOM     21  N   UNL     1      38.713  44.344  20.089 -0.13 +0.01    -0.354 N  ATOM     22  C   UNL     1      40.696  44.763  20.996 -0.33 +0.00    +0.008 A  ATOM     23  C   UNL     1      39.537  43.999  21.133 -0.20 +0.00    +0.050 A  ATOM     24  C   UNL     1      41.713  44.596  21.958 -0.26 +0.00    +0.011 A  ATOM     25  C   UNL     1      41.540  43.687  23.007 -0.24 +0.00    +0.001 A  ATOM     26  C   UNL     1      40.369  42.943  23.110 -0.27 +0.00    +0.006 A  ATOM     27  C   UNL     1      41.066  47.952  14.595 -0.27 -0.01    +0.149 C  ATOM     28  O   UNL     1      41.626  49.236  17.015 -0.95 -0.03    -0.269 OA ATOM     29  O   UNL     1      43.199  46.983  20.548 -0.34 -0.09    -0.269 OA ATOM     30  H   UNL     1      43.547  48.795  18.711 -0.46 -0.01    +0.173 HD ATOM     31  H   UNL     1      37.805  43.933  19.938 +0.11 -0.01    +0.167 HD ENDBRANCH   3   4ENDBRANCH   2   3ENDBRANCH   1   2BRANCH   1  32ATOM     32  N   UNL     1      36.078  42.198  19.959 -0.21 +0.02    -0.314 NA ATOM     33  H   UNL     1      36.845  42.842  19.774 +0.08 -0.01    +0.122 HD BRANCH  32  34ATOM     34  C   UNL     1      34.952  42.487  19.060 -0.44 -0.01    +0.053 C  ATOM     35  C   UNL     1      34.013  43.586  19.602 -0.46 -0.00    +0.021 C  ATOM     36  C   UNL     1      35.554  42.865  17.691 -0.40 -0.01    +0.021 C  ATOM     37  C   UNL     1      34.374  44.973  19.073 -0.44 -0.01    +0.033 C  ATOM     38  C   UNL     1      34.575  43.689  16.867 -0.38 -0.01    +0.033 C  ATOM     39  C   UNL     1      34.270  45.029  17.544 -0.32 -0.06    +0.114 C  BRANCH  39  40ATOM     40  O   UNL     1      32.950  45.417  17.164 -0.21 +0.24    -0.393 OA ATOM     41  H   UNL     1      33.008  46.301  16.762 -0.33 -0.30    +0.210 HD ENDBRANCH  39  40ENDBRANCH  32  34ENDBRANCH   1  32TORSDOF 6TERENDMDL