MODEL        7USER    Run = 7USERUSER    Estimated Free Energy of Binding    =  -7.07 kcal/mol  [=(1)+(2)+(3)-(4)]USERUSER    (1) Final Intermolecular Energy     = -11.54 kcal/molUSER        vdW + Hbond + desolv Energy     = -11.75 kcal/molUSER        Electrostatic Energy            =  -0.17 kcal/molUSER        Moving Ligand-Fixed Receptor    = -11.92 kcal/molUSER        Moving Ligand-Moving Receptor   =  +0.37 kcal/molUSER    (2) Final Total Internal Energy     =  -2.45 kcal/molUSER    (3) Torsional Free Energy           =  +4.47 kcal/molUSER    (4) Unbound System's Energy         =  -2.45 kcal/molUSERUSERREMARK SMILES COc1ccc(O)c(C(=O)c2ccc(CO[C@@H]3CCCNC[C@@H]3NC(=O)c3ccncc3)cc2)c1FREMARK SMILES IDX 16 1 15 2 14 3 11 4 12 5 34 6 13 7 33 8 9 9 10 10 8 11 3 12REMARK SMILES IDX 4 13 35 14 5 15 6 16 36 17 2 18 1 19 7 20 17 22 18 23 23 25REMARK SMILES IDX 22 26 21 27 20 29 19 30 24 32 25 33 26 35 27 36 28 37 32 38REMARK SMILES IDX 29 39 31 40 30 41REMARK H PARENT 7 21 21 28 24 34REMARK Flexibility Score:   99.900USER                              x       y       z     vdW  Elec       q    TypeUSER                           _______ _______ _______ _____ _____    ______ ____ROOTATOM      1  O   UNL     1      37.855  44.811  24.429 -0.20 -0.03    -0.371 OA ENDROOTBRANCH   1   2ATOM      2  C   UNL     1      37.405  44.070  23.296 -0.28 +0.02    +0.196 C  BRANCH   2   3ATOM      3  C   UNL     1      38.206  44.508  22.098 -0.34 -0.00    -0.022 A  ATOM      4  C   UNL     1      39.695  45.295  19.848 -0.38 -0.00    +0.023 A  ATOM      5  C   UNL     1      38.401  44.788  19.689 -0.36 -0.00    +0.012 A  ATOM      6  C   UNL     1      40.230  45.438  21.132 -0.32 +0.00    +0.012 A  ATOM      7  C   UNL     1      37.666  44.392  20.808 -0.37 +0.00    +0.007 A  ATOM      8  C   UNL     1      39.493  45.042  22.250 -0.29 +0.00    +0.007 A  BRANCH   4   9ATOM      9  C   UNL     1      40.499  45.760  18.693 -0.39 -0.01    +0.199 C  ATOM     10  O   UNL     1      41.708  45.514  18.668 -0.29 -0.03    -0.288 OA BRANCH   9  11ATOM     11  C   UNL     1      39.940  46.565  17.587 -0.41 -0.02    +0.104 A  ATOM     12  C   UNL     1      38.245  46.980  15.884 -0.31 -0.07    +0.155 A  ATOM     13  C   UNL     1      38.916  48.143  15.502 -0.47 -0.02    +0.053 A  ATOM     14  C   UNL     1      38.770  46.196  16.922 -0.29 -0.05    +0.179 A  ATOM     15  C   UNL     1      40.107  48.505  16.138 -0.51 -0.02    +0.051 A  ATOM     16  C   UNL     1      40.620  47.713  17.162 -0.42 -0.02    +0.130 A  ATOM     17  F   UNL     1      38.135  45.061  17.256 -0.08 +0.05    -0.202 F  BRANCH  12  18ATOM     18  O   UNL     1      37.084  46.517  15.326 -0.06 +0.28    -0.494 OA ATOM     19  C   UNL     1      35.894  46.640  16.095 -0.20 -0.27    +0.278 C  ENDBRANCH  12  18BRANCH  16  20ATOM     20  O   UNL     1      41.806  48.122  17.711 -0.45 +0.01    -0.507 OA ATOM     21  H   UNL     1      42.426  47.356  17.694 -0.30 -0.05    +0.293 HD ENDBRANCH  16  20ENDBRANCH   9  11ENDBRANCH   4   9ENDBRANCH   2   3ENDBRANCH   1   2BRANCH   1  22ATOM     22  C   UNL     1      38.005  44.007  25.619 -0.21 -0.00    +0.142 C  BRANCH  22  23ATOM     23  C   UNL     1      37.616  42.588  25.180 -0.37 -0.00    +0.035 CG0ATOM     24  G   UNL     1      37.724  41.443  26.180 +0.00 +0.00    +0.000 G0 ENDBRANCH  22  23BRANCH  22  25ATOM     25  C   UNL     1      37.158  44.620  26.760 -0.32 -0.01    +0.125 C  BRANCH  25  26ATOM     26  C   UNL     1      35.994  43.677  27.155 -0.45 -0.02    +0.108 C  BRANCH  26  27ATOM     27  N   UNL     1      36.342  42.497  27.944 -0.07 +0.12    -0.315 NA ATOM     28  H   UNL     1      35.605  42.343  28.635 -0.45 -0.08    +0.122 HD BRANCH  27  29ATOM     29  C   UNL     1      36.573  41.291  27.161 -0.54 -0.02    +0.081 C  BRANCH  29  30ATOM     30  C   UNL     1      37.725  41.442  26.179 -0.35 -0.00    +0.018 CG0ATOM     31  G   UNL     1      37.609  42.587  25.179 +0.00 +0.00    +0.000 G0 ENDBRANCH  29  30ENDBRANCH  27  29ENDBRANCH  26  27ENDBRANCH  25  26BRANCH  25  32ATOM     32  N   UNL     1      36.740  45.991  26.435 -0.07 +0.06    -0.345 N  ATOM     33  C   UNL     1      37.421  47.084  26.929 -0.24 -0.03    +0.251 C  ATOM     34  H   UNL     1      36.344  46.100  25.509 -0.36 -0.01    +0.164 HD ATOM     35  O   UNL     1      38.333  47.007  27.741 -0.12 +0.05    -0.269 OA BRANCH  33  36ATOM     36  C   UNL     1      37.016  48.410  26.388 -0.37 -0.00    +0.042 A  ATOM     37  C   UNL     1      37.511  48.794  25.142 -0.42 +0.00    +0.034 A  ATOM     38  C   UNL     1      36.195  49.282  27.102 -0.34 -0.00    +0.034 A  ATOM     39  C   UNL     1      37.146  50.035  24.652 +0.13 +0.00    +0.112 A  ATOM     40  C   UNL     1      35.890  50.502  26.525 -0.25 +0.01    +0.112 A  ATOM     41  N   UNL     1      36.343  50.894  25.315 -0.25 -0.01    -0.265 NA ENDBRANCH  33  36ENDBRANCH  25  32ENDBRANCH  22  25ENDBRANCH   1  22TORSDOF 9TERENDMDL