MODEL        5USER    Run = 5USERUSER    Estimated Free Energy of Binding    =  -7.34 kcal/mol  [=(1)+(2)+(3)-(4)]USERUSER    (1) Final Intermolecular Energy     = -11.81 kcal/molUSER        vdW + Hbond + desolv Energy     = -11.90 kcal/molUSER        Electrostatic Energy            =  -0.27 kcal/molUSER        Moving Ligand-Fixed Receptor    = -12.17 kcal/molUSER        Moving Ligand-Moving Receptor   =  +0.36 kcal/molUSER    (2) Final Total Internal Energy     =  -2.96 kcal/molUSER    (3) Torsional Free Energy           =  +4.47 kcal/molUSER    (4) Unbound System's Energy         =  -2.96 kcal/molUSERUSERREMARK SMILES COc1ccc(O)c(C(=O)c2ccc(C(=O)O[C@@H]3CCCNC[C@H]3NC(=O)c3ccncc3)cc2)c1FREMARK SMILES IDX 17 1 15 2 16 3 14 4 11 5 12 6 35 7 13 8 34 9 9 10 10 11 8 12REMARK SMILES IDX 3 13 4 14 36 15 5 16 6 17 37 18 2 19 1 20 7 21 18 23 24 25REMARK SMILES IDX 23 26 22 27 21 29 20 30 19 31 25 33 26 34 27 36 28 37 29 38REMARK SMILES IDX 33 39 30 40 32 41 31 42REMARK H PARENT 7 22 22 28 25 35REMARK Flexibility Score:   99.900USER                              x       y       z     vdW  Elec       q    TypeUSER                           _______ _______ _______ _____ _____    ______ ____ROOTATOM      1  O   UNL     1      38.959  46.965  16.054 -0.14 +0.15    -0.457 OA ENDROOTBRANCH   1   2ATOM      2  C   UNL     1      40.184  46.390  15.965 -0.25 -0.04    +0.338 C  ATOM      3  O   UNL     1      40.680  45.869  14.976 -0.44 -0.00    -0.246 OA BRANCH   2   4ATOM      4  C   UNL     1      40.891  46.520  17.264 -0.40 -0.01    +0.060 A  ATOM      5  C   UNL     1      42.189  46.703  19.746 -0.44 +0.00    +0.023 A  ATOM      6  C   UNL     1      42.266  47.762  18.832 -0.41 +0.00    +0.013 A  ATOM      7  C   UNL     1      41.456  45.555  19.413 -0.41 +0.00    +0.013 A  ATOM      8  C   UNL     1      41.619  47.671  17.595 -0.38 -0.00    +0.016 A  ATOM      9  C   UNL     1      40.801  45.467  18.181 -0.45 -0.00    +0.016 A  BRANCH   5  10ATOM     10  C   UNL     1      42.881  46.738  21.064 -0.30 +0.06    +0.199 C  ATOM     11  O   UNL     1      44.063  46.426  21.165 -0.42 -0.23    -0.288 OA BRANCH  10  12ATOM     12  C   UNL     1      42.160  47.143  22.276 -0.20 +0.02    +0.104 A  ATOM     13  C   UNL     1      40.238  46.870  23.731 -0.18 +0.01    +0.155 A  ATOM     14  C   UNL     1      40.719  47.911  24.535 -0.26 +0.01    +0.053 A  ATOM     15  C   UNL     1      40.967  46.498  22.595 -0.13 +0.02    +0.179 A  ATOM     16  C   UNL     1      41.926  48.549  24.223 -0.34 +0.01    +0.051 A  ATOM     17  C   UNL     1      42.649  48.158  23.098 -0.29 +0.03    +0.130 A  ATOM     18  F   UNL     1      40.534  45.479  21.834 -0.05 -0.01    -0.202 F  BRANCH  13  19ATOM     19  O   UNL     1      39.102  46.143  23.967 -0.08 -0.05    -0.494 OA ATOM     20  C   UNL     1      39.264  44.788  24.368 -0.10 +0.01    +0.278 C  ENDBRANCH  13  19BRANCH  17  21ATOM     21  O   UNL     1      43.837  48.760  22.801 -0.48 -0.14    -0.507 OA ATOM     22  H   UNL     1      44.161  48.453  21.939 -0.44 +0.02    +0.293 HD ENDBRANCH  17  21ENDBRANCH  10  12ENDBRANCH   5  10ENDBRANCH   2   4ENDBRANCH   1   2BRANCH   1  23ATOM     23  C   UNL     1      37.968  46.538  15.082 -0.32 -0.08    +0.200 CG0ATOM     24  G   UNL     1      38.171  47.390  13.829 +0.00 +0.00    +0.000 G0 BRANCH  23  25ATOM     25  C   UNL     1      36.584  46.700  15.743 -0.35 -0.10    +0.137 C  BRANCH  25  26ATOM     26  C   UNL     1      35.405  46.169  14.903 -0.36 -0.09    +0.109 C  BRANCH  26  27ATOM     27  N   UNL     1      35.280  46.788  13.582 -0.26 +0.24    -0.315 NA ATOM     28  H   UNL     1      35.434  47.792  13.684 +0.08 -0.10    +0.122 HD BRANCH  27  29ATOM     29  C   UNL     1      36.184  46.281  12.546 -0.63 -0.04    +0.081 C  BRANCH  29  30ATOM     30  C   UNL     1      37.623  46.814  12.517 -0.53 -0.00    +0.019 C  BRANCH  30  31ATOM     31  C   UNL     1      38.165  47.393  13.829 -0.53 -0.02    +0.049 CG0ATOM     32  G   UNL     1      37.967  46.539  15.081 +0.00 +0.00    +0.000 G0 ENDBRANCH  30  31ENDBRANCH  29  30ENDBRANCH  27  29ENDBRANCH  26  27ENDBRANCH  25  26BRANCH  25  33ATOM     33  N   UNL     1      36.601  46.048  17.060 -0.14 +0.18    -0.344 N  ATOM     34  C   UNL     1      36.907  44.718  17.216 -0.23 -0.08    +0.251 C  ATOM     35  H   UNL     1      36.687  46.665  17.855 +0.09 -0.08    +0.164 HD ATOM     36  O   UNL     1      37.141  43.956  16.287 -0.24 +0.08    -0.269 OA BRANCH  34  37ATOM     37  C   UNL     1      36.955  44.226  18.613 -0.31 -0.01    +0.042 A  ATOM     38  C   UNL     1      35.956  43.359  19.051 -0.34 -0.01    +0.034 A  ATOM     39  C   UNL     1      37.951  44.645  19.495 -0.34 -0.00    +0.034 A  ATOM     40  C   UNL     1      36.010  42.921  20.361 -0.37 -0.00    +0.112 A  ATOM     41  C   UNL     1      37.911  44.153  20.786 -0.30 +0.00    +0.112 A  ATOM     42  N   UNL     1      36.968  43.296  21.236 -0.23 -0.01    -0.265 NA ENDBRANCH  34  37ENDBRANCH  25  33ENDBRANCH  23  25ENDBRANCH   1  23TORSDOF 9TERENDMDL