MODEL        2USER    Run = 2USERUSER    Estimated Free Energy of Binding    = -12.97 kcal/mol  [=(1)+(2)+(3)-(4)]USERUSER    (1) Final Intermolecular Energy     = -14.76 kcal/molUSER        vdW + Hbond + desolv Energy     = -14.68 kcal/molUSER        Electrostatic Energy            =  -0.08 kcal/molUSER        Moving Ligand-Fixed Receptor    = -14.76 kcal/molUSER        Moving Ligand-Moving Receptor   =  +0.00 kcal/molUSER    (2) Final Total Internal Energy     =  -1.99 kcal/molUSER    (3) Torsional Free Energy           =  +1.79 kcal/molUSER    (4) Unbound System's Energy         =  -1.99 kcal/molUSERUSERREMARK SMILES Oc1nc2ccccc2n1C1CCN(Cc2ccc(-c3cc4ccccc4nc3-c3ccccc3)cc2)CC1REMARK SMILES IDX 11 1 12 2 13 3 14 4 38 5 39 6 10 7 2 8 3 9 4 10 9 11 5 12REMARK SMILES IDX 8 13 6 14 7 15 1 16 15 18 16 19 17 20 37 21 18 22 36 23REMARK SMILES IDX 19 24 20 25 21 26 29 27 22 28 28 29 23 30 27 31 24 32 26 33REMARK SMILES IDX 25 34 30 35 31 36 35 37 32 38 34 39 33 40REMARK H PARENT 1 17USER                              x       y       z     vdW  Elec       q    TypeUSER                           _______ _______ _______ _____ _____    ______ ____ROOTATOM      1  C   UNL     1      39.028  46.490  15.636 -0.42 -0.03    +0.095 C  ATOM      2  C   UNL     1      38.756  46.974  14.204 -0.50 -0.01    +0.041 C  ATOM      3  C   UNL     1      37.471  47.779  14.039 -0.54 -0.04    +0.087 C  ATOM      4  N   UNL     1      36.306  47.193  14.706 -0.19 +0.25    -0.299 NA ATOM      5  C   UNL     1      36.556  47.035  16.141 -0.35 -0.08    +0.087 C  ATOM      6  C   UNL     1      37.780  46.187  16.479 -0.41 -0.02    +0.041 C  ENDROOTBRANCH   1   7ATOM      7  N   UNL     1      40.060  47.250  16.339 -0.28 +0.06    -0.291 N  ATOM      8  C   UNL     1      40.494  48.489  15.932 -0.33 -0.07    +0.295 A  ATOM      9  N   UNL     1      41.440  48.985  16.678 -0.98 -0.00    -0.195 NA ATOM     10  C   UNL     1      41.645  48.031  17.637 -0.36 -0.00    +0.092 A  ATOM     11  C   UNL     1      40.792  46.931  17.465 -0.45 -0.01    +0.072 A  ATOM     12  C   UNL     1      42.562  48.049  18.702 -0.38 +0.00    +0.031 A  ATOM     13  C   UNL     1      40.827  45.845  18.348 -0.46 -0.00    +0.029 A  ATOM     14  C   UNL     1      42.604  46.965  19.581 -0.50 +0.00    +0.002 A  ATOM     15  C   UNL     1      41.747  45.883  19.404 -0.42 +0.00    +0.002 A  BRANCH   8  16ATOM     16  O   UNL     1      40.027  49.150  14.893 -0.20 +0.20    -0.480 OA ATOM     17  H   UNL     1      39.649  49.937  15.326 -0.14 -0.21    +0.296 HD ENDBRANCH   8  16ENDBRANCH   1   7BRANCH   4  18ATOM     18  C   UNL     1      35.845  45.962  14.041 -0.41 -0.07    +0.120 C  BRANCH  18  19ATOM     19  C   UNL     1      35.148  45.002  14.981 -0.23 +0.02    -0.034 A  ATOM     20  C   UNL     1      35.777  43.826  15.407 -0.32 -0.00    +0.006 A  ATOM     21  C   UNL     1      33.853  45.280  15.442 -0.31 -0.00    +0.006 A  ATOM     22  C   UNL     1      35.124  42.945  16.273 -0.43 -0.00    +0.009 A  ATOM     23  C   UNL     1      33.199  44.393  16.301 -0.32 -0.00    +0.009 A  ATOM     24  C   UNL     1      33.822  43.211  16.725 -0.35 +0.01    -0.016 A  BRANCH  24  25ATOM     25  C   UNL     1      33.135  42.284  17.637 -0.37 -0.00    +0.009 A  ATOM     26  C   UNL     1      31.972  41.633  17.201 -0.23 -0.01    +0.021 A  ATOM     27  C   UNL     1      33.593  41.973  18.927 -0.34 -0.01    +0.079 A  ATOM     28  C   UNL     1      31.314  40.708  18.021 -0.36 -0.00    +0.001 A  ATOM     29  N   UNL     1      32.971  41.063  19.731 -0.17 -0.06    -0.247 NA ATOM     30  C   UNL     1      30.149  40.042  17.603 -0.35 +0.00    +0.010 A  ATOM     31  C   UNL     1      31.860  40.451  19.291 -0.30 +0.01    +0.071 A  ATOM     32  C   UNL     1      29.522  39.122  18.442 -0.34 +0.00    +0.001 A  ATOM     33  C   UNL     1      31.218  39.530  20.108 -0.36 +0.00    +0.029 A  ATOM     34  C   UNL     1      30.059  38.864  19.698 -0.35 +0.00    +0.002 A  BRANCH  27  35ATOM     35  C   UNL     1      34.781  42.586  19.551 -0.43 -0.00    +0.001 A  ATOM     36  C   UNL     1      35.055  43.953  19.369 -0.38 -0.00    +0.010 A  ATOM     37  C   UNL     1      35.683  41.833  20.323 -0.34 -0.00    +0.010 A  ATOM     38  C   UNL     1      36.174  44.550  19.956 -0.25 -0.00    +0.001 A  ATOM     39  C   UNL     1      36.803  42.428  20.910 -0.45 +0.00    +0.001 A  ATOM     40  C   UNL     1      37.046  43.788  20.729 -0.41 -0.00    +0.000 A  ENDBRANCH  27  35ENDBRANCH  24  25ENDBRANCH  18  19ENDBRANCH   4  18TORSDOF 6TERENDMDL