MODEL        8USER    Run = 8USERUSER    Estimated Free Energy of Binding    =  -5.95 kcal/mol  [=(1)+(2)+(3)-(4)]USERUSER    (1) Final Intermolecular Energy     = -10.12 kcal/molUSER        vdW + Hbond + desolv Energy     = -11.81 kcal/molUSER        Electrostatic Energy            =  +0.04 kcal/molUSER        Moving Ligand-Fixed Receptor    = -11.77 kcal/molUSER        Moving Ligand-Moving Receptor   =  +1.65 kcal/molUSER    (2) Final Total Internal Energy     =  -2.61 kcal/molUSER    (3) Torsional Free Energy           =  +4.18 kcal/molUSER    (4) Unbound System's Energy         =  -2.61 kcal/molUSERUSERREMARK SMILES COc1ccc(O)c(C(=O)c2ccc(C(=O)N[C@@H]3CCCNC[C@H]3NC(=O)c3ccncc3)cc2)c1FREMARK SMILES IDX 15 1 16 2 17 3 14 5 11 6 12 7 35 8 13 9 34 10 9 11 10 12REMARK SMILES IDX 8 13 3 14 4 15 36 16 5 17 6 18 37 19 2 20 1 21 7 22 18 24REMARK SMILES IDX 19 25 24 27 23 28 22 29 21 31 20 32 25 34 26 35 27 37 28 38REMARK SMILES IDX 29 39 33 40 30 41 32 42 31 43REMARK H PARENT 17 4 7 23 22 30 25 36REMARK Flexibility Score:   88.900USER                              x       y       z     vdW  Elec       q    TypeUSER                           _______ _______ _______ _____ _____    ______ ____ROOTATOM      1  C   UNL     1      35.582  45.547  17.425 -0.24 -0.14    +0.251 C  ATOM      2  O   UNL     1      34.453  45.395  16.971 -0.20 +0.19    -0.269 OA ATOM      3  N   UNL     1      36.543  46.330  16.818 -0.15 +0.22    -0.347 N  ATOM      4  H   UNL     1      37.498  46.239  17.136 +0.10 -0.07    +0.164 HD ENDROOTBRANCH   1   5ATOM      5  C   UNL     1      36.005  44.812  18.649 -0.32 -0.01    +0.039 A  ATOM      6  C   UNL     1      36.898  43.530  20.977 -0.40 +0.00    +0.023 A  ATOM      7  C   UNL     1      37.812  44.171  20.136 -0.35 -0.00    +0.013 A  ATOM      8  C   UNL     1      35.536  43.528  20.654 -0.28 +0.00    +0.013 A  ATOM      9  C   UNL     1      37.369  44.800  18.969 -0.33 -0.00    +0.014 A  ATOM     10  C   UNL     1      35.090  44.159  19.485 -0.39 -0.00    +0.014 A  BRANCH   6  11ATOM     11  C   UNL     1      37.405  42.948  22.239 -0.33 +0.01    +0.199 C  ATOM     12  O   UNL     1      38.144  41.965  22.168 -0.25 -0.03    -0.288 OA BRANCH  11  13ATOM     13  C   UNL     1      37.119  43.503  23.583 -0.28 +0.01    +0.104 A  ATOM     14  C   UNL     1      37.160  45.321  25.210 -0.20 +0.01    +0.155 A  ATOM     15  C   UNL     1      36.538  44.496  26.150 -0.32 -0.01    +0.053 A  ATOM     16  C   UNL     1      37.443  44.815  23.930 -0.15 +0.03    +0.179 A  ATOM     17  C   UNL     1      36.184  43.188  25.806 -0.35 -0.00    +0.051 A  ATOM     18  C   UNL     1      36.461  42.705  24.530 -0.20 +0.01    +0.130 A  ATOM     19  F   UNL     1      38.007  45.633  23.027 -0.10 -0.03    -0.202 F  BRANCH  14  20ATOM     20  O   UNL     1      37.538  46.620  25.424 -0.59 -0.04    -0.494 OA ATOM     21  C   UNL     1      38.888  46.847  25.819 -0.15 +0.01    +0.278 C  ENDBRANCH  14  20BRANCH  18  22ATOM     22  O   UNL     1      36.050  41.423  24.273 -0.13 +0.06    -0.507 OA ATOM     23  H   UNL     1      36.600  41.081  23.528 +0.17 -0.01    +0.293 HD ENDBRANCH  18  22ENDBRANCH  11  13ENDBRANCH   6  11ENDBRANCH   1   5BRANCH   3  24ATOM     24  C   UNL     1      36.332  46.872  15.470 -0.35 -0.09    +0.106 C  BRANCH  24  25ATOM     25  C   UNL     1      35.441  45.920  14.661 -0.44 -0.02    +0.028 CG0ATOM     26  G   UNL     1      35.178  46.330  13.203 +0.00 +0.00    +0.000 G0 ENDBRANCH  24  25BRANCH  24  27ATOM     27  C   UNL     1      37.696  47.188  14.793 -0.43 -0.06    +0.118 C  BRANCH  27  28ATOM     28  C   UNL     1      37.655  48.321  13.741 -0.49 -0.05    +0.108 C  BRANCH  28  29ATOM     29  N   UNL     1      36.855  48.086  12.535 -0.90 +0.09    -0.315 NA ATOM     30  H   UNL     1      36.077  48.740  12.502 +0.01 -0.05    +0.122 HD BRANCH  29  31ATOM     31  C   UNL     1      36.364  46.726  12.343 -0.68 -0.04    +0.081 C  BRANCH  31  32ATOM     32  C   UNL     1      35.168  46.322  13.200 -0.44 -0.01    +0.017 CG0ATOM     33  G   UNL     1      35.458  45.929  14.659 +0.00 +0.00    +0.000 G0 ENDBRANCH  31  32ENDBRANCH  29  31ENDBRANCH  28  29ENDBRANCH  27  28BRANCH  27  34ATOM     34  N   UNL     1      38.717  47.454  15.815 -0.19 +0.15    -0.346 N  ATOM     35  C   UNL     1      39.354  46.431  16.480 -0.32 -0.06    +0.251 C  ATOM     36  H   UNL     1      39.135  48.371  15.818 +0.11 -0.08    +0.164 HD ATOM     37  O   UNL     1      39.064  45.250  16.345 -0.07 +0.05    -0.269 OA BRANCH  35  38ATOM     38  C   UNL     1      40.467  46.823  17.379 -0.47 -0.01    +0.042 A  ATOM     39  C   UNL     1      40.879  45.916  18.355 -0.46 -0.00    +0.034 A  ATOM     40  C   UNL     1      41.084  48.072  17.291 -0.48 -0.00    +0.034 A  ATOM     41  C   UNL     1      41.913  46.288  19.192 -0.39 +0.01    +0.112 A  ATOM     42  C   UNL     1      42.109  48.349  18.177 +0.02 +0.00    +0.112 A  ATOM     43  N   UNL     1      42.540  47.482  19.121 -0.38 -0.02    -0.265 NA ENDBRANCH  35  38ENDBRANCH  27  34ENDBRANCH  24  27ENDBRANCH   3  24TORSDOF 8TERENDMDL