MODEL        4USER    Run = 4USERUSER    Estimated Free Energy of Binding    = -12.35 kcal/mol  [=(1)+(2)+(3)-(4)]USERUSER    (1) Final Intermolecular Energy     = -14.73 kcal/molUSER        vdW + Hbond + desolv Energy     = -14.68 kcal/molUSER        Electrostatic Energy            =  -0.06 kcal/molUSER        Moving Ligand-Fixed Receptor    = -14.73 kcal/molUSER        Moving Ligand-Moving Receptor   =  +0.00 kcal/molUSER    (2) Final Total Internal Energy     =  -1.55 kcal/molUSER    (3) Torsional Free Energy           =  +2.39 kcal/molUSER    (4) Unbound System's Energy         =  -1.55 kcal/molUSERUSERREMARK SMILES N#Cc1cnc(-c2ccc(CNCc3ccc(-c4csnn4)cc3)cc2)c(-c2ccccc2)c1REMARK SMILES IDX 11 1 10 2 7 3 8 4 26 5 9 6 25 7 6 8 3 9 4 10 34 11 5 12REMARK SMILES IDX 27 13 2 14 1 15 28 16 29 17 33 18 30 19 32 20 31 21 12 22REMARK SMILES IDX 13 24 14 25 15 26 24 27 16 28 23 29 17 30 18 31 19 32 22 33REMARK SMILES IDX 20 34 21 35REMARK H PARENT 12 23USER                              x       y       z     vdW  Elec       q    TypeUSER                           _______ _______ _______ _____ _____    ______ ____ROOTATOM      1  C   UNL     1      41.810  45.723  18.425 -0.34 +0.01    +0.117 C  ENDROOTBRANCH   1   2ATOM      2  C   UNL     1      41.024  45.643  19.712 -0.40 -0.00    -0.034 A  ATOM      3  C   UNL     1      39.521  45.523  22.119 -0.31 +0.00    +0.001 A  ATOM      4  C   UNL     1      40.908  45.755  22.136 -0.25 +0.00    +0.011 A  ATOM      5  C   UNL     1      38.907  45.335  20.870 -0.32 +0.00    +0.011 A  ATOM      6  C   UNL     1      41.650  45.821  20.951 -0.33 +0.00    +0.006 A  ATOM      7  C   UNL     1      39.645  45.403  19.683 -0.39 -0.00    +0.006 A  BRANCH   3   8ATOM      8  C   UNL     1      38.761  45.460  23.384 -0.26 +0.01    +0.078 A  ATOM      9  C   UNL     1      37.523  45.557  25.856 -0.28 -0.00    +0.071 A  ATOM     10  C   UNL     1      38.480  46.474  25.468 -0.21 +0.01    +0.131 A  ATOM     11  C   UNL     1      37.171  44.558  24.950 -0.31 +0.00    +0.032 A  ATOM     12  N   UNL     1      39.095  46.450  24.264 -0.17 -0.02    -0.254 NA ATOM     13  C   UNL     1      37.783  44.488  23.682 -0.31 +0.00    +0.009 A  BRANCH   9  14ATOM     14  C   UNL     1      36.912  45.643  27.143 -0.34 -0.02    +0.101 C  ATOM     15  N   UNL     1      36.415  45.715  28.188 -0.30 +0.05    -0.192 NA ENDBRANCH   9  14BRANCH  13  16ATOM     16  C   UNL     1      37.346  43.441  22.742 -0.37 -0.00    -0.016 A  ATOM     17  C   UNL     1      37.711  42.098  22.941 -0.39 +0.00    +0.009 A  ATOM     18  C   UNL     1      36.541  43.751  21.633 -0.34 +0.00    +0.009 A  ATOM     19  C   UNL     1      37.295  41.101  22.056 -0.51 +0.00    +0.001 A  ATOM     20  C   UNL     1      36.126  42.755  20.747 -0.47 +0.00    +0.001 A  ATOM     21  C   UNL     1      36.503  41.431  20.957 -0.50 -0.00    +0.000 A  ENDBRANCH  13  16ENDBRANCH   3   8ENDBRANCH   1   2BRANCH   1  22ATOM     22  N   UNL     1      42.540  46.989  18.349 -0.24 -0.00    -0.309 NA ATOM     23  H   UNL     1      43.229  46.913  17.602 -0.52 -0.05    +0.123 HD BRANCH  22  24ATOM     24  C   UNL     1      41.656  48.119  18.067 -0.30 -0.00    +0.117 C  BRANCH  24  25ATOM     25  C   UNL     1      40.689  47.858  16.935 -0.51 +0.01    -0.034 A  ATOM     26  C   UNL     1      40.967  48.304  15.637 -0.53 -0.00    +0.006 A  ATOM     27  C   UNL     1      39.486  47.182  17.169 -0.43 -0.00    +0.006 A  ATOM     28  C   UNL     1      40.065  48.069  14.593 -0.49 -0.00    +0.011 A  ATOM     29  C   UNL     1      38.584  46.948  16.127 -0.42 -0.00    +0.011 A  ATOM     30  C   UNL     1      38.864  47.382  14.824 -0.48 -0.00    +0.003 A  BRANCH  30  31ATOM     31  C   UNL     1      37.902  47.119  13.757 -0.41 -0.04    +0.105 A  ATOM     32  C   UNL     1      37.249  45.914  13.565 -0.38 -0.04    +0.118 A  ATOM     33  N   UNL     1      37.552  48.113  12.845 -0.92 +0.02    -0.138 NA ATOM     34  S   UNL     1      36.218  46.097  12.204 -0.85 +0.01    -0.020 S  ATOM     35  N   UNL     1      36.666  47.688  11.961 -1.09 +0.03    -0.091 NA ENDBRANCH  30  31ENDBRANCH  24  25ENDBRANCH  22  24ENDBRANCH   1  22TORSDOF 8TERENDMDL