MODEL        10USER    Run = 10USERUSER    Estimated Free Energy of Binding    =  -6.05 kcal/mol  [=(1)+(2)+(3)-(4)]USERUSER    (1) Final Intermolecular Energy     = -10.53 kcal/molUSER        vdW + Hbond + desolv Energy     = -10.56 kcal/molUSER        Electrostatic Energy            =  -0.07 kcal/molUSER        Moving Ligand-Fixed Receptor    = -10.63 kcal/molUSER        Moving Ligand-Moving Receptor   =  +0.10 kcal/molUSER    (2) Final Total Internal Energy     =  -3.68 kcal/molUSER    (3) Torsional Free Energy           =  +4.47 kcal/molUSER    (4) Unbound System's Energy         =  -3.68 kcal/molUSERUSERREMARK SMILES COc1ccc(O)c(C(=O)c2ccc(CN[C@@H]3CCCNC[C@H]3NC(=O)c3ccncc3)cc2)c1FREMARK SMILES IDX 16 1 15 3 14 4 11 5 12 6 34 7 13 8 33 9 9 10 10 11 8 12 3 13REMARK SMILES IDX 4 14 35 15 5 16 6 17 36 18 2 19 1 20 7 21 17 23 18 24 23 26REMARK SMILES IDX 22 27 21 28 20 30 19 31 24 33 25 34 26 36 27 37 28 38 32 39REMARK SMILES IDX 29 40 31 41 30 42REMARK H PARENT 16 2 7 22 21 29 24 35REMARK Flexibility Score:   99.900USER                              x       y       z     vdW  Elec       q    TypeUSER                           _______ _______ _______ _____ _____    ______ ____ROOTATOM      1  N   UNL     1      36.049  44.656  28.398 -0.27 +0.08    -0.308 NA ATOM      2  H   UNL     1      36.783  44.105  28.850 -0.22 -0.04    +0.123 HD ENDROOTBRANCH   1   3ATOM      3  C   UNL     1      36.407  46.073  28.484 -0.21 -0.03    +0.117 C  BRANCH   3   4ATOM      4  C   UNL     1      37.264  46.551  27.337 -0.31 +0.01    -0.034 A  ATOM      5  C   UNL     1      38.876  47.423  25.203 -0.29 +0.00    +0.023 A  ATOM      6  C   UNL     1      39.385  46.518  26.140 -0.19 +0.00    +0.012 A  ATOM      7  C   UNL     1      37.572  47.910  25.347 -0.39 +0.00    +0.012 A  ATOM      8  C   UNL     1      38.579  46.081  27.195 -0.17 -0.00    +0.006 A  ATOM      9  C   UNL     1      36.770  47.472  26.404 -0.31 -0.00    +0.006 A  BRANCH   5  10ATOM     10  C   UNL     1      39.704  47.948  24.091 -0.28 +0.02    +0.199 C  ATOM     11  O   UNL     1      39.446  49.061  23.628 -0.02 -0.05    -0.288 OA BRANCH  10  12ATOM     12  C   UNL     1      40.874  47.230  23.540 -0.20 +0.01    +0.104 A  ATOM     13  C   UNL     1      41.926  45.221  22.645 -0.13 +0.02    +0.155 A  ATOM     14  C   UNL     1      43.130  45.915  22.511 -0.19 +0.01    +0.053 A  ATOM     15  C   UNL     1      40.803  45.891  23.154 -0.12 +0.01    +0.179 A  ATOM     16  C   UNL     1      43.203  47.267  22.861 -0.26 +0.01    +0.051 A  ATOM     17  C   UNL     1      42.078  47.921  23.356 -0.25 +0.02    +0.130 A  ATOM     18  F   UNL     1      39.641  45.224  23.242 -0.03 -0.01    -0.202 F  BRANCH  13  19ATOM     19  O   UNL     1      41.729  43.907  22.315 -0.07 -0.03    -0.494 OA ATOM     20  C   UNL     1      41.324  43.623  20.982 -0.15 +0.02    +0.278 C  ENDBRANCH  13  19BRANCH  17  21ATOM     21  O   UNL     1      42.224  49.253  23.640 -0.78 -0.17    -0.507 OA ATOM     22  H   UNL     1      41.323  49.651  23.680 +0.14 +0.09    +0.293 HD ENDBRANCH  17  21ENDBRANCH  10  12ENDBRANCH   5  10ENDBRANCH   3   4ENDBRANCH   1   3BRANCH   1  23ATOM     23  C   UNL     1      35.886  44.161  27.004 -0.40 -0.02    +0.077 C  BRANCH  23  24ATOM     24  C   UNL     1      34.617  43.299  26.973 -0.53 -0.00    +0.022 CG0ATOM     25  G   UNL     1      34.666  42.035  27.829 +0.00 +0.00    +0.000 G0 ENDBRANCH  23  24BRANCH  23  26ATOM     26  C   UNL     1      37.170  43.394  26.559 -0.31 -0.01    +0.113 C  BRANCH  26  27ATOM     27  C   UNL     1      37.478  42.196  27.490 -0.39 -0.02    +0.107 C  BRANCH  27  28ATOM     28  N   UNL     1      36.842  40.912  27.216 -0.27 +0.09    -0.315 NA ATOM     29  H   UNL     1      37.144  40.234  27.920 +0.04 -0.03    +0.122 HD BRANCH  28  30ATOM     30  C   UNL     1      35.389  40.880  27.142 -0.62 -0.04    +0.081 C  BRANCH  30  31ATOM     31  C   UNL     1      34.666  42.035  27.830 -0.51 -0.01    +0.017 CG0ATOM     32  G   UNL     1      34.617  43.300  26.974 +0.00 +0.00    +0.000 G0 ENDBRANCH  30  31ENDBRANCH  28  30ENDBRANCH  27  28ENDBRANCH  26  27BRANCH  26  33ATOM     33  N   UNL     1      37.002  42.913  25.173 -0.15 +0.00    -0.346 N  ATOM     34  C   UNL     1      37.025  43.779  24.102 -0.22 +0.03    +0.251 C  ATOM     35  H   UNL     1      36.959  41.915  25.029 +0.08 -0.01    +0.164 HD ATOM     36  O   UNL     1      37.087  44.997  24.223 -0.44 -0.05    -0.269 OA BRANCH  34  37ATOM     37  C   UNL     1      36.937  43.173  22.748 -0.36 +0.00    +0.042 A  ATOM     38  C   UNL     1      37.188  43.990  21.646 -0.37 +0.00    +0.034 A  ATOM     39  C   UNL     1      36.646  41.822  22.555 -0.51 +0.00    +0.034 A  ATOM     40  C   UNL     1      37.108  43.427  20.387 -0.30 -0.00    +0.112 A  ATOM     41  C   UNL     1      36.593  41.355  21.253 -0.44 -0.00    +0.112 A  ATOM     42  N   UNL     1      36.807  42.129  20.169 -0.15 +0.01    -0.265 NA ENDBRANCH  34  37ENDBRANCH  26  33ENDBRANCH  23  26ENDBRANCH   1  23TORSDOF 9TERENDMDL