MODEL        7USER    Run = 7USERUSER    Estimated Free Energy of Binding    = -10.40 kcal/mol  [=(1)+(2)+(3)-(4)]USERUSER    (1) Final Intermolecular Energy     = -13.09 kcal/molUSER        vdW + Hbond + desolv Energy     = -12.83 kcal/molUSER        Electrostatic Energy            =  -0.26 kcal/molUSER        Moving Ligand-Fixed Receptor    = -13.09 kcal/molUSER        Moving Ligand-Moving Receptor   =  +0.00 kcal/molUSER    (2) Final Total Internal Energy     =  -1.65 kcal/molUSER    (3) Torsional Free Energy           =  +2.68 kcal/molUSER    (4) Unbound System's Energy         =  -1.65 kcal/molUSERUSERREMARK SMILES N[C@@H](CCc1c[nH]nn1)OC(=O)c1ccc2c(c1)CCC[C@@H]2Cc1ccccc1REMARK SMILES IDX 2 1 1 2 3 5 4 6 5 7 6 8 9 9 7 10 8 11 10 13 11 14 12 15REMARK SMILES IDX 13 16 14 17 18 18 15 19 17 20 16 21 19 22 22 23 20 24 21 25REMARK SMILES IDX 23 26 24 27 25 28 29 29 26 30 28 31 27 32REMARK H PARENT 1 3 1 4 7 12USER                              x       y       z     vdW  Elec       q    TypeUSER                           _______ _______ _______ _____ _____    ______ ____ROOTATOM      1  C   UNL     1      42.366  47.352  19.871 -0.16 +0.03    +0.243 C  ENDROOTBRANCH   1   2ATOM      2  N   UNL     1      43.488  47.299  18.942 -0.29 -0.08    -0.296 NA ATOM      3  H   UNL     1      44.055  48.127  19.102 -0.53 +0.01    +0.122 HD ATOM      4  H   UNL     1      43.137  47.360  17.990 -0.50 -0.01    +0.122 HD ENDBRANCH   1   2BRANCH   1   5ATOM      5  C   UNL     1      41.147  46.619  19.282 -0.42 +0.00    +0.068 C  BRANCH   5   6ATOM      6  C   UNL     1      41.106  46.486  17.755 -0.50 -0.00    +0.065 C  BRANCH   6   7ATOM      7  C   UNL     1      40.897  47.748  17.004 -0.46 -0.01    +0.083 A  ATOM      8  C   UNL     1      39.908  48.103  16.113 -0.43 -0.04    +0.131 A  ATOM      9  N   UNL     1      41.786  48.788  17.118 -0.86 -0.02    -0.136 NA ATOM     10  N   UNL     1      40.232  49.376  15.755 -0.38 +0.10    -0.265 N  ATOM     11  N   UNL     1      41.368  49.780  16.342 -1.11 +0.00    -0.070 NA ATOM     12  H   UNL     1      39.754  50.016  15.132 -0.24 -0.14    +0.191 HD ENDBRANCH   6   7ENDBRANCH   5   6ENDBRANCH   1   5BRANCH   1  13ATOM     13  O   UNL     1      42.783  46.781  21.107 -0.17 -0.11    -0.443 OA BRANCH  13  14ATOM     14  C   UNL     1      42.616  47.554  22.205 -0.13 +0.05    +0.339 C  ATOM     15  O   UNL     1      43.353  48.460  22.560 -0.64 -0.05    -0.246 OA BRANCH  14  16ATOM     16  C   UNL     1      41.389  47.146  22.938 -0.18 +0.01    +0.060 A  ATOM     17  C   UNL     1      40.673  45.991  22.612 -0.23 +0.00    +0.016 A  ATOM     18  C   UNL     1      40.926  47.971  23.971 -0.30 +0.00    +0.019 A  ATOM     19  C   UNL     1      39.520  45.659  23.324 -0.26 +0.00    +0.005 A  ATOM     20  C   UNL     1      39.766  47.644  24.696 -0.28 -0.00    -0.044 A  ATOM     21  C   UNL     1      39.060  46.468  24.378 -0.26 -0.00    -0.041 A  ATOM     22  C   UNL     1      39.270  48.622  25.733 -0.30 +0.00    +0.036 C  ATOM     23  C   UNL     1      37.818  46.048  25.153 -0.32 +0.00    +0.024 C  ATOM     24  C   UNL     1      38.166  48.075  26.632 -0.33 -0.00    +0.005 C  ATOM     25  C   UNL     1      37.157  47.272  25.820 -0.41 +0.00    +0.009 C  BRANCH  23  26ATOM     26  C   UNL     1      38.139  44.962  26.214 -0.27 -0.00    +0.043 C  BRANCH  26  27ATOM     27  C   UNL     1      36.932  44.206  26.722 -0.33 +0.01    -0.047 A  ATOM     28  C   UNL     1      36.139  44.737  27.749 -0.44 -0.00    +0.004 A  ATOM     29  C   UNL     1      36.592  42.960  26.180 -0.40 -0.00    +0.004 A  ATOM     30  C   UNL     1      35.035  44.032  28.229 -0.60 -0.00    +0.000 A  ATOM     31  C   UNL     1      35.486  42.257  26.659 -0.52 -0.00    +0.000 A  ATOM     32  C   UNL     1      34.707  42.792  27.684 -0.59 -0.00    +0.000 A  ENDBRANCH  26  27ENDBRANCH  23  26ENDBRANCH  14  16ENDBRANCH  13  14ENDBRANCH   1  13TORSDOF 9TERENDMDL