MODEL        4USER    Run = 4USERUSER    Estimated Free Energy of Binding    =  -8.41 kcal/mol  [=(1)+(2)+(3)-(4)]USERUSER    (1) Final Intermolecular Energy     = -10.79 kcal/molUSER        vdW + Hbond + desolv Energy     = -10.62 kcal/molUSER        Electrostatic Energy            =  -0.17 kcal/molUSER        Moving Ligand-Fixed Receptor    = -10.79 kcal/molUSER        Moving Ligand-Moving Receptor   =  +0.00 kcal/molUSER    (2) Final Total Internal Energy     =  -2.88 kcal/molUSER    (3) Torsional Free Energy           =  +2.39 kcal/molUSER    (4) Unbound System's Energy         =  -2.88 kcal/molUSERUSERREMARK SMILES N[C@@H](CCc1c[nH]nn1)COC(=O)c1ccc2ccccc2c1REMARK SMILES IDX 2 1 1 2 3 5 4 6 5 7 6 8 9 9 7 10 8 11 10 13 11 14 12 15REMARK SMILES IDX 13 16 14 17 15 18 23 19 16 20 22 21 17 22 21 23 18 24 20 25REMARK SMILES IDX 19 26REMARK H PARENT 1 3 1 4 7 12USER                              x       y       z     vdW  Elec       q    TypeUSER                           _______ _______ _______ _____ _____    ______ ____ROOTATOM      1  C   UNL     1      44.410  46.321  21.716 -0.19 +0.08    +0.089 C  ENDROOTBRANCH   1   2ATOM      2  N   UNL     1      45.040  47.586  21.290 -0.51 -0.29    -0.325 NA ATOM      3  H   UNL     1      44.631  48.365  21.806 -0.51 +0.02    +0.119 HD ATOM      4  H   UNL     1      44.798  47.751  20.310 -0.42 +0.08    +0.119 HD ENDBRANCH   1   2BRANCH   1   5ATOM      5  C   UNL     1      44.632  46.149  23.227 -0.18 +0.01    +0.029 C  BRANCH   5   6ATOM      6  C   UNL     1      45.131  47.428  23.905 -0.17 +0.02    +0.061 C  BRANCH   6   7ATOM      7  C   UNL     1      44.011  48.338  24.258 -0.24 +0.02    +0.082 A  ATOM      8  C   UNL     1      43.636  48.848  25.479 -0.22 +0.02    +0.131 A  ATOM      9  N   UNL     1      43.157  48.810  23.296 -0.87 -0.04    -0.136 NA ATOM     10  N   UNL     1      42.552  49.620  25.193 -0.23 -0.05    -0.265 N  ATOM     11  N   UNL     1      42.265  49.597  23.883 -0.84 -0.03    -0.070 NA ATOM     12  H   UNL     1      41.970  50.177  25.809 -0.37 +0.01    +0.191 HD ENDBRANCH   6   7ENDBRANCH   5   6ENDBRANCH   1   5BRANCH   1  13ATOM     13  C   UNL     1      42.915  46.311  21.329 -0.24 +0.08    +0.251 C  BRANCH  13  14ATOM     14  O   UNL     1      42.590  47.470  20.536 -0.14 -0.05    -0.460 OA BRANCH  14  15ATOM     15  C   UNL     1      42.897  47.370  19.218 -0.36 +0.05    +0.338 C  ATOM     16  O   UNL     1      44.016  47.464  18.739 -0.35 -0.09    -0.246 OA BRANCH  15  17ATOM     17  C   UNL     1      41.670  47.138  18.408 -0.49 -0.00    +0.060 A  ATOM     18  C   UNL     1      40.768  46.107  18.691 -0.47 -0.00    +0.016 A  ATOM     19  C   UNL     1      41.425  47.992  17.323 -0.46 -0.00    +0.024 A  ATOM     20  C   UNL     1      39.631  45.934  17.897 -0.44 -0.00    +0.009 A  ATOM     21  C   UNL     1      40.286  47.826  16.518 -0.52 +0.00    -0.018 A  ATOM     22  C   UNL     1      39.377  46.783  16.809 -0.44 +0.00    -0.018 A  ATOM     23  C   UNL     1      40.031  48.676  15.429 -0.57 -0.00    +0.009 A  ATOM     24  C   UNL     1      38.238  46.620  16.003 -0.40 -0.00    +0.009 A  ATOM     25  C   UNL     1      38.895  48.500  14.639 -0.52 -0.00    +0.001 A  ATOM     26  C   UNL     1      38.000  47.473  14.925 -0.48 -0.00    +0.001 A  ENDBRANCH  15  17ENDBRANCH  14  15ENDBRANCH  13  14ENDBRANCH   1  13TORSDOF 8TERENDMDL