REMARK SMILES N[C@@H](CCc1cn[nH]c1)COC(=O)c1ccc2c(c1)CCC[C@H]2Cc1ccccc1
REMARK SMILES IDX 10 1 2 2 1 3 3 6 4 7 5 8 6 9 9 10 7 11 8 12 11 14 12 15
REMARK SMILES IDX 13 16 14 17 15 18 19 19 16 20 18 21 17 22 20 23 23 24 21 25
REMARK SMILES IDX 22 26 24 27 25 28 26 29 30 30 27 31 29 32 28 33
REMARK H PARENT 1 4 1 5 8 13
ROOT
ATOM      1  C   UNL     1      -4.094   0.543   1.785  1.00  0.00     0.251 C 
ENDROOT
BRANCH   1   2
ATOM      2  C   UNL     1      -4.805  -0.530   0.930  1.00  0.00     0.089 C 
BRANCH   2   3
ATOM      3  N   UNL     1      -6.244  -0.524   1.207  1.00  0.00    -0.325 NA
ATOM      4  H   UNL     1      -6.410  -0.852   2.159  1.00  0.00     0.119 HD
ATOM      5  H   UNL     1      -6.718  -1.189   0.594  1.00  0.00     0.119 HD
ENDBRANCH   2   3
BRANCH   2   6
ATOM      6  C   UNL     1      -4.508  -0.408  -0.581  1.00  0.00     0.027 C 
BRANCH   6   7
ATOM      7  C   UNL     1      -4.966   0.885  -1.267  1.00  0.00     0.040 C 
BRANCH   7   8
ATOM      8  C   UNL     1      -6.353   0.822  -1.812  1.00  0.00    -0.010 A 
ATOM      9  C   UNL     1      -7.551   1.261  -1.204  1.00  0.00     0.138 A 
ATOM     10  C   UNL     1      -6.763   0.337  -3.037  1.00  0.00     0.108 A 
ATOM     11  N   UNL     1      -8.623   1.069  -1.978  1.00  0.00    -0.184 NA
ATOM     12  N   UNL     1      -8.116   0.508  -3.086  1.00  0.00    -0.285 N 
ATOM     13  H   UNL     1      -8.753   0.268  -3.837  1.00  0.00     0.189 HD
ENDBRANCH   7   8
ENDBRANCH   6   7
ENDBRANCH   2   6
ENDBRANCH   1   2
BRANCH   1  14
ATOM     14  O   UNL     1      -2.693   0.639   1.478  1.00  0.00    -0.460 OA
BRANCH  14  15
ATOM     15  C   UNL     1      -1.901  -0.298   2.057  1.00  0.00     0.338 C 
ATOM     16  O   UNL     1      -2.281  -1.201   2.784  1.00  0.00    -0.246 OA
BRANCH  15  17
ATOM     17  C   UNL     1      -0.478  -0.091   1.672  1.00  0.00     0.060 A 
ATOM     18  C   UNL     1      -0.072   0.946   0.827  1.00  0.00     0.016 A 
ATOM     19  C   UNL     1       0.481  -0.972   2.186  1.00  0.00     0.019 A 
ATOM     20  C   UNL     1       1.277   1.093   0.499  1.00  0.00     0.005 A 
ATOM     21  C   UNL     1       1.841  -0.837   1.857  1.00  0.00    -0.044 A 
ATOM     22  C   UNL     1       2.245   0.208   1.005  1.00  0.00    -0.041 A 
ATOM     23  C   UNL     1       2.833  -1.778   2.497  1.00  0.00     0.036 C 
ATOM     24  C   UNL     1       3.702   0.388   0.593  1.00  0.00     0.024 C 
ATOM     25  C   UNL     1       4.219  -1.744   1.862  1.00  0.00     0.005 C 
ATOM     26  C   UNL     1       4.648  -0.307   1.592  1.00  0.00     0.009 C 
BRANCH  24  27
ATOM     27  C   UNL     1       3.891  -0.097  -0.866  1.00  0.00     0.043 C 
BRANCH  27  28
ATOM     28  C   UNL     1       5.262   0.179  -1.438  1.00  0.00    -0.047 A 
ATOM     29  C   UNL     1       5.660   1.490  -1.734  1.00  0.00     0.004 A 
ATOM     30  C   UNL     1       6.154  -0.873  -1.683  1.00  0.00     0.004 A 
ATOM     31  C   UNL     1       6.928   1.743  -2.260  1.00  0.00     0.000 A 
ATOM     32  C   UNL     1       7.422  -0.618  -2.208  1.00  0.00     0.000 A 
ATOM     33  C   UNL     1       7.809   0.690  -2.496  1.00  0.00     0.000 A 
ENDBRANCH  27  28
ENDBRANCH  24  27
ENDBRANCH  15  17
ENDBRANCH  14  15
ENDBRANCH   1  14
TORSDOF 10
