MODEL        5USER    Run = 5USERUSER    Estimated Free Energy of Binding    = -10.33 kcal/mol  [=(1)+(2)+(3)-(4)]USERUSER    (1) Final Intermolecular Energy     = -13.31 kcal/molUSER        vdW + Hbond + desolv Energy     = -13.23 kcal/molUSER        Electrostatic Energy            =  -0.08 kcal/molUSER        Moving Ligand-Fixed Receptor    = -13.31 kcal/molUSER        Moving Ligand-Moving Receptor   =  +0.00 kcal/molUSER    (2) Final Total Internal Energy     =  -2.26 kcal/molUSER    (3) Torsional Free Energy           =  +2.98 kcal/molUSER    (4) Unbound System's Energy         =  -2.26 kcal/molUSERUSERREMARK SMILES N[C@@H](CCc1cn[nH]c1)COC(=O)c1ccc2c(c1)CCC[C@H]2Cc1ccccc1REMARK SMILES IDX 10 1 2 2 1 3 3 6 4 7 5 8 6 9 9 10 7 11 8 12 11 14 12 15REMARK SMILES IDX 13 16 14 17 15 18 19 19 16 20 18 21 17 22 20 23 23 24 21 25REMARK SMILES IDX 22 26 24 27 25 28 26 29 30 30 27 31 29 32 28 33REMARK H PARENT 1 4 1 5 8 13USER                              x       y       z     vdW  Elec       q    TypeUSER                           _______ _______ _______ _____ _____    ______ ____ROOTATOM      1  C   UNL     1      33.843  42.876  18.700 -0.26 -0.04    +0.251 C  ENDROOTBRANCH   1   2ATOM      2  C   UNL     1      33.678  43.057  17.174 -0.35 -0.03    +0.089 C  BRANCH   2   3ATOM      3  N   UNL     1      34.515  42.089  16.458 -0.20 +0.17    -0.325 NA ATOM      4  H   UNL     1      33.940  41.561  15.801 -0.48 -0.10    +0.119 HD ATOM      5  H   UNL     1      34.892  41.404  17.115 -0.46 -0.07    +0.119 HD ENDBRANCH   2   3BRANCH   2   6ATOM      6  C   UNL     1      32.208  43.007  16.704 -0.36 -0.01    +0.027 C  BRANCH   6   7ATOM      7  C   UNL     1      31.396  44.299  16.855 -0.32 -0.01    +0.040 C  BRANCH   7   8ATOM      8  C   UNL     1      31.367  45.143  15.625 -0.39 +0.01    -0.010 A  ATOM      9  C   UNL     1      30.252  45.767  15.021 -0.36 -0.07    +0.138 A  ATOM     10  C   UNL     1      32.427  45.510  14.822 -0.27 -0.09    +0.108 A  ATOM     11  N   UNL     1      30.581  46.467  13.931 -0.51 +0.10    -0.184 NA ATOM     12  N   UNL     1      31.908  46.295  13.834 -0.32 +0.21    -0.285 N  ATOM     13  H   UNL     1      32.395  46.744  13.067 -0.43 -0.15    +0.189 HD ENDBRANCH   7   8ENDBRANCH   6   7ENDBRANCH   2   6ENDBRANCH   1   2BRANCH   1  14ATOM     14  O   UNL     1      35.156  42.409  19.051 -0.14 +0.06    -0.460 OA BRANCH  14  15ATOM     15  C   UNL     1      35.883  43.242  19.837 -0.24 -0.03    +0.338 C  ATOM     16  O   UNL     1      35.926  43.213  21.056 -0.33 -0.01    -0.246 OA BRANCH  15  17ATOM     17  C   UNL     1      36.652  44.208  19.006 -0.32 -0.01    +0.060 A  ATOM     18  C   UNL     1      36.057  44.969  17.996 -0.33 -0.01    +0.016 A  ATOM     19  C   UNL     1      38.022  44.353  19.258 -0.34 -0.00    +0.019 A  ATOM     20  C   UNL     1      36.827  45.861  17.247 -0.35 -0.00    +0.005 A  ATOM     21  C   UNL     1      38.808  45.243  18.505 -0.38 +0.01    -0.044 A  ATOM     22  C   UNL     1      38.204  46.007  17.488 -0.35 +0.01    -0.041 A  ATOM     23  C   UNL     1      40.264  45.402  18.870 -0.49 -0.00    +0.036 C  ATOM     24  C   UNL     1      39.011  46.968  16.623 -0.49 -0.01    +0.024 C  ATOM     25  C   UNL     1      41.086  46.152  17.828 -0.54 -0.00    +0.005 C  ATOM     26  C   UNL     1      40.324  47.371  17.322 -0.56 -0.00    +0.009 C  BRANCH  24  27ATOM     27  C   UNL     1      39.232  46.344  15.223 -0.46 -0.01    +0.043 C  BRANCH  27  28ATOM     28  C   UNL     1      38.086  46.558  14.261 -0.41 +0.02    -0.047 A  ATOM     29  C   UNL     1      37.607  47.850  14.000 -0.54 -0.00    +0.004 A  ATOM     30  C   UNL     1      37.485  45.469  13.618 -0.44 -0.00    +0.004 A  ATOM     31  C   UNL     1      36.551  48.046  13.110 -0.62 -0.00    +0.000 A  ATOM     32  C   UNL     1      36.430  45.667  12.726 -0.55 -0.00    +0.000 A  ATOM     33  C   UNL     1      35.963  46.956  12.472 -0.66 -0.00    +0.000 A  ENDBRANCH  27  28ENDBRANCH  24  27ENDBRANCH  15  17ENDBRANCH  14  15ENDBRANCH   1  14TORSDOF 10TERENDMDL