REMARK SMILES N[C@@H](CCc1c[nH]nn1)OC(=O)c1ccc2c(c1)CCC[C@@H]2Cc1ccccc1
REMARK SMILES IDX 2 1 1 2 3 5 4 6 5 7 6 8 9 9 7 10 8 11 10 13 11 14 12 15
REMARK SMILES IDX 13 16 14 17 18 18 15 19 17 20 16 21 19 22 22 23 20 24 21 25
REMARK SMILES IDX 23 26 24 27 25 28 29 29 26 30 28 31 27 32
REMARK H PARENT 1 3 1 4 7 12
ROOT
ATOM      1  C   UNL     1      -4.056  -0.899   1.650  1.00  0.00     0.243 C 
ENDROOT
BRANCH   1   2
ATOM      2  N   UNL     1      -4.506   0.321   2.310  1.00  0.00    -0.296 NA
ATOM      3  H   UNL     1      -3.760   0.624   2.930  1.00  0.00     0.122 HD
ATOM      4  H   UNL     1      -5.309   0.107   2.896  1.00  0.00     0.122 HD
ENDBRANCH   1   2
BRANCH   1   5
ATOM      5  C   UNL     1      -5.002  -1.261   0.491  1.00  0.00     0.068 C 
BRANCH   5   6
ATOM      6  C   UNL     1      -4.722  -0.581  -0.854  1.00  0.00     0.065 C 
BRANCH   6   7
ATOM      7  C   UNL     1      -4.763   0.902  -0.847  1.00  0.00     0.083 A 
ATOM      8  C   UNL     1      -5.799   1.765  -0.565  1.00  0.00     0.131 A 
ATOM      9  N   UNL     1      -3.654   1.636  -1.188  1.00  0.00    -0.136 NA
ATOM     10  N   UNL     1      -5.245   3.000  -0.714  1.00  0.00    -0.265 N 
ATOM     11  N   UNL     1      -3.965   2.923  -1.106  1.00  0.00    -0.070 NA
ATOM     12  H   UNL     1      -5.657   3.916  -0.580  1.00  0.00     0.191 HD
ENDBRANCH   6   7
ENDBRANCH   5   6
ENDBRANCH   1   5
BRANCH   1  13
ATOM     13  O   UNL     1      -2.720  -0.697   1.203  1.00  0.00    -0.443 OA
BRANCH  13  14
ATOM     14  C   UNL     1      -2.006  -1.816   0.939  1.00  0.00     0.339 C 
ATOM     15  O   UNL     1      -2.385  -2.963   1.113  1.00  0.00    -0.246 OA
BRANCH  14  16
ATOM     16  C   UNL     1      -0.669  -1.456   0.397  1.00  0.00     0.060 A 
ATOM     17  C   UNL     1      -0.340  -0.149   0.028  1.00  0.00     0.016 A 
ATOM     18  C   UNL     1       0.276  -2.476   0.227  1.00  0.00     0.019 A 
ATOM     19  C   UNL     1       0.926   0.133  -0.487  1.00  0.00     0.005 A 
ATOM     20  C   UNL     1       1.555  -2.201  -0.289  1.00  0.00    -0.044 A 
ATOM     21  C   UNL     1       1.890  -0.879  -0.640  1.00  0.00    -0.041 A 
ATOM     22  C   UNL     1       2.492  -3.358  -0.534  1.00  0.00     0.036 C 
ATOM     23  C   UNL     1       3.271  -0.520  -1.171  1.00  0.00     0.024 C 
ATOM     24  C   UNL     1       3.926  -2.946  -0.853  1.00  0.00     0.005 C 
ATOM     25  C   UNL     1       3.946  -1.754  -1.803  1.00  0.00     0.009 C 
BRANCH  23  26
ATOM     26  C   UNL     1       4.176   0.084  -0.065  1.00  0.00     0.043 C 
BRANCH  26  27
ATOM     27  C   UNL     1       3.865   1.522   0.285  1.00  0.00    -0.047 A 
ATOM     28  C   UNL     1       3.252   1.841   1.505  1.00  0.00     0.004 A 
ATOM     29  C   UNL     1       4.178   2.556  -0.607  1.00  0.00     0.004 A 
ATOM     30  C   UNL     1       2.951   3.167   1.821  1.00  0.00     0.000 A 
ATOM     31  C   UNL     1       3.878   3.881  -0.288  1.00  0.00     0.000 A 
ATOM     32  C   UNL     1       3.264   4.187   0.925  1.00  0.00     0.000 A 
ENDBRANCH  26  27
ENDBRANCH  23  26
ENDBRANCH  14  16
ENDBRANCH  13  14
ENDBRANCH   1  13
TORSDOF 9
