MODEL        6USER    Run = 6USERUSER    Estimated Free Energy of Binding    = -13.32 kcal/mol  [=(1)+(2)+(3)-(4)]USERUSER    (1) Final Intermolecular Energy     = -16.60 kcal/molUSER        vdW + Hbond + desolv Energy     = -16.51 kcal/molUSER        Electrostatic Energy            =  -0.09 kcal/molUSER        Moving Ligand-Fixed Receptor    = -16.60 kcal/molUSER        Moving Ligand-Moving Receptor   =  +0.00 kcal/molUSER    (2) Final Total Internal Energy     =  -4.01 kcal/molUSER    (3) Torsional Free Energy           =  +3.28 kcal/molUSER    (4) Unbound System's Energy         =  -4.01 kcal/molUSERUSERREMARK SMILES Oc1nc2cc(F)ccc2n1C1CCN(Cc2ccc(-c3nc4cc(F)ccc4nc3-c3ccc(OCCNc4ccccc4)cc3)cc2)CC1REMARK SMILES IDX 21 1 22 2 23 3 24 4 25 5 26 6 27 7 28 8 29 9 30 10 31 11REMARK SMILES IDX 20 12 17 13 18 14 49 15 19 16 48 17 16 18 15 19 12 20 13 21REMARK SMILES IDX 51 22 14 23 50 24 11 25 2 26 3 27 4 28 10 29 5 30 9 31 6 32REMARK SMILES IDX 8 33 7 34 1 35 32 37 33 38 47 39 34 40 46 41 35 42 36 43REMARK SMILES IDX 37 44 38 45 39 46 40 48 41 49 45 50 42 51 44 52 43 53REMARK H PARENT 1 36 39 47USER                              x       y       z     vdW  Elec       q    TypeUSER                           _______ _______ _______ _____ _____    ______ ____ROOTATOM      1  C   UNL     1      39.265  45.995  18.811 -0.31 -0.01    +0.097 A  ATOM      2  N   UNL     1      40.233  46.784  18.269 -0.30 +0.03    -0.244 NA ATOM      3  C   UNL     1      39.985  47.335  17.070 -0.42 -0.02    +0.092 A  ATOM      4  C   UNL     1      40.945  48.142  16.481 -0.49 -0.01    +0.069 A  ATOM      5  C   UNL     1      40.714  48.715  15.238 -0.50 -0.03    +0.125 A  ATOM      6  F   UNL     1      41.649  49.498  14.689 -0.20 +0.02    -0.207 F  ATOM      7  C   UNL     1      39.528  48.491  14.560 -0.50 -0.01    +0.041 A  ATOM      8  C   UNL     1      38.555  47.685  15.150 -0.47 -0.01    +0.033 A  ATOM      9  C   UNL     1      38.761  47.105  16.396 -0.37 -0.03    +0.090 A  ATOM     10  N   UNL     1      37.794  46.347  16.936 -0.23 +0.10    -0.244 NA ATOM     11  C   UNL     1      38.037  45.807  18.160 -0.26 -0.02    +0.097 A  ENDROOTBRANCH   1  12ATOM     12  C   UNL     1      39.636  45.361  20.089 -0.38 +0.00    +0.002 A  ATOM     13  C   UNL     1      40.407  44.165  22.548 -0.22 -0.00    -0.034 A  ATOM     14  C   UNL     1      39.516  45.243  22.529 -0.28 +0.00    +0.006 A  ATOM     15  C   UNL     1      40.887  43.667  21.327 -0.25 +0.00    +0.006 A  ATOM     16  C   UNL     1      39.130  45.821  21.316 -0.22 +0.00    +0.011 A  ATOM     17  C   UNL     1      40.504  44.255  20.117 -0.29 +0.00    +0.011 A  BRANCH  13  18ATOM     18  C   UNL     1      40.843  43.553  23.864 -0.18 +0.00    +0.120 C  BRANCH  18  19ATOM     19  N   UNL     1      39.847  42.633  24.439 -0.06 -0.02    -0.299 NA ATOM     20  C   UNL     1      37.309  41.937  25.739 -0.36 -0.01    +0.095 C  ATOM     21  C   UNL     1      37.327  42.823  24.488 -0.40 +0.00    +0.041 C  ATOM     22  C   UNL     1      38.663  41.921  26.471 -0.33 -0.00    +0.041 C  ATOM     23  C   UNL     1      38.596  42.593  23.666 -0.23 +0.01    +0.087 C  ATOM     24  C   UNL     1      39.656  42.908  25.866 -0.19 -0.00    +0.087 C  BRANCH  20  25ATOM     25  N   UNL     1      36.195  42.279  26.616 -0.24 +0.06    -0.291 N  ATOM     26  C   UNL     1      35.146  41.464  26.949 -0.34 -0.10    +0.295 A  ATOM     27  N   UNL     1      34.287  42.030  27.748 -0.25 +0.06    -0.195 NA ATOM     28  C   UNL     1      34.791  43.290  27.961 -0.52 -0.03    +0.095 A  ATOM     29  C   UNL     1      35.996  43.477  27.273 -0.42 -0.02    +0.072 A  ATOM     30  C   UNL     1      34.269  44.331  28.739 -0.58 -0.01    +0.070 A  ATOM     31  C   UNL     1      36.723  44.675  27.335 -0.38 -0.01    +0.032 A  ATOM     32  C   UNL     1      34.987  45.525  28.801 -0.31 -0.03    +0.125 A  ATOM     33  C   UNL     1      36.188  45.702  28.120 -0.34 -0.01    +0.041 A  ATOM     34  F   UNL     1      34.506  46.536  29.538 -0.17 +0.05    -0.207 F  BRANCH  26  35ATOM     35  O   UNL     1      34.998  40.228  26.525 -0.25 +0.29    -0.480 OA ATOM     36  H   UNL     1      34.393  39.864  27.203 -0.17 -0.23    +0.296 HD ENDBRANCH  26  35ENDBRANCH  20  25ENDBRANCH  18  19ENDBRANCH  13  18ENDBRANCH   1  12BRANCH  11  37ATOM     37  C   UNL     1      36.910  45.050  18.724 -0.28 -0.00    +0.003 A  ATOM     38  C   UNL     1      37.112  43.794  19.325 -0.31 -0.00    +0.014 A  ATOM     39  C   UNL     1      35.596  45.542  18.641 -0.12 -0.00    +0.014 A  ATOM     40  C   UNL     1      36.034  43.038  19.794 -0.39 -0.00    +0.047 A  ATOM     41  C   UNL     1      34.518  44.775  19.092 -0.37 -0.01    +0.047 A  ATOM     42  C   UNL     1      34.731  43.521  19.667 -0.33 -0.01    +0.119 A  BRANCH  42  43ATOM     43  O   UNL     1      33.598  42.844  20.026 -0.58 -0.08    -0.492 OA BRANCH  43  44ATOM     44  C   UNL     1      32.367  43.339  19.474 -0.30 -0.00    +0.250 C  BRANCH  44  45ATOM     45  C   UNL     1      32.156  42.708  18.089 -0.28 -0.03    +0.154 C  BRANCH  45  46ATOM     46  N   UNL     1      33.386  42.098  17.566 -0.13 +0.13    -0.382 N  ATOM     47  H   UNL     1      33.922  41.702  18.342 +0.09 -0.03    +0.160 HD BRANCH  46  48ATOM     48  C   UNL     1      34.217  42.851  16.724 -0.37 -0.01    +0.034 A  ATOM     49  C   UNL     1      33.727  44.055  16.188 -0.31 -0.01    +0.025 A  ATOM     50  C   UNL     1      35.560  42.531  16.487 -0.43 -0.01    +0.025 A  ATOM     51  C   UNL     1      34.528  44.869  15.382 -0.28 -0.00    +0.002 A  ATOM     52  C   UNL     1      36.369  43.345  15.685 -0.42 -0.00    +0.002 A  ATOM     53  C   UNL     1      35.850  44.510  15.124 -0.32 -0.00    +0.000 A  ENDBRANCH  46  48ENDBRANCH  45  46ENDBRANCH  44  45ENDBRANCH  43  44ENDBRANCH  42  43ENDBRANCH  11  37TORSDOF 11TERENDMDL