MODEL        8USER    Run = 8USERUSER    Estimated Free Energy of Binding    = -11.88 kcal/mol  [=(1)+(2)+(3)-(4)]USERUSER    (1) Final Intermolecular Energy     = -14.86 kcal/molUSER        vdW + Hbond + desolv Energy     = -14.48 kcal/molUSER        Electrostatic Energy            =  -0.38 kcal/molUSER        Moving Ligand-Fixed Receptor    = -14.86 kcal/molUSER        Moving Ligand-Moving Receptor   =  +0.00 kcal/molUSER    (2) Final Total Internal Energy     =  -3.27 kcal/molUSER    (3) Torsional Free Energy           =  +2.98 kcal/molUSER    (4) Unbound System's Energy         =  -3.27 kcal/molUSERUSERREMARK SMILES OCCOc1ccc(-c2nc3ccc(F)cc3nc2-c2ccc(CN3CCC(n4c(O)nc5cc(F)ccc54)CC3)cc2)cc1FREMARK SMILES IDX 9 1 10 2 11 3 12 4 13 5 14 6 15 7 16 8 17 9 18 10 19 11 8 12REMARK SMILES IDX 5 13 6 14 45 15 7 16 44 17 46 18 4 19 3 20 2 21 1 22 20 24REMARK SMILES IDX 21 25 43 26 22 27 42 28 23 29 24 30 25 31 26 32 41 33 27 34REMARK SMILES IDX 40 35 28 36 29 37 30 38 39 39 32 40 38 41 33 42 37 43 34 44REMARK SMILES IDX 35 45 36 46 31 47REMARK H PARENT 1 23 31 48USER                              x       y       z     vdW  Elec       q    TypeUSER                           _______ _______ _______ _____ _____    ______ ____ROOTATOM      1  C   UNL     1      33.859  42.998  18.045 -0.28 -0.03    +0.097 A  ATOM      2  N   UNL     1      32.860  42.578  17.219 -0.17 +0.09    -0.244 NA ATOM      3  C   UNL     1      32.085  41.567  17.646 -0.29 -0.03    +0.090 A  ATOM      4  C   UNL     1      31.051  41.109  16.838 -0.21 -0.01    +0.033 A  ATOM      5  C   UNL     1      30.223  40.065  17.249 -0.33 -0.00    +0.041 A  ATOM      6  C   UNL     1      30.442  39.481  18.486 -0.28 +0.01    +0.125 A  ATOM      7  F   UNL     1      29.654  38.477  18.891 -0.09 -0.05    -0.207 F  ATOM      8  C   UNL     1      31.468  39.922  19.309 -0.34 +0.01    +0.069 A  ATOM      9  C   UNL     1      32.296  40.959  18.907 -0.32 -0.00    +0.092 A  ATOM     10  N   UNL     1      33.287  41.362  19.720 -0.11 -0.05    -0.244 NA ATOM     11  C   UNL     1      34.085  42.375  19.283 -0.34 -0.00    +0.097 A  ENDROOTBRANCH   1  12ATOM     12  C   UNL     1      34.629  44.139  17.526 -0.30 -0.00    +0.006 A  ATOM     13  C   UNL     1      36.135  46.330  16.532 -0.26 -0.12    +0.155 A  ATOM     14  C   UNL     1      35.035  46.550  17.355 -0.30 -0.05    +0.050 A  ATOM     15  C   UNL     1      36.449  45.015  16.179 -0.23 -0.07    +0.165 A  ATOM     16  C   UNL     1      34.293  45.466  17.847 -0.40 -0.01    +0.014 A  ATOM     17  C   UNL     1      35.714  43.934  16.664 -0.31 -0.02    +0.053 A  ATOM     18  F   UNL     1      37.490  44.769  15.369 -0.08 +0.07    -0.203 F  BRANCH  13  19ATOM     19  O   UNL     1      36.916  47.305  15.981 -0.13 +0.40    -0.488 OA BRANCH  19  20ATOM     20  C   UNL     1      36.802  47.552  14.574 -0.32 -0.19    +0.258 C  BRANCH  20  21ATOM     21  C   UNL     1      37.334  48.940  14.215 -0.36 -0.13    +0.197 C  BRANCH  21  22ATOM     22  O   UNL     1      37.120  49.873  15.274 -0.41 +0.46    -0.393 OA ATOM     23  H   UNL     1      36.537  49.447  15.927 -0.08 -0.41    +0.210 HD ENDBRANCH  21  22ENDBRANCH  20  21ENDBRANCH  19  20ENDBRANCH  13  19ENDBRANCH   1  12BRANCH  11  24ATOM     24  C   UNL     1      35.186  42.708  20.200 -0.44 +0.00    +0.002 A  ATOM     25  C   UNL     1      35.644  41.767  21.135 -0.36 +0.00    +0.011 A  ATOM     26  C   UNL     1      35.822  43.959  20.162 -0.41 -0.00    +0.011 A  ATOM     27  C   UNL     1      36.686  42.071  22.017 -0.53 +0.00    +0.006 A  ATOM     28  C   UNL     1      36.870  44.262  21.037 -0.37 +0.00    +0.006 A  ATOM     29  C   UNL     1      37.319  43.319  21.973 -0.38 -0.00    -0.034 A  BRANCH  29  30ATOM     30  C   UNL     1      38.460  43.652  22.912 -0.28 +0.01    +0.120 C  BRANCH  30  31ATOM     31  N   UNL     1      39.691  44.149  22.290 -0.09 -0.01    -0.299 NA ATOM     32  C   UNL     1      40.742  43.160  22.109 -0.26 +0.00    +0.087 C  ATOM     33  C   UNL     1      40.132  45.455  22.773 -0.24 +0.01    +0.087 C  ATOM     34  C   UNL     1      41.772  43.673  21.100 -0.34 +0.00    +0.041 C  ATOM     35  C   UNL     1      41.644  45.665  22.710 -0.22 +0.00    +0.041 C  ATOM     36  C   UNL     1      42.291  45.078  21.451 -0.26 +0.02    +0.095 C  BRANCH  36  37ATOM     37  N   UNL     1      42.316  46.041  20.348 -0.19 -0.07    -0.291 N  ATOM     38  C   UNL     1      43.308  46.982  20.150 -0.19 +0.11    +0.295 A  ATOM     39  C   UNL     1      41.396  46.212  19.329 -0.41 +0.00    +0.072 A  ATOM     40  N   UNL     1      43.125  47.678  19.058 -0.43 -0.02    -0.195 NA ATOM     41  C   UNL     1      40.175  45.602  18.998 -0.43 -0.00    +0.032 A  ATOM     42  C   UNL     1      41.940  47.232  18.543 -0.46 -0.00    +0.095 A  ATOM     43  C   UNL     1      39.516  46.051  17.848 -0.42 -0.01    +0.041 A  ATOM     44  C   UNL     1      41.269  47.669  17.392 -0.42 -0.01    +0.070 A  ATOM     45  C   UNL     1      40.059  47.065  17.067 -0.40 -0.02    +0.125 A  ATOM     46  F   UNL     1      39.400  47.467  15.970 -0.11 +0.06    -0.207 F  BRANCH  38  47ATOM     47  O   UNL     1      44.346  47.200  20.942 -0.48 -0.37    -0.480 OA ATOM     48  H   UNL     1      44.315  48.113  21.256 -0.42 +0.03    +0.296 HD ENDBRANCH  38  47ENDBRANCH  36  37ENDBRANCH  30  31ENDBRANCH  29  30ENDBRANCH  11  24TORSDOF 10TERENDMDL