REMARK SMILES OCCOc1ccc(-c2nc3ccc(F)cc3nc2-c2ccc(CN3CCC(n4c(O)nc5cc(F)ccc54)CC3)cc2)cc1F
REMARK SMILES IDX 9 1 10 2 11 3 12 4 13 5 14 6 15 7 16 8 17 9 18 10 19 11 8 12
REMARK SMILES IDX 5 13 6 14 45 15 7 16 44 17 46 18 4 19 3 20 2 21 1 22 20 24
REMARK SMILES IDX 21 25 43 26 22 27 42 28 23 29 24 30 25 31 26 32 41 33 27 34
REMARK SMILES IDX 40 35 28 36 29 37 30 38 39 39 32 40 38 41 33 42 37 43 34 44
REMARK SMILES IDX 35 45 36 46 31 47
REMARK H PARENT 1 23 31 48
ROOT
ATOM      1  C   UNL     1      -4.284   1.924  -0.441  1.00  0.00     0.097 A 
ATOM      2  N   UNL     1      -5.259   2.863  -0.591  1.00  0.00    -0.244 NA
ATOM      3  C   UNL     1      -4.891   4.073  -1.044  1.00  0.00     0.090 A 
ATOM      4  C   UNL     1      -5.854   5.061  -1.217  1.00  0.00     0.033 A 
ATOM      5  C   UNL     1      -5.511   6.327  -1.689  1.00  0.00     0.041 A 
ATOM      6  C   UNL     1      -4.186   6.596  -1.988  1.00  0.00     0.125 A 
ATOM      7  F   UNL     1      -3.844   7.809  -2.441  1.00  0.00    -0.207 F 
ATOM      8  C   UNL     1      -3.208   5.626  -1.823  1.00  0.00     0.069 A 
ATOM      9  C   UNL     1      -3.541   4.365  -1.354  1.00  0.00     0.092 A 
ATOM     10  N   UNL     1      -2.574   3.445  -1.196  1.00  0.00    -0.244 NA
ATOM     11  C   UNL     1      -2.941   2.223  -0.721  1.00  0.00     0.097 A 
ENDROOT
BRANCH   1  12
ATOM     12  C   UNL     1      -4.776   0.613   0.011  1.00  0.00     0.006 A 
ATOM     13  C   UNL     1      -5.715  -1.912   0.905  1.00  0.00     0.155 A 
ATOM     14  C   UNL     1      -4.968  -1.815  -0.264  1.00  0.00     0.050 A 
ATOM     15  C   UNL     1      -6.021  -0.738   1.598  1.00  0.00     0.165 A 
ATOM     16  C   UNL     1      -4.503  -0.567  -0.704  1.00  0.00     0.014 A 
ATOM     17  C   UNL     1      -5.563   0.506   1.165  1.00  0.00     0.053 A 
ATOM     18  F   UNL     1      -6.759  -0.793   2.718  1.00  0.00    -0.203 F 
BRANCH  13  19
ATOM     19  O   UNL     1      -6.235  -3.066   1.417  1.00  0.00    -0.488 OA
BRANCH  19  20
ATOM     20  C   UNL     1      -5.551  -4.296   1.150  1.00  0.00     0.258 C 
BRANCH  20  21
ATOM     21  C   UNL     1      -6.295  -5.122   0.099  1.00  0.00     0.197 C 
BRANCH  21  22
ATOM     22  O   UNL     1      -5.755  -4.917  -1.206  1.00  0.00    -0.393 OA
ATOM     23  H   UNL     1      -4.907  -5.393  -1.251  1.00  0.00     0.210 HD
ENDBRANCH  21  22
ENDBRANCH  20  21
ENDBRANCH  19  20
ENDBRANCH  13  19
ENDBRANCH   1  12
BRANCH  11  24
ATOM     24  C   UNL     1      -1.815   1.299  -0.513  1.00  0.00     0.002 A 
ATOM     25  C   UNL     1      -0.976   0.947  -1.581  1.00  0.00     0.011 A 
ATOM     26  C   UNL     1      -1.532   0.758   0.751  1.00  0.00     0.011 A 
ATOM     27  C   UNL     1       0.095   0.066  -1.400  1.00  0.00     0.006 A 
ATOM     28  C   UNL     1      -0.455  -0.116   0.936  1.00  0.00     0.006 A 
ATOM     29  C   UNL     1       0.375  -0.469  -0.137  1.00  0.00    -0.034 A 
BRANCH  29  30
ATOM     30  C   UNL     1       1.544  -1.409   0.073  1.00  0.00     0.120 C 
BRANCH  30  31
ATOM     31  N   UNL     1       2.827  -0.787   0.416  1.00  0.00    -0.299 NA
ATOM     32  C   UNL     1       2.835  -0.011   1.646  1.00  0.00     0.087 C 
ATOM     33  C   UNL     1       3.533  -0.186  -0.713  1.00  0.00     0.087 C 
ATOM     34  C   UNL     1       4.276   0.221   2.106  1.00  0.00     0.041 C 
ATOM     35  C   UNL     1       4.420   0.998  -0.334  1.00  0.00     0.041 C 
ATOM     36  C   UNL     1       5.163   0.806   0.993  1.00  0.00     0.095 C 
BRANCH  36  37
ATOM     37  N   UNL     1       6.460   0.154   0.805  1.00  0.00    -0.291 N 
ATOM     38  C   UNL     1       7.663   0.822   0.676  1.00  0.00     0.295 A 
ATOM     39  C   UNL     1       6.743  -1.197   0.712  1.00  0.00     0.072 A 
ATOM     40  N   UNL     1       8.680   0.005   0.582  1.00  0.00    -0.195 NA
ATOM     41  C   UNL     1       5.965  -2.366   0.732  1.00  0.00     0.032 A 
ATOM     42  C   UNL     1       8.135  -1.248   0.584  1.00  0.00     0.095 A 
ATOM     43  C   UNL     1       6.631  -3.591   0.619  1.00  0.00     0.041 A 
ATOM     44  C   UNL     1       8.788  -2.484   0.474  1.00  0.00     0.070 A 
ATOM     45  C   UNL     1       8.015  -3.640   0.493  1.00  0.00     0.125 A 
ATOM     46  F   UNL     1       8.618  -4.834   0.390  1.00  0.00    -0.207 F 
BRANCH  38  47
ATOM     47  O   UNL     1       7.826   2.135   0.644  1.00  0.00    -0.480 OA
ATOM     48  H   UNL     1       7.022   2.543   0.297  1.00  0.00     0.296 HD
ENDBRANCH  38  47
ENDBRANCH  36  37
ENDBRANCH  30  31
ENDBRANCH  29  30
ENDBRANCH  11  24
TORSDOF 10
