MODEL        4USER    Run = 4USERUSER    Estimated Free Energy of Binding    =  -7.72 kcal/mol  [=(1)+(2)+(3)-(4)]USERUSER    (1) Final Intermolecular Energy     = -12.49 kcal/molUSER        vdW + Hbond + desolv Energy     = -12.96 kcal/molUSER        Electrostatic Energy            =  -0.09 kcal/molUSER        Moving Ligand-Fixed Receptor    = -13.06 kcal/molUSER        Moving Ligand-Moving Receptor   =  +0.57 kcal/molUSER    (2) Final Total Internal Energy     =  -3.22 kcal/molUSER    (3) Torsional Free Energy           =  +4.77 kcal/molUSER    (4) Unbound System's Energy         =  -3.22 kcal/molUSERUSERREMARK SMILES COc1ccc(O)c(C(=O)c2ccc(C(=O)N[C@@H]3CCCN(C(C)=O)C[C@H]3NC(=O)c3cnc(OC)c(F)c3)cc2)c1FREMARK SMILES IDX 15 1 16 2 17 3 14 5 11 6 12 7 41 8 13 9 40 10 9 11 10 12REMARK SMILES IDX 8 13 3 14 4 15 42 16 5 17 6 18 43 19 2 20 1 21 7 22 18 24REMARK SMILES IDX 19 25 27 27 26 28 22 29 21 30 20 31 23 33 24 34 25 35 28 36REMARK SMILES IDX 29 37 30 39 31 40 32 41 39 42 33 43 37 44 34 45 38 46 35 47REMARK SMILES IDX 36 48REMARK H PARENT 17 4 7 23 28 38REMARK Flexibility Score:   88.900USER                              x       y       z     vdW  Elec       q    TypeUSER                           _______ _______ _______ _____ _____    ______ ____ROOTATOM      1  C   UNL     1      38.063  44.706  18.161 -0.26 -0.04    +0.251 C  ATOM      2  O   UNL     1      38.679  44.043  17.333 -0.03 +0.04    -0.269 OA ATOM      3  N   UNL     1      37.612  45.988  17.919 -0.13 +0.10    -0.347 N  ATOM      4  H   UNL     1      37.108  46.491  18.640 +0.15 -0.04    +0.164 HD ENDROOTBRANCH   1   5ATOM      5  C   UNL     1      37.789  44.156  19.510 -0.32 -0.00    +0.039 A  ATOM      6  C   UNL     1      37.191  43.107  22.030 -0.40 +0.00    +0.023 A  ATOM      7  C   UNL     1      38.436  43.706  21.800 -0.31 +0.00    +0.013 A  ATOM      8  C   UNL     1      36.252  43.021  20.996 -0.44 +0.00    +0.013 A  ATOM      9  C   UNL     1      38.734  44.236  20.541 -0.31 -0.00    +0.014 A  ATOM     10  C   UNL     1      36.543  43.560  19.742 -0.38 -0.00    +0.014 A  BRANCH   6  11ATOM     11  C   UNL     1      36.856  42.498  23.336 -0.35 +0.02    +0.199 C  ATOM     12  O   UNL     1      36.674  41.281  23.388 -0.35 -0.00    -0.288 OA BRANCH  11  13ATOM     13  C   UNL     1      36.782  43.276  24.592 -0.28 +0.01    +0.104 A  ATOM     14  C   UNL     1      37.024  45.359  25.836 -0.24 -0.01    +0.155 A  ATOM     15  C   UNL     1      36.612  44.708  27.001 -0.35 -0.01    +0.053 A  ATOM     16  C   UNL     1      37.106  44.633  24.639 -0.18 +0.02    +0.179 A  ATOM     17  C   UNL     1      36.265  43.355  26.961 -0.40 -0.01    +0.051 A  ATOM     18  C   UNL     1      36.332  42.651  25.762 -0.31 -0.01    +0.130 A  ATOM     19  F   UNL     1      37.479  45.277  23.519 -0.06 -0.04    -0.202 F  BRANCH  14  20ATOM     20  O   UNL     1      37.373  46.681  25.747 -0.46 -0.01    -0.494 OA ATOM     21  C   UNL     1      38.591  47.075  26.367 -0.17 +0.00    +0.278 C  ENDBRANCH  14  20BRANCH  18  22ATOM     22  O   UNL     1      35.942  41.338  25.802 -0.11 +0.16    -0.507 OA ATOM     23  H   UNL     1      36.324  40.886  25.017 -0.04 -0.13    +0.293 HD ENDBRANCH  18  22ENDBRANCH  11  13ENDBRANCH   6  11ENDBRANCH   1   5BRANCH   3  24ATOM     24  C   UNL     1      37.816  46.629  16.616 -0.36 -0.05    +0.106 C  BRANCH  24  25ATOM     25  C   UNL     1      38.931  47.673  16.694 -0.37 -0.01    +0.029 CG0ATOM     26  G   UNL     1      39.107  48.485  15.399 +0.00 +0.00    +0.000 G0 ENDBRANCH  24  25BRANCH  24  27ATOM     27  C   UNL     1      36.467  47.180  16.055 -0.29 -0.12    +0.124 C  BRANCH  27  28ATOM     28  C   UNL     1      36.528  47.704  14.593 -0.35 -0.12    +0.146 C  BRANCH  28  29ATOM     29  N   UNL     1      37.651  47.268  13.753 -0.23 +0.13    -0.341 N  BRANCH  29  30ATOM     30  C   UNL     1      39.002  47.716  14.080 -0.39 -0.03    +0.119 C  BRANCH  30  31ATOM     31  C   UNL     1      39.101  48.489  15.401 -0.59 -0.01    +0.024 CG0ATOM     32  G   UNL     1      38.928  47.675  16.695 +0.00 +0.00    +0.000 G0 ENDBRANCH  30  31ENDBRANCH  29  30BRANCH  29  33ATOM     33  C   UNL     1      37.326  46.667  12.536 -0.45 -0.07    +0.219 C  ATOM     34  C   UNL     1      36.902  45.219  12.561 -0.52 -0.04    +0.114 C  ATOM     35  O   UNL     1      37.371  47.268  11.462 -0.97 +0.06    -0.275 OA ENDBRANCH  29  33ENDBRANCH  28  29ENDBRANCH  27  28BRANCH  27  36ATOM     36  N   UNL     1      35.395  46.194  16.274 -0.13 +0.33    -0.345 N  ATOM     37  C   UNL     1      34.743  46.093  17.485 -0.28 -0.22    +0.253 C  ATOM     38  H   UNL     1      35.437  45.368  15.682 +0.12 -0.11    +0.164 HD ATOM     39  O   UNL     1      34.931  46.873  18.414 -0.50 +0.19    -0.269 OA BRANCH  37  40ATOM     40  C   UNL     1      33.767  44.990  17.652 -0.31 -0.03    +0.061 A  ATOM     41  C   UNL     1      33.512  44.539  18.947 -0.33 -0.03    +0.129 A  ATOM     42  C   UNL     1      33.091  44.368  16.603 -0.28 -0.03    +0.060 A  ATOM     43  N   UNL     1      32.633  43.550  19.257 -0.35 +0.02    -0.219 NA ATOM     44  C   UNL     1      32.191  43.348  16.894 -0.19 -0.07    +0.185 A  ATOM     45  C   UNL     1      31.987  42.972  18.218 -0.15 -0.04    +0.250 A  ATOM     46  F   UNL     1      31.538  42.741  15.892 -0.08 +0.11    -0.201 F  BRANCH  45  47ATOM     47  O   UNL     1      31.069  41.968  18.456 -0.00 +0.05    -0.479 OA ATOM     48  C   UNL     1      31.578  40.670  18.171 -0.25 -0.03    +0.280 C  ENDBRANCH  45  47ENDBRANCH  37  40ENDBRANCH  27  36ENDBRANCH  24  27ENDBRANCH   3  24TORSDOF 10TERENDMDL