MODEL        2USER    Run = 2USERUSER    Estimated Free Energy of Binding    =  -7.61 kcal/mol  [=(1)+(2)+(3)-(4)]USERUSER    (1) Final Intermolecular Energy     = -12.08 kcal/molUSER        vdW + Hbond + desolv Energy     = -12.00 kcal/molUSER        Electrostatic Energy            =  -0.22 kcal/molUSER        Moving Ligand-Fixed Receptor    = -12.22 kcal/molUSER        Moving Ligand-Moving Receptor   =  +0.13 kcal/molUSER    (2) Final Total Internal Energy     =  -2.85 kcal/molUSER    (3) Torsional Free Energy           =  +4.47 kcal/molUSER    (4) Unbound System's Energy         =  -2.85 kcal/molUSERUSERREMARK SMILES COc1ccc(O)c(C(=O)c2ccc(C(=O)N[C@@H]3CCCNC[C@H]3NC(=O)c3cnc(N4CCN(C)CC4)c(F)c3)cc2)c1FREMARK SMILES IDX 18 1 17 3 15 4 16 5 14 7 11 8 12 9 43 10 13 11 42 12 9 13REMARK SMILES IDX 10 14 8 15 3 16 4 17 44 18 5 19 6 20 45 21 2 22 1 23 7 24REMARK SMILES IDX 24 26 23 27 22 28 21 30 20 31 19 32 25 34 26 35 27 37 28 38REMARK SMILES IDX 29 39 41 40 30 41 39 42 31 43 40 44 32 45 33 46 38 47 34 48REMARK SMILES IDX 37 49 35 50 36 51REMARK H PARENT 17 6 7 25 22 29 25 36REMARK Flexibility Score:  128.900USER                              x       y       z     vdW  Elec       q    TypeUSER                           _______ _______ _______ _____ _____    ______ ____ROOTATOM      1  C   UNL     1      35.489  45.798  16.389 -0.33 -0.08    +0.106 CG0ATOM      2  G   UNL     1      35.484  46.338  14.947 +0.00 +0.00    +0.000 G0 ENDROOTBRANCH   1   3ATOM      3  N   UNL     1      34.461  44.756  16.493 -0.08 +0.20    -0.347 N  ATOM      4  C   UNL     1      33.156  45.051  16.817 -0.20 -0.15    +0.251 C  ATOM      5  O   UNL     1      32.802  46.107  17.324 -0.19 +0.23    -0.269 OA ATOM      6  H   UNL     1      34.685  43.841  16.118 +0.11 -0.07    +0.164 HD BRANCH   4   7ATOM      7  C   UNL     1      32.149  44.008  16.495 -0.30 -0.02    +0.039 A  ATOM      8  C   UNL     1      30.189  42.057  16.007 -0.33 -0.01    +0.023 A  ATOM      9  C   UNL     1      30.178  43.270  15.295 -0.21 -0.01    +0.013 A  ATOM     10  C   UNL     1      31.198  41.821  16.955 -0.29 -0.00    +0.013 A  ATOM     11  C   UNL     1      31.148  44.247  15.543 -0.35 -0.01    +0.014 A  ATOM     12  C   UNL     1      32.169  42.799  17.202 -0.30 -0.00    +0.014 A  BRANCH   8  13ATOM     13  C   UNL     1      29.103  41.074  15.724 -0.32 -0.06    +0.199 C  ATOM     14  O   UNL     1      29.391  39.930  15.364 -0.30 -0.00    -0.288 OA BRANCH  13  15ATOM     15  C   UNL     1      27.682  41.452  15.815 -0.23 -0.04    +0.104 A  ATOM     16  C   UNL     1      25.971  42.872  16.797 -0.19 -0.02    +0.155 A  ATOM     17  C   UNL     1      25.025  42.311  15.935 -0.20 -0.00    +0.053 A  ATOM     18  C   UNL     1      27.298  42.432  16.729 -0.12 -0.04    +0.179 A  ATOM     19  C   UNL     1      25.407  41.326  15.011 -0.22 -0.01    +0.051 A  ATOM     20  C   UNL     1      26.734  40.899  14.957 -0.28 -0.05    +0.130 A  ATOM     21  F   UNL     1      28.214  42.970  17.551 -0.02 +0.03    -0.202 F  BRANCH  16  22ATOM     22  O   UNL     1      25.704  43.818  17.754 -0.14 +0.03    -0.494 OA ATOM     23  C   UNL     1      26.300  45.099  17.580 -0.28 +0.03    +0.278 C  ENDBRANCH  16  22BRANCH  20  24ATOM     24  O   UNL     1      27.094  39.910  14.083 -0.41 +0.13    -0.507 OA ATOM     25  H   UNL     1      27.975  40.093  13.716 -0.06 -0.23    +0.293 HD ENDBRANCH  20  24ENDBRANCH  13  15ENDBRANCH   8  13ENDBRANCH   4   7ENDBRANCH   1   3BRANCH   1  26ATOM     26  C   UNL     1      36.857  45.245  16.860 -0.32 -0.05    +0.118 C  BRANCH  26  27ATOM     27  C   UNL     1      38.045  46.202  16.597 -0.37 -0.04    +0.108 C  BRANCH  27  28ATOM     28  N   UNL     1      38.709  45.998  15.317 -0.17 +0.09    -0.315 NA ATOM     29  H   UNL     1      39.143  45.075  15.283 +0.09 -0.02    +0.122 HD BRANCH  28  30ATOM     30  C   UNL     1      37.917  46.253  14.126 -0.44 -0.03    +0.081 C  BRANCH  30  31ATOM     31  C   UNL     1      36.512  45.659  14.046 -0.48 -0.01    +0.017 C  BRANCH  31  32ATOM     32  C   UNL     1      35.484  46.338  14.948 -0.40 -0.03    +0.028 CG0ATOM     33  G   UNL     1      35.488  45.798  16.390 +0.00 +0.00    +0.000 G0 ENDBRANCH  31  32ENDBRANCH  30  31ENDBRANCH  28  30ENDBRANCH  27  28ENDBRANCH  26  27BRANCH  26  34ATOM     34  N   UNL     1      36.805  44.914  18.294 -0.13 +0.08    -0.346 N  ATOM     35  C   UNL     1      36.334  43.696  18.732 -0.21 -0.05    +0.253 C  ATOM     36  H   UNL     1      37.227  45.569  18.937 +0.09 -0.03    +0.164 HD ATOM     37  O   UNL     1      35.704  42.925  18.014 -0.22 +0.07    -0.269 OA BRANCH  35  38ATOM     38  C   UNL     1      36.607  43.334  20.140 -0.36 -0.00    +0.061 A  ATOM     39  C   UNL     1      36.708  44.339  21.088 -0.24 +0.00    +0.127 A  ATOM     40  C   UNL     1      36.721  42.024  20.590 -0.37 -0.00    +0.058 A  ATOM     41  N   UNL     1      36.916  44.119  22.414 -0.23 -0.03    -0.236 NA ATOM     42  C   UNL     1      36.906  41.785  21.952 -0.42 +0.01    +0.166 A  ATOM     43  C   UNL     1      36.990  42.840  22.872 -0.31 +0.02    +0.164 A  ATOM     44  F   UNL     1      37.058  40.504  22.327 -0.05 -0.01    -0.203 F  BRANCH  43  45ATOM     45  N   UNL     1      37.130  42.677  24.235 -0.17 -0.02    -0.352 N  ATOM     46  C   UNL     1      37.951  43.520  25.107 -0.24 +0.00    +0.133 C  ATOM     47  C   UNL     1      36.150  41.798  24.897 -0.25 -0.01    +0.133 C  ATOM     48  C   UNL     1      37.077  44.096  26.244 -0.32 -0.01    +0.105 C  ATOM     49  C   UNL     1      36.362  41.753  26.429 -0.47 -0.02    +0.105 C  ATOM     50  N   UNL     1      36.473  43.061  27.119 -0.19 +0.06    -0.303 NA ATOM     51  C   UNL     1      35.185  43.511  27.642 -0.56 -0.03    +0.105 C  ENDBRANCH  43  45ENDBRANCH  35  38ENDBRANCH  26  34ENDBRANCH   1  26TORSDOF 9TERENDMDL