MODEL        8USER    Run = 8USERUSER    Estimated Free Energy of Binding    =  -6.91 kcal/mol  [=(1)+(2)+(3)-(4)]USERUSER    (1) Final Intermolecular Energy     = -11.39 kcal/molUSER        vdW + Hbond + desolv Energy     = -11.73 kcal/molUSER        Electrostatic Energy            =  -0.03 kcal/molUSER        Moving Ligand-Fixed Receptor    = -11.76 kcal/molUSER        Moving Ligand-Moving Receptor   =  +0.38 kcal/molUSER    (2) Final Total Internal Energy     =  -3.44 kcal/molUSER    (3) Torsional Free Energy           =  +4.47 kcal/molUSER    (4) Unbound System's Energy         =  -3.44 kcal/molUSERUSERREMARK SMILES COc1ccc(O)c(C(=O)c2ccc(CN[C@@H]3CCCNC[C@H]3NC(=O)c3ccncc3)cc2)c1FREMARK SMILES IDX 16 1 15 3 14 4 11 5 12 6 34 7 13 8 33 9 9 10 10 11 8 12 3 13REMARK SMILES IDX 4 14 35 15 5 16 6 17 36 18 2 19 1 20 7 21 17 23 18 24 23 26REMARK SMILES IDX 22 27 21 28 20 30 19 31 24 33 25 34 26 36 27 37 28 38 32 39REMARK SMILES IDX 29 40 31 41 30 42REMARK H PARENT 16 2 7 22 21 29 24 35REMARK Flexibility Score:   99.900USER                              x       y       z     vdW  Elec       q    TypeUSER                           _______ _______ _______ _____ _____    ______ ____ROOTATOM      1  N   UNL     1      40.162  44.174  20.322 -0.12 -0.01    -0.308 NA ATOM      2  H   UNL     1      39.506  43.991  19.559 +0.07 -0.00    +0.123 HD ENDROOTBRANCH   1   3ATOM      3  C   UNL     1      40.949  45.364  19.988 -0.38 +0.01    +0.117 C  BRANCH   3   4ATOM      4  C   UNL     1      40.503  46.047  18.718 -0.45 +0.00    -0.034 A  ATOM      5  C   UNL     1      39.694  47.327  16.348 -0.48 -0.01    +0.023 A  ATOM      6  C   UNL     1      40.887  47.703  16.974 -0.51 -0.00    +0.012 A  ATOM      7  C   UNL     1      38.895  46.331  16.920 -0.41 -0.00    +0.012 A  ATOM      8  C   UNL     1      41.290  47.059  18.147 -0.52 -0.00    +0.006 A  ATOM      9  C   UNL     1      39.300  45.691  18.094 -0.43 -0.00    +0.006 A  BRANCH   5  10ATOM     10  C   UNL     1      39.203  48.007  15.126 -0.44 -0.07    +0.199 C  ATOM     11  O   UNL     1      39.725  49.069  14.782 -0.33 +0.13    -0.288 OA BRANCH  10  12ATOM     12  C   UNL     1      38.150  47.446  14.252 -0.42 -0.04    +0.104 A  ATOM     13  C   UNL     1      37.168  45.602  12.994 -0.37 -0.05    +0.155 A  ATOM     14  C   UNL     1      36.129  46.439  12.583 -0.59 -0.03    +0.053 A  ATOM     15  C   UNL     1      38.169  46.115  13.834 -0.26 -0.05    +0.179 A  ATOM     16  C   UNL     1      36.081  47.765  13.025 -0.52 -0.03    +0.051 A  ATOM     17  C   UNL     1      37.075  48.257  13.865 -0.45 -0.07    +0.130 A  ATOM     18  F   UNL     1      39.142  45.290  14.254 -0.08 +0.04    -0.202 F  BRANCH  13  19ATOM     19  O   UNL     1      37.309  44.285  12.647 -0.13 +0.15    -0.494 OA ATOM     20  C   UNL     1      36.979  43.925  11.312 -0.26 -0.08    +0.278 C  ENDBRANCH  13  19BRANCH  17  21ATOM     21  O   UNL     1      36.934  49.555  14.281 -0.18 +0.43    -0.507 OA ATOM     22  H   UNL     1      37.835  49.911  14.462 -0.33 -0.30    +0.293 HD ENDBRANCH  17  21ENDBRANCH  10  12ENDBRANCH   5  10ENDBRANCH   3   4ENDBRANCH   1   3BRANCH   1  23ATOM     23  C   UNL     1      39.385  44.305  21.585 -0.30 +0.00    +0.077 C  BRANCH  23  24ATOM     24  C   UNL     1      40.199  43.622  22.692 -0.29 +0.00    +0.022 CG0ATOM     25  G   UNL     1      39.818  44.015  24.119 +0.00 +0.00    +0.000 G0 ENDBRANCH  23  24BRANCH  23  26ATOM     26  C   UNL     1      37.960  43.697  21.396 -0.34 +0.00    +0.113 C  BRANCH  26  27ATOM     27  C   UNL     1      36.944  44.285  22.407 -0.22 +0.01    +0.107 C  BRANCH  27  28ATOM     28  N   UNL     1      37.421  44.698  23.722 -0.22 -0.05    -0.315 NA ATOM     29  H   UNL     1      36.615  44.872  24.329 +0.03 +0.03    +0.122 HD BRANCH  28  30ATOM     30  C   UNL     1      38.336  43.806  24.419 -0.25 +0.00    +0.081 C  BRANCH  30  31ATOM     31  C   UNL     1      39.818  44.012  24.119 -0.20 +0.00    +0.017 CG0ATOM     32  G   UNL     1      40.197  43.618  22.692 +0.00 +0.00    +0.000 G0 ENDBRANCH  30  31ENDBRANCH  28  30ENDBRANCH  27  28ENDBRANCH  26  27BRANCH  26  33ATOM     33  N   UNL     1      37.492  43.954  20.020 -0.14 +0.02    -0.346 N  ATOM     34  C   UNL     1      36.193  43.694  19.640 -0.28 -0.03    +0.251 C  ATOM     35  H   UNL     1      38.133  44.410  19.387 +0.10 -0.01    +0.164 HD ATOM     36  O   UNL     1      35.374  43.152  20.373 -0.34 -0.00    -0.269 OA BRANCH  34  37ATOM     37  C   UNL     1      35.811  44.076  18.256 -0.30 -0.01    +0.042 A  ATOM     38  C   UNL     1      35.526  43.055  17.349 -0.35 -0.01    +0.034 A  ATOM     39  C   UNL     1      35.700  45.407  17.855 -0.33 -0.02    +0.034 A  ATOM     40  C   UNL     1      35.169  43.409  16.062 -0.32 -0.05    +0.112 A  ATOM     41  C   UNL     1      35.332  45.657  16.544 -0.26 -0.08    +0.112 A  ATOM     42  N   UNL     1      35.075  44.689  15.640 -0.16 +0.14    -0.265 NA ENDBRANCH  34  37ENDBRANCH  26  33ENDBRANCH  23  26ENDBRANCH   1  23TORSDOF 9TERENDMDL