MODEL        6USER    Run = 6USERUSER    Estimated Free Energy of Binding    = -12.88 kcal/mol  [=(1)+(2)+(3)-(4)]USERUSER    (1) Final Intermolecular Energy     = -15.27 kcal/molUSER        vdW + Hbond + desolv Energy     = -15.15 kcal/molUSER        Electrostatic Energy            =  -0.12 kcal/molUSER        Moving Ligand-Fixed Receptor    = -15.27 kcal/molUSER        Moving Ligand-Moving Receptor   =  +0.00 kcal/molUSER    (2) Final Total Internal Energy     =  -2.45 kcal/molUSER    (3) Torsional Free Energy           =  +2.39 kcal/molUSER    (4) Unbound System's Energy         =  -2.45 kcal/molUSERUSERREMARK SMILES N#Cc1cnc(-c2ccc(CNCc3ccc(-c4csnn4)cc3)cc2)c(-c2ccccc2)c1REMARK SMILES IDX 11 1 10 2 7 3 8 4 26 5 9 6 25 7 6 8 3 9 4 10 34 11 5 12REMARK SMILES IDX 27 13 2 14 1 15 28 16 29 17 33 18 30 19 32 20 31 21 12 22REMARK SMILES IDX 13 24 14 25 15 26 24 27 16 28 23 29 17 30 18 31 19 32 22 33REMARK SMILES IDX 20 34 21 35REMARK H PARENT 12 23USER                              x       y       z     vdW  Elec       q    TypeUSER                           _______ _______ _______ _____ _____    ______ ____ROOTATOM      1  C   UNL     1      36.506  43.236  20.228 -0.39 -0.00    +0.117 C  ENDROOTBRANCH   1   2ATOM      2  C   UNL     1      35.600  43.766  19.143 -0.35 +0.01    -0.034 A  ATOM      3  C   UNL     1      33.921  44.750  17.074 -0.32 -0.00    +0.001 A  ATOM      4  C   UNL     1      34.390  45.594  18.097 -0.43 -0.01    +0.011 A  ATOM      5  C   UNL     1      34.299  43.398  17.121 -0.34 -0.00    +0.011 A  ATOM      6  C   UNL     1      35.222  45.113  19.114 -0.31 -0.00    +0.006 A  ATOM      7  C   UNL     1      35.133  42.915  18.134 -0.37 -0.00    +0.006 A  BRANCH   3   8ATOM      8  C   UNL     1      33.046  45.284  16.010 -0.25 -0.06    +0.078 A  ATOM      9  C   UNL     1      31.174  46.177  14.180 -0.51 -0.05    +0.071 A  ATOM     10  C   UNL     1      30.822  45.667  15.414 -0.35 -0.06    +0.131 A  ATOM     11  C   UNL     1      32.530  46.248  13.867 -0.17 -0.03    +0.032 A  ATOM     12  N   UNL     1      31.718  45.230  16.327 -0.64 +0.10    -0.254 NA ATOM     13  C   UNL     1      33.505  45.803  14.782 -0.14 -0.01    +0.009 A  BRANCH   9  14ATOM     14  C   UNL     1      30.174  46.625  13.265 -0.57 -0.05    +0.101 C  ATOM     15  N   UNL     1      29.363  46.988  12.521 -0.68 +0.09    -0.192 NA ENDBRANCH   9  14BRANCH  13  16ATOM     16  C   UNL     1      34.928  45.940  14.424 -0.34 +0.01    -0.016 A  ATOM     17  C   UNL     1      35.884  45.040  14.925 -0.35 -0.00    +0.009 A  ATOM     18  C   UNL     1      35.365  46.958  13.561 -0.44 -0.01    +0.009 A  ATOM     19  C   UNL     1      37.234  45.161  14.585 -0.39 -0.00    +0.001 A  ATOM     20  C   UNL     1      36.714  47.081  13.221 -0.59 -0.00    +0.001 A  ATOM     21  C   UNL     1      37.648  46.183  13.733 -0.45 -0.00    +0.000 A  ENDBRANCH  13  16ENDBRANCH   3   8ENDBRANCH   1   2BRANCH   1  22ATOM     22  N   UNL     1      37.316  44.316  20.793 -0.20 -0.00    -0.309 NA ATOM     23  H   UNL     1      37.210  44.296  21.806 +0.06 +0.01    +0.123 HD BRANCH  22  24ATOM     24  C   UNL     1      38.733  44.175  20.460 -0.27 -0.00    +0.117 C  BRANCH  24  25ATOM     25  C   UNL     1      39.205  45.155  19.412 -0.38 +0.00    -0.034 A  ATOM     26  C   UNL     1      38.364  45.540  18.360 -0.38 -0.00    +0.006 A  ATOM     27  C   UNL     1      40.500  45.683  19.462 -0.43 +0.00    +0.006 A  ATOM     28  C   UNL     1      38.807  46.441  17.385 -0.40 -0.00    +0.011 A  ATOM     29  C   UNL     1      40.944  46.582  18.488 -0.50 -0.00    +0.011 A  ATOM     30  C   UNL     1      40.101  46.978  17.439 -0.49 -0.00    +0.003 A  BRANCH  30  31ATOM     31  C   UNL     1      40.594  47.921  16.439 -0.47 -0.02    +0.105 A  ATOM     32  C   UNL     1      40.274  47.879  15.092 -0.44 -0.02    +0.118 A  ATOM     33  N   UNL     1      41.431  48.976  16.797 -1.02 -0.00    -0.138 NA ATOM     34  S   UNL     1      41.077  49.191  14.331 -0.81 +0.00    -0.020 S  ATOM     35  N   UNL     1      41.765  49.722  15.758 -1.04 -0.00    -0.091 NA ENDBRANCH  30  31ENDBRANCH  24  25ENDBRANCH  22  24ENDBRANCH   1  22TORSDOF 8TERENDMDL