MODEL        5USER    Run = 5USERUSER    Estimated Free Energy of Binding    =  -7.20 kcal/mol  [=(1)+(2)+(3)-(4)]USERUSER    (1) Final Intermolecular Energy     = -11.67 kcal/molUSER        vdW + Hbond + desolv Energy     = -11.77 kcal/molUSER        Electrostatic Energy            =  -0.33 kcal/molUSER        Moving Ligand-Fixed Receptor    = -12.10 kcal/molUSER        Moving Ligand-Moving Receptor   =  +0.43 kcal/molUSER    (2) Final Total Internal Energy     =  -3.18 kcal/molUSER    (3) Torsional Free Energy           =  +4.47 kcal/molUSER    (4) Unbound System's Energy         =  -3.18 kcal/molUSERUSERREMARK SMILES COc1ccc(O)c(C(=O)c2ccc(C(=O)O[C@@H]3CCCNC[C@H]3NC(=O)c3ccncc3)cc2)c1FREMARK SMILES IDX 17 1 15 2 16 3 14 4 11 5 12 6 35 7 13 8 34 9 9 10 10 11 8 12REMARK SMILES IDX 3 13 4 14 36 15 5 16 6 17 37 18 2 19 1 20 7 21 18 23 24 25REMARK SMILES IDX 23 26 22 27 21 29 20 30 19 31 25 33 26 34 27 36 28 37 29 38REMARK SMILES IDX 33 39 30 40 32 41 31 42REMARK H PARENT 7 22 22 28 25 35REMARK Flexibility Score:   99.900USER                              x       y       z     vdW  Elec       q    TypeUSER                           _______ _______ _______ _____ _____    ______ ____ROOTATOM      1  O   UNL     1      37.979  45.556  18.990 -0.10 +0.06    -0.457 OA ENDROOTBRANCH   1   2ATOM      2  C   UNL     1      37.248  44.415  18.923 -0.18 -0.05    +0.338 C  ATOM      3  O   UNL     1      37.449  43.379  19.540 -0.19 +0.02    -0.246 OA BRANCH   2   4ATOM      4  C   UNL     1      36.100  44.612  18.004 -0.29 -0.02    +0.060 A  ATOM      5  C   UNL     1      33.967  45.045  16.230 -0.31 -0.02    +0.023 A  ATOM      6  C   UNL     1      33.811  44.177  17.320 -0.30 -0.01    +0.013 A  ATOM      7  C   UNL     1      35.193  45.697  16.036 -0.33 -0.01    +0.013 A  ATOM      8  C   UNL     1      34.875  43.961  18.203 -0.31 -0.00    +0.016 A  ATOM      9  C   UNL     1      36.252  45.490  16.924 -0.33 -0.01    +0.016 A  BRANCH   5  10ATOM     10  C   UNL     1      32.877  45.288  15.246 -0.24 -0.16    +0.199 C  ATOM     11  O   UNL     1      33.086  45.923  14.217 -0.28 +0.26    -0.288 OA BRANCH  10  12ATOM     12  C   UNL     1      31.523  44.776  15.487 -0.31 -0.06    +0.104 A  ATOM     13  C   UNL     1      30.054  42.871  15.789 -0.20 -0.08    +0.155 A  ATOM     14  C   UNL     1      28.964  43.745  15.886 -0.23 -0.03    +0.053 A  ATOM     15  C   UNL     1      31.333  43.400  15.581 -0.24 -0.09    +0.179 A  ATOM     16  C   UNL     1      29.158  45.131  15.806 -0.23 -0.02    +0.051 A  ATOM     17  C   UNL     1      30.439  45.644  15.615 -0.32 -0.04    +0.130 A  ATOM     18  F   UNL     1      32.389  42.573  15.520 +0.07 +0.14    -0.202 F  BRANCH  13  19ATOM     19  O   UNL     1      29.990  41.507  15.904 -0.14 +0.19    -0.494 OA ATOM     20  C   UNL     1      30.610  40.917  17.040 -0.22 -0.06    +0.278 C  ENDBRANCH  13  19BRANCH  17  21ATOM     21  O   UNL     1      30.637  46.993  15.559 -0.63 +0.09    -0.507 OA ATOM     22  H   UNL     1      31.548  47.186  15.283 -0.31 -0.34    +0.293 HD ENDBRANCH  17  21ENDBRANCH  10  12ENDBRANCH   5  10ENDBRANCH   2   4ENDBRANCH   1   2BRANCH   1  23ATOM     23  C   UNL     1      39.406  45.402  19.210 -0.34 -0.01    +0.200 CG0ATOM     24  G   UNL     1      39.643  45.518  20.715 +0.00 +0.00    +0.000 G0 BRANCH  23  25ATOM     25  C   UNL     1      40.114  46.485  18.370 -0.41 -0.01    +0.137 C  BRANCH  25  26ATOM     26  C   UNL     1      41.557  46.132  17.955 -0.37 -0.00    +0.109 C  BRANCH  26  27ATOM     27  N   UNL     1      42.513  46.099  19.064 -0.08 -0.07    -0.315 NA ATOM     28  H   UNL     1      43.319  46.668  18.806 -0.04 +0.04    +0.122 HD BRANCH  27  29ATOM     29  C   UNL     1      42.009  46.564  20.360 -0.38 +0.01    +0.081 C  BRANCH  29  30ATOM     30  C   UNL     1      41.107  45.620  21.166 -0.36 +0.00    +0.019 C  BRANCH  30  31ATOM     31  C   UNL     1      39.644  45.521  20.717 -0.36 +0.00    +0.049 CG0ATOM     32  G   UNL     1      39.402  45.405  19.212 +0.00 +0.00    +0.000 G0 ENDBRANCH  30  31ENDBRANCH  29  30ENDBRANCH  27  29ENDBRANCH  26  27ENDBRANCH  25  26BRANCH  25  33ATOM     33  N   UNL     1      39.303  46.778  17.181 -0.21 +0.09    -0.344 N  ATOM     34  C   UNL     1      39.739  47.615  16.183 -0.38 -0.07    +0.251 C  ATOM     35  H   UNL     1      38.569  46.115  16.975 +0.10 -0.05    +0.164 HD ATOM     36  O   UNL     1      40.802  48.222  16.215 -0.46 +0.04    -0.269 OA BRANCH  34  37ATOM     37  C   UNL     1      38.839  47.751  15.014 -0.48 -0.02    +0.042 A  ATOM     38  C   UNL     1      37.891  48.772  15.016 -0.48 -0.02    +0.034 A  ATOM     39  C   UNL     1      38.901  46.859  13.945 -0.33 -0.01    +0.034 A  ATOM     40  C   UNL     1      37.051  48.875  13.923 -0.39 -0.07    +0.112 A  ATOM     41  C   UNL     1      38.011  47.045  12.903 -0.29 -0.02    +0.112 A  ATOM     42  N   UNL     1      37.094  48.036  12.865 -0.89 +0.08    -0.265 NA ENDBRANCH  34  37ENDBRANCH  25  33ENDBRANCH  23  25ENDBRANCH   1  23TORSDOF 9TERENDMDL