MODEL        1USER    Run = 1USERUSER    Estimated Free Energy of Binding    =  -7.18 kcal/mol  [=(1)+(2)+(3)-(4)]USERUSER    (1) Final Intermolecular Energy     = -11.65 kcal/molUSER        vdW + Hbond + desolv Energy     = -11.62 kcal/molUSER        Electrostatic Energy            =  -0.18 kcal/molUSER        Moving Ligand-Fixed Receptor    = -11.80 kcal/molUSER        Moving Ligand-Moving Receptor   =  +0.15 kcal/molUSER    (2) Final Total Internal Energy     =  -2.62 kcal/molUSER    (3) Torsional Free Energy           =  +4.47 kcal/molUSER    (4) Unbound System's Energy         =  -2.62 kcal/molUSERUSERREMARK SMILES COc1ccc(O)c(C(=O)c2ccc(/C=C/[C@@H]3CCCNC[C@H]3NC(=O)c3ccncc3)cc2)c1FREMARK SMILES IDX 16 1 15 2 14 3 11 4 12 5 34 6 13 7 33 8 9 9 10 10 8 11 3 12REMARK SMILES IDX 4 13 35 14 5 15 6 16 36 17 2 18 1 19 7 20 17 22 18 23 23 25REMARK SMILES IDX 22 26 21 27 20 29 19 30 24 32 25 33 26 35 27 36 28 37 32 38REMARK SMILES IDX 29 39 31 40 30 41REMARK H PARENT 7 21 21 28 24 34REMARK Flexibility Score:   99.900USER                              x       y       z     vdW  Elec       q    TypeUSER                           _______ _______ _______ _____ _____    ______ ____ROOTATOM      1  C   UNL     1      36.546  44.573  19.286 -0.37 +0.00    -0.021 C  ENDROOTBRANCH   1   2ATOM      2  C   UNL     1      37.749  43.981  19.226 -0.35 -0.00    +0.004 C  BRANCH   2   3ATOM      3  C   UNL     1      38.983  44.604  19.719 -0.35 +0.00    -0.026 A  ATOM      4  C   UNL     1      41.323  45.774  20.738 -0.34 +0.00    +0.023 A  ATOM      5  C   UNL     1      40.147  45.791  21.495 -0.27 +0.00    +0.013 A  ATOM      6  C   UNL     1      41.343  45.141  19.492 -0.39 +0.00    +0.013 A  ATOM      7  C   UNL     1      38.984  45.202  20.985 -0.34 +0.00    +0.009 A  ATOM      8  C   UNL     1      40.176  44.567  18.983 -0.40 -0.00    +0.009 A  BRANCH   4   9ATOM      9  C   UNL     1      42.578  46.358  21.257 -0.27 +0.05    +0.199 C  ATOM     10  O   UNL     1      42.789  47.560  21.088 -0.25 -0.04    -0.288 OA BRANCH   9  11ATOM     11  C   UNL     1      43.623  45.551  21.927 -0.13 +0.05    +0.104 A  ATOM     12  C   UNL     1      44.357  43.514  23.050 -0.17 +0.03    +0.155 A  ATOM     13  C   UNL     1      45.635  44.057  23.191 -0.14 +0.02    +0.053 A  ATOM     14  C   UNL     1      43.358  44.271  22.419 -0.16 +0.04    +0.179 A  ATOM     15  C   UNL     1      45.902  45.348  22.727 -0.11 +0.04    +0.051 A  ATOM     16  C   UNL     1      44.900  46.092  22.113 -0.06 +0.12    +0.130 A  ATOM     17  F   UNL     1      42.123  43.754  22.325 -0.07 -0.02    -0.202 F  BRANCH  12  18ATOM     18  O   UNL     1      43.971  42.273  23.480 -0.11 +0.02    -0.494 OA ATOM     19  C   UNL     1      44.887  41.202  23.289 -0.21 -0.03    +0.278 C  ENDBRANCH  12  18BRANCH  16  20ATOM     20  O   UNL     1      45.240  47.358  21.716 -0.71 -0.49    -0.507 OA ATOM     21  H   UNL     1      44.427  47.792  21.368 -0.30 +0.11    +0.293 HD ENDBRANCH  16  20ENDBRANCH   9  11ENDBRANCH   4   9ENDBRANCH   2   3ENDBRANCH   1   2BRANCH   1  22ATOM     22  C   UNL     1      35.779  45.173  18.110 -0.38 -0.01    +0.035 C  BRANCH  22  23ATOM     23  C   UNL     1      34.412  44.463  18.060 -0.38 -0.00    +0.011 CG0ATOM     24  G   UNL     1      33.232  45.206  17.444 +0.00 +0.00    +0.000 G0 ENDBRANCH  22  23BRANCH  22  25ATOM     25  C   UNL     1      36.526  45.220  16.742 -0.33 -0.04    +0.103 C  BRANCH  25  26ATOM     26  C   UNL     1      35.562  45.620  15.588 -0.33 -0.07    +0.106 C  BRANCH  26  27ATOM     27  N   UNL     1      34.415  44.759  15.320 -0.11 +0.19    -0.315 NA ATOM     28  H   UNL     1      34.638  43.803  15.601 +0.07 -0.06    +0.122 HD BRANCH  27  29ATOM     29  C   UNL     1      33.163  45.188  15.924 -0.33 -0.06    +0.081 C  BRANCH  29  30ATOM     30  C   UNL     1      33.232  45.206  17.444 -0.39 -0.01    +0.016 CG0ATOM     31  G   UNL     1      34.412  44.461  18.058 +0.00 +0.00    +0.000 G0 ENDBRANCH  29  30ENDBRANCH  27  29ENDBRANCH  26  27ENDBRANCH  25  26BRANCH  25  32ATOM     32  N   UNL     1      37.638  46.181  16.773 -0.15 +0.14    -0.347 N  ATOM     33  C   UNL     1      38.560  46.259  15.753 -0.28 -0.08    +0.251 C  ATOM     34  H   UNL     1      37.604  46.915  17.467 +0.09 -0.08    +0.164 HD ATOM     35  O   UNL     1      38.532  45.546  14.758 -0.27 +0.07    -0.269 OA BRANCH  33  36ATOM     36  C   UNL     1      39.607  47.302  15.897 -0.47 -0.01    +0.042 A  ATOM     37  C   UNL     1      40.440  47.355  17.014 -0.49 -0.01    +0.034 A  ATOM     38  C   UNL     1      39.772  48.223  14.864 -0.52 -0.01    +0.034 A  ATOM     39  C   UNL     1      41.392  48.356  17.059 -0.36 -0.01    +0.112 A  ATOM     40  C   UNL     1      40.751  49.186  15.007 -0.53 -0.03    +0.112 A  ATOM     41  N   UNL     1      41.558  49.279  16.087 -0.93 -0.01    -0.265 NA ENDBRANCH  33  36ENDBRANCH  25  32ENDBRANCH  22  25ENDBRANCH   1  22TORSDOF 9TERENDMDL