REMARK SMILES O=C(c1ccc(-c2nc3ccc(F)cc3nc2-c2ccc(CN3CCC(n4c(O)nc5ccccc54)CC3)cc2)c(N2CCOCC2)c1)N1CC(O)C1
REMARK SMILES IDX 18 1 19 2 20 3 21 4 39 5 40 6 17 7 7 8 8 9 9 10 16 11 10 12
REMARK SMILES IDX 15 13 11 14 14 15 12 16 13 17 6 18 3 19 4 20 48 21 5 22
REMARK SMILES IDX 41 23 2 24 49 25 50 26 53 27 51 28 1 29 52 30 42 32 43 33
REMARK SMILES IDX 47 34 44 35 46 36 45 37 22 38 23 39 24 40 38 41 25 42 37 43
REMARK SMILES IDX 26 44 27 45 28 46 36 47 30 48 35 49 31 50 34 51 32 52 33 53
REMARK SMILES IDX 29 54
REMARK H PARENT 52 31 29 55
ROOT
ATOM      1  C   UNL     1      -0.582  -0.692   0.276  1.00  0.00     0.002 A 
ATOM      2  C   UNL     1      -0.039  -0.047   1.400  1.00  0.00     0.011 A 
ATOM      3  C   UNL     1       0.907   0.977   1.268  1.00  0.00     0.006 A 
ATOM      4  C   UNL     1       1.369   1.364   0.004  1.00  0.00    -0.034 A 
ATOM      5  C   UNL     1       0.836   0.724  -1.122  1.00  0.00     0.006 A 
ATOM      6  C   UNL     1      -0.119  -0.290  -0.986  1.00  0.00     0.011 A 
ENDROOT
BRANCH   1   7
ATOM      7  C   UNL     1      -1.536  -1.804   0.433  1.00  0.00     0.097 A 
ATOM      8  C   UNL     1      -2.811  -1.887  -0.145  1.00  0.00     0.099 A 
ATOM      9  N   UNL     1      -3.572  -3.015  -0.027  1.00  0.00    -0.244 NA
ATOM     10  C   UNL     1      -3.081  -4.018   0.720  1.00  0.00     0.090 A 
ATOM     11  N   UNL     1      -1.053  -2.819   1.202  1.00  0.00    -0.244 NA
ATOM     12  C   UNL     1      -3.832  -5.176   0.896  1.00  0.00     0.033 A 
ATOM     13  C   UNL     1      -1.817  -3.914   1.346  1.00  0.00     0.092 A 
ATOM     14  C   UNL     1      -3.360  -6.227   1.682  1.00  0.00     0.041 A 
ATOM     15  C   UNL     1      -1.353  -4.963   2.123  1.00  0.00     0.069 A 
ATOM     16  C   UNL     1      -2.120  -6.107   2.291  1.00  0.00     0.125 A 
ATOM     17  F   UNL     1      -1.660  -7.108   3.053  1.00  0.00    -0.207 F 
BRANCH   8  18
ATOM     18  C   UNL     1      -3.451  -0.814  -0.920  1.00  0.00     0.026 A 
ATOM     19  C   UNL     1      -4.561   1.203  -2.546  1.00  0.00     0.042 A 
ATOM     20  C   UNL     1      -3.832   0.170  -3.130  1.00  0.00     0.015 A 
ATOM     21  C   UNL     1      -4.733   1.235  -1.160  1.00  0.00     0.040 A 
ATOM     22  C   UNL     1      -3.296  -0.833  -2.325  1.00  0.00     0.013 A 
ATOM     23  C   UNL     1      -4.214   0.225  -0.330  1.00  0.00     0.047 A 
BRANCH  19  24
ATOM     24  C   UNL     1      -5.125   2.261  -3.420  1.00  0.00     0.254 C 
ATOM     25  N   UNL     1      -6.377   2.754  -3.099  1.00  0.00    -0.333 N 
ATOM     26  C   UNL     1      -7.189   3.555  -4.021  1.00  0.00     0.153 C 
ATOM     27  C   UNL     1      -7.528   1.973  -2.640  1.00  0.00     0.153 C 
ATOM     28  C   UNL     1      -8.412   3.102  -3.204  1.00  0.00     0.153 C 
ATOM     29  O   UNL     1      -4.478   2.653  -4.388  1.00  0.00    -0.269 OA
BRANCH  28  30
ATOM     30  O   UNL     1      -8.947   4.046  -2.245  1.00  0.00    -0.389 OA
ATOM     31  H   UNL     1      -8.169   4.359  -1.746  1.00  0.00     0.211 HD
ENDBRANCH  28  30
ENDBRANCH  19  24
BRANCH  23  32
ATOM     32  N   UNL     1      -4.540   0.328   1.017  1.00  0.00    -0.366 N 
ATOM     33  C   UNL     1      -3.605   1.010   1.920  1.00  0.00     0.145 C 
ATOM     34  C   UNL     1      -5.398  -0.698   1.624  1.00  0.00     0.145 C 
ATOM     35  C   UNL     1      -3.393   0.180   3.199  1.00  0.00     0.181 C 
ATOM     36  C   UNL     1      -5.752  -0.264   3.057  1.00  0.00     0.181 C 
ATOM     37  O   UNL     1      -4.607  -0.110   3.914  1.00  0.00    -0.378 OA
ENDBRANCH  23  32
ENDBRANCH   8  18
ENDBRANCH   1   7
BRANCH   4  38
ATOM     38  C   UNL     1       2.429   2.438  -0.154  1.00  0.00     0.120 C 
BRANCH  38  39
ATOM     39  N   UNL     1       3.829   1.988  -0.121  1.00  0.00    -0.299 NA
ATOM     40  C   UNL     1       4.331   1.691   1.222  1.00  0.00     0.087 C 
ATOM     41  C   UNL     1       4.170   0.982  -1.121  1.00  0.00     0.087 C 
ATOM     42  C   UNL     1       5.488   0.687   1.245  1.00  0.00     0.041 C 
ATOM     43  C   UNL     1       5.688   0.911  -1.291  1.00  0.00     0.041 C 
ATOM     44  C   UNL     1       6.431   0.895   0.057  1.00  0.00     0.095 C 
BRANCH  44  45
ATOM     45  N   UNL     1       7.540  -0.051   0.077  1.00  0.00    -0.291 N 
ATOM     46  C   UNL     1       7.451  -1.409  -0.070  1.00  0.00     0.295 A 
ATOM     47  C   UNL     1       8.877   0.246   0.258  1.00  0.00     0.072 A 
ATOM     48  N   UNL     1       8.607  -2.011  -0.015  1.00  0.00    -0.195 NA
ATOM     49  C   UNL     1       9.584   1.438   0.470  1.00  0.00     0.029 A 
ATOM     50  C   UNL     1       9.512  -0.997   0.193  1.00  0.00     0.092 A 
ATOM     51  C   UNL     1      10.975   1.342   0.617  1.00  0.00     0.002 A 
ATOM     52  C   UNL     1      10.907  -1.069   0.336  1.00  0.00     0.031 A 
ATOM     53  C   UNL     1      11.629   0.111   0.551  1.00  0.00     0.002 A 
BRANCH  46  54
ATOM     54  O   UNL     1       6.330  -2.073  -0.265  1.00  0.00    -0.480 OA
ATOM     55  H   UNL     1       6.669  -2.984  -0.338  1.00  0.00     0.296 HD
ENDBRANCH  46  54
ENDBRANCH  44  45
ENDBRANCH  38  39
ENDBRANCH   4  38
TORSDOF 9
