REMARK SMILES O=C(C1=CC=C2C(=NN=C2c2ccc(CN3CCC(n4c(O)nc5ccccc54)CC3)cc2)OC=C1)N1CCS(=O)(=O)CC1
REMARK SMILES IDX 11 1 12 2 13 3 14 4 32 5 33 6 10 7 6 8 7 9 8 10 9 11 5 12
REMARK SMILES IDX 4 13 3 14 2 15 37 16 38 17 44 18 39 19 43 20 40 21 1 22
REMARK SMILES IDX 41 23 42 24 36 25 34 27 35 28 15 30 16 31 17 32 31 33 18 34
REMARK SMILES IDX 30 35 19 36 20 37 21 38 29 39 23 40 28 41 24 42 27 43 25 44
REMARK SMILES IDX 26 45 22 46
REMARK H PARENT 22 47
REMARK Flexibility Score:  153.900
ROOT
ATOM      1  C   UNL     1       0.879  -0.113   1.321  1.00  0.00     0.003 A 
ATOM      2  C   UNL     1       0.137  -1.223   1.732  1.00  0.00     0.011 A 
ATOM      3  C   UNL     1      -1.105  -1.482   1.148  1.00  0.00     0.006 A 
ATOM      4  C   UNL     1      -1.621  -0.625   0.164  1.00  0.00    -0.034 A 
ATOM      5  C   UNL     1      -0.885   0.513  -0.205  1.00  0.00     0.006 A 
ATOM      6  C   UNL     1       0.359   0.773   0.373  1.00  0.00     0.011 A 
ENDROOT
BRANCH   1   7
ATOM      7  C   UNL     1       2.202   0.093   1.911  1.00  0.00     0.106 C 
ATOM      8  C   UNL     1       3.451   0.233   1.131  1.00  0.00     0.067 C 
ATOM      9  C   UNL     1       4.404   0.350   2.225  1.00  0.00     0.247 C 
ATOM     10  N   UNL     1       3.846   0.315   3.403  1.00  0.00    -0.110 NA
ATOM     11  N   UNL     1       2.428   0.121   3.201  1.00  0.00    -0.146 NA
BRANCH   8  12
ATOM     12  C   UNL     1       3.606   0.202  -0.199  1.00  0.00     0.017 C 
BRANCH  12  13
ATOM     13  C   UNL     1       4.812   0.330  -0.997  1.00  0.00     0.015 C 
BRANCH  13  14
ATOM     14  C   UNL     1       6.025  -0.222  -0.790  1.00  0.00     0.043 C 
BRANCH  14  15
ATOM     15  C   UNL     1       6.968  -0.113  -1.951  1.00  0.00     0.254 C 
ATOM     16  N   UNL     1       8.202   0.496  -1.745  1.00  0.00    -0.337 N 
ATOM     17  C   UNL     1       8.613   1.218  -0.536  1.00  0.00     0.136 C 
ATOM     18  C   UNL     1       9.191   0.337  -2.814  1.00  0.00     0.136 C 
ATOM     19  C   UNL     1       9.728   0.486   0.179  1.00  0.00     0.158 C 
ATOM     20  C   UNL     1      10.573   0.859  -2.481  1.00  0.00     0.158 C 
ATOM     21  S   UNL     1      11.112   0.216  -0.914  1.00  0.00     0.153 S 
ATOM     22  O   UNL     1       6.645  -0.594  -3.036  1.00  0.00    -0.269 OA
ATOM     23  O   UNL     1      11.292  -1.217  -1.065  1.00  0.00    -0.229 OA
ATOM     24  O   UNL     1      12.208   1.052  -0.461  1.00  0.00    -0.229 OA
ENDBRANCH  14  15
BRANCH  14  25
ATOM     25  C   UNL     1       6.405  -1.059   0.331  1.00  0.00     0.052 CG0
ATOM     26  G   UNL     1       6.242  -0.712   1.613  1.00  0.00     0.000 G0
ENDBRANCH  14  25
ENDBRANCH  13  14
ENDBRANCH  12  13
ENDBRANCH   8  12
BRANCH   9  27
ATOM     27  O   UNL     1       5.723   0.510   2.018  1.00  0.00    -0.445 OA
BRANCH  27  28
ATOM     28  C   UNL     1       6.242  -0.712   1.613  1.00  0.00     0.198 CG0
ATOM     29  G   UNL     1       6.405  -1.059   0.331  1.00  0.00     0.000 G0
ENDBRANCH  27  28
ENDBRANCH   9  27
ENDBRANCH   1   7
BRANCH   4  30
ATOM     30  C   UNL     1      -2.941  -0.937  -0.512  1.00  0.00     0.120 C 
BRANCH  30  31
ATOM     31  N   UNL     1      -3.983   0.071  -0.261  1.00  0.00    -0.299 NA
ATOM     32  C   UNL     1      -4.374   0.122   1.157  1.00  0.00     0.087 C 
ATOM     33  C   UNL     1      -5.110  -0.067  -1.192  1.00  0.00     0.087 C 
ATOM     34  C   UNL     1      -5.863   0.399   1.371  1.00  0.00     0.041 C 
ATOM     35  C   UNL     1      -6.197  -1.031  -0.722  1.00  0.00     0.041 C 
ATOM     36  C   UNL     1      -6.682  -0.712   0.703  1.00  0.00     0.095 C 
BRANCH  36  37
ATOM     37  N   UNL     1      -8.119  -0.491   0.790  1.00  0.00    -0.291 N 
ATOM     38  C   UNL     1      -8.989  -1.277   1.500  1.00  0.00     0.295 A 
ATOM     39  C   UNL     1      -8.873   0.502   0.200  1.00  0.00     0.072 A 
ATOM     40  N   UNL     1     -10.231  -0.893   1.408  1.00  0.00    -0.195 NA
ATOM     41  C   UNL     1      -8.571   1.590  -0.626  1.00  0.00     0.029 A 
ATOM     42  C   UNL     1     -10.182   0.220   0.605  1.00  0.00     0.092 A 
ATOM     43  C   UNL     1      -9.634   2.401  -1.042  1.00  0.00     0.002 A 
ATOM     44  C   UNL     1     -11.234   1.043   0.177  1.00  0.00     0.031 A 
ATOM     45  C   UNL     1     -10.944   2.137  -0.646  1.00  0.00     0.002 A 
BRANCH  38  46
ATOM     46  O   UNL     1      -8.638  -2.317   2.225  1.00  0.00    -0.480 OA
ATOM     47  H   UNL     1      -9.503  -2.605   2.570  1.00  0.00     0.296 HD
ENDBRANCH  38  46
ENDBRANCH  36  37
ENDBRANCH  30  31
ENDBRANCH   4  30
TORSDOF 6
