REMARK SMILES CN1CCN(S(=O)(=O)c2ccc(-c3nc4ccc(F)cc4nc3-c3ccc(CN4CCC(n5c(O)nc6ccccc65)CC4)cc3)nc2)CC1
REMARK SMILES IDX 24 1 25 2 26 3 27 4 45 5 46 6 23 7 13 8 14 9 15 10 22 11
REMARK SMILES IDX 16 12 21 13 17 14 20 15 18 16 19 17 12 18 9 19 10 20 48 21
REMARK SMILES IDX 11 22 47 23 6 24 7 25 8 26 5 27 2 28 3 29 50 30 4 31 49 32
REMARK SMILES IDX 1 33 28 34 29 35 30 36 44 37 31 38 43 39 32 40 33 41 34 42
REMARK SMILES IDX 42 43 36 44 41 45 37 46 40 47 38 48 39 49 35 50
REMARK H PARENT 35 51
ROOT
ATOM      1  C   UNL     1      -0.371  -0.304  -1.512  1.00  0.00     0.002 A 
ATOM      2  C   UNL     1       0.311  -1.531  -1.459  1.00  0.00     0.011 A 
ATOM      3  C   UNL     1       1.237  -1.804  -0.447  1.00  0.00     0.006 A 
ATOM      4  C   UNL     1       1.518  -0.852   0.540  1.00  0.00    -0.034 A 
ATOM      5  C   UNL     1       0.859   0.382   0.482  1.00  0.00     0.006 A 
ATOM      6  C   UNL     1      -0.063   0.655  -0.534  1.00  0.00     0.011 A 
ENDROOT
BRANCH   1   7
ATOM      7  C   UNL     1      -1.350  -0.038  -2.584  1.00  0.00     0.099 A 
ATOM      8  C   UNL     1      -2.658   0.431  -2.389  1.00  0.00     0.116 A 
ATOM      9  N   UNL     1      -3.466   0.740  -3.449  1.00  0.00    -0.242 NA
ATOM     10  C   UNL     1      -2.979   0.528  -4.683  1.00  0.00     0.090 A 
ATOM     11  N   UNL     1      -0.863  -0.245  -3.843  1.00  0.00    -0.244 NA
ATOM     12  C   UNL     1      -3.779   0.796  -5.788  1.00  0.00     0.033 A 
ATOM     13  C   UNL     1      -1.670   0.029  -4.881  1.00  0.00     0.092 A 
ATOM     14  C   UNL     1      -3.310   0.581  -7.085  1.00  0.00     0.041 A 
ATOM     15  C   UNL     1      -1.211  -0.179  -6.173  1.00  0.00     0.069 A 
ATOM     16  C   UNL     1      -2.025   0.096  -7.262  1.00  0.00     0.125 A 
ATOM     17  F   UNL     1      -1.563  -0.112  -8.502  1.00  0.00    -0.207 F 
BRANCH   8  18
ATOM     18  C   UNL     1      -3.294   0.605  -1.072  1.00  0.00     0.091 A 
ATOM     19  C   UNL     1      -4.520   0.803   1.381  1.00  0.00     0.101 A 
ATOM     20  C   UNL     1      -4.602   1.878   0.501  1.00  0.00     0.026 A 
ATOM     21  C   UNL     1      -3.795  -0.312   1.009  1.00  0.00     0.133 A 
ATOM     22  C   UNL     1      -3.994   1.770  -0.749  1.00  0.00     0.032 A 
ATOM     23  N   UNL     1      -3.196  -0.435  -0.201  1.00  0.00    -0.253 NA
BRANCH  19  24
ATOM     24  S   UNL     1      -5.253   0.870   2.982  1.00  0.00     0.244 S 
ATOM     25  O   UNL     1      -5.201   2.249   3.415  1.00  0.00    -0.207 OA
ATOM     26  O   UNL     1      -4.657  -0.185   3.774  1.00  0.00    -0.207 OA
BRANCH  24  27
ATOM     27  N   UNL     1      -6.871   0.457   2.702  1.00  0.00    -0.195 NA
ATOM     28  N   UNL     1      -9.570  -0.275   1.741  1.00  0.00    -0.304 NA
ATOM     29  C   UNL     1      -8.653  -1.252   2.367  1.00  0.00     0.101 C 
ATOM     30  C   UNL     1      -9.223   1.087   2.199  1.00  0.00     0.101 C 
ATOM     31  C   UNL     1      -7.150  -0.926   2.229  1.00  0.00     0.118 C 
ATOM     32  C   UNL     1      -7.736   1.471   2.039  1.00  0.00     0.118 C 
ATOM     33  C   UNL     1      -9.572  -0.382   0.283  1.00  0.00     0.105 C 
ENDBRANCH  24  27
ENDBRANCH  19  24
ENDBRANCH   8  18
ENDBRANCH   1   7
BRANCH   4  34
ATOM     34  C   UNL     1       2.489  -1.156   1.660  1.00  0.00     0.120 C 
BRANCH  34  35
ATOM     35  N   UNL     1       3.909  -0.886   1.408  1.00  0.00    -0.299 NA
ATOM     36  C   UNL     1       4.520  -1.703   0.366  1.00  0.00     0.087 C 
ATOM     37  C   UNL     1       4.238   0.536   1.280  1.00  0.00     0.087 C 
ATOM     38  C   UNL     1       6.043  -1.720   0.551  1.00  0.00     0.041 C 
ATOM     39  C   UNL     1       5.665   0.774   0.770  1.00  0.00     0.041 C 
ATOM     40  C   UNL     1       6.574  -0.401   1.142  1.00  0.00     0.095 C 
BRANCH  40  41
ATOM     41  N   UNL     1       7.973  -0.153   0.832  1.00  0.00    -0.291 N 
ATOM     42  C   UNL     1       8.512   0.058  -0.406  1.00  0.00     0.295 A 
ATOM     43  C   UNL     1       9.005  -0.035   1.742  1.00  0.00     0.072 A 
ATOM     44  N   UNL     1       9.794   0.303  -0.379  1.00  0.00    -0.195 NA
ATOM     45  C   UNL     1       9.078  -0.137   3.138  1.00  0.00     0.029 A 
ATOM     46  C   UNL     1      10.123   0.253   0.955  1.00  0.00     0.092 A 
ATOM     47  C   UNL     1      10.329   0.072   3.731  1.00  0.00     0.002 A 
ATOM     48  C   UNL     1      11.369   0.454   1.570  1.00  0.00     0.031 A 
ATOM     49  C   UNL     1      11.457   0.363   2.963  1.00  0.00     0.002 A 
BRANCH  42  50
ATOM     50  O   UNL     1       7.835   0.044  -1.534  1.00  0.00    -0.480 OA
ATOM     51  H   UNL     1       8.540   0.241  -2.179  1.00  0.00     0.296 HD
ENDBRANCH  42  50
ENDBRANCH  40  41
ENDBRANCH  34  35
ENDBRANCH   4  34
TORSDOF 8
