MODEL        8USER    Run = 8USERUSER    Estimated Free Energy of Binding    = -11.85 kcal/mol  [=(1)+(2)+(3)-(4)]USERUSER    (1) Final Intermolecular Energy     = -14.54 kcal/molUSER        vdW + Hbond + desolv Energy     = -14.51 kcal/molUSER        Electrostatic Energy            =  -0.03 kcal/molUSER        Moving Ligand-Fixed Receptor    = -14.54 kcal/molUSER        Moving Ligand-Moving Receptor   =  +0.00 kcal/molUSER    (2) Final Total Internal Energy     =  -2.85 kcal/molUSER    (3) Torsional Free Energy           =  +2.68 kcal/molUSER    (4) Unbound System's Energy         =  -2.85 kcal/molUSERUSERREMARK SMILES O=C(c1ccc(-c2nc3ccc(F)cc3nc2-c2ccc(CN3CCC(n4c(O)nc5ccccc54)CC3)cc2)c(N2CCOCC2)c1)N1CC(O)C1REMARK SMILES IDX 18 1 19 2 20 3 21 4 39 5 40 6 17 7 7 8 8 9 9 10 16 11 10 12REMARK SMILES IDX 15 13 11 14 14 15 12 16 13 17 6 18 3 19 4 20 48 21 5 22REMARK SMILES IDX 41 23 2 24 49 25 50 26 53 27 51 28 1 29 52 30 42 32 43 33REMARK SMILES IDX 47 34 44 35 46 36 45 37 22 38 23 39 24 40 38 41 25 42 37 43REMARK SMILES IDX 26 44 27 45 28 46 36 47 30 48 35 49 31 50 34 51 32 52 33 53REMARK SMILES IDX 29 54REMARK H PARENT 52 31 29 55USER                              x       y       z     vdW  Elec       q    TypeUSER                           _______ _______ _______ _____ _____    ______ ____ROOTATOM      1  C   UNL     1      39.825  44.684  23.349 -0.20 +0.00    +0.002 A  ATOM      2  C   UNL     1      40.291  46.008  23.301 -0.22 +0.00    +0.011 A  ATOM      3  C   UNL     1      40.955  46.508  22.174 -0.15 +0.00    +0.006 A  ATOM      4  C   UNL     1      41.207  45.684  21.070 -0.31 -0.00    -0.034 A  ATOM      5  C   UNL     1      40.749  44.361  21.110 -0.32 +0.00    +0.006 A  ATOM      6  C   UNL     1      40.074  43.870  22.234 -0.26 +0.00    +0.011 A  ENDROOTBRANCH   1   7ATOM      7  C   UNL     1      39.176  44.157  24.563 -0.14 +0.00    +0.097 A  ATOM      8  C   UNL     1      39.499  44.493  25.885 -0.11 +0.00    +0.099 A  ATOM      9  N   UNL     1      38.759  44.032  26.936 -0.10 +0.01    -0.244 NA ATOM     10  C   UNL     1      37.749  43.190  26.661 -0.24 -0.01    +0.090 A  ATOM     11  N   UNL     1      38.161  43.290  24.293 -0.14 -0.01    -0.244 NA ATOM     12  C   UNL     1      36.985  42.668  27.700 -0.35 -0.01    +0.033 A  ATOM     13  C   UNL     1      37.455  42.810  25.330 -0.28 -0.00    +0.092 A  ATOM     14  C   UNL     1      35.943  41.776  27.449 -0.53 -0.01    +0.041 A  ATOM     15  C   UNL     1      36.417  41.925  25.088 -0.32 -0.01    +0.069 A  ATOM     16  C   UNL     1      35.671  41.411  26.139 -0.33 -0.04    +0.125 A  ATOM     17  F   UNL     1      34.676  40.550  25.888 -0.00 +0.13    -0.207 F  BRANCH   8  18ATOM     18  C   UNL     1      40.625  45.352  26.280 -0.11 +0.00    +0.026 A  ATOM     19  C   UNL     1      42.876  46.845  27.087 -0.07 +0.00    +0.042 A  ATOM     20  C   UNL     1      43.012  45.486  26.813 -0.04 +0.00    +0.015 A  ATOM     21  C   UNL     1      41.626  47.457  26.965 -0.14 +0.00    +0.040 A  ATOM     22  C   UNL     1      41.900  44.754  26.401 -0.06 +0.00    +0.013 A  ATOM     23  C   UNL     1      40.494  46.741  26.536 -0.14 +0.00    +0.047 A  BRANCH  19  24ATOM     24  C   UNL     1      44.071  47.608  27.523 -0.04 +0.01    +0.254 C  ATOM     25  N   UNL     1      44.398  48.746  26.808 -0.06 -0.01    -0.333 N  ATOM     26  C   UNL     1      45.697  49.418  26.912 -0.11 +0.01    +0.153 C  ATOM     27  C   UNL     1      44.344  48.905  25.353 -0.22 +0.02    +0.153 C  ATOM     28  C   UNL     1      45.411  50.004  25.518 -0.22 +0.02    +0.153 C  ATOM     29  O   UNL     1      44.726  47.208  28.483 -0.01 -0.01    -0.269 OA BRANCH  28  30ATOM     30  O   UNL     1      44.942  51.374  25.466 -0.15 -0.03    -0.389 OA ATOM     31  H   UNL     1      44.042  51.341  25.841 -0.43 -0.03    +0.211 HD ENDBRANCH  28  30ENDBRANCH  19  24BRANCH  23  32ATOM     32  N   UNL     1      39.337  47.491  26.365 -0.07 -0.02    -0.366 N  ATOM     33  C   UNL     1      38.139  47.128  27.132 -0.23 -0.01    +0.145 C  ATOM     34  C   UNL     1      39.107  48.165  25.080 -0.31 +0.02    +0.145 C  ATOM     35  C   UNL     1      36.903  47.103  26.215 -0.26 -0.02    +0.181 C  ATOM     36  C   UNL     1      37.864  49.063  25.207 -0.31 +0.02    +0.181 C  ATOM     37  O   UNL     1      36.661  48.344  25.529 -0.42 +0.00    -0.378 OA ENDBRANCH  23  32ENDBRANCH   8  18ENDBRANCH   1   7BRANCH   4  38ATOM     38  C   UNL     1      41.967  46.196  19.861 -0.39 +0.02    +0.120 C  BRANCH  38  39ATOM     39  N   UNL     1      41.209  46.299  18.604 -0.28 +0.00    -0.299 NA ATOM     40  C   UNL     1      39.807  45.894  18.716 -0.44 -0.01    +0.087 C  ATOM     41  C   UNL     1      41.414  47.543  17.869 -0.52 -0.01    +0.087 C  ATOM     42  C   UNL     1      38.888  46.540  17.674 -0.40 -0.01    +0.041 C  ATOM     43  C   UNL     1      40.952  47.373  16.421 -0.40 -0.01    +0.041 C  ATOM     44  C   UNL     1      39.587  46.669  16.318 -0.45 -0.02    +0.095 C  BRANCH  44  45ATOM     45  N   UNL     1      38.716  47.274  15.318 -0.22 +0.11    -0.291 N  ATOM     46  C   UNL     1      38.501  48.614  15.133 -0.26 -0.17    +0.295 A  ATOM     47  C   UNL     1      37.942  46.611  14.385 -0.38 -0.03    +0.072 A  ATOM     48  N   UNL     1      37.673  48.874  14.159 -0.44 +0.12    -0.195 NA ATOM     49  C   UNL     1      37.729  45.257  14.090 -0.36 -0.01    +0.029 A  ATOM     50  C   UNL     1      37.308  47.638  13.680 -0.48 -0.04    +0.092 A  ATOM     51  C   UNL     1      36.844  44.960  13.044 -0.47 -0.00    +0.002 A  ATOM     52  C   UNL     1      36.431  47.317  12.632 -0.65 -0.01    +0.031 A  ATOM     53  C   UNL     1      36.204  45.970  12.325 -0.61 -0.00    +0.002 A  BRANCH  46  54ATOM     54  O   UNL     1      39.069  49.571  15.838 -0.11 +0.32    -0.480 OA ATOM     55  H   UNL     1      38.640  50.358  15.454 -0.29 -0.31    +0.296 HD ENDBRANCH  46  54ENDBRANCH  44  45ENDBRANCH  38  39ENDBRANCH   4  38TORSDOF 9TERENDMDL