MODEL        4USER    Run = 4USERUSER    Estimated Free Energy of Binding    = -10.93 kcal/mol  [=(1)+(2)+(3)-(4)]USERUSER    (1) Final Intermolecular Energy     = -14.51 kcal/molUSER        vdW + Hbond + desolv Energy     = -14.35 kcal/molUSER        Electrostatic Energy            =  -0.28 kcal/molUSER        Moving Ligand-Fixed Receptor    = -14.63 kcal/molUSER        Moving Ligand-Moving Receptor   =  +0.12 kcal/molUSER    (2) Final Total Internal Energy     =  -1.45 kcal/molUSER    (3) Torsional Free Energy           =  +3.58 kcal/molUSER    (4) Unbound System's Energy         =  -1.45 kcal/molUSERUSERREMARK SMILES O=C(C1=CC=C2C(=NN=C2c2ccc(CN3CCC(n4c(O)nc5ccccc54)CC3)cc2)OC=C1)N1CCS(=O)(=O)CC1REMARK SMILES IDX 11 1 12 2 13 3 14 4 32 5 33 6 10 7 6 8 7 9 8 10 9 11 5 12REMARK SMILES IDX 4 13 3 14 2 15 37 16 38 17 44 18 39 19 43 20 40 21 1 22REMARK SMILES IDX 41 23 42 24 36 25 34 27 35 28 15 30 16 31 17 32 31 33 18 34REMARK SMILES IDX 30 35 19 36 20 37 21 38 29 39 23 40 28 41 24 42 27 43 25 44REMARK SMILES IDX 26 45 22 46REMARK H PARENT 22 47REMARK Flexibility Score:  153.900USER                              x       y       z     vdW  Elec       q    TypeUSER                           _______ _______ _______ _____ _____    ______ ____ROOTATOM      1  C   UNL     1      42.136  46.658  20.006 -0.43 +0.00    +0.003 A  ATOM      2  C   UNL     1      41.215  45.699  20.436 -0.36 +0.00    +0.011 A  ATOM      3  C   UNL     1      40.208  45.267  19.570 -0.42 +0.00    +0.006 A  ATOM      4  C   UNL     1      40.102  45.803  18.278 -0.44 +0.00    -0.034 A  ATOM      5  C   UNL     1      41.006  46.800  17.876 -0.52 -0.00    +0.006 A  ATOM      6  C   UNL     1      42.017  47.232  18.737 -0.53 +0.00    +0.011 A  ENDROOTBRANCH   1   7ATOM      7  C   UNL     1      43.213  47.042  20.918 -0.37 +0.03    +0.106 C  ATOM      8  C   UNL     1      43.006  47.508  22.306 -0.34 +0.01    +0.067 C  ATOM      9  C   UNL     1      44.386  47.785  22.674 -0.22 +0.08    +0.247 C  ATOM     10  N   UNL     1      45.239  47.517  21.724 -0.78 -0.09    -0.110 NA ATOM     11  N   UNL     1      44.479  47.064  20.581 -0.42 -0.15    -0.146 NA BRANCH   8  12ATOM     12  C   UNL     1      41.850  47.661  22.965 -0.27 +0.00    +0.017 C  BRANCH  12  13ATOM     13  C   UNL     1      41.416  47.085  24.226 -0.22 +0.00    +0.015 C  BRANCH  13  14ATOM     14  C   UNL     1      41.982  47.195  25.445 -0.14 +0.00    +0.043 C  BRANCH  14  15ATOM     15  C   UNL     1      41.008  47.264  26.583 -0.11 +0.02    +0.254 C  ATOM     16  N   UNL     1      39.847  48.012  26.415 -0.09 -0.02    -0.337 N  ATOM     17  C   UNL     1      39.556  48.906  25.288 -0.15 +0.02    +0.136 C  ATOM     18  C   UNL     1      38.805  47.831  27.428 -0.15 -0.01    +0.136 C  ATOM     19  C   UNL     1      38.406  48.375  24.460 -0.38 +0.02    +0.158 C  ATOM     20  C   UNL     1      37.494  48.523  27.120 -0.26 -0.01    +0.158 C  ATOM     21  S   UNL     1      36.960  48.121  25.473 -0.50 +0.00    +0.153 S  ATOM     22  O   UNL     1      41.240  46.632  27.612 -0.62 -0.05    -0.269 OA ATOM     23  O   UNL     1      36.638  46.705  25.448 -0.81 -0.02    -0.229 OA ATOM     24  O   UNL     1      35.968  49.108  25.090 -0.44 +0.03    -0.229 OA ENDBRANCH  14  15BRANCH  14  25ATOM     25  C   UNL     1      43.382  47.455  25.718 -0.11 +0.00    +0.052 CG0ATOM     26  G   UNL     1      44.364  47.282  24.826 +0.00 +0.00    +0.000 G0 ENDBRANCH  14  25ENDBRANCH  13  14ENDBRANCH  12  13ENDBRANCH   8  12BRANCH   9  27ATOM     27  O   UNL     1      44.730  48.241  23.892 -0.14 -0.11    -0.445 OA BRANCH  27  28ATOM     28  C   UNL     1      44.363  47.282  24.826 -0.08 +0.03    +0.198 CG0ATOM     29  G   UNL     1      43.381  47.456  25.718 +0.00 +0.00    +0.000 G0 ENDBRANCH  27  28ENDBRANCH   9  27ENDBRANCH   1   7BRANCH   4  30ATOM     30  C   UNL     1      39.046  45.293  17.318 -0.30 -0.02    +0.120 C  BRANCH  30  31ATOM     31  N   UNL     1      37.679  45.699  17.678 -0.18 +0.09    -0.299 NA ATOM     32  C   UNL     1      37.090  44.817  18.698 -0.34 -0.02    +0.087 C  ATOM     33  C   UNL     1      36.838  45.893  16.490 -0.36 -0.04    +0.087 C  ATOM     34  C   UNL     1      35.591  44.578  18.508 -0.38 -0.01    +0.041 C  ATOM     35  C   UNL     1      36.131  44.628  16.009 -0.38 -0.02    +0.041 C  ATOM     36  C   UNL     1      35.355  43.929  17.139 -0.31 -0.04    +0.095 C  BRANCH  36  37ATOM     37  N   UNL     1      33.943  43.733  16.837 -0.13 +0.12    -0.291 N  ATOM     38  C   UNL     1      33.159  44.627  16.155 -0.12 -0.17    +0.295 A  ATOM     39  C   UNL     1      33.135  42.665  17.163 -0.30 -0.03    +0.072 A  ATOM     40  N   UNL     1      31.921  44.241  16.028 -0.24 +0.09    -0.195 NA ATOM     41  C   UNL     1      33.345  41.458  17.840 -0.39 -0.01    +0.029 A  ATOM     42  C   UNL     1      31.883  43.015  16.645 -0.26 -0.04    +0.092 A  ATOM     43  C   UNL     1      32.250  40.598  17.985 -0.43 -0.00    +0.002 A  ATOM     44  C   UNL     1      30.797  42.142  16.802 -0.29 -0.01    +0.031 A  ATOM     45  C   UNL     1      30.996  40.930  17.473 -0.34 -0.00    +0.002 A  BRANCH  38  46ATOM     46  O   UNL     1      33.584  45.766  15.653 -0.02 +0.55    -0.480 OA ATOM     47  H   UNL     1      32.863  46.367  15.916 -0.27 -0.54    +0.296 HD ENDBRANCH  38  46ENDBRANCH  36  37ENDBRANCH  30  31ENDBRANCH   4  30TORSDOF 6TERENDMDL