MODEL        10USER    Run = 10USERUSER    Estimated Free Energy of Binding    = -12.98 kcal/mol  [=(1)+(2)+(3)-(4)]USERUSER    (1) Final Intermolecular Energy     = -15.37 kcal/molUSER        vdW + Hbond + desolv Energy     = -15.22 kcal/molUSER        Electrostatic Energy            =  -0.15 kcal/molUSER        Moving Ligand-Fixed Receptor    = -15.37 kcal/molUSER        Moving Ligand-Moving Receptor   =  +0.00 kcal/molUSER    (2) Final Total Internal Energy     =  -2.03 kcal/molUSER    (3) Torsional Free Energy           =  +2.39 kcal/molUSER    (4) Unbound System's Energy         =  -2.03 kcal/molUSERUSERREMARK SMILES CN1CCN(S(=O)(=O)c2ccc(-c3nc4ccc(F)cc4nc3-c3ccc(CN4CCC(n5c(O)nc6ccccc65)CC4)cc3)nc2)CC1REMARK SMILES IDX 24 1 25 2 26 3 27 4 45 5 46 6 23 7 13 8 14 9 15 10 22 11REMARK SMILES IDX 16 12 21 13 17 14 20 15 18 16 19 17 12 18 9 19 10 20 48 21REMARK SMILES IDX 11 22 47 23 6 24 7 25 8 26 5 27 2 28 3 29 50 30 4 31 49 32REMARK SMILES IDX 1 33 28 34 29 35 30 36 44 37 31 38 43 39 32 40 33 41 34 42REMARK SMILES IDX 42 43 36 44 41 45 37 46 40 47 38 48 39 49 35 50REMARK H PARENT 35 51USER                              x       y       z     vdW  Elec       q    TypeUSER                           _______ _______ _______ _____ _____    ______ ____ROOTATOM      1  C   UNL     1      35.806  43.764  18.860 -0.36 -0.00    +0.002 A  ATOM      2  C   UNL     1      35.788  43.747  20.265 -0.41 -0.00    +0.011 A  ATOM      3  C   UNL     1      36.930  44.058  21.009 -0.40 +0.00    +0.006 A  ATOM      4  C   UNL     1      38.132  44.387  20.370 -0.35 +0.00    -0.034 A  ATOM      5  C   UNL     1      38.164  44.385  18.971 -0.35 -0.00    +0.006 A  ATOM      6  C   UNL     1      37.022  44.068  18.228 -0.29 -0.00    +0.011 A  ENDROOTBRANCH   1   7ATOM      7  C   UNL     1      34.588  43.439  18.092 -0.26 -0.03    +0.099 A  ATOM      8  C   UNL     1      34.260  43.962  16.832 -0.24 -0.05    +0.116 A  ATOM      9  N   UNL     1      33.154  43.532  16.151 -0.19 +0.12    -0.242 NA ATOM     10  C   UNL     1      32.365  42.629  16.757 -0.22 -0.04    +0.090 A  ATOM     11  N   UNL     1      33.781  42.518  18.697 -0.21 +0.04    -0.244 NA ATOM     12  C   UNL     1      31.213  42.190  16.115 -0.17 -0.02    +0.033 A  ATOM     13  C   UNL     1      32.679  42.121  18.040 -0.31 -0.02    +0.092 A  ATOM     14  C   UNL     1      30.364  41.259  16.716 -0.32 -0.01    +0.041 A  ATOM     15  C   UNL     1      31.832  41.194  18.628 -0.31 -0.01    +0.069 A  ATOM     16  C   UNL     1      30.688  40.769  17.970 -0.23 -0.01    +0.125 A  ATOM     17  F   UNL     1      29.883  39.873  18.556 -0.05 -0.01    -0.207 F  BRANCH   8  18ATOM     18  C   UNL     1      35.024  45.016  16.142 -0.26 -0.06    +0.091 A  ATOM     19  C   UNL     1      36.526  46.888  14.801 -0.34 -0.07    +0.101 A  ATOM     20  C   UNL     1      36.101  47.171  16.096 -0.16 -0.03    +0.026 A  ATOM     21  C   UNL     1      36.148  45.694  14.219 -0.32 -0.07    +0.133 A  ATOM     22  C   UNL     1      35.353  46.214  16.781 -0.33 -0.03    +0.032 A  ATOM     23  N   UNL     1      35.421  44.752  14.869 -0.14 +0.13    -0.253 NA BRANCH  19  24ATOM     24  S   UNL     1      37.464  48.053  13.869 -0.57 -0.12    +0.244 S  ATOM     25  O   UNL     1      36.810  49.335  14.011 -0.46 +0.15    -0.207 OA ATOM     26  O   UNL     1      37.696  47.473  12.563 -1.05 +0.03    -0.207 OA BRANCH  24  27ATOM     27  N   UNL     1      38.948  48.116  14.680 -0.36 +0.08    -0.195 NA ATOM     28  N   UNL     1      41.289  48.076  16.487 -0.44 +0.03    -0.304 NA ATOM     29  C   UNL     1      41.037  47.020  15.484 -0.04 -0.00    +0.101 C  ATOM     30  C   UNL     1      40.625  49.326  16.061 -0.56 -0.03    +0.101 C  ATOM     31  C   UNL     1      39.556  46.822  15.094 -0.44 -0.03    +0.118 C  ATOM     32  C   UNL     1      39.130  49.183  15.702 -0.37 -0.07    +0.118 C  ATOM     33  C   UNL     1      40.880  47.666  17.829 -0.44 -0.01    +0.105 C  ENDBRANCH  24  27ENDBRANCH  19  24ENDBRANCH   8  18ENDBRANCH   1   7BRANCH   4  34ATOM     34  C   UNL     1      39.360  44.764  21.170 -0.31 +0.00    +0.120 C  BRANCH  34  35ATOM     35  N   UNL     1      39.167  45.670  22.308 -0.17 -0.02    -0.299 NA ATOM     36  C   UNL     1      38.714  45.032  23.538 -0.28 +0.01    +0.087 C  ATOM     37  C   UNL     1      40.275  46.604  22.527 -0.07 +0.01    +0.087 C  ATOM     38  C   UNL     1      38.060  46.078  24.450 -0.27 +0.01    +0.041 C  ATOM     39  C   UNL     1      40.164  47.357  23.859 -0.31 +0.00    +0.041 C  ATOM     40  C   UNL     1      38.700  47.470  24.295 -0.37 +0.01    +0.095 C  BRANCH  40  41ATOM     41  N   UNL     1      38.522  48.319  25.462 -0.18 -0.03    -0.291 N  ATOM     42  C   UNL     1      37.359  48.904  25.879 -0.23 +0.01    +0.295 A  ATOM     43  C   UNL     1      39.489  48.647  26.391 -0.22 +0.01    +0.072 A  ATOM     44  N   UNL     1      37.486  49.577  26.990 -0.17 -0.02    -0.195 NA ATOM     45  C   UNL     1      40.852  48.345  26.514 -0.23 +0.00    +0.029 A  ATOM     46  C   UNL     1      38.810  49.427  27.331 -0.19 +0.01    +0.092 A  ATOM     47  C   UNL     1      41.522  48.851  27.635 -0.23 +0.00    +0.002 A  ATOM     48  C   UNL     1      39.502  49.928  28.444 -0.24 +0.01    +0.031 A  ATOM     49  C   UNL     1      40.861  49.629  28.585 -0.24 +0.00    +0.002 A  BRANCH  42  50ATOM     50  O   UNL     1      36.203  48.806  25.259 -0.30 +0.04    -0.480 OA ATOM     51  H   UNL     1      36.171  49.657  24.783 -0.26 -0.05    +0.296 HD ENDBRANCH  42  50ENDBRANCH  40  41ENDBRANCH  34  35ENDBRANCH   4  34TORSDOF 8TERENDMDL