MODEL        4USER    Run = 4USERUSER    Estimated Free Energy of Binding    = -10.92 kcal/mol  [=(1)+(2)+(3)-(4)]USERUSER    (1) Final Intermolecular Energy     = -13.01 kcal/molUSER        vdW + Hbond + desolv Energy     = -12.86 kcal/molUSER        Electrostatic Energy            =  -0.14 kcal/molUSER        Moving Ligand-Fixed Receptor    = -13.01 kcal/molUSER        Moving Ligand-Moving Receptor   =  +0.00 kcal/molUSER    (2) Final Total Internal Energy     =  -1.32 kcal/molUSER    (3) Torsional Free Energy           =  +2.09 kcal/molUSER    (4) Unbound System's Energy         =  -1.32 kcal/molUSERUSERREMARK SMILES Cc1ccc2nc(NC3CCN(CC(=O)c4ccc(-c5ccnc(N)n5)cc4)CC3)sc2c1REMARK SMILES IDX 13 1 12 2 9 3 10 4 30 5 11 6 29 7 8 8 7 10 2 11 3 12 33 13REMARK SMILES IDX 4 14 32 15 5 16 31 17 6 18 1 19 14 20 15 21 16 22 17 23REMARK SMILES IDX 28 24 18 25 27 26 19 27 20 28 21 29 26 30 22 31 24 32 23 33REMARK SMILES IDX 25 34REMARK H PARENT 8 9 25 35 25 36USER                              x       y       z     vdW  Elec       q    TypeUSER                           _______ _______ _______ _____ _____    ______ ____ROOTATOM      1  C   UNL     1      41.627  45.916  23.558 -0.12 +0.02    +0.165 C  ENDROOTBRANCH   1   2ATOM      2  N   UNL     1      41.844  47.208  24.241 -0.07 -0.03    -0.296 NA ATOM      3  C   UNL     1      39.307  48.127  25.464 -0.29 +0.01    +0.084 C  ATOM      4  C   UNL     1      40.143  47.008  26.089 -0.19 +0.00    +0.040 C  ATOM      5  C   UNL     1      39.540  48.183  23.952 -0.35 +0.01    +0.040 C  ATOM      6  C   UNL     1      41.612  47.145  25.694 -0.13 +0.01    +0.087 C  ATOM      7  C   UNL     1      41.033  48.277  23.637 -0.26 +0.01    +0.087 C  BRANCH   3   8ATOM      8  N   UNL     1      37.899  47.889  25.756 -0.15 -0.02    -0.359 N  ATOM      9  H   UNL     1      37.405  48.640  26.228 +0.09 +0.00    +0.163 HD BRANCH   8  10ATOM     10  C   UNL     1      37.457  46.630  25.973 -0.24 -0.00    +0.184 A  ATOM     11  C   UNL     1      35.854  42.280  26.979 -0.48 +0.01    -0.050 A  ATOM     12  C   UNL     1      36.172  42.198  25.621 -0.41 -0.00    +0.006 A  ATOM     13  C   UNL     1      36.072  43.479  27.677 -0.45 -0.01    +0.024 A  ATOM     14  C   UNL     1      36.683  43.306  24.934 -0.34 +0.00    +0.030 A  ATOM     15  C   UNL     1      36.584  44.584  26.974 -0.35 -0.01    +0.057 A  ATOM     16  C   UNL     1      36.891  44.520  25.617 -0.29 -0.00    +0.084 A  ATOM     17  S   UNL     1      36.940  46.166  27.547 -0.43 +0.02    -0.097 S  ATOM     18  N   UNL     1      37.391  45.686  25.065 -0.68 -0.03    -0.220 NA ATOM     19  C   UNL     1      35.338  41.073  27.707 -0.68 -0.02    +0.044 C  ENDBRANCH   8  10ENDBRANCH   3   8ENDBRANCH   1   2BRANCH   1  20ATOM     20  C   UNL     1      42.587  45.725  22.388 -0.18 +0.04    +0.176 C  ATOM     21  O   UNL     1      43.653  45.123  22.536 -0.11 -0.10    -0.293 OA BRANCH  20  22ATOM     22  C   UNL     1      42.228  46.257  21.037 -0.34 +0.00    +0.019 A  ATOM     23  C   UNL     1      41.015  45.857  20.467 -0.36 +0.00    +0.012 A  ATOM     24  C   UNL     1      43.050  47.135  20.327 -0.40 +0.00    +0.012 A  ATOM     25  C   UNL     1      40.629  46.334  19.209 -0.39 -0.00    +0.011 A  ATOM     26  C   UNL     1      42.661  47.606  19.065 -0.51 +0.00    +0.011 A  ATOM     27  C   UNL     1      41.445  47.214  18.475 -0.51 -0.00    +0.000 A  BRANCH  27  28ATOM     28  C   UNL     1      41.023  47.701  17.146 -0.46 -0.01    +0.076 A  ATOM     29  C   UNL     1      40.288  46.931  16.264 -0.45 -0.01    +0.049 A  ATOM     30  N   UNL     1      41.390  48.966  16.843 -0.93 -0.00    -0.213 NA ATOM     31  C   UNL     1      39.963  47.524  15.069 -0.42 -0.02    +0.117 A  ATOM     32  C   UNL     1      41.043  49.440  15.643 -0.46 -0.04    +0.220 A  ATOM     33  N   UNL     1      40.324  48.774  14.738 -0.39 +0.06    -0.222 NA BRANCH  32  34ATOM     34  N   UNL     1      41.413  50.732  15.337 -0.34 +0.11    -0.368 N  ATOM     35  H   UNL     1      41.889  51.148  16.125 -0.44 -0.05    +0.159 HD ATOM     36  H   UNL     1      40.623  51.229  14.952 -0.34 -0.10    +0.159 HD ENDBRANCH  32  34ENDBRANCH  27  28ENDBRANCH  20  22ENDBRANCH   1  20TORSDOF 7TERENDMDL