REMARK SMILES Cc1ccc2nc(NC3CCN(CC(=O)c4ccc(-c5ccnc(N)n5)cc4)CC3)sc2c1
REMARK SMILES IDX 13 1 12 2 9 3 10 4 30 5 11 6 29 7 8 8 7 10 2 11 3 12 33 13
REMARK SMILES IDX 4 14 32 15 5 16 31 17 6 18 1 19 14 20 15 21 16 22 17 23
REMARK SMILES IDX 28 24 18 25 27 26 19 27 20 28 21 29 26 30 22 31 24 32 23 33
REMARK SMILES IDX 25 34
REMARK H PARENT 8 9 25 35 25 36
ROOT
ATOM      1  C   UNL     1      -0.954   1.338  -0.082  1.00  0.00     0.165 C 
ENDROOT
BRANCH   1   2
ATOM      2  N   UNL     1      -0.419  -0.011   0.192  1.00  0.00    -0.296 NA
ATOM      3  C   UNL     1       2.458   0.178   0.876  1.00  0.00     0.084 C 
ATOM      4  C   UNL     1       1.365   0.568   1.875  1.00  0.00     0.040 C 
ATOM      5  C   UNL     1       1.956   0.362  -0.558  1.00  0.00     0.040 C 
ATOM      6  C   UNL     1       0.066  -0.177   1.573  1.00  0.00     0.087 C 
ATOM      7  C   UNL     1       0.634  -0.376  -0.769  1.00  0.00     0.087 C 
BRANCH   3   8
ATOM      8  N   UNL     1       3.637   1.001   1.116  1.00  0.00    -0.359 N 
ATOM      9  H   UNL     1       3.481   2.002   1.175  1.00  0.00     0.163 HD
BRANCH   8  10
ATOM     10  C   UNL     1       4.848   0.591   0.677  1.00  0.00     0.184 A 
ATOM     11  C   UNL     1       9.189  -0.611  -0.810  1.00  0.00    -0.050 A 
ATOM     12  C   UNL     1       8.466  -1.799  -0.942  1.00  0.00     0.006 A 
ATOM     13  C   UNL     1       8.550   0.549  -0.344  1.00  0.00     0.024 A 
ATOM     14  C   UNL     1       7.112  -1.858  -0.591  1.00  0.00     0.030 A 
ATOM     15  C   UNL     1       7.190   0.475   0.006  1.00  0.00     0.057 A 
ATOM     16  C   UNL     1       6.461  -0.707  -0.107  1.00  0.00     0.084 A 
ATOM     17  S   UNL     1       6.155   1.708   0.610  1.00  0.00    -0.097 S 
ATOM     18  N   UNL     1       5.133  -0.623   0.272  1.00  0.00    -0.220 NA
ATOM     19  C   UNL     1      10.632  -0.557  -1.222  1.00  0.00     0.044 C 
ENDBRANCH   8  10
ENDBRANCH   3   8
ENDBRANCH   1   2
BRANCH   1  20
ATOM     20  C   UNL     1      -2.181   1.645   0.771  1.00  0.00     0.176 C 
ATOM     21  O   UNL     1      -2.101   2.393   1.748  1.00  0.00    -0.293 OA
BRANCH  20  22
ATOM     22  C   UNL     1      -3.504   1.049   0.411  1.00  0.00     0.019 A 
ATOM     23  C   UNL     1      -4.648   1.535   1.053  1.00  0.00     0.012 A 
ATOM     24  C   UNL     1      -3.643   0.034  -0.538  1.00  0.00     0.012 A 
ATOM     25  C   UNL     1      -5.911   1.016   0.744  1.00  0.00     0.011 A 
ATOM     26  C   UNL     1      -4.910  -0.486  -0.840  1.00  0.00     0.011 A 
ATOM     27  C   UNL     1      -6.072  -0.010  -0.204  1.00  0.00     0.000 A 
BRANCH  27  28
ATOM     28  C   UNL     1      -7.413  -0.549  -0.511  1.00  0.00     0.076 A 
ATOM     29  C   UNL     1      -7.632  -1.876  -0.829  1.00  0.00     0.049 A 
ATOM     30  N   UNL     1      -8.429   0.340  -0.448  1.00  0.00    -0.213 NA
ATOM     31  C   UNL     1      -8.935  -2.230  -1.082  1.00  0.00     0.117 A 
ATOM     32  C   UNL     1      -9.656  -0.102  -0.735  1.00  0.00     0.220 A 
ATOM     33  N   UNL     1      -9.961  -1.365  -1.037  1.00  0.00    -0.222 NA
BRANCH  32  34
ATOM     34  N   UNL     1     -10.693   0.804  -0.665  1.00  0.00    -0.368 N 
ATOM     35  H   UNL     1     -10.441   1.566  -0.052  1.00  0.00     0.159 HD
ATOM     36  H   UNL     1     -11.557   0.317  -0.475  1.00  0.00     0.159 HD
ENDBRANCH  32  34
ENDBRANCH  27  28
ENDBRANCH  20  22
ENDBRANCH   1  20
TORSDOF 7
