MODEL        6USER    Run = 6USERUSER    Estimated Free Energy of Binding    = -10.94 kcal/mol  [=(1)+(2)+(3)-(4)]USERUSER    (1) Final Intermolecular Energy     = -13.03 kcal/molUSER        vdW + Hbond + desolv Energy     = -12.87 kcal/molUSER        Electrostatic Energy            =  -0.16 kcal/molUSER        Moving Ligand-Fixed Receptor    = -13.03 kcal/molUSER        Moving Ligand-Moving Receptor   =  +0.00 kcal/molUSER    (2) Final Total Internal Energy     =  -1.20 kcal/molUSER    (3) Torsional Free Energy           =  +2.09 kcal/molUSER    (4) Unbound System's Energy         =  -1.20 kcal/molUSERUSERREMARK SMILES Nc1nccc(-c2ccc(C(=O)CN3CCC(Nc4nc5ccccc5s4)CC3)cc2)n1REMARK SMILES IDX 11 1 12 2 10 3 7 4 8 5 31 6 9 7 30 8 6 9 2 10 3 11 32 12REMARK SMILES IDX 4 13 5 14 1 15 13 18 14 19 15 20 29 21 16 22 28 23 17 24REMARK SMILES IDX 18 25 19 27 20 28 27 29 21 30 26 31 22 32 25 33 23 34 24 35REMARK H PARENT 1 16 1 17 18 26USER                              x       y       z     vdW  Elec       q    TypeUSER                           _______ _______ _______ _____ _____    ______ ____ROOTATOM      1  C   UNL     1      34.356  43.129  19.307 -0.34 -0.02    +0.176 C  ATOM      2  O   UNL     1      33.189  43.256  19.683 -0.70 -0.01    -0.293 OA ENDROOTBRANCH   1   3ATOM      3  C   UNL     1      34.820  43.895  18.108 -0.30 -0.01    +0.019 A  ATOM      4  C   UNL     1      35.652  45.454  15.877 -0.34 -0.00    +0.000 A  ATOM      5  C   UNL     1      35.577  44.048  15.808 -0.36 -0.00    +0.011 A  ATOM      6  C   UNL     1      35.317  46.057  17.102 -0.36 -0.01    +0.011 A  ATOM      7  C   UNL     1      35.164  43.276  16.903 -0.38 -0.00    +0.012 A  ATOM      8  C   UNL     1      34.909  45.290  18.202 -0.39 -0.01    +0.012 A  BRANCH   4   9ATOM      9  C   UNL     1      36.076  46.245  14.703 -0.35 -0.05    +0.076 A  ATOM     10  C   UNL     1      37.618  47.708  13.833 -0.36 -0.09    +0.220 A  ATOM     11  N   UNL     1      37.016  47.761  12.642 -1.01 +0.07    -0.222 NA ATOM     12  N   UNL     1      37.191  46.990  14.874 -0.25 +0.12    -0.213 NA ATOM     13  C   UNL     1      35.916  47.003  12.494 -0.54 -0.07    +0.117 A  ATOM     14  C   UNL     1      35.396  46.223  13.498 -0.42 -0.03    +0.049 A  BRANCH  10  15ATOM     15  N   UNL     1      38.736  48.495  14.013 -0.22 +0.14    -0.368 N  ATOM     16  H   UNL     1      38.446  49.447  14.188 -0.40 -0.13    +0.159 HD ATOM     17  H   UNL     1      39.348  48.063  14.697 +0.11 -0.05    +0.159 HD ENDBRANCH  10  15ENDBRANCH   4   9ENDBRANCH   1   3BRANCH   1  18ATOM     18  C   UNL     1      35.317  42.174  20.016 -0.36 -0.00    +0.165 C  BRANCH  18  19ATOM     19  N   UNL     1      35.720  42.684  21.340 -0.17 -0.03    -0.296 NA ATOM     20  C   UNL     1      36.176  41.626  22.257 -0.52 +0.00    +0.087 C  ATOM     21  C   UNL     1      36.683  43.785  21.194 -0.40 +0.00    +0.087 C  ATOM     22  C   UNL     1      37.696  41.510  22.367 -0.40 +0.00    +0.040 C  ATOM     23  C   UNL     1      37.459  44.041  22.481 -0.40 +0.00    +0.040 C  ATOM     24  C   UNL     1      38.341  42.833  22.815 -0.34 +0.01    +0.084 C  BRANCH  24  25ATOM     25  N   UNL     1      38.616  42.782  24.249 -0.08 -0.02    -0.359 N  ATOM     26  H   UNL     1      39.323  42.102  24.522 +0.08 +0.02    +0.163 HD BRANCH  25  27ATOM     27  C   UNL     1      37.656  42.951  25.197 -0.20 -0.00    +0.184 A  ATOM     28  N   UNL     1      37.599  44.061  25.898 -0.15 +0.01    -0.220 NA ATOM     29  S   UNL     1      36.427  41.802  25.571 -0.51 +0.02    -0.097 S  ATOM     30  C   UNL     1      36.545  44.022  26.797 -0.34 -0.01    +0.084 A  ATOM     31  C   UNL     1      35.784  42.853  26.770 -0.45 -0.01    +0.056 A  ATOM     32  C   UNL     1      36.194  45.041  27.710 -0.37 -0.01    +0.030 A  ATOM     33  C   UNL     1      34.686  42.662  27.625 -0.56 -0.01    +0.021 A  ATOM     34  C   UNL     1      35.102  44.863  28.566 -0.49 -0.00    +0.002 A  ATOM     35  C   UNL     1      34.360  43.685  28.525 -0.58 -0.00    +0.002 A  ENDBRANCH  25  27ENDBRANCH  24  25ENDBRANCH  18  19ENDBRANCH   1  18TORSDOF 7TERENDMDL