MODEL        1USER    Run = 1USERUSER    Estimated Free Energy of Binding    = -10.87 kcal/mol  [=(1)+(2)+(3)-(4)]USERUSER    (1) Final Intermolecular Energy     = -12.96 kcal/molUSER        vdW + Hbond + desolv Energy     = -12.81 kcal/molUSER        Electrostatic Energy            =  -0.15 kcal/molUSER        Moving Ligand-Fixed Receptor    = -12.96 kcal/molUSER        Moving Ligand-Moving Receptor   =  +0.00 kcal/molUSER    (2) Final Total Internal Energy     =  -1.31 kcal/molUSER    (3) Torsional Free Energy           =  +2.09 kcal/molUSER    (4) Unbound System's Energy         =  -1.31 kcal/molUSERUSERREMARK SMILES Nc1nccc(-c2ccc(C(=O)CN3CCC(Nc4nc5ccccc5o4)CC3)cc2)n1REMARK SMILES IDX 11 1 12 2 10 3 7 4 8 5 31 6 9 7 30 8 6 9 2 10 3 11 32 12REMARK SMILES IDX 4 13 5 14 1 15 13 18 14 19 15 20 29 21 16 22 28 23 17 24REMARK SMILES IDX 18 25 19 27 20 28 27 29 21 30 26 31 22 32 25 33 23 34 24 35REMARK H PARENT 1 16 1 17 18 26USER                              x       y       z     vdW  Elec       q    TypeUSER                           _______ _______ _______ _____ _____    ______ ____ROOTATOM      1  C   UNL     1      37.419  47.725  13.478 -0.49 -0.07    +0.176 C  ATOM      2  O   UNL     1      36.916  47.733  12.355 -1.08 +0.09    -0.293 OA ENDROOTBRANCH   1   3ATOM      3  C   UNL     1      36.740  46.932  14.552 -0.42 -0.01    +0.019 A  ATOM      4  C   UNL     1      35.425  45.347  16.518 -0.33 -0.00    +0.000 A  ATOM      5  C   UNL     1      36.001  46.589  16.842 -0.32 -0.01    +0.011 A  ATOM      6  C   UNL     1      35.534  44.918  15.185 -0.32 -0.01    +0.011 A  ATOM      7  C   UNL     1      36.649  47.374  15.876 -0.33 -0.01    +0.012 A  ATOM      8  C   UNL     1      36.177  45.697  14.214 -0.41 -0.01    +0.012 A  BRANCH   4   9ATOM      9  C   UNL     1      34.742  44.509  17.527 -0.26 -0.03    +0.076 A  ATOM     10  C   UNL     1      33.814  42.462  18.008 -0.23 -0.06    +0.220 A  ATOM     11  N   UNL     1      33.472  42.816  19.247 -0.41 +0.01    -0.222 NA ATOM     12  N   UNL     1      34.415  43.260  17.123 -0.20 +0.08    -0.213 NA ATOM     13  C   UNL     1      33.797  44.064  19.621 -0.32 -0.02    +0.117 A  ATOM     14  C   UNL     1      34.438  44.958  18.798 -0.38 -0.02    +0.049 A  BRANCH  10  15ATOM     15  N   UNL     1      33.479  41.189  17.595 -0.18 +0.15    -0.368 N  ATOM     16  H   UNL     1      32.921  41.239  16.755 -0.40 -0.11    +0.159 HD ATOM     17  H   UNL     1      34.303  40.605  17.576 -0.48 -0.10    +0.159 HD ENDBRANCH  10  15ENDBRANCH   4   9ENDBRANCH   1   3BRANCH   1  18ATOM     18  C   UNL     1      38.700  48.483  13.850 -0.31 -0.06    +0.165 C  BRANCH  18  19ATOM     19  N   UNL     1      39.332  48.075  15.118 -0.27 +0.11    -0.296 NA ATOM     20  C   UNL     1      39.913  46.737  15.092 -0.46 -0.01    +0.087 C  ATOM     21  C   UNL     1      40.234  49.091  15.672 -0.60 -0.03    +0.087 C  ATOM     22  C   UNL     1      40.178  46.251  16.521 -0.48 -0.01    +0.040 C  ATOM     23  C   UNL     1      41.281  48.519  16.633 -0.52 -0.00    +0.040 C  ATOM     24  C   UNL     1      40.693  47.365  17.446 -0.52 -0.01    +0.086 C  BRANCH  24  25ATOM     25  N   UNL     1      41.715  46.854  18.354 -0.30 +0.01    -0.337 N  ATOM     26  H   UNL     1      42.629  46.691  17.949 -0.44 -0.02    +0.165 HD BRANCH  25  27ATOM     27  C   UNL     1      41.356  46.020  19.343 -0.24 +0.02    +0.295 A  ATOM     28  N   UNL     1      42.100  45.340  20.186 -0.18 -0.04    -0.194 NA ATOM     29  O   UNL     1      40.008  45.864  19.507 -0.19 +0.01    -0.424 OA ATOM     30  C   UNL     1      41.187  44.677  20.963 -0.27 +0.01    +0.111 A  ATOM     31  C   UNL     1      39.904  44.994  20.551 -0.26 +0.00    +0.156 A  ATOM     32  C   UNL     1      41.356  43.791  22.035 -0.29 +0.00    +0.032 A  ATOM     33  C   UNL     1      38.741  44.496  21.125 -0.32 +0.00    +0.049 A  ATOM     34  C   UNL     1      40.206  43.264  22.644 -0.27 +0.00    +0.003 A  ATOM     35  C   UNL     1      38.924  43.611  22.196 -0.29 +0.00    +0.004 A  ENDBRANCH  25  27ENDBRANCH  24  25ENDBRANCH  18  19ENDBRANCH   1  18TORSDOF 7TERENDMDL