REMARK SMILES Nc1nccc(-c2ccc(C(=O)CN3CCC(Nc4nc5ccccc5s4)CC3)cc2)n1
REMARK SMILES IDX 11 1 12 2 10 3 7 4 8 5 31 6 9 7 30 8 6 9 2 10 3 11 32 12
REMARK SMILES IDX 4 13 5 14 1 15 13 18 14 19 15 20 29 21 16 22 28 23 17 24
REMARK SMILES IDX 18 25 19 27 20 28 27 29 21 30 26 31 22 32 25 33 23 34 24 35
REMARK H PARENT 1 16 1 17 18 26
ROOT
ATOM      1  C   UNL     1       2.090  -2.662   0.887  1.00  0.00     0.176 C 
ATOM      2  O   UNL     1       2.197  -3.805   0.437  1.00  0.00    -0.293 OA
ENDROOT
BRANCH   1   3
ATOM      3  C   UNL     1       3.172  -1.667   0.608  1.00  0.00     0.019 A 
ATOM      4  C   UNL     1       5.312   0.132   0.074  1.00  0.00     0.000 A 
ATOM      5  C   UNL     1       4.087   0.580   0.607  1.00  0.00     0.011 A 
ATOM      6  C   UNL     1       5.429  -1.242  -0.203  1.00  0.00     0.011 A 
ATOM      7  C   UNL     1       3.031  -0.303   0.875  1.00  0.00     0.012 A 
ATOM      8  C   UNL     1       4.375  -2.128   0.058  1.00  0.00     0.012 A 
BRANCH   4   9
ATOM      9  C   UNL     1       6.414   1.081  -0.185  1.00  0.00     0.076 A 
ATOM     10  C   UNL     1       7.002   3.212  -0.809  1.00  0.00     0.220 A 
ATOM     11  N   UNL     1       8.310   2.971  -0.697  1.00  0.00    -0.222 NA
ATOM     12  N   UNL     1       6.037   2.318  -0.580  1.00  0.00    -0.213 NA
ATOM     13  C   UNL     1       8.658   1.738  -0.293  1.00  0.00     0.117 A 
ATOM     14  C   UNL     1       7.747   0.746  -0.024  1.00  0.00     0.049 A 
BRANCH  10  15
ATOM     15  N   UNL     1       6.623   4.465  -1.243  1.00  0.00    -0.368 N 
ATOM     16  H   UNL     1       7.382   4.876  -1.769  1.00  0.00     0.159 HD
ATOM     17  H   UNL     1       5.720   4.407  -1.700  1.00  0.00     0.159 HD
ENDBRANCH  10  15
ENDBRANCH   4   9
ENDBRANCH   1   3
BRANCH   1  18
ATOM     18  C   UNL     1       0.897  -2.263   1.757  1.00  0.00     0.165 C 
BRANCH  18  19
ATOM     19  N   UNL     1      -0.086  -1.460   1.006  1.00  0.00    -0.296 NA
ATOM     20  C   UNL     1      -0.784  -2.225  -0.041  1.00  0.00     0.087 C 
ATOM     21  C   UNL     1      -0.996  -0.768   1.930  1.00  0.00     0.087 C 
ATOM     22  C   UNL     1      -2.183  -2.692   0.359  1.00  0.00     0.040 C 
ATOM     23  C   UNL     1      -2.272  -0.305   1.236  1.00  0.00     0.040 C 
ATOM     24  C   UNL     1      -3.087  -1.516   0.766  1.00  0.00     0.084 C 
BRANCH  24  25
ATOM     25  N   UNL     1      -3.946  -1.148  -0.357  1.00  0.00    -0.359 N 
ATOM     26  H   UNL     1      -3.452  -0.972  -1.230  1.00  0.00     0.163 HD
BRANCH  25  27
ATOM     27  C   UNL     1      -5.061  -0.381  -0.222  1.00  0.00     0.184 A 
ATOM     28  N   UNL     1      -5.511   0.326  -1.234  1.00  0.00    -0.220 NA
ATOM     29  S   UNL     1      -6.006  -0.260   1.215  1.00  0.00    -0.097 S 
ATOM     30  C   UNL     1      -6.655   1.022  -0.878  1.00  0.00     0.084 A 
ATOM     31  C   UNL     1      -7.082   0.831   0.436  1.00  0.00     0.056 A 
ATOM     32  C   UNL     1      -7.398   1.883  -1.716  1.00  0.00     0.030 A 
ATOM     33  C   UNL     1      -8.223   1.472   0.947  1.00  0.00     0.021 A 
ATOM     34  C   UNL     1      -8.536   2.527  -1.219  1.00  0.00     0.002 A 
ATOM     35  C   UNL     1      -8.940   2.325   0.098  1.00  0.00     0.002 A 
ENDBRANCH  25  27
ENDBRANCH  24  25
ENDBRANCH  18  19
ENDBRANCH   1  18
TORSDOF 7
