REMARK SMILES Cc1cc(-c2nnc3ccc(-c4cnn(CCN5CCOCC5)c4)cn23)ccc1O
REMARK SMILES IDX 5 1 6 2 7 3 8 4 9 5 10 6 11 7 25 8 26 9 4 10 2 11 3 12 29 13
REMARK SMILES IDX 28 14 27 15 1 16 30 17 12 19 13 20 24 21 14 22 15 23 16 24
REMARK SMILES IDX 17 25 18 26 19 27 23 28 20 29 22 30 21 31
REMARK H PARENT 30 18
ROOT
ATOM      1  C   UNL     1      -4.554   0.898   1.370  1.00  0.00     0.168 A 
ATOM      2  N   UNL     1      -5.459   1.460   2.154  1.00  0.00    -0.129 NA
ATOM      3  N   UNL     1      -4.831   2.363   2.979  1.00  0.00    -0.130 NA
ATOM      4  C   UNL     1      -3.556   2.366   2.667  1.00  0.00     0.161 A 
ATOM      5  C   UNL     1      -2.448   3.092   3.169  1.00  0.00     0.050 A 
ATOM      6  C   UNL     1      -1.233   2.920   2.614  1.00  0.00     0.014 A 
ATOM      7  C   UNL     1      -0.998   2.002   1.485  1.00  0.00     0.002 A 
ATOM      8  C   UNL     1      -2.069   1.307   1.039  1.00  0.00     0.103 A 
ATOM      9  N   UNL     1      -3.322   1.476   1.631  1.00  0.00    -0.282 N 
ENDROOT
BRANCH   1  10
ATOM     10  C   UNL     1      -4.828  -0.128   0.367  1.00  0.00     0.020 A 
ATOM     11  C   UNL     1      -6.189  -0.902  -1.519  1.00  0.00    -0.009 A 
ATOM     12  C   UNL     1      -5.887   0.057  -0.536  1.00  0.00     0.019 A 
ATOM     13  C   UNL     1      -5.413  -2.065  -1.567  1.00  0.00     0.118 A 
ATOM     14  C   UNL     1      -4.372  -2.272  -0.665  1.00  0.00     0.047 A 
ATOM     15  C   UNL     1      -4.083  -1.311   0.304  1.00  0.00     0.016 A 
ATOM     16  C   UNL     1      -7.327  -0.653  -2.465  1.00  0.00     0.048 C 
BRANCH  13  17
ATOM     17  O   UNL     1      -5.624  -3.061  -2.477  1.00  0.00    -0.508 OA
ATOM     18  H   UNL     1      -6.409  -2.853  -3.006  1.00  0.00     0.293 HD
ENDBRANCH  13  17
ENDBRANCH   1  10
BRANCH   7  19
ATOM     19  C   UNL     1       0.307   1.873   0.902  1.00  0.00     0.021 A 
ATOM     20  C   UNL     1       1.391   2.780   0.935  1.00  0.00     0.143 A 
ATOM     21  C   UNL     1       0.784   0.807   0.168  1.00  0.00     0.117 A 
ATOM     22  N   UNL     1       2.465   2.323   0.284  1.00  0.00    -0.181 NA
ATOM     23  N   UNL     1       2.069   1.122  -0.175  1.00  0.00    -0.271 N 
BRANCH  23  24
ATOM     24  C   UNL     1       2.987   0.310  -0.954  1.00  0.00     0.159 C 
BRANCH  24  25
ATOM     25  C   UNL     1       4.037  -0.361  -0.061  1.00  0.00     0.108 C 
BRANCH  25  26
ATOM     26  N   UNL     1       4.911  -1.303  -0.790  1.00  0.00    -0.297 NA
ATOM     27  C   UNL     1       5.787  -2.059   0.138  1.00  0.00     0.113 C 
ATOM     28  C   UNL     1       5.727  -0.614  -1.818  1.00  0.00     0.113 C 
ATOM     29  C   UNL     1       7.215  -1.501   0.228  1.00  0.00     0.175 C 
ATOM     30  C   UNL     1       7.010  -1.389  -2.154  1.00  0.00     0.175 C 
ATOM     31  O   UNL     1       7.898  -1.496  -1.033  1.00  0.00    -0.379 OA
ENDBRANCH  25  26
ENDBRANCH  24  25
ENDBRANCH  23  24
ENDBRANCH   7  19
TORSDOF 6
