MODEL        8USER    Run = 8USERUSER    Estimated Free Energy of Binding    = -11.88 kcal/mol  [=(1)+(2)+(3)-(4)]USERUSER    (1) Final Intermolecular Energy     = -13.97 kcal/molUSER        vdW + Hbond + desolv Energy     = -13.73 kcal/molUSER        Electrostatic Energy            =  -0.24 kcal/molUSER        Moving Ligand-Fixed Receptor    = -13.97 kcal/molUSER        Moving Ligand-Moving Receptor   =  +0.00 kcal/molUSER    (2) Final Total Internal Energy     =  -2.30 kcal/molUSER    (3) Torsional Free Energy           =  +2.09 kcal/molUSER    (4) Unbound System's Energy         =  -2.30 kcal/molUSERUSERREMARK SMILES Oc1nc2ccccc2n1C1CCN(Cc2ccc(-c3nc4ccccc4nc3-c3ccnc(N4CCOCC4)c3)cc2)CC1REMARK SMILES IDX 15 1 14 2 11 3 12 4 45 5 13 6 44 7 10 8 2 9 3 10 4 11 9 12REMARK SMILES IDX 5 13 8 14 6 15 7 16 1 17 16 19 17 20 43 21 18 22 42 23 19 24REMARK SMILES IDX 20 25 21 26 29 27 22 28 28 29 23 30 27 31 24 32 26 33 25 34REMARK SMILES IDX 30 35 31 36 41 37 32 38 34 39 33 40 35 41 36 42 40 43 37 44REMARK SMILES IDX 39 45 38 46REMARK H PARENT 1 18USER                              x       y       z     vdW  Elec       q    TypeUSER                           _______ _______ _______ _____ _____    ______ ____ROOTATOM      1  C   UNL     1      40.833  45.610  19.062 -0.43 +0.00    +0.120 C  ENDROOTBRANCH   1   2ATOM      2  N   UNL     1      39.919  46.661  18.594 -0.21 +0.03    -0.299 NA ATOM      3  C   UNL     1      39.328  46.094  15.729 -0.37 -0.02    +0.095 C  ATOM      4  C   UNL     1      40.644  46.725  16.206 -0.46 -0.00    +0.041 C  ATOM      5  C   UNL     1      38.552  45.417  16.876 -0.38 -0.01    +0.041 C  ATOM      6  C   UNL     1      40.487  47.480  17.522 -0.48 -0.01    +0.087 C  ATOM      7  C   UNL     1      38.592  46.168  18.211 -0.28 -0.02    +0.087 C  BRANCH   3   8ATOM      8  N   UNL     1      38.581  46.994  14.852 -0.21 +0.10    -0.291 N  ATOM      9  C   UNL     1      38.513  48.358  14.854 -0.28 -0.15    +0.295 A  ATOM     10  N   UNL     1      37.753  48.845  13.911 -0.49 +0.10    -0.195 NA ATOM     11  C   UNL     1      37.276  47.746  13.249 -0.49 -0.03    +0.092 A  ATOM     12  C   UNL     1      37.765  46.568  13.814 -0.41 -0.03    +0.072 A  ATOM     13  C   UNL     1      36.409  47.678  12.148 -0.57 -0.01    +0.031 A  ATOM     14  C   UNL     1      37.420  45.302  13.320 -0.41 -0.01    +0.029 A  ATOM     15  C   UNL     1      36.055  46.422  11.643 -0.53 -0.00    +0.002 A  ATOM     16  C   UNL     1      36.553  45.255  12.222 -0.55 -0.00    +0.002 A  BRANCH   9  17ATOM     17  O   UNL     1      39.116  49.156  15.706 -0.19 +0.28    -0.480 OA ATOM     18  H   UNL     1      38.824  50.032  15.391 -0.26 -0.27    +0.296 HD ENDBRANCH   9  17ENDBRANCH   3   8ENDBRANCH   1   2BRANCH   1  19ATOM     19  C   UNL     1      40.422  45.002  20.387 -0.35 -0.00    -0.034 A  ATOM     20  C   UNL     1      41.077  43.872  20.890 -0.27 +0.00    +0.006 A  ATOM     21  C   UNL     1      39.404  45.585  21.153 -0.31 +0.00    +0.006 A  ATOM     22  C   UNL     1      40.704  43.326  22.122 -0.28 +0.00    +0.011 A  ATOM     23  C   UNL     1      39.033  45.036  22.384 -0.31 +0.00    +0.011 A  ATOM     24  C   UNL     1      39.665  43.886  22.885 -0.24 +0.00    +0.002 A  BRANCH  24  25ATOM     25  C   UNL     1      39.277  43.283  24.173 -0.18 +0.00    +0.097 A  ATOM     26  N   UNL     1      37.954  42.968  24.256 -0.17 -0.01    -0.244 NA ATOM     27  C   UNL     1      40.154  43.015  25.237 -0.14 +0.00    +0.097 A  ATOM     28  C   UNL     1      37.525  42.361  25.377 -0.29 -0.00    +0.089 A  ATOM     29  N   UNL     1      39.715  42.389  26.367 -0.12 +0.01    -0.244 NA ATOM     30  C   UNL     1      36.186  42.011  25.498 -0.38 -0.00    +0.030 A  ATOM     31  C   UNL     1      38.412  42.066  26.435 -0.27 -0.00    +0.089 A  ATOM     32  C   UNL     1      35.703  41.373  26.642 -0.57 -0.00    +0.002 A  ATOM     33  C   UNL     1      37.921  41.433  27.571 -0.44 -0.00    +0.030 A  ATOM     34  C   UNL     1      36.575  41.083  27.684 -0.57 -0.00    +0.002 A  BRANCH  27  35ATOM     35  C   UNL     1      41.582  43.376  25.282 -0.13 -0.00    +0.008 A  ATOM     36  C   UNL     1      42.514  42.506  25.852 -0.12 -0.00    +0.030 A  ATOM     37  C   UNL     1      42.060  44.599  24.792 -0.06 +0.00    +0.057 A  ATOM     38  C   UNL     1      43.845  42.875  25.872 -0.06 -0.01    +0.114 A  ATOM     39  C   UNL     1      43.421  44.907  24.847 -0.02 +0.01    +0.129 A  ATOM     40  N   UNL     1      44.308  44.042  25.378 -0.00 -0.01    -0.239 NA BRANCH  39  41ATOM     41  N   UNL     1      43.860  46.151  24.343 +0.00 -0.05    -0.352 N  ATOM     42  C   UNL     1      45.278  46.074  23.917 -0.08 +0.04    +0.146 C  ATOM     43  C   UNL     1      42.969  46.731  23.313 -0.17 +0.03    +0.146 C  ATOM     44  C   UNL     1      45.583  47.147  22.861 -0.19 +0.10    +0.181 C  ATOM     45  C   UNL     1      43.500  46.438  21.902 -0.25 +0.07    +0.181 C  ATOM     46  O   UNL     1      44.804  47.001  21.663 -0.73 -0.35    -0.378 OA ENDBRANCH  39  41ENDBRANCH  27  35ENDBRANCH  24  25ENDBRANCH   1  19TORSDOF 7TERENDMDL