MODEL        7USER    Run = 7USERUSER    Estimated Free Energy of Binding    =  -9.84 kcal/mol  [=(1)+(2)+(3)-(4)]USERUSER    (1) Final Intermolecular Energy     = -11.33 kcal/molUSER        vdW + Hbond + desolv Energy     = -11.26 kcal/molUSER        Electrostatic Energy            =  -0.07 kcal/molUSER        Moving Ligand-Fixed Receptor    = -11.33 kcal/molUSER        Moving Ligand-Moving Receptor   =  +0.00 kcal/molUSER    (2) Final Total Internal Energy     =  -1.05 kcal/molUSER    (3) Torsional Free Energy           =  +1.49 kcal/molUSER    (4) Unbound System's Energy         =  -1.05 kcal/molUSERUSERREMARK SMILES CC(C)c1nnc2ccc(-c3ccc(Nc4ncc(N5CCOCC5)nc4F)cc3)cn12REMARK SMILES IDX 11 1 12 2 13 3 14 4 29 5 30 6 10 7 4 8 5 9 32 10 6 11 31 12REMARK SMILES IDX 7 13 8 14 9 15 2 16 1 17 3 18 15 19 16 21 17 22 27 23 18 24REMARK SMILES IDX 26 25 19 26 28 27 20 28 21 29 25 30 22 31 24 32 23 33REMARK H PARENT 15 20USER                              x       y       z     vdW  Elec       q    TypeUSER                           _______ _______ _______ _____ _____    ______ ____ROOTATOM      1  C   UNL     1      36.347  46.162  16.305 -0.36 +0.01    -0.017 A  ATOM      2  C   UNL     1      35.872  45.434  15.211 -0.35 -0.01    +0.011 A  ATOM      3  C   UNL     1      34.659  44.743  15.297 -0.21 -0.02    +0.027 A  ATOM      4  C   UNL     1      33.894  44.758  16.473 -0.29 -0.02    +0.040 A  ATOM      5  C   UNL     1      34.380  45.486  17.562 -0.37 -0.02    +0.027 A  ATOM      6  C   UNL     1      35.595  46.179  17.483 -0.36 -0.01    +0.011 A  ENDROOTBRANCH   1   7ATOM      7  C   UNL     1      37.622  46.891  16.212 -0.39 +0.00    -0.001 A  ATOM      8  C   UNL     1      40.932  47.297  17.857 -0.41 -0.01    +0.139 A  ATOM      9  N   UNL     1      41.817  48.153  17.374 -0.69 +0.00    -0.134 NA ATOM     10  N   UNL     1      39.793  47.337  17.070 -0.28 +0.07    -0.286 N  ATOM     11  N   UNL     1      41.280  48.766  16.271 -0.90 +0.01    -0.130 NA ATOM     12  C   UNL     1      38.580  46.651  17.132 -0.32 -0.03    +0.103 A  ATOM     13  C   UNL     1      40.074  48.279  16.090 -0.42 -0.05    +0.160 A  ATOM     14  C   UNL     1      39.075  48.543  15.116 -0.49 -0.02    +0.050 A  ATOM     15  C   UNL     1      37.904  47.883  15.172 -0.49 -0.01    +0.014 A  BRANCH   8  16ATOM     16  C   UNL     1      41.169  46.439  19.064 -0.49 +0.00    +0.052 C  ATOM     17  C   UNL     1      42.510  46.726  19.735 -0.50 +0.00    +0.016 C  ATOM     18  C   UNL     1      40.974  44.953  18.775 -0.48 +0.00    +0.016 C  ENDBRANCH   8  16ENDBRANCH   1   7BRANCH   4  19ATOM     19  N   UNL     1      32.673  44.061  16.475 -0.10 +0.15    -0.336 N  ATOM     20  H   UNL     1      32.207  44.096  15.572 +0.11 -0.09    +0.168 HD BRANCH  19  21ATOM     21  C   UNL     1      32.279  42.880  17.113 -0.19 -0.07    +0.186 A  ATOM     22  N   UNL     1      30.943  42.703  17.218 -0.15 +0.06    -0.231 NA ATOM     23  C   UNL     1      33.152  41.936  17.673 -0.20 -0.09    +0.257 A  ATOM     24  C   UNL     1      30.544  41.566  17.847 -0.15 -0.02    +0.160 A  ATOM     25  N   UNL     1      32.741  40.805  18.303 -0.35 +0.03    -0.197 NA ATOM     26  C   UNL     1      31.411  40.613  18.399 -0.27 -0.01    +0.150 A  ATOM     27  F   UNL     1      34.479  42.142  17.644 -0.13 +0.06    -0.181 F  BRANCH  26  28ATOM     28  N   UNL     1      30.907  39.464  19.036 -0.15 -0.03    -0.351 N  ATOM     29  C   UNL     1      31.305  39.383  20.464 -0.32 +0.03    +0.146 C  ATOM     30  C   UNL     1      31.105  38.195  18.295 -0.33 +0.04    +0.146 C  ATOM     31  C   UNL     1      31.298  37.925  20.952 -0.44 +0.03    +0.181 C  ATOM     32  C   UNL     1      32.329  37.443  18.836 -0.46 +0.03    +0.181 C  ATOM     33  O   UNL     1      32.209  37.085  20.226 -0.31 -0.09    -0.378 OA ENDBRANCH  26  28ENDBRANCH  19  21ENDBRANCH   4  19TORSDOF 5TERENDMDL