MODEL        6USER    Run = 6USERUSER    Estimated Free Energy of Binding    = -10.62 kcal/mol  [=(1)+(2)+(3)-(4)]USERUSER    (1) Final Intermolecular Energy     = -12.41 kcal/molUSER        vdW + Hbond + desolv Energy     = -12.22 kcal/molUSER        Electrostatic Energy            =  -0.19 kcal/molUSER        Moving Ligand-Fixed Receptor    = -12.41 kcal/molUSER        Moving Ligand-Moving Receptor   =  +0.00 kcal/molUSER    (2) Final Total Internal Energy     =  -1.04 kcal/molUSER    (3) Torsional Free Energy           =  +1.79 kcal/molUSER    (4) Unbound System's Energy         =  -1.04 kcal/molUSERUSERREMARK SMILES Cc1cc(-c2nnc3ccc(-c4cnn(CCN5CCOCC5)c4)cn23)ccc1OREMARK SMILES IDX 5 1 6 2 7 3 8 4 9 5 10 6 11 7 25 8 26 9 4 10 2 11 3 12 29 13REMARK SMILES IDX 28 14 27 15 1 16 30 17 12 19 13 20 24 21 14 22 15 23 16 24REMARK SMILES IDX 17 25 18 26 19 27 23 28 20 29 22 30 21 31REMARK H PARENT 30 18USER                              x       y       z     vdW  Elec       q    TypeUSER                           _______ _______ _______ _____ _____    ______ ____ROOTATOM      1  C   UNL     1      38.171  47.682  14.412 -0.38 -0.07    +0.168 A  ATOM      2  N   UNL     1      38.138  48.119  13.164 -0.72 +0.02    -0.129 NA ATOM      3  N   UNL     1      36.936  47.759  12.601 -1.10 +0.04    -0.130 NA ATOM      4  C   UNL     1      36.237  47.135  13.520 -0.42 -0.10    +0.161 A  ATOM      5  C   UNL     1      34.944  46.558  13.514 -0.37 -0.04    +0.050 A  ATOM      6  C   UNL     1      34.453  46.012  14.643 -0.26 -0.01    +0.014 A  ATOM      7  C   UNL     1      35.207  45.993  15.909 -0.32 -0.00    +0.002 A  ATOM      8  C   UNL     1      36.447  46.533  15.882 -0.31 -0.08    +0.103 A  ATOM      9  N   UNL     1      36.957  47.080  14.703 -0.21 +0.18    -0.282 N  ENDROOTBRANCH   1  10ATOM     10  C   UNL     1      39.290  47.853  15.336 -0.51 -0.01    +0.020 A  ATOM     11  C   UNL     1      40.600  46.991  17.220 -0.51 +0.00    -0.009 A  ATOM     12  C   UNL     1      39.535  46.871  16.309 -0.46 -0.00    +0.019 A  ATOM     13  C   UNL     1      41.408  48.130  17.144 -0.39 -0.01    +0.118 A  ATOM     14  C   UNL     1      41.165  49.122  16.197 -0.50 -0.00    +0.047 A  ATOM     15  C   UNL     1      40.106  48.989  15.299 -0.56 -0.01    +0.016 A  ATOM     16  C   UNL     1      40.824  45.910  18.236 -0.51 -0.00    +0.048 C  BRANCH  13  17ATOM     17  O   UNL     1      42.464  48.348  17.982 -0.24 -0.03    -0.508 OA ATOM     18  H   UNL     1      43.180  47.732  17.764 -0.30 -0.03    +0.293 HD ENDBRANCH  13  17ENDBRANCH   1  10BRANCH   7  19ATOM     19  C   UNL     1      34.633  45.430  17.098 -0.33 -0.01    +0.021 A  ATOM     20  C   UNL     1      33.525  45.880  17.851 -0.31 -0.10    +0.143 A  ATOM     21  C   UNL     1      35.059  44.302  17.769 -0.23 -0.04    +0.117 A  ATOM     22  N   UNL     1      33.267  45.098  18.905 -0.32 +0.06    -0.181 NA ATOM     23  N   UNL     1      34.215  44.147  18.833 -0.19 +0.07    -0.271 N  BRANCH  23  24ATOM     24  C   UNL     1      34.262  43.099  19.836 -0.35 +0.00    +0.159 C  BRANCH  24  25ATOM     25  C   UNL     1      35.437  42.145  19.595 -0.40 -0.01    +0.108 C  BRANCH  25  26ATOM     26  N   UNL     1      36.627  42.462  20.412 -0.21 +0.01    -0.297 NA ATOM     27  C   UNL     1      36.879  41.416  21.433 -0.53 +0.00    +0.113 C  ATOM     28  C   UNL     1      36.512  43.791  21.059 -0.39 +0.00    +0.113 C  ATOM     29  C   UNL     1      36.370  41.787  22.833 -0.41 +0.01    +0.175 C  ATOM     30  C   UNL     1      37.378  43.897  22.323 -0.32 +0.01    +0.175 C  ATOM     31  O   UNL     1      36.967  42.984  23.350 -0.21 -0.04    -0.379 OA ENDBRANCH  25  26ENDBRANCH  24  25ENDBRANCH  23  24ENDBRANCH   7  19TORSDOF 6TERENDMDL