REMARK SMILES CC(C)c1nnc2ccc(-c3ccc(Nc4ncc(N5CCOCC5)nc4F)cc3)cn12
REMARK SMILES IDX 11 1 12 2 13 3 14 4 29 5 30 6 10 7 4 8 5 9 32 10 6 11 31 12
REMARK SMILES IDX 7 13 8 14 9 15 2 16 1 17 3 18 15 19 16 21 17 22 27 23 18 24
REMARK SMILES IDX 26 25 19 26 28 27 20 28 21 29 25 30 22 31 24 32 23 33
REMARK H PARENT 15 20
ROOT
ATOM      1  C   UNL     1      -2.457   1.731   0.077  1.00  0.00    -0.017 A 
ATOM      2  C   UNL     1      -2.010   2.478  -1.016  1.00  0.00     0.011 A 
ATOM      3  C   UNL     1      -0.640   2.604  -1.270  1.00  0.00     0.027 A 
ATOM      4  C   UNL     1       0.314   1.996  -0.441  1.00  0.00     0.040 A 
ATOM      5  C   UNL     1      -0.144   1.255   0.652  1.00  0.00     0.027 A 
ATOM      6  C   UNL     1      -1.514   1.125   0.913  1.00  0.00     0.011 A 
ENDROOT
BRANCH   1   7
ATOM      7  C   UNL     1      -3.899   1.596   0.342  1.00  0.00    -0.001 A 
ATOM      8  C   UNL     1      -6.684  -0.867   0.409  1.00  0.00     0.139 A 
ATOM      9  N   UNL     1      -7.909  -0.480   0.720  1.00  0.00    -0.134 NA
ATOM     10  N   UNL     1      -5.841   0.231   0.456  1.00  0.00    -0.286 N 
ATOM     11  N   UNL     1      -7.895   0.868   0.974  1.00  0.00    -0.130 NA
ATOM     12  C   UNL     1      -4.474   0.381   0.219  1.00  0.00     0.103 A 
ATOM     13  C   UNL     1      -6.662   1.291   0.817  1.00  0.00     0.160 A 
ATOM     14  C   UNL     1      -6.070   2.575   0.949  1.00  0.00     0.050 A 
ATOM     15  C   UNL     1      -4.752   2.724   0.722  1.00  0.00     0.014 A 
BRANCH   8  16
ATOM     16  C   UNL     1      -6.312  -2.280   0.070  1.00  0.00     0.052 C 
ATOM     17  C   UNL     1      -5.340  -2.889   1.077  1.00  0.00     0.016 C 
ATOM     18  C   UNL     1      -5.822  -2.429  -1.368  1.00  0.00     0.016 C 
ENDBRANCH   8  16
ENDBRANCH   1   7
BRANCH   4  19
ATOM     19  N   UNL     1       1.671   2.147  -0.775  1.00  0.00    -0.336 N 
ATOM     20  H   UNL     1       1.915   3.115  -0.969  1.00  0.00     0.168 HD
BRANCH  19  21
ATOM     21  C   UNL     1       2.820   1.503  -0.306  1.00  0.00     0.186 A 
ATOM     22  N   UNL     1       3.915   2.289  -0.198  1.00  0.00    -0.231 NA
ATOM     23  C   UNL     1       2.912   0.136  -0.005  1.00  0.00     0.257 A 
ATOM     24  C   UNL     1       5.044   1.674   0.245  1.00  0.00     0.160 A 
ATOM     25  N   UNL     1       4.048  -0.468   0.433  1.00  0.00    -0.197 NA
ATOM     26  C   UNL     1       5.140   0.311   0.558  1.00  0.00     0.150 A 
ATOM     27  F   UNL     1       1.852  -0.668  -0.185  1.00  0.00    -0.181 F 
BRANCH  26  28
ATOM     28  N   UNL     1       6.353  -0.241   1.008  1.00  0.00    -0.351 N 
ATOM     29  C   UNL     1       7.469  -0.020   0.054  1.00  0.00     0.146 C 
ATOM     30  C   UNL     1       6.266  -1.636   1.501  1.00  0.00     0.146 C 
ATOM     31  C   UNL     1       8.557  -1.092   0.226  1.00  0.00     0.181 C 
ATOM     32  C   UNL     1       6.711  -2.620   0.410  1.00  0.00     0.181 C 
ATOM     33  O   UNL     1       8.075  -2.424  -0.011  1.00  0.00    -0.378 OA
ENDBRANCH  26  28
ENDBRANCH  19  21
ENDBRANCH   4  19
TORSDOF 5
