REMARK SMILES Nc1ncnc2c1ncn2[C@H]1CC[C@@H](O)C[C@H]1NCc1ccc(O)c(N2CCNCC2)c1
REMARK SMILES IDX 18 1 17 3 11 4 12 5 13 6 16 7 14 8 10 9 2 10 3 11 7 12 4 13
REMARK SMILES IDX 6 14 8 15 5 16 9 17 1 18 15 21 19 23 20 24 21 25 32 26 22 27
REMARK SMILES IDX 25 28 23 29 26 30 27 31 31 32 28 33 30 34 29 35 24 37
REMARK H PARENT 18 2 1 19 1 20 15 22 29 36 24 38
ROOT
ATOM      1  N   UNL     1       1.443  -0.911   0.549  1.00  0.00    -0.308 NA
ATOM      2  H   UNL     1       1.542  -1.930   0.471  1.00  0.00     0.123 HD
ENDROOT
BRANCH   1   3
ATOM      3  C   UNL     1       1.367  -0.320  -0.794  1.00  0.00     0.079 C 
ATOM      4  C   UNL     1       2.761   0.219  -1.237  1.00  0.00     0.107 C 
ATOM      5  C   UNL     1       3.785  -0.915  -1.433  1.00  0.00     0.030 C 
ATOM      6  C   UNL     1       3.279  -1.939  -2.453  1.00  0.00     0.034 C 
ATOM      7  C   UNL     1       0.889  -1.349  -1.846  1.00  0.00     0.052 C 
ATOM      8  C   UNL     1       1.892  -2.481  -2.098  1.00  0.00     0.116 C 
BRANCH   4   9
ATOM      9  N   UNL     1       3.212   1.337  -0.417  1.00  0.00    -0.310 N 
ATOM     10  C   UNL     1       4.978   2.962   2.137  1.00  0.00     0.155 A 
ATOM     11  N   UNL     1       5.630   1.949   2.747  1.00  0.00    -0.217 NA
ATOM     12  C   UNL     1       4.145   2.668   1.043  1.00  0.00     0.150 A 
ATOM     13  C   UNL     1       5.477   0.704   2.248  1.00  0.00     0.226 A 
ATOM     14  C   UNL     1       4.077   1.341   0.645  1.00  0.00     0.165 A 
ATOM     15  N   UNL     1       3.340   3.466   0.256  1.00  0.00    -0.231 NA
ATOM     16  N   UNL     1       4.732   0.307   1.199  1.00  0.00    -0.217 NA
ATOM     17  C   UNL     1       2.803   2.636  -0.611  1.00  0.00     0.202 A 
BRANCH  10  18
ATOM     18  N   UNL     1       5.143   4.247   2.643  1.00  0.00    -0.382 N 
ATOM     19  H   UNL     1       5.422   4.230   3.615  1.00  0.00     0.158 HD
ATOM     20  H   UNL     1       4.389   4.873   2.382  1.00  0.00     0.158 HD
ENDBRANCH  10  18
ENDBRANCH   4   9
BRANCH   8  21
ATOM     21  O   UNL     1       1.974  -3.301  -0.933  1.00  0.00    -0.393 OA
ATOM     22  H   UNL     1       2.609  -4.014  -1.121  1.00  0.00     0.210 HD
ENDBRANCH   8  21
ENDBRANCH   1   3
BRANCH   1  23
ATOM     23  C   UNL     1       0.342  -0.576   1.446  1.00  0.00     0.117 C 
BRANCH  23  24
ATOM     24  C   UNL     1      -0.989  -1.174   1.058  1.00  0.00    -0.032 A 
ATOM     25  C   UNL     1      -1.176  -2.567   1.074  1.00  0.00     0.009 A 
ATOM     26  C   UNL     1      -2.057  -0.341   0.677  1.00  0.00     0.035 A 
ATOM     27  C   UNL     1      -2.398  -3.123   0.703  1.00  0.00     0.049 A 
ATOM     28  C   UNL     1      -3.293  -0.882   0.309  1.00  0.00     0.079 A 
ATOM     29  C   UNL     1      -3.432  -2.280   0.327  1.00  0.00     0.138 A 
BRANCH  28  30
ATOM     30  N   UNL     1      -4.407  -0.114  -0.100  1.00  0.00    -0.366 N 
ATOM     31  C   UNL     1      -4.745   0.999   0.812  1.00  0.00     0.132 C 
ATOM     32  C   UNL     1      -4.281   0.314  -1.519  1.00  0.00     0.132 C 
ATOM     33  C   UNL     1      -6.109   1.610   0.400  1.00  0.00     0.102 C 
ATOM     34  C   UNL     1      -5.141   1.571  -1.817  1.00  0.00     0.102 C 
ATOM     35  N   UNL     1      -6.401   1.620  -1.054  1.00  0.00    -0.313 NA
ATOM     36  H   UNL     1      -6.902   0.752  -1.256  1.00  0.00     0.122 HD
ENDBRANCH  28  30
BRANCH  29  37
ATOM     37  O   UNL     1      -4.642  -2.817  -0.025  1.00  0.00    -0.506 OA
ATOM     38  H   UNL     1      -5.193  -2.018  -0.166  1.00  0.00     0.293 HD
ENDBRANCH  29  37
ENDBRANCH  23  24
ENDBRANCH   1  23
TORSDOF 8
