MODEL        1USER    Run = 1USERUSER    Estimated Free Energy of Binding    =  -9.05 kcal/mol  [=(1)+(2)+(3)-(4)]USERUSER    (1) Final Intermolecular Energy     = -11.14 kcal/molUSER        vdW + Hbond + desolv Energy     = -10.72 kcal/molUSER        Electrostatic Energy            =  -0.42 kcal/molUSER        Moving Ligand-Fixed Receptor    = -11.14 kcal/molUSER        Moving Ligand-Moving Receptor   =  +0.00 kcal/molUSER    (2) Final Total Internal Energy     =  -2.51 kcal/molUSER    (3) Torsional Free Energy           =  +2.09 kcal/molUSER    (4) Unbound System's Energy         =  -2.51 kcal/molUSERUSERREMARK SMILES Nc1ncnc2c1ncn2[C@H]1CC[C@@H](O)C[C@H]1NCc1ccc(C(=O)N2CCNCC2)cc1REMARK SMILES IDX 18 1 17 3 11 4 12 5 13 6 16 7 14 8 10 9 2 10 3 11 7 12 4 13REMARK SMILES IDX 6 14 8 15 5 16 9 17 1 18 15 21 19 23 20 24 21 25 33 26 22 27REMARK SMILES IDX 32 28 23 29 24 30 26 31 27 32 31 33 28 34 30 35 29 36 25 37REMARK H PARENT 18 2 1 19 1 20 15 22 29 38USER                              x       y       z     vdW  Elec       q    TypeUSER                           _______ _______ _______ _____ _____    ______ ____ROOTATOM      1  N   UNL     1      32.499  44.634  15.705 -0.15 +0.18    -0.308 NA ATOM      2  H   UNL     1      32.621  45.650  15.647 -0.04 -0.11    +0.123 HD ENDROOTBRANCH   1   3ATOM      3  C   UNL     1      31.621  44.163  14.619 -0.24 -0.05    +0.079 C  ATOM      4  C   UNL     1      30.340  43.428  15.133 -0.15 -0.08    +0.107 C  ATOM      5  C   UNL     1      29.145  44.368  15.419 -0.27 -0.02    +0.030 C  ATOM      6  C   UNL     1      29.564  45.809  15.679 -0.09 -0.01    +0.034 C  ATOM      7  C   UNL     1      31.184  45.352  13.740 -0.45 -0.04    +0.052 C  ATOM      8  C   UNL     1      30.376  46.398  14.519 -0.40 -0.05    +0.116 C  BRANCH   4   9ATOM      9  N   UNL     1      30.636  42.452  16.175 -0.15 +0.14    -0.310 N  ATOM     10  C   UNL     1      31.851  41.302  19.252 -0.14 +0.00    +0.155 A  ATOM     11  N   UNL     1      32.286  42.434  19.847 -0.45 -0.03    -0.217 NA ATOM     12  C   UNL     1      31.289  41.388  17.967 -0.22 -0.03    +0.150 A  ATOM     13  C   UNL     1      32.132  43.600  19.185 -0.24 -0.01    +0.226 A  ATOM     14  C   UNL     1      31.203  42.653  17.405 -0.18 -0.04    +0.165 A  ATOM     15  N   UNL     1      30.796  40.427  17.109 -0.23 +0.04    -0.231 NA ATOM     16  N   UNL     1      31.597  43.808  17.968 -0.18 +0.03    -0.217 NA ATOM     17  C   UNL     1      30.409  41.101  16.049 -0.15 -0.08    +0.202 A  BRANCH  10  18ATOM     18  N   UNL     1      32.002  40.102  19.938 -0.04 -0.11    -0.382 N  ATOM     19  H   UNL     1      31.582  40.118  20.860 +0.08 +0.05    +0.158 HD ATOM     20  H   UNL     1      31.811  39.306  19.345 +0.10 +0.03    +0.158 HD ENDBRANCH  10  18ENDBRANCH   4   9BRANCH   8  21ATOM     21  O   UNL     1      31.280  47.376  15.039 -0.48 +0.30    -0.393 OA ATOM     22  H   UNL     1      32.053  46.897  15.387 -0.44 -0.36    +0.210 HD ENDBRANCH   8  21ENDBRANCH   1   3BRANCH   1  23ATOM     23  C   UNL     1      33.811  43.992  15.751 -0.24 -0.06    +0.117 C  BRANCH  23  24ATOM     24  C   UNL     1      34.953  44.884  15.316 -0.28 +0.02    -0.034 A  ATOM     25  C   UNL     1      34.701  46.094  14.649 -0.32 -0.01    +0.006 A  ATOM     26  C   UNL     1      36.282  44.510  15.574 -0.36 -0.00    +0.006 A  ATOM     27  C   UNL     1      35.757  46.912  14.238 -0.39 -0.01    +0.014 A  ATOM     28  C   UNL     1      37.340  45.327  15.170 -0.36 -0.01    +0.014 A  ATOM     29  C   UNL     1      37.070  46.534  14.518 -0.39 -0.02    +0.040 A  BRANCH  29  30ATOM     30  C   UNL     1      38.179  47.393  14.057 -0.36 -0.09    +0.253 C  ATOM     31  N   UNL     1      39.087  47.878  14.994 -0.23 +0.12    -0.336 N  ATOM     32  C   UNL     1      40.176  48.718  14.493 -0.45 -0.04    +0.135 C  ATOM     33  C   UNL     1      38.848  47.954  16.437 -0.28 -0.07    +0.135 C  ATOM     34  C   UNL     1      41.075  49.274  15.612 -0.63 -0.02    +0.102 C  ATOM     35  C   UNL     1      40.145  47.740  17.244 -0.40 -0.02    +0.102 C  ATOM     36  N   UNL     1      41.386  48.268  16.641 -0.60 +0.02    -0.313 NA ATOM     37  O   UNL     1      38.256  47.631  12.855 -0.74 +0.02    -0.269 OA ATOM     38  H   UNL     1      41.856  47.492  16.171 -0.18 -0.02    +0.122 HD ENDBRANCH  29  30ENDBRANCH  23  24ENDBRANCH   1  23TORSDOF 7TERENDMDL