
     RDKit          3D

 65 68  0  0  0  0  0  0  0  0999 V2000
    8.2729    2.8349   -2.2084 C   0  0  0  0  0  0  0  0  0  0  0  0
    7.0657    2.5689   -1.5055 O   0  0  0  0  0  0  0  0  0  0  0  0
    7.0266    1.4414   -0.7298 C   0  0  0  0  0  0  0  0  0  0  0  0
    8.0643    0.5158   -0.5966 C   0  0  0  0  0  0  0  0  0  0  0  0
    7.9136   -0.5889    0.2457 C   0  0  0  0  0  0  0  0  0  0  0  0
    6.7246   -0.7762    0.9457 C   0  0  0  0  0  0  0  0  0  0  0  0
    6.6728   -1.8628    1.7780 O   0  0  0  0  0  0  0  0  0  0  0  0
    5.6568    0.1163    0.7915 C   0  0  0  0  0  0  0  0  0  0  0  0
    4.3986   -0.1252    1.5296 C   0  0  0  0  0  0  0  0  0  0  0  0
    4.4773   -0.6908    2.6217 O   0  0  0  0  0  0  0  0  0  0  0  0
    3.0606    0.2242    0.9949 C   0  0  0  0  0  0  0  0  0  0  0  0
    2.7600    0.1218   -0.3669 C   0  0  0  0  0  0  0  0  0  0  0  0
    1.4733    0.4245   -0.8203 C   0  0  0  0  0  0  0  0  0  0  0  0
    0.4684    0.8140    0.0786 C   0  0  0  0  0  0  0  0  0  0  0  0
   -0.9190    1.1323   -0.4245 C   0  0  0  0  0  0  0  0  0  0  0  0
   -1.6063   -0.0170   -1.0178 N   0  0  0  0  0  0  0  0  0  0  0  0
   -2.0507   -1.0298   -0.0225 C   0  0  2  0  0  0  0  0  0  0  0  0
   -1.1821   -2.2781   -0.2240 C   0  0  0  0  0  0  0  0  0  0  0  0
   -1.5115   -3.4578    0.6886 C   0  0  0  0  0  0  0  0  0  0  0  0
   -2.8205   -4.1487    0.3172 C   0  0  0  0  0  0  0  0  0  0  0  0
   -4.0220   -3.5972    0.9257 N   0  0  0  0  0  0  0  0  0  0  0  0
   -4.1448   -2.1441    0.9820 C   0  0  0  0  0  0  0  0  0  0  0  0
   -3.5786   -1.3022   -0.1877 C   0  0  1  0  0  0  0  0  0  0  0  0
   -4.3026   -0.0176   -0.2684 N   0  0  0  0  0  0  0  0  0  0  0  0
   -5.5260    0.0813   -0.8954 C   0  0  0  0  0  0  0  0  0  0  0  0
   -6.0473   -0.8458   -1.5031 O   0  0  0  0  0  0  0  0  0  0  0  0
   -6.2040    1.4018   -0.8347 C   0  0  0  0  0  0  0  0  0  0  0  0
   -7.0486    1.7541   -1.8881 C   0  0  0  0  0  0  0  0  0  0  0  0
   -7.6807    2.9814   -1.8326 C   0  0  0  0  0  0  0  0  0  0  0  0
   -7.5295    3.8528   -0.8123 N   0  0  0  0  0  0  0  0  0  0  0  0
   -6.7259    3.4765    0.2046 C   0  0  0  0  0  0  0  0  0  0  0  0
   -6.0460    2.2719    0.2437 C   0  0  0  0  0  0  0  0  0  0  0  0
    0.7741    0.8945    1.4439 C   0  0  0  0  0  0  0  0  0  0  0  0
    2.0603    0.5949    1.9002 C   0  0  0  0  0  0  0  0  0  0  0  0
    5.8306    1.2341   -0.0261 C   0  0  0  0  0  0  0  0  0  0  0  0
    4.8549    2.1507   -0.1306 F   0  0  0  0  0  0  0  0  0  0  0  0
    8.4849    2.0473   -2.9388 H   0  0  0  0  0  0  0  0  0  0  0  0
    9.1113    2.9695   -1.5169 H   0  0  0  0  0  0  0  0  0  0  0  0
    8.1406    3.7717   -2.7579 H   0  0  0  0  0  0  0  0  0  0  0  0
    9.0079    0.6287   -1.1213 H   0  0  0  0  0  0  0  0  0  0  0  0
    8.7293   -1.2987    0.3670 H   0  0  0  0  0  0  0  0  0  0  0  0
    5.8899   -1.7532    2.3657 H   0  0  0  0  0  0  0  0  0  0  0  0
    3.5043   -0.2033   -1.0883 H   0  0  0  0  0  0  0  0  0  0  0  0
    1.2443    0.3376   -1.8813 H   0  0  0  0  0  0  0  0  0  0  0  0
   -1.5328    1.5824    0.3657 H   0  0  0  0  0  0  0  0  0  0  0  0
   -0.8174    1.9078   -1.1944 H   0  0  0  0  0  0  0  0  0  0  0  0
   -2.4286    0.3192   -1.5228 H   0  0  0  0  0  0  0  0  0  0  0  0
   -1.8925   -0.6474    0.9948 H   0  0  0  0  0  0  0  0  0  0  0  0
   -1.2370   -2.6085   -1.2701 H   0  0  0  0  0  0  0  0  0  0  0  0
   -0.1318   -2.0172   -0.0462 H   0  0  0  0  0  0  0  0  0  0  0  0
   -0.7036   -4.1933    0.5781 H   0  0  0  0  0  0  0  0  0  0  0  0
   -1.5030   -3.1539    1.7424 H   0  0  0  0  0  0  0  0  0  0  0  0
   -2.9364   -4.1789   -0.7733 H   0  0  0  0  0  0  0  0  0  0  0  0
   -2.7579   -5.1942    0.6413 H   0  0  0  0  0  0  0  0  0  0  0  0
   -4.8359   -3.9805    0.4404 H   0  0  0  0  0  0  0  0  0  0  0  0
   -5.2162   -1.9336    1.0962 H   0  0  0  0  0  0  0  0  0  0  0  0
   -3.7001   -1.7967    1.9239 H   0  0  0  0  0  0  0  0  0  0  0  0
   -3.7623   -1.8244   -1.1360 H   0  0  0  0  0  0  0  0  0  0  0  0
   -3.9131    0.7688    0.2304 H   0  0  0  0  0  0  0  0  0  0  0  0
   -7.2068    1.0881   -2.7302 H   0  0  0  0  0  0  0  0  0  0  0  0
   -8.3459    3.3077   -2.6277 H   0  0  0  0  0  0  0  0  0  0  0  0
   -6.6477    4.1928    1.0180 H   0  0  0  0  0  0  0  0  0  0  0  0
   -5.4451    2.0250    1.1093 H   0  0  0  0  0  0  0  0  0  0  0  0
    0.0131    1.1825    2.1652 H   0  0  0  0  0  0  0  0  0  0  0  0
    2.2792    0.6490    2.9646 H   0  0  0  0  0  0  0  0  0  0  0  0
  1  2  1  0
  2  3  1  0
  3  4  2  0
  4  5  1  0
  5  6  2  0
  6  7  1  0
  6  8  1  0
  8  9  1  0
  9 10  2  0
  9 11  1  0
 11 12  2  0
 12 13  1  0
 13 14  2  0
 14 15  1  0
 15 16  1  0
 16 17  1  0
 17 18  1  0
 18 19  1  0
 19 20  1  0
 20 21  1  0
 21 22  1  0
 22 23  1  0
 23 24  1  0
 24 25  1  0
 25 26  2  0
 25 27  1  0
 27 28  2  0
 28 29  1  0
 29 30  2  0
 30 31  1  0
 31 32  2  0
 14 33  1  0
 33 34  2  0
  8 35  2  0
 35 36  1  0
 35  3  1  0
 34 11  1  0
 23 17  1  0
 32 27  1  0
  1 37  1  0
  1 38  1  0
  1 39  1  0
  4 40  1  0
  5 41  1  0
  7 42  1  0
 12 43  1  0
 13 44  1  0
 15 45  1  0
 15 46  1  0
 16 47  1  0
 17 48  1  1
 18 49  1  0
 18 50  1  0
 19 51  1  0
 19 52  1  0
 20 53  1  0
 20 54  1  0
 21 55  1  0
 22 56  1  0
 22 57  1  0
 23 58  1  6
 24 59  1  0
 28 60  1  0
 29 61  1  0
 31 62  1  0
 32 63  1  0
 33 64  1  0
 34 65  1  0
M  END
$$$$
