
     RDKit          3D

 61 64  0  0  0  0  0  0  0  0999 V2000
    7.3632   -0.4400   -0.6501 N   0  0  0  0  0  0  0  0  0  0  0  0
    6.1594   -0.7639   -0.0892 C   0  0  0  0  0  0  0  0  0  0  0  0
    5.4279   -1.6073   -0.5863 O   0  0  0  0  0  0  0  0  0  0  0  0
    5.7887   -0.0208    1.1420 C   0  0  0  0  0  0  0  0  0  0  0  0
    6.7635    0.1294    2.1426 C   0  0  0  0  0  0  0  0  0  0  0  0
    6.4625    0.8032    3.3256 C   0  0  0  0  0  0  0  0  0  0  0  0
    5.1875    1.3266    3.5187 C   0  0  0  0  0  0  0  0  0  0  0  0
    4.2121    1.1761    2.5315 C   0  0  0  0  0  0  0  0  0  0  0  0
    4.4952    0.5040    1.3276 C   0  0  0  0  0  0  0  0  0  0  0  0
    3.3934    0.3874    0.2959 C   0  0  0  0  0  0  0  0  0  0  0  0
    2.5366   -0.8713    0.4860 C   0  0  0  0  0  0  0  0  0  0  0  0
    1.2883   -0.7970   -0.2844 N   0  0  0  0  0  0  0  0  0  0  0  0
    1.2883   -0.8805   -1.6873 C   0  0  0  0  0  0  0  0  0  0  0  0
    2.3393   -1.4542   -2.4196 C   0  0  0  0  0  0  0  0  0  0  0  0
    2.3672   -1.6175   -3.7649 N   0  0  0  0  0  0  0  0  0  0  0  0
    1.2845   -1.2045   -4.4370 C   0  0  0  0  0  0  0  0  0  0  0  0
    0.1788   -0.6368   -3.8283 C   0  0  0  0  0  0  0  0  0  0  0  0
    0.1584   -0.4567   -2.4316 C   0  0  0  0  0  0  0  0  0  0  0  0
   -1.0493    0.1666   -1.8295 C   0  0  0  0  0  0  0  0  0  0  0  0
   -1.9012    1.0039   -2.4619 C   0  0  0  0  0  0  0  0  0  0  0  0
   -2.9118    1.4813   -1.5515 C   0  0  0  0  0  0  0  0  0  0  0  0
   -2.7128    0.9187   -0.3510 C   0  0  0  0  0  0  0  0  0  0  0  0
   -3.3648    1.3338    0.8983 C   0  0  0  0  0  0  0  0  0  0  0  0
   -2.6771    1.8613    1.7693 O   0  0  0  0  0  0  0  0  0  0  0  0
   -4.7217    1.1066    1.0294 N   0  0  0  0  0  0  0  0  0  0  0  0
   -5.5400    0.2871    0.1275 C   0  0  0  0  0  0  0  0  0  0  0  0
   -7.0355    0.4859    0.3954 C   0  0  0  0  0  0  0  0  0  0  0  0
   -7.4226    0.1796    1.7401 O   0  0  0  0  0  0  0  0  0  0  0  0
   -6.3884    0.4014    2.7106 C   0  0  0  0  0  0  0  0  0  0  0  0
   -5.3739    1.4694    2.2918 C   0  0  0  0  0  0  0  0  0  0  0  0
   -1.4948    0.0411   -0.3792 C   0  0  0  0  0  0  0  0  0  0  0  0
   -1.9096   -1.6727    0.1101 S   0  0  0  0  0  0  0  0  0  0  0  0
   -2.8484   -2.2301   -1.3301 C   0  0  0  0  0  0  0  0  0  0  0  0
   -3.4981   -3.3823   -1.0088 F   0  0  0  0  0  0  0  0  0  0  0  0
    7.8600    0.4008   -0.3898 H   0  0  0  0  0  0  0  0  0  0  0  0
    7.5607   -0.8446   -1.5565 H   0  0  0  0  0  0  0  0  0  0  0  0
    7.7548   -0.2998    2.0162 H   0  0  0  0  0  0  0  0  0  0  0  0
    7.2179    0.9111    4.1000 H   0  0  0  0  0  0  0  0  0  0  0  0
    4.9475    1.8498    4.4415 H   0  0  0  0  0  0  0  0  0  0  0  0
    3.2203    1.5923    2.7055 H   0  0  0  0  0  0  0  0  0  0  0  0
    2.7537    1.2783    0.3671 H   0  0  0  0  0  0  0  0  0  0  0  0
    3.8131    0.4359   -0.7152 H   0  0  0  0  0  0  0  0  0  0  0  0
    2.2454   -0.9408    1.5420 H   0  0  0  0  0  0  0  0  0  0  0  0
    3.0836   -1.7956    0.2769 H   0  0  0  0  0  0  0  0  0  0  0  0
    0.6285   -1.4969    0.0711 H   0  0  0  0  0  0  0  0  0  0  0  0
    3.2325   -1.8321   -1.9305 H   0  0  0  0  0  0  0  0  0  0  0  0
    1.3212   -1.3491   -5.5128 H   0  0  0  0  0  0  0  0  0  0  0  0
   -0.6567   -0.3517   -4.4580 H   0  0  0  0  0  0  0  0  0  0  0  0
   -1.8377    1.3538   -3.4822 H   0  0  0  0  0  0  0  0  0  0  0  0
   -3.6311    2.2507   -1.7885 H   0  0  0  0  0  0  0  0  0  0  0  0
   -5.3159    0.5235   -0.9143 H   0  0  0  0  0  0  0  0  0  0  0  0
   -5.2624   -0.7569    0.3123 H   0  0  0  0  0  0  0  0  0  0  0  0
   -7.3226    1.5249    0.1961 H   0  0  0  0  0  0  0  0  0  0  0  0
   -7.6267   -0.1500   -0.2710 H   0  0  0  0  0  0  0  0  0  0  0  0
   -6.8740    0.6856    3.6491 H   0  0  0  0  0  0  0  0  0  0  0  0
   -5.8834   -0.5567    2.8785 H   0  0  0  0  0  0  0  0  0  0  0  0
   -5.8851    2.4222    2.1119 H   0  0  0  0  0  0  0  0  0  0  0  0
   -4.6385    1.6221    3.0875 H   0  0  0  0  0  0  0  0  0  0  0  0
   -0.7529    0.4550    0.3113 H   0  0  0  0  0  0  0  0  0  0  0  0
   -3.6105   -1.5087   -1.6292 H   0  0  0  0  0  0  0  0  0  0  0  0
   -2.1871   -2.4509   -2.1706 H   0  0  0  0  0  0  0  0  0  0  0  0
  1  2  1  0
  2  3  2  0
  2  4  1  0
  4  5  2  0
  5  6  1  0
  6  7  2  0
  7  8  1  0
  8  9  2  0
  9 10  1  0
 10 11  1  0
 11 12  1  0
 12 13  1  0
 13 14  2  0
 14 15  1  0
 15 16  2  0
 16 17  1  0
 17 18  2  0
 18 19  1  0
 19 20  2  0
 20 21  1  0
 21 22  2  0
 22 23  1  0
 23 24  2  0
 23 25  1  0
 25 26  1  0
 26 27  1  0
 27 28  1  0
 28 29  1  0
 29 30  1  0
 22 31  1  0
 31 32  1  0
 32 33  1  0
 33 34  1  0
  9  4  1  0
 18 13  1  0
 31 19  1  0
 30 25  1  0
  1 35  1  0
  1 36  1  0
  5 37  1  0
  6 38  1  0
  7 39  1  0
  8 40  1  0
 10 41  1  0
 10 42  1  0
 11 43  1  0
 11 44  1  0
 12 45  1  0
 14 46  1  0
 16 47  1  0
 17 48  1  0
 20 49  1  0
 21 50  1  0
 26 51  1  0
 26 52  1  0
 27 53  1  0
 27 54  1  0
 29 55  1  0
 29 56  1  0
 30 57  1  0
 30 58  1  0
 31 59  1  0
 33 60  1  0
 33 61  1  0
M  END
$$$$
