
     RDKit          3D

 60 64  0  0  0  0  0  0  0  0999 V2000
    5.5162    0.8643   -0.8332 O   0  0  0  0  0  0  0  0  0  0  0  0
    4.6953    0.2823   -0.1210 C   0  0  0  0  0  0  0  0  0  0  0  0
    3.3307    0.1056   -0.6746 C   0  0  0  0  0  0  0  0  0  0  0  0
    2.6237   -1.0852   -0.4879 C   0  0  0  0  0  0  0  0  0  0  0  0
    1.3326   -1.2223   -1.0075 C   0  0  0  0  0  0  0  0  0  0  0  0
    0.7288   -0.1855   -1.7395 C   0  0  0  0  0  0  0  0  0  0  0  0
   -0.6376   -0.3401   -2.2826 C   0  0  0  0  0  0  0  0  0  0  0  0
   -0.8677   -1.3628   -3.2220 C   0  0  0  0  0  0  0  0  0  0  0  0
   -2.1329   -1.5280   -3.7510 C   0  0  0  0  0  0  0  0  0  0  0  0
   -3.1772   -0.7522   -3.4192 N   0  0  0  0  0  0  0  0  0  0  0  0
   -2.9302    0.2592   -2.5474 C   0  0  0  0  0  0  0  0  0  0  0  0
   -1.7158    0.4964   -1.8962 C   0  0  0  0  0  0  0  0  0  0  0  0
   -1.5131    1.5341   -0.9914 N   0  0  0  0  0  0  0  0  0  0  0  0
   -2.5556    2.3853   -0.4296 C   0  0  0  0  0  0  0  0  0  0  0  0
   -3.2032    1.7955    0.8328 C   0  0  0  0  0  0  0  0  0  0  0  0
   -4.3905    0.8901    0.5621 C   0  0  0  0  0  0  0  0  0  0  0  0
   -5.6220    1.5139    0.2550 C   0  0  0  0  0  0  0  0  0  0  0  0
   -6.7588    0.7619   -0.0352 C   0  0  0  0  0  0  0  0  0  0  0  0
   -6.6783   -0.6203   -0.0137 C   0  0  0  0  0  0  0  0  0  0  0  0
   -7.7679   -1.3514   -0.2817 F   0  0  0  0  0  0  0  0  0  0  0  0
   -5.4818   -1.2628    0.2843 C   0  0  0  0  0  0  0  0  0  0  0  0
   -4.3198   -0.5212    0.5691 C   0  0  0  0  0  0  0  0  0  0  0  0
   -3.0880   -1.2545    0.8412 C   0  0  0  0  0  0  0  0  0  0  0  0
   -2.2226   -1.0900    1.8260 N   0  0  0  0  0  0  0  0  0  0  0  0
   -1.2454   -2.0399    1.6480 N   0  0  0  0  0  0  0  0  0  0  0  0
   -1.4947   -2.7855    0.5785 N   0  0  0  0  0  0  0  0  0  0  0  0
   -2.6225   -2.2793    0.0608 N   0  0  0  0  0  0  0  0  0  0  0  0
    1.4714    0.9853   -1.9647 C   0  0  0  0  0  0  0  0  0  0  0  0
    2.7620    1.1214   -1.4519 C   0  0  0  0  0  0  0  0  0  0  0  0
    3.4269    2.2801   -1.7551 O   0  0  0  0  0  0  0  0  0  0  0  0
    4.9986   -0.1746    1.1554 N   0  0  0  0  0  0  0  0  0  0  0  0
    6.3893   -0.0892    1.6068 C   0  0  0  0  0  0  0  0  0  0  0  0
    6.6064   -0.9136    2.8780 C   0  0  0  0  0  0  0  0  0  0  0  0
    5.7801   -0.4938    3.9718 O   0  0  0  0  0  0  0  0  0  0  0  0
    4.5338    0.0969    3.5740 C   0  0  0  0  0  0  0  0  0  0  0  0
    4.0140   -0.4127    2.2238 C   0  0  0  0  0  0  0  0  0  0  0  0
    3.0660   -1.9187    0.0498 H   0  0  0  0  0  0  0  0  0  0  0  0
    0.7945   -2.1521   -0.8293 H   0  0  0  0  0  0  0  0  0  0  0  0
   -0.0614   -2.0128   -3.5489 H   0  0  0  0  0  0  0  0  0  0  0  0
   -2.3394   -2.3050   -4.4824 H   0  0  0  0  0  0  0  0  0  0  0  0
   -3.7975    0.8860   -2.3694 H   0  0  0  0  0  0  0  0  0  0  0  0
   -0.7372    1.3650   -0.3534 H   0  0  0  0  0  0  0  0  0  0  0  0
   -3.2924    2.6857   -1.1825 H   0  0  0  0  0  0  0  0  0  0  0  0
   -2.0535    3.3147   -0.1260 H   0  0  0  0  0  0  0  0  0  0  0  0
   -3.5729    2.6307    1.4455 H   0  0  0  0  0  0  0  0  0  0  0  0
   -2.4524    1.3114    1.4627 H   0  0  0  0  0  0  0  0  0  0  0  0
   -5.6976    2.6010    0.2389 H   0  0  0  0  0  0  0  0  0  0  0  0
   -7.7026    1.2440   -0.2735 H   0  0  0  0  0  0  0  0  0  0  0  0
   -5.4808   -2.3511    0.3033 H   0  0  0  0  0  0  0  0  0  0  0  0
   -2.9867   -2.6304   -0.8146 H   0  0  0  0  0  0  0  0  0  0  0  0
    1.0479    1.7964   -2.5537 H   0  0  0  0  0  0  0  0  0  0  0  0
    4.3844    2.1235   -1.5929 H   0  0  0  0  0  0  0  0  0  0  0  0
    7.0515   -0.4291    0.8025 H   0  0  0  0  0  0  0  0  0  0  0  0
    6.6003    0.9679    1.8000 H   0  0  0  0  0  0  0  0  0  0  0  0
    6.3911   -1.9697    2.6873 H   0  0  0  0  0  0  0  0  0  0  0  0
    7.6481   -0.8456    3.2057 H   0  0  0  0  0  0  0  0  0  0  0  0
    3.8026   -0.1131    4.3640 H   0  0  0  0  0  0  0  0  0  0  0  0
    4.6788    1.1819    3.5406 H   0  0  0  0  0  0  0  0  0  0  0  0
    3.8620   -1.4975    2.2760 H   0  0  0  0  0  0  0  0  0  0  0  0
    3.0629    0.0728    1.9880 H   0  0  0  0  0  0  0  0  0  0  0  0
  1  2  2  0
  2  3  1  0
  3  4  2  0
  4  5  1  0
  5  6  2  0
  6  7  1  0
  7  8  2  0
  8  9  1  0
  9 10  2  0
 10 11  1  0
 11 12  2  0
 12 13  1  0
 13 14  1  0
 14 15  1  0
 15 16  1  0
 16 17  2  0
 17 18  1  0
 18 19  2  0
 19 20  1  0
 19 21  1  0
 21 22  2  0
 22 23  1  0
 23 24  2  0
 24 25  1  0
 25 26  2  0
 26 27  1  0
  6 28  1  0
 28 29  2  0
 29 30  1  0
  2 31  1  0
 31 32  1  0
 32 33  1  0
 33 34  1  0
 34 35  1  0
 35 36  1  0
 29  3  1  0
 36 31  1  0
 12  7  1  0
 22 16  1  0
 27 23  1  0
  4 37  1  0
  5 38  1  0
  8 39  1  0
  9 40  1  0
 11 41  1  0
 13 42  1  0
 14 43  1  0
 14 44  1  0
 15 45  1  0
 15 46  1  0
 17 47  1  0
 18 48  1  0
 21 49  1  0
 27 50  1  0
 28 51  1  0
 30 52  1  0
 32 53  1  0
 32 54  1  0
 33 55  1  0
 33 56  1  0
 35 57  1  0
 35 58  1  0
 36 59  1  0
 36 60  1  0
M  END
$$$$
