MODEL        4USER    Run = 4USERUSER    Estimated Free Energy of Binding    = -10.93 kcal/mol  [=(1)+(2)+(3)-(4)]USERUSER    (1) Final Intermolecular Energy     = -12.72 kcal/molUSER        vdW + Hbond + desolv Energy     = -12.64 kcal/molUSER        Electrostatic Energy            =  -0.08 kcal/molUSER        Moving Ligand-Fixed Receptor    = -12.72 kcal/molUSER        Moving Ligand-Moving Receptor   =  +0.00 kcal/molUSER    (2) Final Total Internal Energy     =  -2.16 kcal/molUSER    (3) Torsional Free Energy           =  +1.79 kcal/molUSER    (4) Unbound System's Energy         =  -2.16 kcal/molUSERUSERREMARK SMILES CN1CCN([C@H]2CN(Cc3ccc(-c4nc5cc(F)ccc5[nH]4)cc3)CC[C@H]2n2c(O)nc3ccccc32)CC1REMARK SMILES IDX 6 1 7 2 8 3 26 4 27 5 28 6 5 7 2 8 3 9 40 10 4 11 39 12 1 13REMARK SMILES IDX 29 14 30 15 38 16 32 17 37 18 33 19 36 20 34 21 35 22 31 23REMARK SMILES IDX 9 25 10 26 11 27 25 28 12 29 24 30 13 31 14 32 15 33 23 34REMARK SMILES IDX 16 35 22 36 17 37 21 38 18 39 20 40 19 42REMARK H PARENT 31 24 23 41USER                              x       y       z     vdW  Elec       q    TypeUSER                           _______ _______ _______ _____ _____    ______ ____ROOTATOM      1  C   UNL     1      38.126  46.607  17.479 -0.22 -0.03    +0.094 C  ATOM      2  C   UNL     1      39.236  46.600  18.596 +0.02 -0.02    +0.106 C  ATOM      3  N   UNL     1      40.413  45.732  18.375 -0.25 +0.01    -0.297 NA ATOM      4  C   UNL     1      41.001  45.930  17.050 -0.33 -0.00    +0.087 C  ATOM      5  C   UNL     1      39.995  45.884  15.900 -0.25 -0.01    +0.043 C  ATOM      6  C   UNL     1      38.891  46.917  16.141 -0.42 -0.04    +0.112 C  ENDROOTBRANCH   1   7ATOM      7  N   UNL     1      37.284  45.383  17.589 -0.17 +0.09    -0.294 NA ATOM      8  N   UNL     1      34.677  44.010  16.830 -0.10 +0.13    -0.304 NA ATOM      9  C   UNL     1      34.733  45.392  17.334 -0.34 -0.06    +0.099 C  ATOM     10  C   UNL     1      36.018  43.507  16.486 -0.39 -0.03    +0.099 C  ATOM     11  C   UNL     1      35.969  45.657  18.229 -0.21 -0.04    +0.100 C  ATOM     12  C   UNL     1      37.101  44.605  16.355 -0.33 -0.03    +0.100 C  ATOM     13  C   UNL     1      33.745  43.901  15.713 -0.23 -0.05    +0.105 C  ENDBRANCH   1   7BRANCH   6  14ATOM     14  N   UNL     1      38.050  47.284  15.006 -0.21 +0.14    -0.289 N  ATOM     15  C   UNL     1      37.639  48.576  14.781 -0.28 -0.21    +0.295 A  ATOM     16  C   UNL     1      37.586  46.538  13.938 -0.40 -0.03    +0.072 A  ATOM     17  N   UNL     1      36.922  48.720  13.704 -0.55 +0.11    -0.195 NA ATOM     18  C   UNL     1      37.677  45.190  13.557 -0.36 -0.01    +0.029 A  ATOM     19  C   UNL     1      36.880  47.464  13.158 -0.54 -0.04    +0.092 A  ATOM     20  C   UNL     1      37.038  44.795  12.374 -0.47 -0.00    +0.002 A  ATOM     21  C   UNL     1      36.245  47.048  11.977 -0.66 -0.02    +0.031 A  ATOM     22  C   UNL     1      36.331  45.707  11.593 -0.38 -0.00    +0.002 A  BRANCH  15  23ATOM     23  O   UNL     1      37.932  49.599  15.557 -0.10 +0.44    -0.480 OA ATOM     24  H   UNL     1      37.776  50.348  14.951 -0.31 -0.35    +0.296 HD ENDBRANCH  15  23ENDBRANCH   6  14BRANCH   3  25ATOM     25  C   UNL     1      40.161  44.308  18.655 -0.34 -0.00    +0.120 C  BRANCH  25  26ATOM     26  C   UNL     1      39.443  44.061  19.969 -0.09 +0.00    -0.034 A  ATOM     27  C   UNL     1      38.069  43.784  20.005 -0.24 -0.00    +0.006 A  ATOM     28  C   UNL     1      40.132  44.177  21.181 -0.28 +0.00    +0.006 A  ATOM     29  C   UNL     1      37.402  43.607  21.224 -0.39 +0.00    +0.012 A  ATOM     30  C   UNL     1      39.466  43.997  22.398 -0.26 +0.00    +0.012 A  ATOM     31  C   UNL     1      38.093  43.718  22.439 -0.33 +0.00    +0.017 A  BRANCH  31  32ATOM     32  C   UNL     1      37.434  43.552  23.740 -0.26 +0.01    +0.138 A  ATOM     33  N   UNL     1      37.258  44.499  24.647 -0.27 -0.02    -0.228 NA ATOM     34  N   UNL     1      36.875  42.374  24.183 -0.21 -0.01    -0.338 N  ATOM     35  C   UNL     1      36.589  43.916  25.692 -0.30 -0.00    +0.092 A  ATOM     36  C   UNL     1      36.332  42.577  25.425 -0.33 -0.00    +0.066 A  ATOM     37  C   UNL     1      36.167  44.473  26.905 -0.30 -0.01    +0.069 A  ATOM     38  C   UNL     1      35.656  41.731  26.307 -0.48 -0.01    +0.031 A  ATOM     39  C   UNL     1      35.493  43.642  27.799 -0.44 -0.03    +0.125 A  ATOM     40  C   UNL     1      35.237  42.302  27.514 -0.55 -0.01    +0.041 A  ATOM     41  H   UNL     1      36.849  41.509  23.667 +0.09 +0.00    +0.168 HD ATOM     42  F   UNL     1      35.077  44.148  28.969 -0.19 +0.07    -0.207 F  ENDBRANCH  31  32ENDBRANCH  25  26ENDBRANCH   3  25TORSDOF 6TERENDMDL