REMARK SMILES CN1CCN([C@H]2CN(Cc3ccc(-c4nc5cc(F)ccc5[nH]4)cc3)CC[C@H]2n2c(O)nc3ccccc32)CC1
REMARK SMILES IDX 6 1 7 2 8 3 26 4 27 5 28 6 5 7 2 8 3 9 40 10 4 11 39 12 1 13
REMARK SMILES IDX 29 14 30 15 38 16 32 17 37 18 33 19 36 20 34 21 35 22 31 23
REMARK SMILES IDX 9 25 10 26 11 27 25 28 12 29 24 30 13 31 14 32 15 33 23 34
REMARK SMILES IDX 16 35 22 36 17 37 21 38 18 39 20 40 19 42
REMARK H PARENT 31 24 23 41
ROOT
ATOM      1  C   UNL     1      -1.710   0.547  -1.397  1.00  0.00     0.094 C 
ATOM      2  C   UNL     1      -0.361   0.106  -2.080  1.00  0.00     0.106 C 
ATOM      3  N   UNL     1      -0.080  -1.345  -2.149  1.00  0.00    -0.297 NA
ATOM      4  C   UNL     1      -1.213  -2.098  -2.687  1.00  0.00     0.087 C 
ATOM      5  C   UNL     1      -2.555  -1.776  -2.029  1.00  0.00     0.043 C 
ATOM      6  C   UNL     1      -2.831  -0.273  -2.133  1.00  0.00     0.112 C 
ENDROOT
BRANCH   1   7
ATOM      7  N   UNL     1      -1.581   0.469   0.085  1.00  0.00    -0.294 NA
ATOM      8  N   UNL     1      -1.966   1.883   2.751  1.00  0.00    -0.304 NA
ATOM      9  C   UNL     1      -1.322   2.525   1.594  1.00  0.00     0.099 C 
ATOM     10  C   UNL     1      -2.626   0.622   2.370  1.00  0.00     0.099 C 
ATOM     11  C   UNL     1      -0.665   1.508   0.629  1.00  0.00     0.100 C 
ATOM     12  C   UNL     1      -2.838   0.444   0.847  1.00  0.00     0.100 C 
ATOM     13  C   UNL     1      -2.881   2.804   3.416  1.00  0.00     0.105 C 
ENDBRANCH   1   7
BRANCH   6  14
ATOM     14  N   UNL     1      -4.198   0.180  -1.900  1.00  0.00    -0.289 N 
ATOM     15  C   UNL     1      -4.661   1.390  -2.359  1.00  0.00     0.295 A 
ATOM     16  C   UNL     1      -5.280  -0.452  -1.315  1.00  0.00     0.072 A 
ATOM     17  N   UNL     1      -5.914   1.612  -2.085  1.00  0.00    -0.195 NA
ATOM     18  C   UNL     1      -5.483  -1.692  -0.689  1.00  0.00     0.029 A 
ATOM     19  C   UNL     1      -6.323   0.475  -1.439  1.00  0.00     0.092 A 
ATOM     20  C   UNL     1      -6.761  -1.976  -0.189  1.00  0.00     0.002 A 
ATOM     21  C   UNL     1      -7.596   0.172  -0.929  1.00  0.00     0.031 A 
ATOM     22  C   UNL     1      -7.804  -1.061  -0.305  1.00  0.00     0.002 A 
BRANCH  15  23
ATOM     23  O   UNL     1      -3.935   2.265  -3.025  1.00  0.00    -0.480 OA
ATOM     24  H   UNL     1      -4.588   2.973  -3.182  1.00  0.00     0.296 HD
ENDBRANCH  15  23
ENDBRANCH   6  14
BRANCH   3  25
ATOM     25  C   UNL     1       0.406  -1.916  -0.881  1.00  0.00     0.120 C 
BRANCH  25  26
ATOM     26  C   UNL     1       1.816  -1.488  -0.518  1.00  0.00    -0.034 A 
ATOM     27  C   UNL     1       2.843  -1.488  -1.472  1.00  0.00     0.006 A 
ATOM     28  C   UNL     1       2.132  -1.152   0.803  1.00  0.00     0.006 A 
ATOM     29  C   UNL     1       4.153  -1.140  -1.119  1.00  0.00     0.012 A 
ATOM     30  C   UNL     1       3.440  -0.802   1.154  1.00  0.00     0.012 A 
ATOM     31  C   UNL     1       4.470  -0.798   0.203  1.00  0.00     0.017 A 
BRANCH  31  32
ATOM     32  C   UNL     1       5.830  -0.439   0.621  1.00  0.00     0.138 A 
ATOM     33  N   UNL     1       6.160   0.170   1.748  1.00  0.00    -0.228 NA
ATOM     34  N   UNL     1       6.966  -0.720  -0.106  1.00  0.00    -0.338 N 
ATOM     35  C   UNL     1       7.526   0.293   1.737  1.00  0.00     0.092 A 
ATOM     36  C   UNL     1       8.060  -0.263   0.581  1.00  0.00     0.066 A 
ATOM     37  C   UNL     1       8.379   0.869   2.685  1.00  0.00     0.069 A 
ATOM     38  C   UNL     1       9.428  -0.291   0.300  1.00  0.00     0.031 A 
ATOM     39  C   UNL     1       9.748   0.853   2.420  1.00  0.00     0.125 A 
ATOM     40  C   UNL     1      10.269   0.286   1.258  1.00  0.00     0.041 A 
ATOM     41  H   UNL     1       6.989  -1.205  -0.989  1.00  0.00     0.168 HD
ATOM     42  F   UNL     1      10.589   1.399   3.310  1.00  0.00    -0.207 F 
ENDBRANCH  31  32
ENDBRANCH  25  26
ENDBRANCH   3  25
TORSDOF 6
