MODEL        10USER    Run = 10USERUSER    Estimated Free Energy of Binding    =  -8.09 kcal/mol  [=(1)+(2)+(3)-(4)]USERUSER    (1) Final Intermolecular Energy     = -11.97 kcal/molUSER        vdW + Hbond + desolv Energy     = -12.86 kcal/molUSER        Electrostatic Energy            =  -0.18 kcal/molUSER        Moving Ligand-Fixed Receptor    = -13.04 kcal/molUSER        Moving Ligand-Moving Receptor   =  +1.07 kcal/molUSER    (2) Final Total Internal Energy     =  -2.35 kcal/molUSER    (3) Torsional Free Energy           =  +3.88 kcal/molUSER    (4) Unbound System's Energy         =  -2.35 kcal/molUSERUSERREMARK SMILES COc1ccc(=O)[nH]c1C(=O)c1ccc(C(=O)N[C@@H]2CCCN(C)C[C@H]2NC(=O)c2cnc(F)c(Cl)c2)cc1REMARK SMILES IDX 16 1 17 2 18 3 15 5 12 6 13 7 39 8 14 9 38 10 10 11 11 12REMARK SMILES IDX 9 13 3 14 4 15 5 16 8 17 6 18 7 20 2 21 1 22 19 23 20 24REMARK SMILES IDX 21 25 26 27 25 28 23 29 24 30 22 31 27 33 28 34 29 36 30 37REMARK SMILES IDX 31 38 37 39 32 40 35 41 33 42 36 43 34 44REMARK H PARENT 18 4 8 19 27 35REMARK Flexibility Score:   88.900USER                              x       y       z     vdW  Elec       q    TypeUSER                           _______ _______ _______ _____ _____    ______ ____ROOTATOM      1  C   UNL     1      34.504  43.275  19.098 -0.27 -0.04    +0.251 C  ATOM      2  O   UNL     1      34.179  42.301  18.425 -0.25 +0.05    -0.269 OA ATOM      3  N   UNL     1      34.127  44.567  18.797 -0.15 +0.11    -0.347 N  ATOM      4  H   UNL     1      34.431  45.330  19.386 -0.05 -0.06    +0.164 HD ENDROOTBRANCH   1   5ATOM      5  C   UNL     1      35.355  43.100  20.304 -0.39 -0.00    +0.039 A  ATOM      6  C   UNL     1      36.973  42.861  22.591 -0.41 +0.00    +0.024 A  ATOM      7  C   UNL     1      36.907  44.074  21.891 -0.35 +0.00    +0.013 A  ATOM      8  C   UNL     1      36.247  41.758  22.117 -0.52 +0.00    +0.013 A  ATOM      9  C   UNL     1      36.108  44.192  20.750 -0.29 -0.00    +0.014 A  ATOM     10  C   UNL     1      35.440  41.878  20.979 -0.30 +0.00    +0.014 A  BRANCH   6  11ATOM     11  C   UNL     1      37.826  42.802  23.815 -0.27 +0.01    +0.213 C  ATOM     12  O   UNL     1      39.048  42.732  23.735 -0.17 -0.02    -0.287 OA BRANCH  11  13ATOM     13  C   UNL     1      37.157  42.902  25.139 -0.28 -0.00    +0.132 A  ATOM     14  C   UNL     1      36.715  44.090  25.590 -0.25 -0.00    +0.146 A  ATOM     15  C   UNL     1      36.120  44.171  26.909 -0.37 -0.01    +0.054 A  ATOM     16  C   UNL     1      35.963  43.069  27.658 -0.41 -0.02    +0.075 A  ATOM     17  N   UNL     1      36.990  41.760  25.894 -0.19 +0.05    -0.316 N  ATOM     18  C   UNL     1      36.410  41.750  27.137 -0.33 -0.07    +0.248 A  ATOM     19  H   UNL     1      37.271  40.861  25.523 -0.25 -0.05    +0.170 HD ATOM     20  O   UNL     1      36.276  40.726  27.797 -0.48 +0.11    -0.270 OA BRANCH  14  21ATOM     21  O   UNL     1      36.908  45.285  24.939 -0.51 -0.07    -0.494 OA ATOM     22  C   UNL     1      37.206  46.331  25.868 -0.22 -0.01    +0.278 C  ENDBRANCH  14  21ENDBRANCH  11  13ENDBRANCH   6  11ENDBRANCH   1   5BRANCH   3  23ATOM     23  C   UNL     1      33.269  44.890  17.640 -0.33 -0.05    +0.106 C  BRANCH  23  24ATOM     24  C   UNL     1      32.043  43.966  17.635 -0.33 -0.01    +0.028 C  BRANCH  24  25ATOM     25  C   UNL     1      31.981  43.088  16.384 -0.37 -0.01    +0.018 CG0ATOM     26  G   UNL     1      31.597  43.793  15.082 +0.00 +0.00    +0.000 G0 ENDBRANCH  24  25ENDBRANCH  23  24BRANCH  23  27ATOM     27  C   UNL     1      34.096  44.845  16.321 -0.29 -0.07    +0.118 C  BRANCH  27  28ATOM     28  C   UNL     1      33.375  45.461  15.096 -0.26 -0.10    +0.111 C  BRANCH  28  29ATOM     29  N   UNL     1      31.911  45.235  15.083 -0.21 +0.20    -0.304 NA ATOM     30  C   UNL     1      31.334  45.850  13.881 -0.53 -0.07    +0.105 C  BRANCH  29  31ATOM     31  C   UNL     1      31.604  43.797  15.090 -0.36 -0.05    +0.084 CG0ATOM     32  G   UNL     1      31.979  43.080  16.389 +0.00 +0.00    +0.000 G0 ENDBRANCH  29  31ENDBRANCH  28  29ENDBRANCH  27  28BRANCH  27  33ATOM     33  N   UNL     1      35.417  45.457  16.536 -0.10 +0.23    -0.346 N  ATOM     34  C   UNL     1      36.547  44.707  16.760 -0.22 -0.09    +0.253 C  ATOM     35  H   UNL     1      35.399  46.426  16.850 +0.09 -0.16    +0.164 HD ATOM     36  O   UNL     1      36.557  43.482  16.724 -0.25 +0.08    -0.269 OA BRANCH  34  37ATOM     37  C   UNL     1      37.795  45.447  17.077 -0.33 -0.02    +0.059 A  ATOM     38  C   UNL     1      38.535  45.049  18.188 -0.31 -0.02    +0.128 A  ATOM     39  C   UNL     1      38.287  46.507  16.310 -0.37 -0.02    +0.040 A  ATOM     40  N   UNL     1      39.694  45.632  18.584 -0.28 +0.02    -0.226 NA ATOM     41  C   UNL     1      39.478  47.124  16.692 -0.40 -0.03    +0.096 A  ATOM     42  C   UNL     1      40.139  46.660  17.824 -0.31 -0.03    +0.231 A  ATOM     43  Cl  UNL     1      40.103  48.428  15.760 -0.80 +0.02    -0.079 Cl ATOM     44  F   UNL     1      41.286  47.241  18.205 -0.19 +0.01    -0.183 F  ENDBRANCH  34  37ENDBRANCH  27  33ENDBRANCH  23  27ENDBRANCH   3  23TORSDOF 7TERENDMDL