REMARK SMILES COc1ccc(=O)[nH]c1C(=O)c1ccc(C(=O)N[C@@H]2CCCN(C)C[C@H]2NC(=O)c2cnc(F)c(Cl)c2)cc1
REMARK SMILES IDX 16 1 17 2 18 3 15 5 12 6 13 7 39 8 14 9 38 10 10 11 11 12
REMARK SMILES IDX 9 13 3 14 4 15 5 16 8 17 6 18 7 20 2 21 1 22 19 23 20 24
REMARK SMILES IDX 21 25 26 27 25 28 23 29 24 30 22 31 27 33 28 34 29 36 30 37
REMARK SMILES IDX 31 38 37 39 32 40 35 41 33 42 36 43 34 44
REMARK H PARENT 18 4 8 19 27 35
REMARK Flexibility Score:   88.900
ROOT
ATOM      1  C   UNL     1      -0.282  -0.007   1.194  1.00  0.00     0.251 C 
ATOM      2  O   UNL     1      -1.085   0.808   1.639  1.00  0.00    -0.269 OA
ATOM      3  N   UNL     1      -0.576  -1.343   1.014  1.00  0.00    -0.347 N 
ATOM      4  H   UNL     1       0.130  -1.968   0.650  1.00  0.00     0.164 HD
ENDROOT
BRANCH   1   5
ATOM      5  C   UNL     1       1.093   0.421   0.827  1.00  0.00     0.039 A 
ATOM      6  C   UNL     1       3.701   1.273   0.213  1.00  0.00     0.024 A 
ATOM      7  C   UNL     1       2.991   1.863   1.268  1.00  0.00     0.013 A 
ATOM      8  C   UNL     1       3.082   0.275  -0.554  1.00  0.00     0.013 A 
ATOM      9  C   UNL     1       1.692   1.444   1.570  1.00  0.00     0.014 A 
ATOM     10  C   UNL     1       1.784  -0.151  -0.247  1.00  0.00     0.014 A 
BRANCH   6  11
ATOM     11  C   UNL     1       5.093   1.746  -0.047  1.00  0.00     0.213 C 
ATOM     12  O   UNL     1       5.567   2.696   0.568  1.00  0.00    -0.287 OA
BRANCH  11  13
ATOM     13  C   UNL     1       5.918   0.989  -1.025  1.00  0.00     0.132 A 
ATOM     14  C   UNL     1       6.201   1.517  -2.230  1.00  0.00     0.146 A 
ATOM     15  C   UNL     1       6.957   0.735  -3.187  1.00  0.00     0.054 A 
ATOM     16  C   UNL     1       7.416  -0.485  -2.865  1.00  0.00     0.075 A 
ATOM     17  N   UNL     1       6.395  -0.258  -0.677  1.00  0.00    -0.316 N 
ATOM     18  C   UNL     1       7.142  -1.046  -1.516  1.00  0.00     0.248 A 
ATOM     19  H   UNL     1       6.229  -0.624   0.252  1.00  0.00     0.170 HD
ATOM     20  O   UNL     1       7.551  -2.155  -1.192  1.00  0.00    -0.270 OA
BRANCH  14  21
ATOM     21  O   UNL     1       5.705   2.715  -2.685  1.00  0.00    -0.494 OA
ATOM     22  C   UNL     1       6.663   3.763  -2.513  1.00  0.00     0.278 C 
ENDBRANCH  14  21
ENDBRANCH  11  13
ENDBRANCH   6  11
ENDBRANCH   1   5
BRANCH   3  23
ATOM     23  C   UNL     1      -1.905  -1.907   1.320  1.00  0.00     0.106 C 
BRANCH  23  24
ATOM     24  C   UNL     1      -1.772  -3.408   1.612  1.00  0.00     0.028 C 
BRANCH  24  25
ATOM     25  C   UNL     1      -2.826  -3.904   2.603  1.00  0.00     0.018 CG0
ATOM     26  G   UNL     1      -4.266  -3.957   2.088  1.00  0.00     0.000 G0
ENDBRANCH  24  25
ENDBRANCH  23  24
BRANCH  23  27
ATOM     27  C   UNL     1      -2.912  -1.575   0.180  1.00  0.00     0.118 C 
BRANCH  27  28
ATOM     28  C   UNL     1      -4.189  -2.452   0.182  1.00  0.00     0.111 C 
BRANCH  28  29
ATOM     29  N   UNL     1      -4.755  -2.687   1.530  1.00  0.00    -0.304 NA
ATOM     30  C   UNL     1      -6.221  -2.726   1.443  1.00  0.00     0.105 C 
BRANCH  29  31
ATOM     31  C   UNL     1      -4.266  -3.957   2.088  1.00  0.00     0.084 CG0
ATOM     32  G   UNL     1      -2.826  -3.904   2.603  1.00  0.00     0.000 G0
ENDBRANCH  29  31
ENDBRANCH  28  29
ENDBRANCH  27  28
BRANCH  27  33
ATOM     33  N   UNL     1      -3.240  -0.140   0.202  1.00  0.00    -0.346 N 
ATOM     34  C   UNL     1      -3.769   0.510  -0.887  1.00  0.00     0.253 C 
ATOM     35  H   UNL     1      -2.751   0.404   0.912  1.00  0.00     0.164 HD
ATOM     36  O   UNL     1      -4.075  -0.062  -1.927  1.00  0.00    -0.269 OA
BRANCH  34  37
ATOM     37  C   UNL     1      -3.946   1.980  -0.773  1.00  0.00     0.059 A 
ATOM     38  C   UNL     1      -4.191   2.708  -1.936  1.00  0.00     0.128 A 
ATOM     39  C   UNL     1      -3.908   2.677   0.438  1.00  0.00     0.040 A 
ATOM     40  N   UNL     1      -4.379   4.051  -1.971  1.00  0.00    -0.226 NA
ATOM     41  C   UNL     1      -4.100   4.058   0.432  1.00  0.00     0.096 A 
ATOM     42  C   UNL     1      -4.328   4.696  -0.782  1.00  0.00     0.231 A 
ATOM     43  Cl  UNL     1      -4.060   4.934   1.912  1.00  0.00    -0.079 Cl
ATOM     44  F   UNL     1      -4.517   6.024  -0.807  1.00  0.00    -0.183 F 
ENDBRANCH  34  37
ENDBRANCH  27  33
ENDBRANCH  23  27
ENDBRANCH   3  23
TORSDOF 7
