REMARK SMILES COc1ccc(=O)[nH]c1C(=O)c1ccc(C(=O)N[C@@H]2CCCN(C)C[C@H]2NC(=O)c2ccc(N3CCN(C)CC3)nc2)cc1
REMARK SMILES IDX 19 1 18 3 16 4 17 5 15 7 12 8 13 9 44 10 14 11 43 12 10 13
REMARK SMILES IDX 11 14 9 15 3 16 4 17 5 18 8 19 6 20 7 22 2 23 1 24 26 25
REMARK SMILES IDX 25 26 23 27 24 28 22 29 21 30 20 31 27 33 28 34 29 36 30 37
REMARK SMILES IDX 31 38 42 39 32 40 41 41 33 42 34 43 35 44 40 45 36 46 39 47
REMARK SMILES IDX 37 48 38 49
REMARK H PARENT 18 6 8 21 27 35
REMARK Flexibility Score:  128.900
ROOT
ATOM      1  C   UNL     1      -0.149  -1.104  -1.992  1.00  0.00     0.106 CG0
ATOM      2  G   UNL     1       0.198  -2.202  -3.013  1.00  0.00     0.000 G0
ENDROOT
BRANCH   1   3
ATOM      3  N   UNL     1      -1.592  -0.882  -1.912  1.00  0.00    -0.347 N 
ATOM      4  C   UNL     1      -2.118   0.345  -1.563  1.00  0.00     0.251 C 
ATOM      5  O   UNL     1      -1.453   1.370  -1.479  1.00  0.00    -0.269 OA
ATOM      6  H   UNL     1      -2.101  -1.697  -1.575  1.00  0.00     0.164 HD
BRANCH   4   7
ATOM      7  C   UNL     1      -3.572   0.355  -1.237  1.00  0.00     0.039 A 
ATOM      8  C   UNL     1      -6.301   0.413  -0.554  1.00  0.00     0.024 A 
ATOM      9  C   UNL     1      -5.810  -0.554  -1.444  1.00  0.00     0.013 A 
ATOM     10  C   UNL     1      -5.416   1.353  -0.009  1.00  0.00     0.013 A 
ATOM     11  C   UNL     1      -4.456  -0.581  -1.789  1.00  0.00     0.014 A 
ATOM     12  C   UNL     1      -4.060   1.328  -0.358  1.00  0.00     0.014 A 
BRANCH   8  13
ATOM     13  C   UNL     1      -7.754   0.377  -0.222  1.00  0.00     0.213 C 
ATOM     14  O   UNL     1      -8.425  -0.614  -0.503  1.00  0.00    -0.287 OA
BRANCH  13  15
ATOM     15  C   UNL     1      -8.379   1.583   0.391  1.00  0.00     0.132 A 
ATOM     16  C   UNL     1      -9.022   1.492   1.571  1.00  0.00     0.146 A 
ATOM     17  C   UNL     1      -9.610   2.679   2.156  1.00  0.00     0.054 A 
ATOM     18  C   UNL     1      -9.585   3.849   1.502  1.00  0.00     0.075 A 
ATOM     19  N   UNL     1      -8.341   2.783  -0.288  1.00  0.00    -0.316 N 
ATOM     20  C   UNL     1      -8.920   3.938   0.176  1.00  0.00     0.248 A 
ATOM     21  H   UNL     1      -7.898   2.841  -1.198  1.00  0.00     0.170 HD
ATOM     22  O   UNL     1      -8.888   4.988  -0.451  1.00  0.00    -0.270 OA
BRANCH  16  23
ATOM     23  O   UNL     1      -9.063   0.355   2.345  1.00  0.00    -0.494 OA
ATOM     24  C   UNL     1     -10.312  -0.326   2.201  1.00  0.00     0.278 C 
ENDBRANCH  16  23
ENDBRANCH  13  15
ENDBRANCH   8  13
ENDBRANCH   4   7
ENDBRANCH   1   3
BRANCH   1  25
ATOM     25  C   UNL     1       0.456  -1.350  -0.582  1.00  0.00     0.118 C 
BRANCH  25  26
ATOM     26  C   UNL     1       0.123  -2.744   0.025  1.00  0.00     0.111 C 
BRANCH  26  27
ATOM     27  N   UNL     1      -1.083  -3.430  -0.512  1.00  0.00    -0.304 NA
ATOM     28  C   UNL     1      -1.621  -4.315   0.531  1.00  0.00     0.105 C 
BRANCH  27  29
ATOM     29  C   UNL     1      -0.720  -4.238  -1.693  1.00  0.00     0.084 C 
BRANCH  29  30
ATOM     30  C   UNL     1      -0.698  -3.441  -2.996  1.00  0.00     0.018 C 
BRANCH  30  31
ATOM     31  C   UNL     1       0.198  -2.202  -3.013  1.00  0.00     0.028 CG0
ATOM     32  G   UNL     1      -0.149  -1.104  -1.992  1.00  0.00     0.000 G0
ENDBRANCH  30  31
ENDBRANCH  29  30
ENDBRANCH  27  29
ENDBRANCH  26  27
ENDBRANCH  25  26
BRANCH  25  33
ATOM     33  N   UNL     1       1.909  -1.097  -0.577  1.00  0.00    -0.346 N 
ATOM     34  C   UNL     1       2.614  -1.033   0.609  1.00  0.00     0.253 C 
ATOM     35  H   UNL     1       2.290  -0.590  -1.367  1.00  0.00     0.164 HD
ATOM     36  O   UNL     1       2.136  -1.307   1.702  1.00  0.00    -0.269 OA
BRANCH  34  37
ATOM     37  C   UNL     1       4.019  -0.589   0.514  1.00  0.00     0.058 A 
ATOM     38  C   UNL     1       4.835  -0.858  -0.579  1.00  0.00     0.019 A 
ATOM     39  C   UNL     1       4.583   0.087   1.580  1.00  0.00     0.127 A 
ATOM     40  C   UNL     1       6.165  -0.426  -0.560  1.00  0.00     0.048 A 
ATOM     41  N   UNL     1       5.866   0.531   1.600  1.00  0.00    -0.239 NA
ATOM     42  C   UNL     1       6.664   0.288   0.534  1.00  0.00     0.128 A 
BRANCH  42  43
ATOM     43  N   UNL     1       8.005   0.707   0.570  1.00  0.00    -0.354 N 
ATOM     44  C   UNL     1       8.490   1.396  -0.643  1.00  0.00     0.133 C 
ATOM     45  C   UNL     1       8.352   1.410   1.828  1.00  0.00     0.133 C 
ATOM     46  C   UNL     1       9.994   1.748  -0.521  1.00  0.00     0.105 C 
ATOM     47  C   UNL     1       9.858   1.761   1.875  1.00  0.00     0.105 C 
ATOM     48  N   UNL     1      10.382   2.490   0.696  1.00  0.00    -0.303 NA
ATOM     49  C   UNL     1       9.903   3.871   0.666  1.00  0.00     0.105 C 
ENDBRANCH  42  43
ENDBRANCH  34  37
ENDBRANCH  25  33
ENDBRANCH   1  25
TORSDOF 8
