MODEL        3USER    Run = 3USERUSER    Estimated Free Energy of Binding    = -12.90 kcal/mol  [=(1)+(2)+(3)-(4)]USERUSER    (1) Final Intermolecular Energy     = -14.98 kcal/molUSER        vdW + Hbond + desolv Energy     = -14.87 kcal/molUSER        Electrostatic Energy            =  -0.11 kcal/molUSER        Moving Ligand-Fixed Receptor    = -14.98 kcal/molUSER        Moving Ligand-Moving Receptor   =  +0.00 kcal/molUSER    (2) Final Total Internal Energy     =  -2.33 kcal/molUSER    (3) Torsional Free Energy           =  +2.09 kcal/molUSER    (4) Unbound System's Energy         =  -2.33 kcal/molUSERUSERREMARK SMILES Oc1nc2ccccc2n1C1CCN(Cc2ccc(-c3nc4cc(F)ccc4nc3-c3ccc(N4CCOCC4)cc3)cc2)CC1REMARK SMILES IDX 15 1 14 2 11 3 12 4 46 5 13 6 45 7 10 8 2 9 3 10 4 11 9 12REMARK SMILES IDX 5 13 8 14 6 15 7 16 1 17 16 19 17 20 44 21 18 22 43 23 19 24REMARK SMILES IDX 20 25 21 26 30 27 22 28 29 29 23 30 28 31 24 32 27 33 26 34REMARK SMILES IDX 25 35 31 36 32 37 42 38 33 39 41 40 34 41 35 42 36 43 40 44REMARK SMILES IDX 37 45 39 46 38 47REMARK H PARENT 1 18USER                              x       y       z     vdW  Elec       q    TypeUSER                           _______ _______ _______ _____ _____    ______ ____ROOTATOM      1  C   UNL     1      36.448  47.571  14.707 -0.32 -0.10    +0.120 C  ENDROOTBRANCH   1   2ATOM      2  N   UNL     1      37.632  47.134  13.945 -0.26 +0.12    -0.299 NA ATOM      3  C   UNL     1      40.029  47.178  15.648 -0.49 -0.02    +0.095 C  ATOM      4  C   UNL     1      38.966  46.080  15.793 -0.42 -0.01    +0.041 C  ATOM      5  C   UNL     1      39.439  48.469  15.069 -0.59 -0.02    +0.041 C  ATOM      6  C   UNL     1      38.205  45.893  14.481 -0.41 -0.03    +0.087 C  ATOM      7  C   UNL     1      38.657  48.174  13.789 -0.41 -0.03    +0.087 C  BRANCH   3   8ATOM      8  N   UNL     1      40.789  47.407  16.871 -0.30 +0.04    -0.291 N  ATOM      9  C   UNL     1      41.504  48.546  17.167 -0.03 -0.00    +0.295 A  ATOM     10  N   UNL     1      42.181  48.431  18.279 -0.41 -0.00    -0.195 NA ATOM     11  C   UNL     1      41.860  47.193  18.768 -0.45 +0.00    +0.092 A  ATOM     12  C   UNL     1      40.979  46.524  17.916 -0.46 -0.00    +0.072 A  ATOM     13  C   UNL     1      42.291  46.573  19.949 -0.41 +0.01    +0.031 A  ATOM     14  C   UNL     1      40.501  45.238  18.207 -0.42 -0.00    +0.029 A  ATOM     15  C   UNL     1      41.824  45.290  20.252 -0.32 +0.00    +0.002 A  ATOM     16  C   UNL     1      40.941  44.636  19.393 -0.40 +0.00    +0.002 A  BRANCH   9  17ATOM     17  O   UNL     1      41.541  49.648  16.437 -0.88 -0.03    -0.480 OA ATOM     18  H   UNL     1      41.648  50.400  17.034 -0.05 -0.01    +0.296 HD ENDBRANCH   9  17ENDBRANCH   3   8ENDBRANCH   1   2BRANCH   1  19ATOM     19  C   UNL     1      35.762  46.447  15.457 -0.32 +0.03    -0.034 A  ATOM     20  C   UNL     1      35.342  45.293  14.786 -0.31 -0.00    +0.006 A  ATOM     21  C   UNL     1      35.513  46.554  16.831 -0.32 -0.01    +0.006 A  ATOM     22  C   UNL     1      34.711  44.258  15.482 -0.14 -0.01    +0.011 A  ATOM     23  C   UNL     1      34.882  45.516  17.525 -0.37 -0.01    +0.011 A  ATOM     24  C   UNL     1      34.486  44.340  16.867 -0.31 -0.00    +0.002 A  BRANCH  24  25ATOM     25  C   UNL     1      33.841  43.226  17.585 -0.26 -0.03    +0.097 A  ATOM     26  N   UNL     1      32.738  42.729  16.955 -0.17 +0.10    -0.244 NA ATOM     27  C   UNL     1      34.271  42.700  18.814 -0.33 -0.01    +0.097 A  ATOM     28  C   UNL     1      32.060  41.743  17.568 -0.28 -0.03    +0.092 A  ATOM     29  N   UNL     1      33.573  41.709  19.437 -0.31 -0.01    -0.244 NA ATOM     30  C   UNL     1      30.927  41.219  16.968 -0.27 -0.02    +0.069 A  ATOM     31  C   UNL     1      32.480  41.234  18.820 -0.32 -0.00    +0.090 A  ATOM     32  C   UNL     1      30.209  40.203  17.584 -0.27 -0.00    +0.125 A  ATOM     33  C   UNL     1      31.747  40.215  19.419 -0.33 +0.00    +0.033 A  ATOM     34  C   UNL     1      30.608  39.693  18.808 -0.32 +0.00    +0.041 A  ATOM     35  F   UNL     1      29.117  39.709  16.988 -0.10 -0.05    -0.207 F  BRANCH  27  36ATOM     36  C   UNL     1      35.485  43.117  19.538 -0.42 -0.00    +0.003 A  ATOM     37  C   UNL     1      35.567  42.977  20.929 -0.25 +0.00    +0.012 A  ATOM     38  C   UNL     1      36.601  43.649  18.884 -0.30 -0.00    +0.012 A  ATOM     39  C   UNL     1      36.711  43.373  21.640 -0.39 +0.00    +0.026 A  ATOM     40  C   UNL     1      37.741  44.041  19.600 -0.32 -0.00    +0.026 A  ATOM     41  C   UNL     1      37.836  43.901  20.994 -0.34 +0.00    +0.037 A  BRANCH  41  42ATOM     42  N   UNL     1      38.987  44.318  21.661 -0.10 -0.01    -0.367 N  ATOM     43  C   UNL     1      39.652  43.319  22.535 -0.24 +0.01    +0.145 C  ATOM     44  C   UNL     1      39.079  45.678  22.238 -0.29 +0.01    +0.145 C  ATOM     45  C   UNL     1      39.105  43.417  23.969 -0.18 +0.01    +0.181 C  ATOM     46  C   UNL     1      38.576  45.701  23.691 -0.25 +0.02    +0.181 C  ATOM     47  O   UNL     1      39.271  44.741  24.505 -0.04 -0.01    -0.378 OA ENDBRANCH  41  42ENDBRANCH  27  36ENDBRANCH  24  25ENDBRANCH   1  19TORSDOF 7TERENDMDL