MODEL        5USER    Run = 5USERUSER    Estimated Free Energy of Binding    =  -7.39 kcal/mol  [=(1)+(2)+(3)-(4)]USERUSER    (1) Final Intermolecular Energy     = -11.57 kcal/molUSER        vdW + Hbond + desolv Energy     = -11.73 kcal/molUSER        Electrostatic Energy            =  -0.12 kcal/molUSER        Moving Ligand-Fixed Receptor    = -11.85 kcal/molUSER        Moving Ligand-Moving Receptor   =  +0.29 kcal/molUSER    (2) Final Total Internal Energy     =  -2.61 kcal/molUSER    (3) Torsional Free Energy           =  +4.18 kcal/molUSER    (4) Unbound System's Energy         =  -2.61 kcal/molUSERUSERREMARK SMILES COc1ccc(=O)[nH]c1C(=O)c1ccc(C(=O)N[C@@H]2CCCN(C)C[C@H]2NC(=O)c2ccc(N3CCN(C)CC3)nc2)cc1REMARK SMILES IDX 19 1 18 3 16 4 17 5 15 7 12 8 13 9 44 10 14 11 43 12 10 13REMARK SMILES IDX 11 14 9 15 3 16 4 17 5 18 8 19 6 20 7 22 2 23 1 24 26 25REMARK SMILES IDX 25 26 23 27 24 28 22 29 21 30 20 31 27 33 28 34 29 36 30 37REMARK SMILES IDX 31 38 42 39 32 40 41 41 33 42 34 43 35 44 40 45 36 46 39 47REMARK SMILES IDX 37 48 38 49REMARK H PARENT 18 6 8 21 27 35REMARK Flexibility Score:  128.900USER                              x       y       z     vdW  Elec       q    TypeUSER                           _______ _______ _______ _____ _____    ______ ____ROOTATOM      1  C   UNL     1      38.674  45.152  16.904 -0.25 -0.02    +0.106 CG0ATOM      2  G   UNL     1      38.756  45.603  15.435 +0.00 +0.00    +0.000 G0 ENDROOTBRANCH   1   3ATOM      3  N   UNL     1      39.812  45.643  17.681 -0.19 +0.04    -0.347 N  ATOM      4  C   UNL     1      40.593  44.794  18.438 -0.30 +0.00    +0.251 C  ATOM      5  O   UNL     1      40.523  43.573  18.377 -0.20 -0.01    -0.269 OA ATOM      6  H   UNL     1      39.655  46.571  18.071 +0.09 -0.03    +0.164 HD BRANCH   4   7ATOM      7  C   UNL     1      41.522  45.455  19.397 -0.37 +0.00    +0.039 A  ATOM      8  C   UNL     1      43.305  46.746  21.148 -0.34 +0.01    +0.024 A  ATOM      9  C   UNL     1      42.788  45.481  21.465 -0.22 +0.00    +0.013 A  ATOM     10  C   UNL     1      42.922  47.362  19.949 -0.44 +0.00    +0.013 A  ATOM     11  C   UNL     1      41.897  44.841  20.599 -0.26 +0.00    +0.014 A  ATOM     12  C   UNL     1      42.027  46.721  19.084 -0.51 +0.00    +0.014 A  BRANCH   8  13ATOM     13  C   UNL     1      44.258  47.367  22.112 -0.26 +0.09    +0.213 C  ATOM     14  O   UNL     1      45.469  47.207  21.971 -0.77 -0.29    -0.287 OA BRANCH  13  15ATOM     15  C   UNL     1      43.711  48.123  23.275 -0.26 +0.03    +0.132 A  ATOM     16  C   UNL     1      42.384  48.155  23.503 -0.28 +0.03    +0.146 A  ATOM     17  C   UNL     1      41.874  48.884  24.646 -0.35 +0.01    +0.054 A  ATOM     18  C   UNL     1      42.701  49.585  25.435 -0.11 +0.01    +0.075 A  ATOM     19  N   UNL     1      44.572  48.835  24.084 -0.16 -0.08    -0.316 N  ATOM     20  C   UNL     1      44.160  49.591  25.153 -0.19 +0.04    +0.248 A  ATOM     21  H   UNL     1      45.566  48.849  23.884 +0.04 +0.04    +0.170 HD ATOM     22  O   UNL     1      44.940  50.228  25.848 -0.24 -0.01    -0.270 OA BRANCH  16  23ATOM     23  O   UNL     1      41.457  47.433  22.786 -0.05 -0.06    -0.494 OA ATOM     24  C   UNL     1      40.314  47.119  23.585 -0.17 +0.03    +0.278 C  ENDBRANCH  16  23ENDBRANCH  13  15ENDBRANCH   8  13ENDBRANCH   4   7ENDBRANCH   1   3BRANCH   1  25ATOM     25  C   UNL     1      37.330  45.516  17.594 -0.34 -0.04    +0.118 C  BRANCH  25  26ATOM     26  C   UNL     1      36.069  45.260  16.718 -0.32 -0.06    +0.111 C  BRANCH  26  27ATOM     27  N   UNL     1      35.887  46.153  15.542 -0.16 +0.24    -0.304 NA ATOM     28  C   UNL     1      36.186  45.388  14.323 -0.38 -0.05    +0.105 C  BRANCH  27  29ATOM     29  C   UNL     1      36.809  47.302  15.632 -0.40 -0.07    +0.084 C  BRANCH  29  30ATOM     30  C   UNL     1      38.218  46.996  15.126 -0.48 -0.01    +0.018 C  BRANCH  30  31ATOM     31  C   UNL     1      38.756  45.598  15.434 -0.32 -0.01    +0.028 CG0ATOM     32  G   UNL     1      38.674  45.152  16.905 +0.00 +0.00    +0.000 G0 ENDBRANCH  30  31ENDBRANCH  29  30ENDBRANCH  27  29ENDBRANCH  26  27ENDBRANCH  25  26BRANCH  25  33ATOM     33  N   UNL     1      37.212  44.856  18.908 -0.13 +0.05    -0.346 N  ATOM     34  C   UNL     1      38.026  45.223  19.962 +0.15 -0.01    +0.253 C  ATOM     35  H   UNL     1      36.846  43.912  18.916 +0.11 -0.02    +0.164 HD ATOM     36  O   UNL     1      38.786  46.182  19.934 -0.06 +0.00    -0.269 OA BRANCH  34  37ATOM     37  C   UNL     1      37.958  44.376  21.169 -0.34 +0.00    +0.058 A  ATOM     38  C   UNL     1      37.375  43.114  21.187 -0.36 +0.00    +0.019 A  ATOM     39  C   UNL     1      38.449  44.869  22.363 -0.27 +0.01    +0.127 A  ATOM     40  C   UNL     1      37.327  42.402  22.390 -0.42 +0.00    +0.048 A  ATOM     41  N   UNL     1      38.428  44.178  23.532 -0.15 -0.02    -0.239 NA ATOM     42  C   UNL     1      37.878  42.942  23.557 -0.27 +0.01    +0.128 A  BRANCH  42  43ATOM     43  N   UNL     1      37.814  42.242  24.774 -0.12 -0.01    -0.354 N  ATOM     44  C   UNL     1      39.070  42.199  25.550 -0.09 +0.00    +0.133 C  ATOM     45  C   UNL     1      36.630  42.610  25.586 -0.37 -0.01    +0.133 C  ATOM     46  C   UNL     1      38.904  41.345  26.833 -0.32 -0.00    +0.105 C  ATOM     47  C   UNL     1      36.538  41.746  26.865 -0.48 -0.03    +0.105 C  ATOM     48  N   UNL     1      37.762  41.705  27.699 -0.23 +0.05    -0.303 NA ATOM     49  C   UNL     1      37.982  42.976  28.387 -0.20 -0.02    +0.105 C  ENDBRANCH  42  43ENDBRANCH  34  37ENDBRANCH  25  33ENDBRANCH   1  25TORSDOF 8TERENDMDL