MODEL        6USER    Run = 6USERUSER    Estimated Free Energy of Binding    =  -8.21 kcal/mol  [=(1)+(2)+(3)-(4)]USERUSER    (1) Final Intermolecular Energy     = -10.59 kcal/molUSER        vdW + Hbond + desolv Energy     = -10.43 kcal/molUSER        Electrostatic Energy            =  -0.17 kcal/molUSER        Moving Ligand-Fixed Receptor    = -10.59 kcal/molUSER        Moving Ligand-Moving Receptor   =  +0.00 kcal/molUSER    (2) Final Total Internal Energy     =  -1.46 kcal/molUSER    (3) Torsional Free Energy           =  +2.39 kcal/molUSER    (4) Unbound System's Energy         =  -1.46 kcal/molUSERUSERREMARK SMILES OCCOCCNc1nccc(-c2cnc3ccccc3c2F)n1REMARK SMILES IDX 5 1 4 2 3 3 2 4 1 5 6 7 7 8 8 10 9 11 24 12 10 13 12 14REMARK SMILES IDX 11 15 13 16 14 17 22 18 15 19 21 20 16 21 20 22 17 23 19 24REMARK SMILES IDX 18 25 23 26REMARK H PARENT 1 6 7 9USER                              x       y       z     vdW  Elec       q    TypeUSER                           _______ _______ _______ _____ _____    ______ ____ROOTATOM      1  C   UNL     1      41.057  49.555  15.440 -0.59 -0.04    +0.181 C  ENDROOTBRANCH   1   2ATOM      2  O   UNL     1      41.445  48.867  16.638 -0.90 -0.01    -0.377 OA BRANCH   2   3ATOM      3  C   UNL     1      40.608  47.744  16.939 -0.45 -0.03    +0.188 C  BRANCH   3   4ATOM      4  C   UNL     1      41.110  46.929  18.132 -0.45 -0.01    +0.184 C  BRANCH   4   5ATOM      5  O   UNL     1      42.487  47.206  18.387 -0.34 -0.00    -0.394 OA ATOM      6  H   UNL     1      42.866  47.534  17.554 -0.45 -0.05    +0.210 HD ENDBRANCH   4   5ENDBRANCH   3   4ENDBRANCH   2   3ENDBRANCH   1   2BRANCH   1   7ATOM      7  C   UNL     1      40.248  48.595  14.556 -0.47 -0.04    +0.144 C  BRANCH   7   8ATOM      8  N   UNL     1      38.809  48.787  14.717 -0.21 +0.19    -0.352 N  ATOM      9  H   UNL     1      38.473  49.620  14.239 -0.40 -0.15    +0.163 HD BRANCH   8  10ATOM     10  C   UNL     1      38.014  47.743  14.274 -0.34 -0.10    +0.223 A  ATOM     11  N   UNL     1      37.663  47.656  12.986 -0.87 +0.05    -0.222 NA ATOM     12  N   UNL     1      37.627  46.869  15.210 -0.24 +0.11    -0.213 NA ATOM     13  C   UNL     1      36.895  46.613  12.637 -0.53 -0.04    +0.117 A  ATOM     14  C   UNL     1      36.858  45.820  14.836 -0.33 -0.04    +0.080 A  ATOM     15  C   UNL     1      36.458  45.662  13.524 -0.44 -0.02    +0.049 A  BRANCH  14  16ATOM     16  C   UNL     1      36.474  44.907  15.925 -0.31 -0.02    +0.055 A  ATOM     17  C   UNL     1      35.655  43.807  15.690 -0.28 -0.05    +0.125 A  ATOM     18  C   UNL     1      36.875  45.056  17.254 -0.25 -0.05    +0.143 A  ATOM     19  N   UNL     1      35.263  42.904  16.625 -0.27 +0.10    -0.255 NA ATOM     20  C   UNL     1      36.492  44.156  18.264 -0.30 -0.01    +0.037 A  ATOM     21  C   UNL     1      35.674  43.078  17.889 -0.28 -0.02    +0.073 A  ATOM     22  C   UNL     1      36.896  44.303  19.606 -0.37 -0.00    +0.013 A  ATOM     23  C   UNL     1      35.284  42.174  18.870 -0.37 -0.00    +0.029 A  ATOM     24  C   UNL     1      36.492  43.384  20.571 -0.43 -0.00    +0.001 A  ATOM     25  C   UNL     1      35.685  42.316  20.202 -0.46 -0.00    +0.002 A  ATOM     26  F   UNL     1      37.646  46.102  17.604 -0.10 +0.07    -0.205 F  ENDBRANCH  14  16ENDBRANCH   8  10ENDBRANCH   7   8ENDBRANCH   1   7TORSDOF 8TERENDMDL