REMARK SMILES CCc1ncccc1N=CCC(=CN)c1cc(OC)cc(OC)c1
REMARK SMILES IDX 10 1 9 2 8 3 3 4 4 5 5 6 7 7 6 8 2 9 1 10 11 11 12 12 13 13
REMARK SMILES IDX 14 14 15 17 16 18 24 19 17 20 21 21 20 22 18 23 19 24 22 25
REMARK SMILES IDX 23 26
REMARK H PARENT 14 15 14 16
ROOT
ATOM      1  C   UNL     1       1.636   0.015  -0.536  1.00  0.00     0.089 C 
ENDROOT
BRANCH   1   2
ATOM      2  N   UNL     1       2.521  -0.403  -1.387  1.00  0.00    -0.259 NA
BRANCH   2   3
ATOM      3  C   UNL     1       3.839  -0.489  -0.903  1.00  0.00     0.084 A 
ATOM      4  C   UNL     1       4.786   0.531  -1.092  1.00  0.00     0.066 A 
ATOM      5  N   UNL     1       6.059   0.450  -0.614  1.00  0.00    -0.259 NA
ATOM      6  C   UNL     1       6.414  -0.685   0.023  1.00  0.00     0.111 A 
ATOM      7  C   UNL     1       4.254  -1.650  -0.248  1.00  0.00     0.032 A 
ATOM      8  C   UNL     1       5.558  -1.756   0.224  1.00  0.00     0.022 A 
BRANCH   4   9
ATOM      9  C   UNL     1       4.394   1.783  -1.846  1.00  0.00     0.055 C 
ATOM     10  C   UNL     1       5.555   2.719  -2.171  1.00  0.00     0.011 C 
ENDBRANCH   4   9
ENDBRANCH   2   3
ENDBRANCH   1   2
BRANCH   1  11
ATOM     11  C   UNL     1       0.182   0.142  -0.931  1.00  0.00     0.085 C 
BRANCH  11  12
ATOM     12  C   UNL     1      -0.672  -0.863  -0.197  1.00  0.00    -0.020 C 
BRANCH  12  13
ATOM     13  C   UNL     1      -0.312  -2.139   0.035  1.00  0.00     0.079 C 
BRANCH  13  14
ATOM     14  N   UNL     1      -1.011  -3.121   0.695  1.00  0.00    -0.404 N 
ATOM     15  H   UNL     1      -0.873  -4.048   0.301  1.00  0.00     0.156 HD
ATOM     16  H   UNL     1      -1.999  -2.902   0.803  1.00  0.00     0.156 HD
ENDBRANCH  13  14
ENDBRANCH  12  13
BRANCH  12  17
ATOM     17  C   UNL     1      -1.983  -0.357   0.247  1.00  0.00    -0.013 A 
ATOM     18  C   UNL     1      -2.154   0.142   1.542  1.00  0.00     0.055 A 
ATOM     19  C   UNL     1      -3.072  -0.374  -0.633  1.00  0.00     0.055 A 
ATOM     20  C   UNL     1      -3.396   0.633   1.954  1.00  0.00     0.123 A 
ATOM     21  C   UNL     1      -4.322   0.101  -0.227  1.00  0.00     0.123 A 
ATOM     22  C   UNL     1      -4.480   0.609   1.068  1.00  0.00     0.092 A 
BRANCH  20  23
ATOM     23  O   UNL     1      -3.417   1.106   3.239  1.00  0.00    -0.497 OA
ATOM     24  C   UNL     1      -4.647   1.652   3.704  1.00  0.00     0.278 C 
ENDBRANCH  20  23
BRANCH  21  25
ATOM     25  O   UNL     1      -5.299   0.012  -1.185  1.00  0.00    -0.497 OA
ATOM     26  C   UNL     1      -6.604   0.448  -0.819  1.00  0.00     0.278 C 
ENDBRANCH  21  25
ENDBRANCH  12  17
ENDBRANCH  11  12
ENDBRANCH   1  11
TORSDOF 10
