REMARK SMILES Nc1ncc(-c2ccccc2)cc1C(=O)N(CCO)c1cccc(Cl)c1
REMARK SMILES IDX 16 1 14 2 15 3 13 4 2 5 3 6 4 7 12 8 5 9 1 10 6 13 7 14
REMARK SMILES IDX 11 15 8 16 10 17 9 18 17 19 18 20 19 21 20 23 21 24 26 25
REMARK SMILES IDX 22 26 24 27 23 28 25 29
REMARK H PARENT 1 11 1 12 19 22
ROOT
ATOM      1  N   UNL     1      -1.935  -0.837  -0.675  1.00  0.00    -0.306 N 
ENDROOT
BRANCH   1   2
ATOM      2  C   UNL     1      -1.239  -1.882  -0.040  1.00  0.00     0.262 C 
ATOM      3  O   UNL     1      -1.685  -3.027   0.041  1.00  0.00    -0.269 OA
BRANCH   2   4
ATOM      4  C   UNL     1       0.134  -1.640   0.475  1.00  0.00     0.083 A 
ATOM      5  C   UNL     1       0.572  -2.258   1.652  1.00  0.00     0.136 A 
ATOM      6  N   UNL     1       1.807  -2.040   2.143  1.00  0.00    -0.238 NA
ATOM      7  C   UNL     1       2.644  -1.240   1.436  1.00  0.00     0.122 A 
ATOM      8  C   UNL     1       1.030  -0.837  -0.247  1.00  0.00     0.028 A 
ATOM      9  C   UNL     1       2.322  -0.611   0.236  1.00  0.00     0.001 A 
BRANCH   5  10
ATOM     10  N   UNL     1      -0.253  -3.090   2.424  1.00  0.00    -0.383 N 
ATOM     11  H   UNL     1      -0.661  -3.790   1.797  1.00  0.00     0.158 HD
ATOM     12  H   UNL     1      -1.040  -2.562   2.786  1.00  0.00     0.158 HD
ENDBRANCH   5  10
BRANCH   9  13
ATOM     13  C   UNL     1       3.280   0.243  -0.480  1.00  0.00    -0.017 A 
ATOM     14  C   UNL     1       3.555   0.040  -1.843  1.00  0.00     0.009 A 
ATOM     15  C   UNL     1       3.946   1.292   0.177  1.00  0.00     0.009 A 
ATOM     16  C   UNL     1       4.463   0.854  -2.524  1.00  0.00     0.001 A 
ATOM     17  C   UNL     1       4.854   2.108  -0.504  1.00  0.00     0.001 A 
ATOM     18  C   UNL     1       5.112   1.888  -1.855  1.00  0.00     0.000 A 
ENDBRANCH   9  13
ENDBRANCH   2   4
ENDBRANCH   1   2
BRANCH   1  19
ATOM     19  C   UNL     1      -3.061  -1.242  -1.532  1.00  0.00     0.154 C 
BRANCH  19  20
ATOM     20  C   UNL     1      -4.371  -1.418  -0.759  1.00  0.00     0.178 C 
BRANCH  20  21
ATOM     21  O   UNL     1      -5.429  -1.704  -1.669  1.00  0.00    -0.395 OA
ATOM     22  H   UNL     1      -6.218  -1.897  -1.133  1.00  0.00     0.210 HD
ENDBRANCH  20  21
ENDBRANCH  19  20
ENDBRANCH   1  19
BRANCH   1  23
ATOM     23  C   UNL     1      -1.864   0.539  -0.271  1.00  0.00     0.046 A 
ATOM     24  C   UNL     1      -1.545   0.895   1.050  1.00  0.00     0.026 A 
ATOM     25  C   UNL     1      -2.140   1.567  -1.182  1.00  0.00     0.046 A 
ATOM     26  C   UNL     1      -1.480   2.236   1.443  1.00  0.00     0.004 A 
ATOM     27  C   UNL     1      -2.073   2.906  -0.786  1.00  0.00     0.043 A 
ATOM     28  C   UNL     1      -1.742   3.245   0.522  1.00  0.00     0.020 A 
ATOM     29  Cl  UNL     1      -2.396   4.150  -1.931  1.00  0.00    -0.084 Cl
ENDBRANCH   1  23
TORSDOF 8
