MODEL        3USER    Run = 3USERUSER    Estimated Free Energy of Binding    =  -6.24 kcal/mol  [=(1)+(2)+(3)-(4)]USERUSER    (1) Final Intermolecular Energy     = -10.41 kcal/molUSER        vdW + Hbond + desolv Energy     = -10.65 kcal/molUSER        Electrostatic Energy            =  -0.04 kcal/molUSER        Moving Ligand-Fixed Receptor    = -10.69 kcal/molUSER        Moving Ligand-Moving Receptor   =  +0.27 kcal/molUSER    (2) Final Total Internal Energy     =  -1.34 kcal/molUSER    (3) Torsional Free Energy           =  +4.18 kcal/molUSER    (4) Unbound System's Energy         =  -1.34 kcal/molUSERUSERREMARK SMILES CC1=NC=CC(C=Cc2c(N)cccc2CN2CCOCC2)=CC=C1OClREMARK SMILES IDX 6 1 5 2 4 3 3 4 2 5 1 6 7 8 8 9 9 10 10 11 15 12 12 13 14 14REMARK SMILES IDX 13 15 11 16 16 19 17 20 18 21 22 22 19 23 21 24 20 25 23 26REMARK SMILES IDX 24 27 25 28 26 30 27 31REMARK H PARENT 11 17 11 18REMARK Flexibility Score:  169.900USER                              x       y       z     vdW  Elec       q    TypeUSER                           _______ _______ _______ _____ _____    ______ ____ROOTATOM      1  C   UNL     1      38.487  46.824  15.897 -0.46 +0.01    -0.024 C  ENDROOTBRANCH   1   2ATOM      2  C   UNL     1      38.161  48.174  15.443 -0.54 -0.02    +0.028 C  BRANCH   2   3ATOM      3  C   UNL     1      38.117  48.587  14.168 -0.43 -0.06    +0.112 C  BRANCH   3   4ATOM      4  N   UNL     1      37.098  48.383  13.278 -0.72 +0.10    -0.258 NA BRANCH   4   5ATOM      5  C   UNL     1      36.587  47.198  13.150 -0.62 -0.04    +0.081 CG0ATOM      6  C   UNL     1      35.074  47.125  13.126 -0.17 -0.05    +0.071 C  ATOM      7  G   UNL     1      37.291  45.881  12.977 +0.00 +0.00    +0.000 G0 ENDBRANCH   4   5ENDBRANCH   3   4ENDBRANCH   2   3ENDBRANCH   1   2BRANCH   1   8ATOM      8  C   UNL     1      38.671  46.508  17.313 -0.44 -0.00    +0.009 C  BRANCH   8   9ATOM      9  C   UNL     1      39.635  45.708  17.797 -0.49 -0.00    +0.011 C  BRANCH   9  10ATOM     10  C   UNL     1      40.709  46.216  18.672 -0.48 -0.00    +0.002 A  ATOM     11  C   UNL     1      41.478  47.333  18.254 -0.50 -0.00    +0.039 A  ATOM     12  C   UNL     1      40.975  45.591  19.919 -0.39 -0.00    -0.025 A  ATOM     13  C   UNL     1      42.543  47.765  19.053 -0.45 +0.00    +0.026 A  ATOM     14  C   UNL     1      42.040  46.078  20.699 -0.35 +0.00    +0.006 A  ATOM     15  C   UNL     1      42.814  47.155  20.274 -0.41 +0.00    +0.003 A  BRANCH  11  16ATOM     16  N   UNL     1      41.363  47.878  16.961 -0.19 +0.04    -0.398 N  ATOM     17  H   UNL     1      40.652  48.598  16.877 +0.10 -0.03    +0.156 HD ATOM     18  H   UNL     1      42.246  48.146  16.541 -0.40 +0.01    +0.156 HD ENDBRANCH  11  16BRANCH  12  19ATOM     19  C   UNL     1      40.193  44.387  20.422 -0.31 +0.00    +0.120 C  BRANCH  19  20ATOM     20  N   UNL     1      39.033  44.641  21.284 -0.16 -0.01    -0.294 NA ATOM     21  C   UNL     1      39.289  45.542  22.415 -0.30 +0.01    +0.113 C  ATOM     22  C   UNL     1      38.238  43.471  21.675 -0.30 +0.00    +0.113 C  ATOM     23  C   UNL     1      38.094  45.563  23.381 -0.19 +0.02    +0.175 C  ATOM     24  C   UNL     1      38.288  43.182  23.185 -0.26 +0.01    +0.175 C  ATOM     25  O   UNL     1      37.836  44.286  23.984 -0.15 -0.03    -0.379 OA ENDBRANCH  19  20ENDBRANCH  12  19ENDBRANCH   9  10ENDBRANCH   8   9ENDBRANCH   1   8BRANCH   1  26ATOM     26  C   UNL     1      38.778  45.859  14.996 -0.44 -0.00    +0.012 C  BRANCH  26  27ATOM     27  C   UNL     1      37.864  45.269  14.036 -0.39 -0.02    +0.051 C  BRANCH  27  28ATOM     28  C   UNL     1      37.290  45.881  12.981 -0.43 -0.06    +0.167 CG0ATOM     29  G   UNL     1      36.587  47.199  13.149 +0.00 +0.00    +0.000 G0 BRANCH  28  30ATOM     30  O   UNL     1      37.273  45.384  11.689 -0.25 +0.11    -0.384 OA ATOM     31  Cl  UNL     1      37.269  43.706  11.556 -0.52 -0.04    +0.135 Cl ENDBRANCH  28  30ENDBRANCH  27  28ENDBRANCH  26  27ENDBRANCH   1  26TORSDOF 7TERENDMDL