MODEL        4USER    Run = 4USERUSER    Estimated Free Energy of Binding    =  -5.12 kcal/mol  [=(1)+(2)+(3)-(4)]USERUSER    (1) Final Intermolecular Energy     =  -7.51 kcal/molUSER        vdW + Hbond + desolv Energy     =  -8.05 kcal/molUSER        Electrostatic Energy            =  -0.06 kcal/molUSER        Moving Ligand-Fixed Receptor    =  -8.11 kcal/molUSER        Moving Ligand-Moving Receptor   =  +0.60 kcal/molUSER    (2) Final Total Internal Energy     =  -0.95 kcal/molUSER    (3) Torsional Free Energy           =  +2.39 kcal/molUSER    (4) Unbound System's Energy         =  -0.95 kcal/molUSERUSERREMARK SMILES CNC1=C(c2ccco2)N=Nc2c(Cl)ccnc2N=C1NREMARK SMILES IDX 10 1 4 2 3 3 2 5 1 6 5 8 6 9 9 10 7 11 8 12 11 13 12 14REMARK SMILES IDX 13 15 18 16 15 17 17 18 16 19 14 20 19 21 20 22 21 23REMARK H PARENT 2 7 21 24 21 25REMARK Flexibility Score:   51.900USER                              x       y       z     vdW  Elec       q    TypeUSER                           _______ _______ _______ _____ _____    ______ ____ROOTATOM      1  N   UNL     1      39.552  46.179  16.331 -0.31 +0.03    -0.144 NA ENDROOTBRANCH   1   2ATOM      2  C   UNL     1      40.587  46.957  16.810 -0.44 -0.02    +0.155 C  BRANCH   2   3ATOM      3  C   UNL     1      41.256  46.732  17.965 -0.49 -0.01    +0.109 CG0ATOM      4  G   UNL     1      40.504  45.919  19.019 +0.00 +0.00    +0.000 G0 BRANCH   3   5ATOM      5  N   UNL     1      42.533  47.138  18.380 -0.23 -0.00    -0.383 N  ATOM      6  C   UNL     1      42.881  47.254  19.789 -0.43 +0.03    +0.140 C  ATOM      7  H   UNL     1      43.228  46.556  17.898 -0.46 -0.02    +0.160 HD ENDBRANCH   3   5ENDBRANCH   2   3BRANCH   2   8ATOM      8  C   UNL     1      40.874  48.090  15.982 -0.39 -0.02    +0.156 A  ATOM      9  C   UNL     1      40.649  48.285  14.620 -0.46 -0.01    +0.053 A  ATOM     10  O   UNL     1      41.414  49.266  16.471 -0.90 -0.01    -0.463 OA ATOM     11  C   UNL     1      41.072  49.591  14.283 -0.54 -0.01    +0.043 A  ATOM     12  C   UNL     1      41.528  50.148  15.450 -0.44 -0.03    +0.196 A  ENDBRANCH   2   8ENDBRANCH   1   2BRANCH   1  13ATOM     13  N   UNL     1      38.352  46.307  16.685 -0.30 +0.05    -0.145 NA BRANCH  13  14ATOM     14  C   UNL     1      37.811  45.380  17.603 -0.27 -0.04    +0.149 A  ATOM     15  C   UNL     1      36.768  44.519  17.248 -0.29 -0.02    +0.074 A  ATOM     16  C   UNL     1      38.259  45.303  18.927 -0.22 -0.02    +0.183 A  ATOM     17  C   UNL     1      36.227  43.633  18.177 -0.28 -0.01    +0.043 A  ATOM     18  N   UNL     1      37.745  44.452  19.849 -0.22 +0.01    -0.235 NA ATOM     19  C   UNL     1      36.747  43.639  19.455 -0.27 -0.01    +0.115 A  ATOM     20  Cl  UNL     1      36.118  44.511  15.646 -0.50 +0.04    -0.082 Cl BRANCH  16  21ATOM     21  N   UNL     1      39.283  46.123  19.428 -0.21 +0.01    -0.207 NA BRANCH  21  22ATOM     22  C   UNL     1      40.503  45.919  19.020 -0.41 -0.00    +0.151 CG0ATOM     23  N   UNL     1      41.136  44.815  19.543 -0.15 -0.03    -0.382 N  ATOM     24  H   UNL     1      42.132  44.926  19.689 +0.09 +0.04    +0.158 HD ATOM     25  H   UNL     1      40.653  44.480  20.372 +0.09 +0.01    +0.158 HD ATOM     26  G   UNL     1      41.250  46.739  17.969 +0.00 +0.00    +0.000 G0 ENDBRANCH  21  22ENDBRANCH  16  21ENDBRANCH  13  14ENDBRANCH   1  13TORSDOF 2TERENDMDL