REMARK SMILES CSc1nccc2c1ncn2[C@@H]1C[C@H](CO)[C@@H](O)[C@H]1ON
REMARK SMILES IDX 12 1 13 2 14 3 17 4 19 5 11 6 3 7 4 8 8 9 5 10 7 11 9 12
REMARK SMILES IDX 6 13 10 14 2 15 1 16 20 17 21 18 15 21 16 22 18 24
REMARK H PARENT 21 19 21 20 16 23 18 25
ROOT
ATOM      1  C   UNL     1      -0.855   0.051   0.373  1.00  0.00     0.123 C 
ATOM      2  C   UNL     1      -1.845  -1.114   0.161  1.00  0.00     0.037 C 
ATOM      3  C   UNL     1      -3.014  -0.501  -0.615  1.00  0.00     0.048 C 
ATOM      4  C   UNL     1      -2.316   0.510  -1.517  1.00  0.00     0.153 C 
ATOM      5  C   UNL     1      -1.311   1.189  -0.568  1.00  0.00     0.193 C 
ENDROOT
BRANCH   1   6
ATOM      6  N   UNL     1       0.533  -0.334   0.172  1.00  0.00    -0.324 N 
ATOM      7  C   UNL     1       3.893  -0.831   1.137  1.00  0.00     0.124 A 
ATOM      8  N   UNL     1       3.956  -0.460   2.444  1.00  0.00    -0.248 NA
ATOM      9  C   UNL     1       2.675  -0.748   0.432  1.00  0.00     0.121 A 
ATOM     10  C   UNL     1       2.835  -0.013   3.050  1.00  0.00     0.114 A 
ATOM     11  C   UNL     1       1.542  -0.283   1.109  1.00  0.00     0.073 A 
ATOM     12  N   UNL     1       2.354  -1.050  -0.879  1.00  0.00    -0.234 NA
ATOM     13  C   UNL     1       1.589   0.101   2.450  1.00  0.00     0.049 A 
ATOM     14  C   UNL     1       1.072  -0.804  -0.996  1.00  0.00     0.201 A 
BRANCH   7  15
ATOM     15  S   UNL     1       5.357  -1.444   0.362  1.00  0.00    -0.108 SA
ATOM     16  C   UNL     1       5.642  -0.085  -0.804  1.00  0.00     0.092 C 
ENDBRANCH   7  15
ENDBRANCH   1   6
BRANCH   5  17
ATOM     17  O   UNL     1      -2.001   2.203   0.188  1.00  0.00    -0.296 OA
BRANCH  17  18
ATOM     18  N   UNL     1      -1.017   3.075   0.819  1.00  0.00    -0.215 NA
ATOM     19  H   UNL     1      -1.353   3.095   1.785  1.00  0.00     0.151 HD
ATOM     20  H   UNL     1      -1.276   3.987   0.429  1.00  0.00     0.151 HD
ENDBRANCH  17  18
ENDBRANCH   5  17
BRANCH   3  21
ATOM     21  C   UNL     1      -3.845  -1.526  -1.377  1.00  0.00     0.162 C 
BRANCH  21  22
ATOM     22  O   UNL     1      -4.426  -2.442  -0.455  1.00  0.00    -0.396 OA
ATOM     23  H   UNL     1      -5.136  -1.970   0.015  1.00  0.00     0.210 HD
ENDBRANCH  21  22
ENDBRANCH   3  21
BRANCH   4  24
ATOM     24  O   UNL     1      -3.251   1.397  -2.107  1.00  0.00    -0.390 OA
ATOM     25  H   UNL     1      -2.778   2.209  -2.372  1.00  0.00     0.211 HD
ENDBRANCH   4  24
TORSDOF 7
