MODEL        8USER    Run = 8USERUSER    Estimated Free Energy of Binding    =  -8.17 kcal/mol  [=(1)+(2)+(3)-(4)]USERUSER    (1) Final Intermolecular Energy     = -11.15 kcal/molUSER        vdW + Hbond + desolv Energy     = -10.88 kcal/molUSER        Electrostatic Energy            =  -0.27 kcal/molUSER        Moving Ligand-Fixed Receptor    = -11.15 kcal/molUSER        Moving Ligand-Moving Receptor   =  +0.00 kcal/molUSER    (2) Final Total Internal Energy     =  -0.84 kcal/molUSER    (3) Torsional Free Energy           =  +2.98 kcal/molUSER    (4) Unbound System's Energy         =  -0.84 kcal/molUSERUSERREMARK SMILES CCc1ncccc1N=CCC(=CN)c1cc(OC)cc(OC)c1REMARK SMILES IDX 10 1 9 2 8 3 3 4 4 5 5 6 7 7 6 8 2 9 1 10 11 11 12 12 13 13REMARK SMILES IDX 14 14 15 17 16 18 24 19 17 20 21 21 20 22 18 23 19 24 22 25REMARK SMILES IDX 23 26REMARK H PARENT 14 15 14 16USER                              x       y       z     vdW  Elec       q    TypeUSER                           _______ _______ _______ _____ _____    ______ ____ROOTATOM      1  C   UNL     1      38.862  45.311  19.194 -0.39 -0.01    +0.089 C  ENDROOTBRANCH   1   2ATOM      2  N   UNL     1      38.272  44.501  20.017 -0.21 +0.01    -0.259 NA BRANCH   2   3ATOM      3  C   UNL     1      36.934  44.192  19.714 -0.32 -0.01    +0.084 A  ATOM      4  C   UNL     1      36.157  43.326  20.501 -0.40 -0.00    +0.066 A  ATOM      5  N   UNL     1      34.858  43.036  20.211 -0.40 -0.01    -0.259 NA ATOM      6  C   UNL     1      34.334  43.576  19.092 -0.31 -0.02    +0.111 A  ATOM      7  C   UNL     1      36.354  44.719  18.559 -0.33 -0.01    +0.032 A  ATOM      8  C   UNL     1      35.036  44.411  18.237 -0.32 -0.01    +0.022 A  BRANCH   4   9ATOM      9  C   UNL     1      36.764  42.688  21.731 -0.48 +0.00    +0.055 C  ATOM     10  C   UNL     1      36.878  41.167  21.668 -0.63 +0.00    +0.011 C  ENDBRANCH   4   9ENDBRANCH   2   3ENDBRANCH   1   2BRANCH   1  11ATOM     11  C   UNL     1      40.249  45.008  18.671 -0.44 -0.00    +0.085 C  BRANCH  11  12ATOM     12  C   UNL     1      41.034  46.277  18.443 -0.55 +0.00    -0.020 C  BRANCH  12  13ATOM     13  C   UNL     1      42.002  46.728  19.264 -0.50 +0.01    +0.079 C  BRANCH  13  14ATOM     14  N   UNL     1      43.238  47.231  18.936 -0.26 -0.09    -0.404 N  ATOM     15  H   UNL     1      43.441  48.122  19.383 -0.48 -0.00    +0.156 HD ATOM     16  H   UNL     1      43.399  47.269  17.932 -0.50 -0.01    +0.156 HD ENDBRANCH  13  14ENDBRANCH  12  13BRANCH  12  17ATOM     17  C   UNL     1      40.651  47.036  17.240 -0.51 +0.00    -0.013 A  ATOM     18  C   UNL     1      39.598  46.604  16.429 -0.42 -0.01    +0.055 A  ATOM     19  C   UNL     1      41.347  48.203  16.901 -0.42 -0.00    +0.055 A  ATOM     20  C   UNL     1      39.230  47.335  15.296 -0.39 -0.04    +0.123 A  ATOM     21  C   UNL     1      40.997  48.934  15.762 -0.51 -0.02    +0.123 A  ATOM     22  C   UNL     1      39.933  48.499  14.963 -0.50 -0.03    +0.092 A  BRANCH  20  23ATOM     23  O   UNL     1      38.172  46.808  14.604 -0.09 +0.19    -0.497 OA ATOM     24  C   UNL     1      36.977  47.581  14.569 -0.32 -0.19    +0.278 C  ENDBRANCH  20  23BRANCH  21  25ATOM     25  O   UNL     1      41.770  50.046  15.544 -0.72 +0.02    -0.497 OA ATOM     26  C   UNL     1      42.168  50.303  14.202 -0.50 -0.06    +0.278 C  ENDBRANCH  21  25ENDBRANCH  12  17ENDBRANCH  11  12ENDBRANCH   1  11TORSDOF 10TERENDMDL