REMARK SMILES CCCN1CCC(=C[C@H]2C=c3nc(C)n(Cc4ccc(Cl)cc4Cl)c3=C2)C(=CCl)C1
REMARK SMILES IDX 8 1 7 2 4 3 5 4 30 5 6 6 27 7 3 8 2 9 1 10 28 11 29 12 9 13
REMARK SMILES IDX 10 14 26 15 11 16 25 17 12 18 15 19 13 20 14 21 16 22 17 23
REMARK SMILES IDX 18 24 23 25 19 26 22 27 20 28 24 29 21 30
REMARK H PARENT
ROOT
ATOM      1  C   UNL     1       0.711  -0.848  -0.232  1.00  0.00    -0.011 C 
ENDROOT
BRANCH   1   2
ATOM      2  C   UNL     1       1.798  -0.458   0.465  1.00  0.00    -0.044 C 
ATOM      3  N   UNL     1       4.488   0.329   1.552  1.00  0.00    -0.299 NA
ATOM      4  C   UNL     1       3.833  -0.945   1.909  1.00  0.00     0.089 C 
ATOM      5  C   UNL     1       3.642   1.179   0.686  1.00  0.00     0.121 C 
ATOM      6  C   UNL     1       2.854  -1.481   0.852  1.00  0.00     0.051 C 
ATOM      7  C   UNL     1       2.157   0.911   0.852  1.00  0.00    -0.020 C 
BRANCH   3   8
ATOM      8  C   UNL     1       5.824   0.110   0.978  1.00  0.00     0.084 C 
BRANCH   8   9
ATOM      9  C   UNL     1       6.624   1.408   0.809  1.00  0.00     0.012 C 
ATOM     10  C   UNL     1       8.037   1.126   0.318  1.00  0.00     0.005 C 
ENDBRANCH   8   9
ENDBRANCH   3   8
BRANCH   7  11
ATOM     11  C   UNL     1       1.275   1.773   1.379  1.00  0.00     0.085 C 
ATOM     12  Cl  UNL     1       1.621   3.369   1.898  1.00  0.00    -0.093 Cl
ENDBRANCH   7  11
ENDBRANCH   1   2
BRANCH   1  13
ATOM     13  C   UNL     1      -0.382  -0.006  -0.833  1.00  0.00     0.062 C 
ATOM     14  C   UNL     1      -0.654  -0.395  -2.276  1.00  0.00     0.015 C 
ATOM     15  C   UNL     1      -1.721  -0.265  -0.153  1.00  0.00     0.013 C 
ATOM     16  C   UNL     1      -1.925  -0.778  -2.349  1.00  0.00     0.085 A 
ATOM     17  C   UNL     1      -2.583  -0.697  -1.073  1.00  0.00     0.065 A 
ATOM     18  N   UNL     1      -2.774  -1.254  -3.309  1.00  0.00    -0.234 NA
ATOM     19  N   UNL     1      -3.860  -1.105  -1.293  1.00  0.00    -0.324 N 
ATOM     20  C   UNL     1      -3.905  -1.448  -2.649  1.00  0.00     0.107 A 
ATOM     21  C   UNL     1      -5.115  -2.005  -3.333  1.00  0.00     0.088 C 
BRANCH  19  22
ATOM     22  C   UNL     1      -4.875  -1.424  -0.313  1.00  0.00     0.161 C 
BRANCH  22  23
ATOM     23  C   UNL     1      -5.102  -0.308   0.686  1.00  0.00    -0.009 A 
ATOM     24  C   UNL     1      -4.650  -0.470   2.009  1.00  0.00     0.008 A 
ATOM     25  C   UNL     1      -5.745   0.893   0.341  1.00  0.00     0.047 A 
ATOM     26  C   UNL     1      -4.828   0.542   2.954  1.00  0.00     0.021 A 
ATOM     27  C   UNL     1      -5.923   1.906   1.288  1.00  0.00     0.041 A 
ATOM     28  C   UNL     1      -5.462   1.726   2.588  1.00  0.00     0.042 A 
ATOM     29  Cl  UNL     1      -6.364   1.173  -1.247  1.00  0.00    -0.084 Cl
ATOM     30  Cl  UNL     1      -5.679   2.972   3.754  1.00  0.00    -0.084 Cl
ENDBRANCH  22  23
ENDBRANCH  19  22
ENDBRANCH   1  13
TORSDOF 7
