MODEL        9USER    Run = 9USERUSER    Estimated Free Energy of Binding    =  -9.50 kcal/mol  [=(1)+(2)+(3)-(4)]USERUSER    (1) Final Intermolecular Energy     = -10.99 kcal/molUSER        vdW + Hbond + desolv Energy     = -10.78 kcal/molUSER        Electrostatic Energy            =  -0.21 kcal/molUSER        Moving Ligand-Fixed Receptor    = -10.99 kcal/molUSER        Moving Ligand-Moving Receptor   =  +0.00 kcal/molUSER    (2) Final Total Internal Energy     =  -1.15 kcal/molUSER    (3) Torsional Free Energy           =  +1.49 kcal/molUSER    (4) Unbound System's Energy         =  -1.15 kcal/molUSERUSERREMARK SMILES Cc1c(C(=O)O)cccc1-c1cnc2c(c1)C(=O)N(Cc1c(F)cccc1Cl)[C@H](C)N2REMARK SMILES IDX 11 1 12 2 13 3 14 4 15 5 16 6 17 7 18 8 19 9 29 10 30 11REMARK SMILES IDX 31 12 10 14 2 15 3 16 7 17 9 18 8 19 1 20 4 21 5 22 6 23REMARK SMILES IDX 20 25 21 26 22 27 27 28 24 29 26 30 25 31 23 32 28 33REMARK H PARENT 31 13 6 24USER                              x       y       z     vdW  Elec       q    TypeUSER                           _______ _______ _______ _____ _____    ______ ____ROOTATOM      1  C   UNL     1      31.569  39.323  19.488 -0.41 +0.00    +0.001 A  ATOM      2  C   UNL     1      32.120  38.868  18.288 -0.36 +0.00    +0.122 A  ATOM      3  N   UNL     1      32.882  39.618  17.450 -0.21 +0.09    -0.238 NA ATOM      4  C   UNL     1      33.116  40.893  17.816 -0.26 -0.05    +0.140 A  ATOM      5  C   UNL     1      32.600  41.438  18.983 -0.33 -0.00    +0.083 A  ATOM      6  C   UNL     1      31.823  40.652  19.833 -0.07 +0.00    +0.028 A  ATOM      7  C   UNL     1      32.918  42.843  19.277 -0.27 -0.01    +0.259 C  ATOM      8  O   UNL     1      32.707  43.278  20.405 -0.80 -0.06    -0.269 OA ATOM      9  N   UNL     1      33.478  43.580  18.241 -0.10 +0.08    -0.314 N  ATOM     10  C   UNL     1      33.565  43.042  16.894 -0.29 -0.07    +0.177 C  ATOM     11  C   UNL     1      32.281  43.219  16.078 -0.35 -0.03    +0.055 C  ATOM     12  N   UNL     1      33.933  41.648  16.982 -0.11 +0.19    -0.349 N  ATOM     13  H   UNL     1      34.054  41.149  16.107 -0.41 -0.15    +0.164 HD ENDROOTBRANCH   1  14ATOM     14  C   UNL     1      30.751  38.449  20.338 -0.42 -0.00    -0.013 A  ATOM     15  C   UNL     1      29.468  37.981  19.951 -0.33 -0.00    -0.029 A  ATOM     16  C   UNL     1      28.769  37.101  20.814 -0.28 -0.00    +0.063 A  ATOM     17  C   UNL     1      29.327  36.734  22.051 -0.36 -0.00    +0.016 A  ATOM     18  C   UNL     1      31.277  38.060  21.584 -0.51 +0.00    +0.009 A  ATOM     19  C   UNL     1      30.572  37.216  22.436 -0.48 +0.00    +0.002 A  ATOM     20  C   UNL     1      28.860  38.397  18.630 -0.28 +0.02    +0.046 C  BRANCH  16  21ATOM     21  C   UNL     1      27.452  36.514  20.433 -0.17 -0.14    +0.335 C  ATOM     22  O   UNL     1      27.229  35.725  19.534 -0.57 +0.07    -0.246 OA BRANCH  21  23ATOM     23  O   UNL     1      26.450  36.972  21.207 -0.07 +0.46    -0.478 OA ATOM     24  H   UNL     1      25.800  36.237  21.200 -0.35 -0.70    +0.297 HD ENDBRANCH  21  23ENDBRANCH  16  21ENDBRANCH   1  14BRANCH   9  25ATOM     25  C   UNL     1      33.963  44.933  18.508 -0.35 -0.06    +0.162 C  BRANCH  25  26ATOM     26  C   UNL     1      35.449  45.112  18.330 -0.35 -0.01    +0.026 A  ATOM     27  C   UNL     1      35.917  45.892  17.264 -0.27 -0.08    +0.129 A  ATOM     28  C   UNL     1      36.408  44.546  19.184 -0.31 -0.01    +0.048 A  ATOM     29  C   UNL     1      37.276  46.103  17.041 -0.33 -0.02    +0.040 A  ATOM     30  C   UNL     1      37.777  44.754  18.966 -0.35 -0.00    +0.021 A  ATOM     31  C   UNL     1      38.213  45.532  17.894 -0.38 -0.00    +0.005 A  ATOM     32  F   UNL     1      35.049  46.462  16.418 -0.06 +0.26    -0.207 F  ATOM     33  Cl  UNL     1      35.975  43.558  20.534 -0.58 +0.00    -0.084 Cl ENDBRANCH  25  26ENDBRANCH   9  25TORSDOF 5TERENDMDL