MODEL        2USER    Run = 2USERUSER    Estimated Free Energy of Binding    =  -8.96 kcal/mol  [=(1)+(2)+(3)-(4)]USERUSER    (1) Final Intermolecular Energy     = -11.65 kcal/molUSER        vdW + Hbond + desolv Energy     = -11.10 kcal/molUSER        Electrostatic Energy            =  -0.55 kcal/molUSER        Moving Ligand-Fixed Receptor    = -11.65 kcal/molUSER        Moving Ligand-Moving Receptor   =  +0.00 kcal/molUSER    (2) Final Total Internal Energy     =  -4.01 kcal/molUSER    (3) Torsional Free Energy           =  +2.68 kcal/molUSER    (4) Unbound System's Energy         =  -4.01 kcal/molUSERUSERREMARK SMILES CC(=O)Nc1ccc(-c2cnc3cccc(OC[C@@H](O)CO)c3c2)cc1NREMARK SMILES IDX 17 1 16 2 9 3 10 4 24 5 11 6 23 7 12 8 13 9 15 10 14 11 8 12REMARK SMILES IDX 5 13 6 14 26 15 7 16 25 17 4 18 2 19 1 20 3 21 27 23 18 26REMARK SMILES IDX 19 27 20 28 21 30 22 31REMARK H PARENT 4 22 27 24 27 25 20 29 22 32USER                              x       y       z     vdW  Elec       q    TypeUSER                           _______ _______ _______ _____ _____    ______ ____ROOTATOM      1  O   UNL     1      31.955  45.217  16.527 -0.49 +0.20    -0.490 OA ENDROOTBRANCH   1   2ATOM      2  C   UNL     1      32.454  44.217  17.326 -0.21 -0.04    +0.128 A  ATOM      3  C   UNL     1      36.107  45.122  17.101 -0.33 -0.00    +0.001 A  ATOM      4  C   UNL     1      36.571  44.111  17.933 -0.24 -0.03    +0.120 A  ATOM      5  C   UNL     1      34.723  45.158  16.901 -0.31 -0.02    +0.024 A  ATOM      6  N   UNL     1      35.793  43.182  18.536 -0.17 +0.05    -0.255 NA ATOM      7  C   UNL     1      33.863  44.217  17.507 -0.28 -0.02    +0.043 A  ATOM      8  C   UNL     1      34.467  43.238  18.324 -0.29 -0.02    +0.074 A  ATOM      9  C   UNL     1      33.661  42.292  18.937 -0.38 -0.00    +0.029 A  ATOM     10  C   UNL     1      31.673  43.249  17.960 -0.27 -0.01    +0.047 A  ATOM     11  C   UNL     1      32.278  42.286  18.764 -0.36 -0.00    +0.006 A  BRANCH   3  12ATOM     12  C   UNL     1      37.011  46.091  16.469 -0.36 +0.01    -0.015 A  ATOM     13  C   UNL     1      38.743  47.976  15.268 -0.46 -0.03    +0.064 A  ATOM     14  C   UNL     1      37.380  48.241  15.365 -0.45 -0.02    +0.029 A  ATOM     15  C   UNL     1      39.250  46.749  15.739 -0.41 -0.01    +0.056 A  ATOM     16  C   UNL     1      36.523  47.303  15.953 -0.31 -0.01    +0.011 A  ATOM     17  C   UNL     1      38.390  45.839  16.367 -0.36 -0.01    +0.036 A  BRANCH  13  18ATOM     18  N   UNL     1      39.685  48.853  14.694 -0.27 +0.13    -0.325 N  ATOM     19  C   UNL     1      40.895  49.261  15.209 -0.52 -0.05    +0.221 C  ATOM     20  C   UNL     1      41.589  50.257  14.314 -0.59 -0.03    +0.114 C  ATOM     21  O   UNL     1      41.398  48.914  16.272 -0.98 +0.00    -0.275 OA ATOM     22  H   UNL     1      39.372  49.242  13.809 -0.19 -0.09    +0.169 HD ENDBRANCH  13  18BRANCH  15  23ATOM     23  N   UNL     1      40.657  46.543  15.783 -0.15 +0.02    -0.397 N  ATOM     24  H   UNL     1      41.095  47.113  15.059 +0.12 +0.00    +0.156 HD ATOM     25  H   UNL     1      41.037  46.822  16.685 -0.02 -0.02    +0.156 HD ENDBRANCH  15  23ENDBRANCH   3  12ENDBRANCH   1   2BRANCH   1  26ATOM     26  C   UNL     1      30.874  44.923  15.629 -0.26 -0.12    +0.263 C  BRANCH  26  27ATOM     27  C   UNL     1      30.561  46.151  14.764 -0.44 -0.09    +0.177 C  BRANCH  27  28ATOM     28  O   UNL     1      30.739  47.343  15.539 -0.76 +0.07    -0.387 OA ATOM     29  H   UNL     1      31.663  47.320  15.856 -0.41 -0.33    +0.211 HD ENDBRANCH  27  28BRANCH  27  30ATOM     30  C   UNL     1      31.463  46.217  13.534 -0.42 -0.12    +0.191 C  BRANCH  30  31ATOM     31  O   UNL     1      32.793  46.564  13.904 -0.16 +0.39    -0.394 OA ATOM     32  H   UNL     1      32.788  46.695  14.869 -0.38 -0.37    +0.210 HD ENDBRANCH  30  31ENDBRANCH  27  30ENDBRANCH  26  27ENDBRANCH   1  26TORSDOF 9TERENDMDL