REMARK SMILES COCCS[C@H](Cc1ccsc1)NC(=O)c1cc2ccccc2o1
REMARK SMILES IDX 4 1 3 2 2 3 1 4 5 5 6 6 7 7 8 8 9 9 12 10 10 11 11 12 13 13
REMARK SMILES IDX 14 14 15 16 16 17 17 18 24 19 18 20 23 21 19 22 22 23 20 24
REMARK SMILES IDX 21 25
REMARK H PARENT 13 15
ROOT
ATOM      1  C   UNL     1      -3.424  -0.384  -0.390  1.00  0.00     0.100 C 
ENDROOT
BRANCH   1   2
ATOM      2  C   UNL     1      -3.178  -1.645   0.441  1.00  0.00     0.170 C 
BRANCH   2   3
ATOM      3  O   UNL     1      -4.220  -1.850   1.399  1.00  0.00    -0.384 OA
ATOM      4  C   UNL     1      -5.394  -2.424   0.841  1.00  0.00     0.194 C 
ENDBRANCH   2   3
ENDBRANCH   1   2
BRANCH   1   5
ATOM      5  S   UNL     1      -2.027  -0.013  -1.505  1.00  0.00    -0.135 SA
BRANCH   5   6
ATOM      6  C   UNL     1      -0.875   0.771  -0.307  1.00  0.00     0.145 C 
BRANCH   6   7
ATOM      7  C   UNL     1      -0.882   2.310  -0.423  1.00  0.00     0.072 C 
BRANCH   7   8
ATOM      8  C   UNL     1      -2.130   2.961   0.110  1.00  0.00    -0.034 A 
ATOM      9  C   UNL     1      -2.407   3.156   1.504  1.00  0.00     0.015 A 
ATOM     10  C   UNL     1      -3.158   3.461  -0.668  1.00  0.00     0.068 A 
ATOM     11  C   UNL     1      -3.621   3.768   1.722  1.00  0.00     0.065 A 
ATOM     12  S   UNL     1      -4.433   4.120   0.261  1.00  0.00    -0.152 S 
ENDBRANCH   7   8
ENDBRANCH   6   7
BRANCH   6  13
ATOM     13  N   UNL     1       0.416   0.215  -0.641  1.00  0.00    -0.337 N 
ATOM     14  C   UNL     1       1.480   0.270   0.235  1.00  0.00     0.287 C 
ATOM     15  H   UNL     1       0.507  -0.205  -1.552  1.00  0.00     0.165 HD
ATOM     16  O   UNL     1       1.358   0.800   1.337  1.00  0.00    -0.266 OA
BRANCH  14  17
ATOM     17  C   UNL     1       2.709  -0.330  -0.247  1.00  0.00     0.192 A 
ATOM     18  C   UNL     1       3.050  -0.986  -1.420  1.00  0.00     0.065 A 
ATOM     19  O   UNL     1       3.807  -0.277   0.572  1.00  0.00    -0.451 OA
ATOM     20  C   UNL     1       4.419  -1.350  -1.313  1.00  0.00     0.021 A 
ATOM     21  C   UNL     1       4.834  -0.891  -0.071  1.00  0.00     0.135 A 
ATOM     22  C   UNL     1       5.350  -2.017  -2.129  1.00  0.00     0.012 A 
ATOM     23  C   UNL     1       6.124  -1.046   0.430  1.00  0.00     0.048 A 
ATOM     24  C   UNL     1       6.659  -2.189  -1.653  1.00  0.00     0.001 A 
ATOM     25  C   UNL     1       7.037  -1.711  -0.395  1.00  0.00     0.004 A 
ENDBRANCH  14  17
ENDBRANCH   6  13
ENDBRANCH   5   6
ENDBRANCH   1   5
TORSDOF 8
