REMARK SMILES CC(=O)Nc1ccc(-c2cnc3cccc(OC[C@@H](O)CO)c3c2)cc1N
REMARK SMILES IDX 17 1 16 2 9 3 10 4 24 5 11 6 23 7 12 8 13 9 15 10 14 11 8 12
REMARK SMILES IDX 5 13 6 14 26 15 7 16 25 17 4 18 2 19 1 20 3 21 27 23 18 26
REMARK SMILES IDX 19 27 20 28 21 30 22 31
REMARK H PARENT 4 22 27 24 27 25 20 29 22 32
ROOT
ATOM      1  O   UNL     1      -2.947   0.781  -0.241  1.00  0.00    -0.490 OA
ENDROOT
BRANCH   1   2
ATOM      2  C   UNL     1      -2.937  -0.136  -1.264  1.00  0.00     0.128 A 
ATOM      3  C   UNL     1       0.712  -1.070  -1.115  1.00  0.00     0.001 A 
ATOM      4  C   UNL     1       0.677  -2.007  -2.140  1.00  0.00     0.120 A 
ATOM      5  C   UNL     1      -0.504  -0.444  -0.820  1.00  0.00     0.024 A 
ATOM      6  N   UNL     1      -0.425  -2.336  -2.854  1.00  0.00    -0.255 NA
ATOM      7  C   UNL     1      -1.685  -0.751  -1.530  1.00  0.00     0.043 A 
ATOM      8  C   UNL     1      -1.579  -1.718  -2.552  1.00  0.00     0.074 A 
ATOM      9  C   UNL     1      -2.713  -2.048  -3.277  1.00  0.00     0.029 A 
ATOM     10  C   UNL     1      -4.059  -0.494  -2.014  1.00  0.00     0.047 A 
ATOM     11  C   UNL     1      -3.945  -1.449  -3.021  1.00  0.00     0.006 A 
BRANCH   3  12
ATOM     12  C   UNL     1       1.948  -0.752  -0.388  1.00  0.00    -0.015 A 
ATOM     13  C   UNL     1       4.326  -0.164   1.023  1.00  0.00     0.064 A 
ATOM     14  C   UNL     1       3.176  -0.533   1.714  1.00  0.00     0.029 A 
ATOM     15  C   UNL     1       4.290  -0.051  -0.381  1.00  0.00     0.056 A 
ATOM     16  C   UNL     1       1.997  -0.816   1.014  1.00  0.00     0.011 A 
ATOM     17  C   UNL     1       3.118  -0.382  -1.073  1.00  0.00     0.036 A 
BRANCH  13  18
ATOM     18  N   UNL     1       5.559   0.141   1.635  1.00  0.00    -0.325 N 
ATOM     19  C   UNL     1       5.874   0.122   2.975  1.00  0.00     0.221 C 
ATOM     20  C   UNL     1       7.290   0.572   3.234  1.00  0.00     0.114 C 
ATOM     21  O   UNL     1       5.134  -0.191   3.901  1.00  0.00    -0.275 OA
ATOM     22  H   UNL     1       6.262   0.449   0.969  1.00  0.00     0.169 HD
ENDBRANCH  13  18
BRANCH  15  23
ATOM     23  N   UNL     1       5.499   0.172  -1.097  1.00  0.00    -0.397 N 
ATOM     24  H   UNL     1       5.990  -0.717  -1.198  1.00  0.00     0.156 HD
ATOM     25  H   UNL     1       5.308   0.540  -2.027  1.00  0.00     0.156 HD
ENDBRANCH  15  23
ENDBRANCH   3  12
ENDBRANCH   1   2
BRANCH   1  26
ATOM     26  C   UNL     1      -4.132   1.557  -0.007  1.00  0.00     0.263 C 
BRANCH  26  27
ATOM     27  C   UNL     1      -5.052   0.826   0.980  1.00  0.00     0.177 C 
BRANCH  27  28
ATOM     28  O   UNL     1      -4.375   0.653   2.231  1.00  0.00    -0.387 OA
ATOM     29  H   UNL     1      -3.509   0.256   2.013  1.00  0.00     0.211 HD
ENDBRANCH  27  28
BRANCH  27  30
ATOM     30  C   UNL     1      -6.348   1.599   1.218  1.00  0.00     0.191 C 
BRANCH  30  31
ATOM     31  O   UNL     1      -7.080   1.738   0.006  1.00  0.00    -0.394 OA
ATOM     32  H   UNL     1      -7.916   2.182   0.235  1.00  0.00     0.210 HD
ENDBRANCH  30  31
ENDBRANCH  27  30
ENDBRANCH  26  27
ENDBRANCH   1  26
TORSDOF 9
