REMARK SMILES OCCOCCNc1nccc(-c2cnc3ccccc3c2F)n1
REMARK SMILES IDX 5 1 4 2 3 3 2 4 1 5 6 7 7 8 8 10 9 11 24 12 10 13 12 14
REMARK SMILES IDX 11 15 13 16 14 17 22 18 15 19 21 20 16 21 20 22 17 23 19 24
REMARK SMILES IDX 18 25 23 26
REMARK H PARENT 1 6 7 9
ROOT
ATOM      1  C   UNL     1      -4.031  -0.095   0.657  1.00  0.00     0.181 C 
ENDROOT
BRANCH   1   2
ATOM      2  O   UNL     1      -3.860  -0.797  -0.583  1.00  0.00    -0.377 OA
BRANCH   2   3
ATOM      3  C   UNL     1      -3.854   0.069  -1.724  1.00  0.00     0.188 C 
BRANCH   3   4
ATOM      4  C   UNL     1      -5.238   0.633  -2.051  1.00  0.00     0.184 C 
BRANCH   4   5
ATOM      5  O   UNL     1      -5.535   1.753  -1.218  1.00  0.00    -0.394 OA
ATOM      6  H   UNL     1      -6.430   2.050  -1.455  1.00  0.00     0.210 HD
ENDBRANCH   4   5
ENDBRANCH   3   4
ENDBRANCH   2   3
ENDBRANCH   1   2
BRANCH   1   7
ATOM      7  C   UNL     1      -3.708  -1.049   1.816  1.00  0.00     0.144 C 
BRANCH   7   8
ATOM      8  N   UNL     1      -2.345  -1.569   1.730  1.00  0.00    -0.352 N 
ATOM      9  H   UNL     1      -2.138  -1.963   0.816  1.00  0.00     0.163 HD
BRANCH   8  10
ATOM     10  C   UNL     1      -1.339  -0.653   1.991  1.00  0.00     0.223 A 
ATOM     11  N   UNL     1      -1.508   0.295   2.919  1.00  0.00    -0.222 NA
ATOM     12  N   UNL     1      -0.230  -0.782   1.253  1.00  0.00    -0.213 NA
ATOM     13  C   UNL     1      -0.485   1.141   3.114  1.00  0.00     0.117 A 
ATOM     14  C   UNL     1       0.793   0.077   1.470  1.00  0.00     0.080 A 
ATOM     15  C   UNL     1       0.693   1.080   2.413  1.00  0.00     0.049 A 
BRANCH  14  16
ATOM     16  C   UNL     1       1.974  -0.130   0.617  1.00  0.00     0.055 A 
ATOM     17  C   UNL     1       1.865  -0.727  -0.635  1.00  0.00     0.125 A 
ATOM     18  C   UNL     1       3.275   0.234   0.972  1.00  0.00     0.143 A 
ATOM     19  N   UNL     1       2.893  -0.944  -1.496  1.00  0.00    -0.255 NA
ATOM     20  C   UNL     1       4.376   0.026   0.124  1.00  0.00     0.037 A 
ATOM     21  C   UNL     1       4.126  -0.575  -1.120  1.00  0.00     0.073 A 
ATOM     22  C   UNL     1       5.689   0.393   0.480  1.00  0.00     0.013 A 
ATOM     23  C   UNL     1       5.199  -0.789  -1.977  1.00  0.00     0.029 A 
ATOM     24  C   UNL     1       6.749   0.168  -0.395  1.00  0.00     0.001 A 
ATOM     25  C   UNL     1       6.503  -0.424  -1.628  1.00  0.00     0.002 A 
ATOM     26  F   UNL     1       3.504   0.794   2.174  1.00  0.00    -0.205 F 
ENDBRANCH  14  16
ENDBRANCH   8  10
ENDBRANCH   7   8
ENDBRANCH   1   7
TORSDOF 8
