MODEL        8USER    Run = 8USERUSER    Estimated Free Energy of Binding    =  -7.61 kcal/mol  [=(1)+(2)+(3)-(4)]USERUSER    (1) Final Intermolecular Energy     =  -9.99 kcal/molUSER        vdW + Hbond + desolv Energy     =  -9.92 kcal/molUSER        Electrostatic Energy            =  -0.07 kcal/molUSER        Moving Ligand-Fixed Receptor    =  -9.99 kcal/molUSER        Moving Ligand-Moving Receptor   =  +0.00 kcal/molUSER    (2) Final Total Internal Energy     =  -1.53 kcal/molUSER    (3) Torsional Free Energy           =  +2.39 kcal/molUSER    (4) Unbound System's Energy         =  -1.53 kcal/molUSERUSERREMARK SMILES COCCS[C@H](Cc1ccsc1)NC(=O)c1cc2ccccc2o1REMARK SMILES IDX 4 1 3 2 2 3 1 4 5 5 6 6 7 7 8 8 9 9 12 10 10 11 11 12 13 13REMARK SMILES IDX 14 14 15 16 16 17 17 18 24 19 18 20 23 21 19 22 22 23 20 24REMARK SMILES IDX 21 25REMARK H PARENT 13 15USER                              x       y       z     vdW  Elec       q    TypeUSER                           _______ _______ _______ _____ _____    ______ ____ROOTATOM      1  C   UNL     1      39.714  48.754  15.715 -0.55 -0.04    +0.100 C  ENDROOTBRANCH   1   2ATOM      2  C   UNL     1      40.927  49.029  14.824 -0.54 -0.04    +0.170 C  BRANCH   2   3ATOM      3  O   UNL     1      41.819  49.967  15.432 -0.81 +0.01    -0.384 OA ATOM      4  C   UNL     1      42.551  50.740  14.491 -0.50 -0.03    +0.194 C  ENDBRANCH   2   3ENDBRANCH   1   2BRANCH   1   5ATOM      5  S   UNL     1      40.014  47.381  16.880 -0.58 +0.03    -0.135 SA BRANCH   5   6ATOM      6  C   UNL     1      38.595  46.295  16.450 -0.36 -0.05    +0.145 C  BRANCH   6   7ATOM      7  C   UNL     1      37.378  47.105  15.955 -0.41 -0.05    +0.072 C  BRANCH   7   8ATOM      8  C   UNL     1      37.067  46.917  14.495 -0.42 +0.02    -0.034 A  ATOM      9  C   UNL     1      36.902  45.641  13.862 -0.43 -0.01    +0.015 A  ATOM     10  C   UNL     1      36.892  47.942  13.583 -0.53 -0.03    +0.068 A  ATOM     11  C   UNL     1      36.631  45.748  12.516 -0.53 -0.03    +0.065 A  ATOM     12  S   UNL     1      36.566  47.376  12.003 -0.76 +0.06    -0.152 S  ENDBRANCH   7   8ENDBRANCH   6   7BRANCH   6  13ATOM     13  N   UNL     1      38.305  45.589  17.677 -0.17 +0.08    -0.337 N  ATOM     14  C   UNL     1      37.290  44.658  17.757 -0.21 -0.07    +0.287 C  ATOM     15  H   UNL     1      38.873  45.817  18.477 +0.09 -0.02    +0.165 HD ATOM     16  O   UNL     1      36.596  44.402  16.777 -0.20 +0.09    -0.266 OA BRANCH  14  17ATOM     17  C   UNL     1      37.123  44.037  19.057 -0.20 -0.03    +0.192 A  ATOM     18  C   UNL     1      36.331  42.997  19.518 -0.29 -0.01    +0.065 A  ATOM     19  O   UNL     1      37.871  44.526  20.097 -0.13 +0.02    -0.451 OA ATOM     20  C   UNL     1      36.607  42.843  20.903 -0.44 +0.00    +0.021 A  ATOM     21  C   UNL     1      37.559  43.806  21.206 -0.30 +0.00    +0.135 A  ATOM     22  C   UNL     1      36.157  41.996  21.931 -0.49 +0.00    +0.012 A  ATOM     23  C   UNL     1      38.107  43.995  22.472 -0.32 +0.00    +0.048 A  ATOM     24  C   UNL     1      36.690  42.160  23.219 -0.46 +0.00    +0.001 A  ATOM     25  C   UNL     1      37.648  43.144  23.483 -0.35 +0.00    +0.004 A  ENDBRANCH  14  17ENDBRANCH   6  13ENDBRANCH   5   6ENDBRANCH   1   5TORSDOF 8TERENDMDL