MODEL        9USER    Run = 9USERUSER    Estimated Free Energy of Binding    =  -7.64 kcal/mol  [=(1)+(2)+(3)-(4)]USERUSER    (1) Final Intermolecular Energy     =  -9.73 kcal/molUSER        vdW + Hbond + desolv Energy     =  -9.25 kcal/molUSER        Electrostatic Energy            =  -0.48 kcal/molUSER        Moving Ligand-Fixed Receptor    =  -9.73 kcal/molUSER        Moving Ligand-Moving Receptor   =  +0.00 kcal/molUSER    (2) Final Total Internal Energy     =  -2.61 kcal/molUSER    (3) Torsional Free Energy           =  +2.09 kcal/molUSER    (4) Unbound System's Energy         =  -2.61 kcal/molUSERUSERREMARK SMILES CSc1nccc2c1ncn2[C@@H]1C[C@H](CO)[C@@H](O)[C@H]1ONREMARK SMILES IDX 12 1 13 2 14 3 17 4 19 5 11 6 3 7 4 8 8 9 5 10 7 11 9 12REMARK SMILES IDX 6 13 10 14 2 15 1 16 20 17 21 18 15 21 16 22 18 24REMARK H PARENT 21 19 21 20 16 23 18 25USER                              x       y       z     vdW  Elec       q    TypeUSER                           _______ _______ _______ _____ _____    ______ ____ROOTATOM      1  C   UNL     1      36.687  46.072  17.177 -0.32 -0.06    +0.123 C  ATOM      2  C   UNL     1      36.607  44.572  16.824 -0.37 -0.01    +0.037 C  ATOM      3  C   UNL     1      35.114  44.234  16.875 -0.34 -0.02    +0.048 C  ATOM      4  C   UNL     1      34.470  45.510  16.347 -0.27 -0.13    +0.153 C  ATOM      5  C   UNL     1      35.246  46.621  17.079 -0.19 -0.21    +0.193 C  ENDROOTBRANCH   1   6ATOM      6  N   UNL     1      37.634  46.804  16.351 -0.17 +0.17    -0.324 N  ATOM      7  C   UNL     1      40.716  48.367  15.627 -0.47 -0.02    +0.124 A  ATOM      8  N   UNL     1      41.478  48.206  16.742 -0.62 +0.01    -0.248 NA ATOM      9  C   UNL     1      39.402  47.858  15.583 -0.42 -0.04    +0.121 A  ATOM     10  C   UNL     1      40.954  47.553  17.801 -0.41 -0.01    +0.114 A  ATOM     11  C   UNL     1      38.910  47.184  16.706 -0.37 -0.03    +0.073 A  ATOM     12  N   UNL     1      38.439  47.895  14.592 -0.32 +0.10    -0.234 NA ATOM     13  C   UNL     1      39.678  47.010  17.858 -0.31 -0.01    +0.049 A  ATOM     14  C   UNL     1      37.406  47.250  15.076 -0.29 -0.12    +0.201 A  BRANCH   7  15ATOM     15  S   UNL     1      41.421  49.195  14.235 -0.72 +0.02    -0.108 SA ATOM     16  C   UNL     1      41.835  50.771  15.032 -0.52 -0.02    +0.092 C  ENDBRANCH   7  15ENDBRANCH   1   6BRANCH   5  17ATOM     17  O   UNL     1      34.691  46.780  18.400 -0.66 +0.22    -0.296 OA BRANCH  17  18ATOM     18  N   UNL     1      33.661  47.811  18.360 -0.72 +0.27    -0.215 NA ATOM     19  H   UNL     1      33.066  47.475  17.599 -0.50 -0.32    +0.151 HD ATOM     20  H   UNL     1      34.180  48.600  17.962 -0.46 -0.35    +0.151 HD ENDBRANCH  17  18ENDBRANCH   5  17BRANCH   3  21ATOM     21  C   UNL     1      34.743  42.989  16.079 -0.33 -0.07    +0.162 C  BRANCH  21  22ATOM     22  O   UNL     1      33.327  42.839  16.072 -0.17 +0.21    -0.396 OA ATOM     23  H   UNL     1      32.940  43.732  16.057 +0.14 -0.10    +0.210 HD ENDBRANCH  21  22ENDBRANCH   3  21BRANCH   4  24ATOM     24  O   UNL     1      33.074  45.515  16.592 -0.18 +0.32    -0.390 OA ATOM     25  H   UNL     1      32.851  46.334  17.075 -0.26 -0.26    +0.211 HD ENDBRANCH   4  24TORSDOF 7TERENDMDL