MODEL        1USER    Run = 1USERUSER    Estimated Free Energy of Binding    = -11.06 kcal/mol  [=(1)+(2)+(3)-(4)]USERUSER    (1) Final Intermolecular Energy     = -13.15 kcal/molUSER        vdW + Hbond + desolv Energy     = -13.09 kcal/molUSER        Electrostatic Energy            =  -0.06 kcal/molUSER        Moving Ligand-Fixed Receptor    = -13.15 kcal/molUSER        Moving Ligand-Moving Receptor   =  +0.00 kcal/molUSER    (2) Final Total Internal Energy     =  -2.51 kcal/molUSER    (3) Torsional Free Energy           =  +2.09 kcal/molUSER    (4) Unbound System's Energy         =  -2.51 kcal/molUSERUSERREMARK SMILES CCCN1CCC(=C[C@H]2C=c3nc(C)n(Cc4ccc(Cl)cc4Cl)c3=C2)C(=CCl)C1REMARK SMILES IDX 8 1 7 2 4 3 5 4 30 5 6 6 27 7 3 8 2 9 1 10 28 11 29 12 9 13REMARK SMILES IDX 10 14 26 15 11 16 25 17 12 18 15 19 13 20 14 21 16 22 17 23REMARK SMILES IDX 18 24 23 25 19 26 22 27 20 28 24 29 21 30REMARK H PARENTUSER                              x       y       z     vdW  Elec       q    TypeUSER                           _______ _______ _______ _____ _____    ______ ____ROOTATOM      1  C   UNL     1      37.736  47.834  14.506 -0.58 +0.01    -0.011 C  ENDROOTBRANCH   1   2ATOM      2  C   UNL     1      36.767  46.906  14.645 -0.46 +0.03    -0.044 C  ATOM      3  N   UNL     1      34.353  45.218  15.245 -0.14 +0.22    -0.299 NA ATOM      4  C   UNL     1      35.660  44.986  15.890 -0.33 -0.05    +0.089 C  ATOM      5  C   UNL     1      34.402  46.299  14.235 -0.24 -0.12    +0.121 C  ATOM      6  C   UNL     1      36.556  46.230  15.991 -0.40 -0.03    +0.051 C  ATOM      7  C   UNL     1      35.784  46.495  13.637 -0.56 +0.01    -0.020 C  BRANCH   3   8ATOM      8  C   UNL     1      33.289  45.436  16.236 -0.28 -0.07    +0.084 C  BRANCH   8   9ATOM      9  C   UNL     1      33.764  45.232  17.680 -0.43 -0.01    +0.012 C  ATOM     10  C   UNL     1      33.969  46.564  18.388 -0.61 -0.00    +0.005 C  ENDBRANCH   8   9ENDBRANCH   3   8BRANCH   7  11ATOM     11  C   UNL     1      36.113  46.236  12.363 -0.63 -0.04    +0.085 C  ATOM     12  Cl  UNL     1      36.905  44.825  11.799 -0.65 +0.03    -0.093 Cl ENDBRANCH   7  11ENDBRANCH   1   2BRANCH   1  13ATOM     13  C   UNL     1      39.230  47.653  14.504 -0.50 -0.02    +0.062 C  ATOM     14  C   UNL     1      39.933  48.818  15.179 -0.63 -0.01    +0.015 C  ATOM     15  C   UNL     1      39.646  46.463  15.361 -0.50 -0.00    +0.013 C  ATOM     16  C   UNL     1      40.617  48.326  16.206 -0.50 -0.02    +0.085 A  ATOM     17  C   UNL     1      40.458  46.902  16.323 -0.42 -0.01    +0.065 A  ATOM     18  N   UNL     1      41.417  48.813  17.202 -0.80 +0.00    -0.234 NA ATOM     19  N   UNL     1      41.208  46.536  17.395 -0.19 +0.03    -0.324 N  ATOM     20  C   UNL     1      41.739  47.731  17.894 -0.40 -0.01    +0.107 A  ATOM     21  C   UNL     1      42.598  47.821  19.117 -0.39 +0.00    +0.088 C  BRANCH  19  22ATOM     22  C   UNL     1      41.223  45.262  18.080 -0.36 +0.00    +0.161 C  BRANCH  22  23ATOM     23  C   UNL     1      39.896  44.926  18.730 -0.43 +0.00    -0.009 A  ATOM     24  C   UNL     1      38.782  44.655  17.914 -0.34 -0.00    +0.008 A  ATOM     25  C   UNL     1      39.734  44.869  20.125 -0.35 +0.00    +0.047 A  ATOM     26  C   UNL     1      37.547  44.328  18.477 -0.32 -0.00    +0.021 A  ATOM     27  C   UNL     1      38.497  44.542  20.688 -0.34 +0.00    +0.041 A  ATOM     28  C   UNL     1      37.411  44.271  19.861 -0.34 -0.00    +0.042 A  ATOM     29  Cl  UNL     1      41.032  45.218  21.209 -0.44 -0.01    -0.084 Cl ATOM     30  Cl  UNL     1      35.889  43.866  20.552 -0.53 +0.00    -0.084 Cl ENDBRANCH  22  23ENDBRANCH  19  22ENDBRANCH   1  13TORSDOF 7TERENDMDL