MODEL        6USER    Run = 6USERUSER    Estimated Free Energy of Binding    =  -9.63 kcal/mol  [=(1)+(2)+(3)-(4)]USERUSER    (1) Final Intermolecular Energy     = -12.02 kcal/molUSER        vdW + Hbond + desolv Energy     = -11.78 kcal/molUSER        Electrostatic Energy            =  -0.24 kcal/molUSER        Moving Ligand-Fixed Receptor    = -12.02 kcal/molUSER        Moving Ligand-Moving Receptor   =  +0.00 kcal/molUSER    (2) Final Total Internal Energy     =  -3.55 kcal/molUSER    (3) Torsional Free Energy           =  +2.39 kcal/molUSER    (4) Unbound System's Energy         =  -3.55 kcal/molUSERUSERREMARK SMILES Nc1ncc(-c2ccccc2)cc1C(=O)N(CCO)c1cccc(Cl)c1REMARK SMILES IDX 16 1 14 2 15 3 13 4 2 5 3 6 4 7 12 8 5 9 1 10 6 13 7 14REMARK SMILES IDX 11 15 8 16 10 17 9 18 17 19 18 20 19 21 20 23 21 24 26 25REMARK SMILES IDX 22 26 24 27 23 28 25 29REMARK H PARENT 1 11 1 12 19 22USER                              x       y       z     vdW  Elec       q    TypeUSER                           _______ _______ _______ _____ _____    ______ ____ROOTATOM      1  N   UNL     1      39.138  47.720  15.470 -0.25 +0.11    -0.306 N  ENDROOTBRANCH   1   2ATOM      2  C   UNL     1      39.971  46.729  16.024 -0.34 -0.05    +0.262 C  ATOM      3  O   UNL     1      41.026  46.375  15.497 -0.33 -0.02    -0.269 OA BRANCH   2   4ATOM      4  C   UNL     1      39.631  46.144  17.347 -0.39 -0.01    +0.083 A  ATOM      5  C   UNL     1      40.532  46.227  18.414 -0.39 -0.01    +0.136 A  ATOM      6  N   UNL     1      40.250  45.690  19.617 -0.26 -0.00    -0.238 NA ATOM      7  C   UNL     1      39.037  45.105  19.786 -0.31 -0.00    +0.122 A  ATOM      8  C   UNL     1      38.376  45.554  17.559 -0.37 -0.01    +0.028 A  ATOM      9  C   UNL     1      38.055  45.005  18.804 -0.38 -0.00    +0.001 A  BRANCH   5  10ATOM     10  N   UNL     1      41.800  46.816  18.293 -0.26 +0.01    -0.383 N  ATOM     11  H   UNL     1      41.710  47.802  18.558 +0.07 -0.00    +0.158 HD ATOM     12  H   UNL     1      42.089  46.825  17.320 -0.40 -0.04    +0.158 HD ENDBRANCH   5  10BRANCH   9  13ATOM     13  C   UNL     1      36.760  44.358  19.057 -0.36 +0.00    -0.017 A  ATOM     14  C   UNL     1      36.654  43.267  19.936 -0.38 -0.00    +0.009 A  ATOM     15  C   UNL     1      35.588  44.815  18.430 -0.35 -0.00    +0.009 A  ATOM     16  C   UNL     1      35.422  42.655  20.179 -0.46 -0.00    +0.001 A  ATOM     17  C   UNL     1      34.355  44.204  18.673 -0.37 -0.00    +0.001 A  ATOM     18  C   UNL     1      34.273  43.123  19.548 -0.41 -0.00    +0.000 A  ENDBRANCH   9  13ENDBRANCH   2   4ENDBRANCH   1   2BRANCH   1  19ATOM     19  C   UNL     1      39.548  49.113  15.713 -0.45 -0.08    +0.154 C  BRANCH  19  20ATOM     20  C   UNL     1      41.051  49.338  15.527 -0.57 -0.03    +0.178 C  BRANCH  20  21ATOM     21  O   UNL     1      41.751  48.874  16.677 -0.82 -0.06    -0.395 OA ATOM     22  H   UNL     1      42.120  48.002  16.450 -0.35 -0.01    +0.210 HD ENDBRANCH  20  21ENDBRANCH  19  20ENDBRANCH   1  19BRANCH   1  23ATOM     23  C   UNL     1      38.182  47.477  14.428 -0.46 -0.02    +0.046 A  ATOM     24  C   UNL     1      37.361  48.506  13.937 -0.54 -0.01    +0.026 A  ATOM     25  C   UNL     1      38.022  46.193  13.889 -0.40 -0.01    +0.046 A  ATOM     26  C   UNL     1      36.427  48.266  12.924 -0.52 -0.00    +0.004 A  ATOM     27  C   UNL     1      37.089  45.958  12.875 -0.50 -0.02    +0.043 A  ATOM     28  C   UNL     1      36.292  46.989  12.389 -0.67 -0.01    +0.020 A  ATOM     29  Cl  UNL     1      36.928  44.376  12.216 -0.58 +0.03    -0.084 Cl ENDBRANCH   1  23TORSDOF 8TERENDMDL