REMARK SMILES Cc1c(C(=O)O)cccc1-c1cnc2c(c1)C(=O)N(Cc1c(F)cccc1Cl)[C@H](C)N2
REMARK SMILES IDX 11 1 12 2 13 3 14 4 15 5 16 6 17 7 18 8 19 9 29 10 30 11
REMARK SMILES IDX 31 12 10 14 2 15 3 16 7 17 9 18 8 19 1 20 4 21 5 22 6 23
REMARK SMILES IDX 20 25 21 26 22 27 27 28 24 29 26 30 25 31 23 32 28 33
REMARK H PARENT 31 13 6 24
ROOT
ATOM      1  C   UNL     1      -2.162  -0.898   0.298  1.00  0.00     0.001 A 
ATOM      2  C   UNL     1      -1.783  -2.175   0.716  1.00  0.00     0.122 A 
ATOM      3  N   UNL     1      -0.543  -2.512   1.157  1.00  0.00    -0.238 NA
ATOM      4  C   UNL     1       0.379  -1.531   1.190  1.00  0.00     0.140 A 
ATOM      5  C   UNL     1       0.100  -0.234   0.783  1.00  0.00     0.083 A 
ATOM      6  C   UNL     1      -1.180   0.094   0.336  1.00  0.00     0.028 A 
ATOM      7  C   UNL     1       1.187   0.753   0.858  1.00  0.00     0.259 C 
ATOM      8  O   UNL     1       0.917   1.946   0.760  1.00  0.00    -0.269 OA
ATOM      9  N   UNL     1       2.464   0.250   1.074  1.00  0.00    -0.314 N 
ATOM     10  C   UNL     1       2.729  -1.178   1.035  1.00  0.00     0.177 C 
ATOM     11  C   UNL     1       2.954  -1.723  -0.378  1.00  0.00     0.055 C 
ATOM     12  N   UNL     1       1.635  -1.863   1.685  1.00  0.00    -0.349 N 
ATOM     13  H   UNL     1       1.701  -2.873   1.752  1.00  0.00     0.164 HD
ENDROOT
BRANCH   1  14
ATOM     14  C   UNL     1      -3.524  -0.615  -0.171  1.00  0.00    -0.013 A 
ATOM     15  C   UNL     1      -4.488   0.057   0.626  1.00  0.00    -0.029 A 
ATOM     16  C   UNL     1      -5.764   0.332   0.073  1.00  0.00     0.063 A 
ATOM     17  C   UNL     1      -6.076  -0.093  -1.230  1.00  0.00     0.016 A 
ATOM     18  C   UNL     1      -3.873  -1.025  -1.472  1.00  0.00     0.009 A 
ATOM     19  C   UNL     1      -5.137  -0.773  -1.996  1.00  0.00     0.002 A 
ATOM     20  C   UNL     1      -4.157   0.492   2.036  1.00  0.00     0.046 C 
BRANCH  16  21
ATOM     21  C   UNL     1      -6.794   1.100   0.830  1.00  0.00     0.335 C 
ATOM     22  O   UNL     1      -6.606   1.905   1.722  1.00  0.00    -0.246 OA
BRANCH  21  23
ATOM     23  O   UNL     1      -8.045   0.799   0.432  1.00  0.00    -0.478 OA
ATOM     24  H   UNL     1      -8.610   1.352   1.012  1.00  0.00     0.297 HD
ENDBRANCH  21  23
ENDBRANCH  16  21
ENDBRANCH   1  14
BRANCH   9  25
ATOM     25  C   UNL     1       3.566   1.179   1.316  1.00  0.00     0.162 C 
BRANCH  25  26
ATOM     26  C   UNL     1       4.618   1.198   0.236  1.00  0.00     0.026 A 
ATOM     27  C   UNL     1       4.321   1.805  -0.992  1.00  0.00     0.129 A 
ATOM     28  C   UNL     1       5.899   0.645   0.388  1.00  0.00     0.048 A 
ATOM     29  C   UNL     1       5.245   1.862  -2.033  1.00  0.00     0.040 A 
ATOM     30  C   UNL     1       6.834   0.699  -0.655  1.00  0.00     0.021 A 
ATOM     31  C   UNL     1       6.508   1.307  -1.867  1.00  0.00     0.005 A 
ATOM     32  F   UNL     1       3.116   2.354  -1.194  1.00  0.00    -0.207 F 
ATOM     33  Cl  UNL     1       6.400  -0.139   1.844  1.00  0.00    -0.084 Cl
ENDBRANCH  25  26
ENDBRANCH   9  25
TORSDOF 5
