REMARK SMILES CC1=NC=CC(C=Cc2c(N)cccc2CN2CCOCC2)=CC=C1OCl
REMARK SMILES IDX 6 1 5 2 4 3 3 4 2 5 1 6 7 8 8 9 9 10 10 11 15 12 12 13 14 14
REMARK SMILES IDX 13 15 11 16 16 19 17 20 18 21 22 22 19 23 21 24 20 25 23 26
REMARK SMILES IDX 24 27 25 28 26 30 27 31
REMARK H PARENT 11 17 11 18
REMARK Flexibility Score:  169.900
ROOT
ATOM      1  C   UNL     1       1.982   0.002  -0.412  1.00  0.00    -0.024 C 
ENDROOT
BRANCH   1   2
ATOM      2  C   UNL     1       2.294  -1.353  -0.861  1.00  0.00     0.028 C 
BRANCH   2   3
ATOM      3  C   UNL     1       3.420  -2.031  -0.594  1.00  0.00     0.112 C 
BRANCH   3   4
ATOM      4  N   UNL     1       4.446  -1.624   0.214  1.00  0.00    -0.258 NA
BRANCH   4   5
ATOM      5  C   UNL     1       5.172  -0.608  -0.137  1.00  0.00     0.081 CG0
ATOM      6  C   UNL     1       6.312  -0.252   0.795  1.00  0.00     0.071 C 
ATOM      7  G   UNL     1       5.068   0.245  -1.370  1.00  0.00     0.000 G0
ENDBRANCH   4   5
ENDBRANCH   3   4
ENDBRANCH   2   3
ENDBRANCH   1   2
BRANCH   1   8
ATOM      8  C   UNL     1       0.749   0.312   0.311  1.00  0.00     0.009 C 
BRANCH   8   9
ATOM      9  C   UNL     1       0.040  -0.577   1.026  1.00  0.00     0.011 C 
BRANCH   9  10
ATOM     10  C   UNL     1      -1.203  -0.204   1.728  1.00  0.00     0.002 A 
ATOM     11  C   UNL     1      -1.125   0.540   2.934  1.00  0.00     0.039 A 
ATOM     12  C   UNL     1      -2.466  -0.590   1.207  1.00  0.00    -0.025 A 
ATOM     13  C   UNL     1      -2.302   0.828   3.635  1.00  0.00     0.026 A 
ATOM     14  C   UNL     1      -3.623  -0.256   1.935  1.00  0.00     0.006 A 
ATOM     15  C   UNL     1      -3.543   0.448   3.134  1.00  0.00     0.003 A 
BRANCH  11  16
ATOM     16  N   UNL     1       0.102   0.800   3.574  1.00  0.00    -0.398 N 
ATOM     17  H   UNL     1       0.903   0.798   2.949  1.00  0.00     0.156 HD
ATOM     18  H   UNL     1       0.088   1.603   4.193  1.00  0.00     0.156 HD
ENDBRANCH  11  16
BRANCH  12  19
ATOM     19  C   UNL     1      -2.618  -1.394  -0.076  1.00  0.00     0.120 C 
BRANCH  19  20
ATOM     20  N   UNL     1      -3.032  -0.674  -1.285  1.00  0.00    -0.294 NA
ATOM     21  C   UNL     1      -2.122   0.397  -1.709  1.00  0.00     0.113 C 
ATOM     22  C   UNL     1      -4.440  -0.267  -1.356  1.00  0.00     0.113 C 
ATOM     23  C   UNL     1      -2.748   1.236  -2.834  1.00  0.00     0.175 C 
ATOM     24  C   UNL     1      -4.630   1.259  -1.351  1.00  0.00     0.175 C 
ATOM     25  O   UNL     1      -3.946   1.915  -2.429  1.00  0.00    -0.379 OA
ENDBRANCH  19  20
ENDBRANCH  12  19
ENDBRANCH   9  10
ENDBRANCH   8   9
ENDBRANCH   1   8
BRANCH   1  26
ATOM     26  C   UNL     1       2.763   1.038  -0.792  1.00  0.00     0.012 C 
BRANCH  26  27
ATOM     27  C   UNL     1       3.955   0.964  -1.616  1.00  0.00     0.051 C 
BRANCH  27  28
ATOM     28  C   UNL     1       5.068   0.245  -1.370  1.00  0.00     0.167 CG0
ATOM     29  G   UNL     1       5.172  -0.608  -0.137  1.00  0.00     0.000 G0
BRANCH  28  30
ATOM     30  O   UNL     1       6.191   0.221  -2.179  1.00  0.00    -0.384 OA
ATOM     31  Cl  UNL     1       6.662   1.708  -2.813  1.00  0.00     0.135 Cl
ENDBRANCH  28  30
ENDBRANCH  27  28
ENDBRANCH  26  27
ENDBRANCH   1  26
TORSDOF 7
