REMARK SMILES CNC1=C(c2ccco2)N=Nc2c(Cl)ccnc2N=C1N
REMARK SMILES IDX 10 1 4 2 3 3 2 5 1 6 5 8 6 9 9 10 7 11 8 12 11 13 12 14
REMARK SMILES IDX 13 15 18 16 15 17 17 18 16 19 14 20 19 21 20 22 21 23
REMARK H PARENT 2 7 21 24 21 25
REMARK Flexibility Score:   51.900
ROOT
ATOM      1  N   UNL     1       0.103   1.317   1.584  1.00  0.00    -0.144 NA
ENDROOT
BRANCH   1   2
ATOM      2  C   UNL     1      -0.531   0.678   0.537  1.00  0.00     0.155 C 
BRANCH   2   3
ATOM      3  C   UNL     1      -0.304   0.927  -0.774  1.00  0.00     0.109 CG0
ATOM      4  G   UNL     1       0.865   1.863  -1.078  1.00  0.00     0.000 G0
BRANCH   3   5
ATOM      5  N   UNL     1      -0.979   0.485  -1.922  1.00  0.00    -0.383 N 
ATOM      6  C   UNL     1      -2.399   0.738  -2.121  1.00  0.00     0.140 C 
ATOM      7  H   UNL     1      -0.452   0.797  -2.745  1.00  0.00     0.160 HD
ENDBRANCH   3   5
ENDBRANCH   2   3
BRANCH   2   8
ATOM      8  C   UNL     1      -1.517  -0.269   0.964  1.00  0.00     0.156 A 
ATOM      9  C   UNL     1      -1.818  -1.537   0.466  1.00  0.00     0.053 A 
ATOM     10  O   UNL     1      -2.343  -0.061   2.053  1.00  0.00    -0.463 OA
ATOM     11  C   UNL     1      -2.848  -2.092   1.259  1.00  0.00     0.043 A 
ATOM     12  C   UNL     1      -3.130  -1.151   2.215  1.00  0.00     0.196 A 
ENDBRANCH   2   8
ENDBRANCH   1   2
BRANCH   1  13
ATOM     13  N   UNL     1       1.286   1.082   1.940  1.00  0.00    -0.145 NA
BRANCH  13  14
ATOM     14  C   UNL     1       2.055   0.172   1.182  1.00  0.00     0.149 A 
ATOM     15  C   UNL     1       2.491  -1.044   1.717  1.00  0.00     0.074 A 
ATOM     16  C   UNL     1       2.460   0.457  -0.128  1.00  0.00     0.183 A 
ATOM     17  C   UNL     1       3.276  -1.914   0.964  1.00  0.00     0.043 A 
ATOM     18  N   UNL     1       3.226  -0.372  -0.878  1.00  0.00    -0.235 NA
ATOM     19  C   UNL     1       3.614  -1.534  -0.319  1.00  0.00     0.115 A 
ATOM     20  Cl  UNL     1       2.067  -1.520   3.324  1.00  0.00    -0.082 Cl
BRANCH  16  21
ATOM     21  N   UNL     1       2.115   1.650  -0.783  1.00  0.00    -0.207 NA
BRANCH  21  22
ATOM     22  C   UNL     1       0.865   1.863  -1.078  1.00  0.00     0.151 CG0
ATOM     23  N   UNL     1       0.602   3.008  -1.794  1.00  0.00    -0.382 N 
ATOM     24  H   UNL     1      -0.280   3.454  -1.573  1.00  0.00     0.158 HD
ATOM     25  H   UNL     1       1.388   3.651  -1.749  1.00  0.00     0.158 HD
ATOM     26  G   UNL     1      -0.304   0.927  -0.774  1.00  0.00     0.000 G0
ENDBRANCH  21  22
ENDBRANCH  16  21
ENDBRANCH  13  14
ENDBRANCH   1  13
TORSDOF 2
