
     RDKit          3D

 49 51  0  0  0  0  0  0  0  0999 V2000
   -3.7823    1.5949   -2.2007 C   0  0  0  0  0  0  0  0  0  0  0  0
   -3.1211    2.0186   -1.0070 O   0  0  0  0  0  0  0  0  0  0  0  0
   -3.7860    1.5275    0.0905 C   0  0  0  0  0  0  0  0  0  0  0  0
   -4.8286    2.2936    0.6201 C   0  0  0  0  0  0  0  0  0  0  0  0
   -5.5171    1.8448    1.7442 C   0  0  0  0  0  0  0  0  0  0  0  0
   -5.1541    0.6416    2.3443 C   0  0  0  0  0  0  0  0  0  0  0  0
   -4.0946   -0.1090    1.8260 C   0  0  0  0  0  0  0  0  0  0  0  0
   -3.3828    0.3199    0.6918 C   0  0  0  0  0  0  0  0  0  0  0  0
   -2.2405   -0.4728    0.1882 C   0  0  0  0  0  0  0  0  0  0  0  0
   -0.9523    0.1024    0.2006 C   0  0  0  0  0  0  0  0  0  0  0  0
    0.1750   -0.5956   -0.2478 C   0  0  0  0  0  0  0  0  0  0  0  0
    1.4129    0.0773   -0.1889 N   0  0  0  0  0  0  0  0  0  0  0  0
    2.6567   -0.3994   -0.5724 C   0  0  0  0  0  0  0  0  0  0  0  0
    2.8913   -1.4976   -1.0638 O   0  0  0  0  0  0  0  0  0  0  0  0
    3.7565    0.6378   -0.3546 C   0  0  0  0  0  0  0  0  0  0  0  0
    3.9029    1.0562    1.1209 C   0  0  0  0  0  0  0  0  0  0  0  0
    5.3841    0.9028    1.4652 C   0  0  0  0  0  0  0  0  0  0  0  0
    6.0859    0.9550    0.1140 C   0  0  0  0  0  0  0  0  0  0  0  0
    7.4373    0.4259    0.1601 N   0  0  0  0  0  0  0  0  0  0  0  0
    5.1471    0.1447   -0.7707 C   0  0  0  0  0  0  0  0  0  0  0  0
    0.0112   -1.8957   -0.7142 C   0  0  0  0  0  0  0  0  0  0  0  0
   -1.2580   -2.4879   -0.7415 C   0  0  0  0  0  0  0  0  0  0  0  0
   -2.3859   -1.7897   -0.2978 C   0  0  0  0  0  0  0  0  0  0  0  0
   -3.6606   -2.2990   -0.3085 O   0  0  0  0  0  0  0  0  0  0  0  0
   -3.8441   -3.6098   -0.8263 C   0  0  0  0  0  0  0  0  0  0  0  0
   -4.7217    2.1423   -2.3341 H   0  0  0  0  0  0  0  0  0  0  0  0
   -3.1276    1.8308   -3.0458 H   0  0  0  0  0  0  0  0  0  0  0  0
   -3.9684    0.5141   -2.2103 H   0  0  0  0  0  0  0  0  0  0  0  0
   -5.0991    3.2379    0.1581 H   0  0  0  0  0  0  0  0  0  0  0  0
   -6.3330    2.4337    2.1542 H   0  0  0  0  0  0  0  0  0  0  0  0
   -5.6889    0.2865    3.2219 H   0  0  0  0  0  0  0  0  0  0  0  0
   -3.8176   -1.0399    2.3182 H   0  0  0  0  0  0  0  0  0  0  0  0
   -0.8477    1.1199    0.5737 H   0  0  0  0  0  0  0  0  0  0  0  0
    1.3777    1.0236    0.1687 H   0  0  0  0  0  0  0  0  0  0  0  0
    3.4998    1.5210   -0.9553 H   0  0  0  0  0  0  0  0  0  0  0  0
    3.5992    2.1043    1.2338 H   0  0  0  0  0  0  0  0  0  0  0  0
    3.2877    0.4633    1.8063 H   0  0  0  0  0  0  0  0  0  0  0  0
    5.5440   -0.0652    1.9569 H   0  0  0  0  0  0  0  0  0  0  0  0
    5.7300    1.6855    2.1472 H   0  0  0  0  0  0  0  0  0  0  0  0
    6.1234    1.9934   -0.2388 H   0  0  0  0  0  0  0  0  0  0  0  0
    7.4239   -0.5285    0.5200 H   0  0  0  0  0  0  0  0  0  0  0  0
    7.8072    0.3544   -0.7881 H   0  0  0  0  0  0  0  0  0  0  0  0
    5.3347    0.3149   -1.8367 H   0  0  0  0  0  0  0  0  0  0  0  0
    5.2646   -0.9301   -0.5815 H   0  0  0  0  0  0  0  0  0  0  0  0
    0.8510   -2.4841   -1.0697 H   0  0  0  0  0  0  0  0  0  0  0  0
   -1.3234   -3.5040   -1.1184 H   0  0  0  0  0  0  0  0  0  0  0  0
   -4.9112   -3.8457   -0.7688 H   0  0  0  0  0  0  0  0  0  0  0  0
   -3.5489   -3.6635   -1.8791 H   0  0  0  0  0  0  0  0  0  0  0  0
   -3.3085   -4.3509   -0.2249 H   0  0  0  0  0  0  0  0  0  0  0  0
  1  2  1  0
  2  3  1  0
  3  4  2  0
  4  5  1  0
  5  6  2  0
  6  7  1  0
  7  8  2  0
  8  9  1  0
  9 10  2  0
 10 11  1  0
 11 12  1  0
 12 13  1  0
 13 14  2  0
 13 15  1  0
 15 16  1  0
 16 17  1  0
 17 18  1  0
 18 19  1  0
 18 20  1  0
 11 21  2  0
 21 22  1  0
 22 23  2  0
 23 24  1  0
 24 25  1  0
  8  3  1  0
 23  9  1  0
 20 15  1  0
  1 26  1  0
  1 27  1  0
  1 28  1  0
  4 29  1  0
  5 30  1  0
  6 31  1  0
  7 32  1  0
 10 33  1  0
 12 34  1  0
 15 35  1  0
 16 36  1  0
 16 37  1  0
 17 38  1  0
 17 39  1  0
 18 40  1  0
 19 41  1  0
 19 42  1  0
 20 43  1  0
 20 44  1  0
 21 45  1  0
 22 46  1  0
 25 47  1  0
 25 48  1  0
 25 49  1  0
M  END
$$$$
