
     RDKit          3D

 43 45  0  0  0  0  0  0  0  0999 V2000
    3.9669    1.5089    2.2127 N   0  0  0  0  0  0  0  0  0  0  0  0
    3.5310    0.1191    2.2825 C   0  0  0  0  0  0  0  0  0  0  0  0
    3.0236   -0.3882    0.9312 C   0  0  0  0  0  0  0  0  0  0  0  0
    1.7435    0.3196    0.4700 C   0  0  0  0  0  0  0  0  0  0  0  0
    1.2626   -0.1598   -0.9115 C   0  0  0  0  0  0  0  0  0  0  0  0
    1.0494   -1.6686   -1.1175 C   0  0  0  0  0  0  0  0  0  0  0  0
    0.4061   -2.3988   -0.0863 O   0  0  0  0  0  0  0  0  0  0  0  0
   -0.6604   -1.9031    0.6061 C   0  0  0  0  0  0  0  0  0  0  0  0
   -0.9407   -2.7271    1.7183 C   0  0  0  0  0  0  0  0  0  0  0  0
   -1.9144   -2.3929    2.6473 C   0  0  0  0  0  0  0  0  0  0  0  0
   -2.5736   -1.1962    2.4846 C   0  0  0  0  0  0  0  0  0  0  0  0
   -3.4899   -0.8054    3.4245 O   0  0  0  0  0  0  0  0  0  0  0  0
   -2.3055   -0.3344    1.4040 C   0  0  0  0  0  0  0  0  0  0  0  0
   -3.1133    0.8472    1.3581 N   0  0  0  0  0  0  0  0  0  0  0  0
   -1.4073   -0.7276    0.3651 C   0  0  0  0  0  0  0  0  0  0  0  0
   -1.2657    0.1108   -0.8594 C   0  0  0  0  0  0  0  0  0  0  0  0
   -2.4202    0.5427   -1.5475 C   0  0  0  0  0  0  0  0  0  0  0  0
   -2.3502    1.4383   -2.6095 C   0  0  0  0  0  0  0  0  0  0  0  0
   -3.5237    1.8275   -3.1844 O   0  0  0  0  0  0  0  0  0  0  0  0
   -1.1298    1.9183   -3.0501 C   0  0  0  0  0  0  0  0  0  0  0  0
    0.0289    1.4405   -2.4442 C   0  0  0  0  0  0  0  0  0  0  0  0
    1.2472    1.8549   -2.9109 O   0  0  0  0  0  0  0  0  0  0  0  0
   -0.0163    0.5165   -1.3789 C   0  0  0  0  0  0  0  0  0  0  0  0
    4.3427    1.7899    3.1173 H   0  0  0  0  0  0  0  0  0  0  0  0
    4.7305    1.5958    1.5439 H   0  0  0  0  0  0  0  0  0  0  0  0
    2.7443    0.0235    3.0387 H   0  0  0  0  0  0  0  0  0  0  0  0
    4.3740   -0.5011    2.6066 H   0  0  0  0  0  0  0  0  0  0  0  0
    3.8073   -0.2717    0.1723 H   0  0  0  0  0  0  0  0  0  0  0  0
    2.8333   -1.4634    1.0271 H   0  0  0  0  0  0  0  0  0  0  0  0
    1.9251    1.4006    0.4083 H   0  0  0  0  0  0  0  0  0  0  0  0
    0.9755    0.1982    1.2394 H   0  0  0  0  0  0  0  0  0  0  0  0
    2.0628    0.1009   -1.6167 H   0  0  0  0  0  0  0  0  0  0  0  0
    2.0378   -2.1335   -1.2228 H   0  0  0  0  0  0  0  0  0  0  0  0
    0.5334   -1.8823   -2.0635 H   0  0  0  0  0  0  0  0  0  0  0  0
   -0.3670   -3.6411    1.8618 H   0  0  0  0  0  0  0  0  0  0  0  0
   -2.1230   -3.0317    3.4982 H   0  0  0  0  0  0  0  0  0  0  0  0
   -3.6945    0.1166    3.1608 H   0  0  0  0  0  0  0  0  0  0  0  0
   -2.6417    1.5709    0.8133 H   0  0  0  0  0  0  0  0  0  0  0  0
   -3.9980    0.6288    0.8985 H   0  0  0  0  0  0  0  0  0  0  0  0
   -3.4019    0.1789   -1.2517 H   0  0  0  0  0  0  0  0  0  0  0  0
   -3.3316    2.4130   -3.9354 H   0  0  0  0  0  0  0  0  0  0  0  0
   -1.0769    2.6225   -3.8718 H   0  0  0  0  0  0  0  0  0  0  0  0
    1.1199    2.5430   -3.5838 H   0  0  0  0  0  0  0  0  0  0  0  0
  1  2  1  0
  2  3  1  0
  3  4  1  0
  4  5  1  0
  5  6  1  0
  6  7  1  0
  7  8  1  0
  8  9  2  0
  9 10  1  0
 10 11  2  0
 11 12  1  0
 11 13  1  0
 13 14  1  0
 13 15  2  0
 15 16  1  0
 16 17  2  0
 17 18  1  0
 18 19  1  0
 18 20  2  0
 20 21  1  0
 21 22  1  0
 21 23  2  0
 23  5  1  0
 15  8  1  0
 23 16  1  0
  1 24  1  0
  1 25  1  0
  2 26  1  0
  2 27  1  0
  3 28  1  0
  3 29  1  0
  4 30  1  0
  4 31  1  0
  5 32  1  0
  6 33  1  0
  6 34  1  0
  9 35  1  0
 10 36  1  0
 12 37  1  0
 14 38  1  0
 14 39  1  0
 17 40  1  0
 19 41  1  0
 20 42  1  0
 22 43  1  0
M  END
$$$$
