
     RDKit          3D

 54 57  0  0  0  0  0  0  0  0999 V2000
   -7.1427    2.3183   -2.3451 C   0  0  0  0  0  0  0  0  0  0  0  0
   -7.2781    1.3527   -1.2792 N   0  0  0  0  0  0  0  0  0  0  0  0
   -6.1927    0.6671   -0.7922 C   0  0  0  0  0  0  0  0  0  0  0  0
   -4.9472    0.9064   -1.1109 N   0  0  0  0  0  0  0  0  0  0  0  0
   -4.1713   -0.0378   -0.4185 C   0  0  0  0  0  0  0  0  0  0  0  0
   -2.7984   -0.1509   -0.4508 C   0  0  0  0  0  0  0  0  0  0  0  0
   -2.2212   -1.1668    0.3099 C   0  0  0  0  0  0  0  0  0  0  0  0
   -0.7593   -1.3898    0.3636 C   0  0  0  0  0  0  0  0  0  0  0  0
    0.1658   -0.3378    0.2410 C   0  0  0  0  0  0  0  0  0  0  0  0
    1.5503   -0.5632    0.2906 C   0  0  0  0  0  0  0  0  0  0  0  0
    2.0466   -1.8509    0.4709 C   0  0  0  0  0  0  0  0  0  0  0  0
    3.3610   -2.2160    0.5314 O   0  0  0  0  0  0  0  0  0  0  0  0
    4.3598   -1.1927    0.5730 C   0  0  0  0  0  0  0  0  0  0  0  0
    4.8042   -0.8066   -0.8504 C   0  0  0  0  0  0  0  0  0  0  0  0
    5.8582    0.2068   -0.9795 N   0  0  0  0  0  0  0  0  0  0  0  0
    7.1850   -0.2627   -0.5480 C   0  0  0  0  0  0  0  0  0  0  0  0
    8.1593    0.9145   -0.3890 C   0  0  0  0  0  0  0  0  0  0  0  0
    7.7589    1.8346    0.6368 O   0  0  0  0  0  0  0  0  0  0  0  0
    6.3418    1.8655    0.8506 C   0  0  0  0  0  0  0  0  0  0  0  0
    5.5255    1.5217   -0.4065 C   0  0  0  0  0  0  0  0  0  0  0  0
    1.1452   -2.9070    0.5965 C   0  0  0  0  0  0  0  0  0  0  0  0
   -0.2349   -2.6798    0.5490 C   0  0  0  0  0  0  0  0  0  0  0  0
   -2.9746   -2.0363    1.0539 N   0  0  0  0  0  0  0  0  0  0  0  0
   -4.3180   -1.8855    1.0659 C   0  0  0  0  0  0  0  0  0  0  0  0
   -4.9379   -0.9054    0.3430 C   0  0  0  0  0  0  0  0  0  0  0  0
   -6.3694   -0.5346    0.1686 C   0  0  0  0  0  0  0  0  0  0  0  0
   -7.1120   -0.1889    1.4557 C   0  0  0  0  0  0  0  0  0  0  0  0
   -6.4302    0.7852    2.2360 O   0  0  0  0  0  0  0  0  0  0  0  0
   -6.8590    1.8238   -3.2791 H   0  0  0  0  0  0  0  0  0  0  0  0
   -8.0971    2.8291   -2.5036 H   0  0  0  0  0  0  0  0  0  0  0  0
   -6.3926    3.0761   -2.0982 H   0  0  0  0  0  0  0  0  0  0  0  0
   -8.1882    0.9177   -1.1997 H   0  0  0  0  0  0  0  0  0  0  0  0
   -2.2166    0.5257   -1.0616 H   0  0  0  0  0  0  0  0  0  0  0  0
   -0.1799    0.6870    0.1198 H   0  0  0  0  0  0  0  0  0  0  0  0
    2.2026    0.2954    0.1798 H   0  0  0  0  0  0  0  0  0  0  0  0
    5.2066   -1.6317    1.1110 H   0  0  0  0  0  0  0  0  0  0  0  0
    4.0391   -0.3349    1.1738 H   0  0  0  0  0  0  0  0  0  0  0  0
    3.9315   -0.4645   -1.4204 H   0  0  0  0  0  0  0  0  0  0  0  0
    5.1175   -1.7179   -1.3776 H   0  0  0  0  0  0  0  0  0  0  0  0
    7.1246   -0.7837    0.4140 H   0  0  0  0  0  0  0  0  0  0  0  0
    7.5790   -0.9664   -1.2893 H   0  0  0  0  0  0  0  0  0  0  0  0
    8.2567    1.4713   -1.3285 H   0  0  0  0  0  0  0  0  0  0  0  0
    9.1559    0.5454   -0.1259 H   0  0  0  0  0  0  0  0  0  0  0  0
    6.1078    1.1713    1.6659 H   0  0  0  0  0  0  0  0  0  0  0  0
    6.0860    2.8711    1.1996 H   0  0  0  0  0  0  0  0  0  0  0  0
    5.7579    2.2684   -1.1762 H   0  0  0  0  0  0  0  0  0  0  0  0
    4.4538    1.6206   -0.2001 H   0  0  0  0  0  0  0  0  0  0  0  0
    1.5146   -3.9197    0.7379 H   0  0  0  0  0  0  0  0  0  0  0  0
   -0.9094   -3.5280    0.6566 H   0  0  0  0  0  0  0  0  0  0  0  0
   -4.8642   -2.5910    1.6809 H   0  0  0  0  0  0  0  0  0  0  0  0
   -6.9004   -1.3220   -0.3793 H   0  0  0  0  0  0  0  0  0  0  0  0
   -8.1105    0.1992    1.2290 H   0  0  0  0  0  0  0  0  0  0  0  0
   -7.2264   -1.0859    2.0740 H   0  0  0  0  0  0  0  0  0  0  0  0
   -6.9631    0.9566    3.0308 H   0  0  0  0  0  0  0  0  0  0  0  0
  1  2  1  0
  2  3  1  0
  3  4  2  0
  4  5  1  0
  5  6  2  0
  6  7  1  0
  7  8  1  0
  8  9  2  0
  9 10  1  0
 10 11  2  0
 11 12  1  0
 12 13  1  0
 13 14  1  0
 14 15  1  0
 15 16  1  0
 16 17  1  0
 17 18  1  0
 18 19  1  0
 19 20  1  0
 11 21  1  0
 21 22  2  0
  7 23  2  0
 23 24  1  0
 24 25  2  0
 25 26  1  0
 26 27  1  0
 27 28  1  0
 26  3  1  0
 25  5  1  0
 22  8  1  0
 20 15  1  0
  1 29  1  0
  1 30  1  0
  1 31  1  0
  2 32  1  0
  6 33  1  0
  9 34  1  0
 10 35  1  0
 13 36  1  0
 13 37  1  0
 14 38  1  0
 14 39  1  0
 16 40  1  0
 16 41  1  0
 17 42  1  0
 17 43  1  0
 19 44  1  0
 19 45  1  0
 20 46  1  0
 20 47  1  0
 21 48  1  0
 22 49  1  0
 24 50  1  0
 26 51  1  0
 27 52  1  0
 27 53  1  0
 28 54  1  0
M  END
$$$$
