
     RDKit          3D

 65 68  0  0  0  0  0  0  0  0999 V2000
    7.7241   -0.9544   -3.0369 C   0  0  0  0  0  0  0  0  0  0  0  0
    6.9650   -0.7202   -1.8579 O   0  0  0  0  0  0  0  0  0  0  0  0
    6.2688    0.4555   -1.7836 C   0  0  0  0  0  0  0  0  0  0  0  0
    6.0941    1.3611   -2.8354 C   0  0  0  0  0  0  0  0  0  0  0  0
    5.3338    2.5242   -2.6522 C   0  0  0  0  0  0  0  0  0  0  0  0
    4.7497    2.7859   -1.4147 C   0  0  0  0  0  0  0  0  0  0  0  0
    3.9820    3.9019   -1.2423 O   0  0  0  0  0  0  0  0  0  0  0  0
    4.9280    1.8915   -0.3603 C   0  0  0  0  0  0  0  0  0  0  0  0
    4.3668    2.1698    0.9663 C   0  0  0  0  0  0  0  0  0  0  0  0
    4.9762    2.9424    1.7014 O   0  0  0  0  0  0  0  0  0  0  0  0
    3.0979    1.5263    1.4108 C   0  0  0  0  0  0  0  0  0  0  0  0
    2.3648    0.6597    0.5904 C   0  0  0  0  0  0  0  0  0  0  0  0
    1.1820    0.0752    1.0597 C   0  0  0  0  0  0  0  0  0  0  0  0
    0.7164    0.3578    2.3516 C   0  0  0  0  0  0  0  0  0  0  0  0
   -0.5369   -0.2318    2.8942 C   0  0  0  0  0  0  0  0  0  0  0  0
   -1.0523    0.1154    3.9431 O   0  0  0  0  0  0  0  0  0  0  0  0
   -1.0028   -1.2008    2.0654 O   0  0  0  0  0  0  0  0  0  0  0  0
   -2.2304   -1.8543    2.4857 C   0  0  2  0  0  0  0  0  0  0  0  0
   -2.1905   -3.2646    1.8794 C   0  0  0  0  0  0  0  0  0  0  0  0
   -3.2827   -4.1755    2.4283 C   0  0  0  0  0  0  0  0  0  0  0  0
   -4.6334   -4.0569    1.7228 C   0  0  0  0  0  0  0  0  0  0  0  0
   -5.1222   -2.7291    1.3891 N   0  0  0  0  0  0  0  0  0  0  0  0
   -4.7945   -1.6685    2.3463 C   0  0  0  0  0  0  0  0  0  0  0  0
   -3.4352   -0.9867    2.0516 C   0  0  0  0  0  0  0  0  0  0  0  0
   -3.3080   -0.6107    0.6315 N   0  0  0  0  0  0  0  0  0  0  0  0
   -4.0245    0.4358    0.0927 C   0  0  0  0  0  0  0  0  0  0  0  0
   -4.8885    1.0444    0.7162 O   0  0  0  0  0  0  0  0  0  0  0  0
   -3.6480    0.7884   -1.2767 C   0  0  0  0  0  0  0  0  0  0  0  0
   -2.7466    0.1512   -2.1852 C   0  0  0  0  0  0  0  0  0  0  0  0
   -2.7404    0.8727   -3.3604 C   0  0  0  0  0  0  0  0  0  0  0  0
   -3.6067    1.9192   -3.2108 N   0  0  0  0  0  0  0  0  0  0  0  0
   -3.9088    2.9154   -4.2130 C   0  0  0  0  0  0  0  0  0  0  0  0
   -4.1606    1.8795   -1.9621 C   0  0  0  0  0  0  0  0  0  0  0  0
    1.4436    1.2333    3.1676 C   0  0  0  0  0  0  0  0  0  0  0  0
    2.6285    1.8102    2.7007 C   0  0  0  0  0  0  0  0  0  0  0  0
    5.6789    0.7329   -0.5453 C   0  0  0  0  0  0  0  0  0  0  0  0
    5.8193   -0.1404    0.4663 F   0  0  0  0  0  0  0  0  0  0  0  0
    7.0719   -1.0613   -3.9104 H   0  0  0  0  0  0  0  0  0  0  0  0
    8.2615   -1.8986   -2.9056 H   0  0  0  0  0  0  0  0  0  0  0  0
    8.4676   -0.1648   -3.1926 H   0  0  0  0  0  0  0  0  0  0  0  0
    6.5272    1.1860   -3.8154 H   0  0  0  0  0  0  0  0  0  0  0  0
    5.2043    3.2072   -3.4878 H   0  0  0  0  0  0  0  0  0  0  0  0
    4.1175    4.5143   -1.9841 H   0  0  0  0  0  0  0  0  0  0  0  0
    2.6895    0.4232   -0.4187 H   0  0  0  0  0  0  0  0  0  0  0  0
    0.6353   -0.5964    0.4027 H   0  0  0  0  0  0  0  0  0  0  0  0
   -2.2297   -1.9591    3.5791 H   0  0  0  0  0  0  0  0  0  0  0  0
   -1.2168   -3.7073    2.1313 H   0  0  0  0  0  0  0  0  0  0  0  0
   -2.2132   -3.2289    0.7834 H   0  0  0  0  0  0  0  0  0  0  0  0
   -2.9485   -5.2160    2.3272 H   0  0  0  0  0  0  0  0  0  0  0  0
   -3.4060   -4.0052    3.5046 H   0  0  0  0  0  0  0  0  0  0  0  0
   -4.5966   -4.6383    0.7932 H   0  0  0  0  0  0  0  0  0  0  0  0
   -5.3868   -4.5548    2.3455 H   0  0  0  0  0  0  0  0  0  0  0  0
   -4.7870   -2.4389    0.4686 H   0  0  0  0  0  0  0  0  0  0  0  0
   -5.5847   -0.9142    2.2528 H   0  0  0  0  0  0  0  0  0  0  0  0
   -4.8488   -2.0211    3.3830 H   0  0  0  0  0  0  0  0  0  0  0  0
   -3.4020   -0.0448    2.6143 H   0  0  0  0  0  0  0  0  0  0  0  0
   -2.4460   -0.8610    0.1706 H   0  0  0  0  0  0  0  0  0  0  0  0
   -2.1667   -0.7458   -2.0154 H   0  0  0  0  0  0  0  0  0  0  0  0
   -2.1979    0.7154   -4.2834 H   0  0  0  0  0  0  0  0  0  0  0  0
   -4.9948    3.0010   -4.3032 H   0  0  0  0  0  0  0  0  0  0  0  0
   -3.4730    3.8649   -3.8922 H   0  0  0  0  0  0  0  0  0  0  0  0
   -3.4815    2.6103   -5.1716 H   0  0  0  0  0  0  0  0  0  0  0  0
   -4.8815    2.6224   -1.6418 H   0  0  0  0  0  0  0  0  0  0  0  0
    1.0942    1.4708    4.1717 H   0  0  0  0  0  0  0  0  0  0  0  0
    3.1857    2.4854    3.3491 H   0  0  0  0  0  0  0  0  0  0  0  0
  1  2  1  0
  2  3  1  0
  3  4  2  0
  4  5  1  0
  5  6  2  0
  6  7  1  0
  6  8  1  0
  8  9  1  0
  9 10  2  0
  9 11  1  0
 11 12  2  0
 12 13  1  0
 13 14  2  0
 14 15  1  0
 15 16  2  0
 15 17  1  0
 17 18  1  0
 18 19  1  0
 19 20  1  0
 20 21  1  0
 21 22  1  0
 22 23  1  0
 23 24  1  0
 24 25  1  0
 25 26  1  0
 26 27  2  0
 26 28  1  0
 28 29  1  0
 29 30  2  0
 30 31  1  0
 31 32  1  0
 31 33  1  0
 14 34  1  0
 34 35  2  0
  8 36  2  0
 36 37  1  0
 36  3  1  0
 35 11  1  0
 24 18  1  0
 33 28  2  0
  1 38  1  0
  1 39  1  0
  1 40  1  0
  4 41  1  0
  5 42  1  0
  7 43  1  0
 12 44  1  0
 13 45  1  0
 18 46  1  1
 19 47  1  0
 19 48  1  0
 20 49  1  0
 20 50  1  0
 21 51  1  0
 21 52  1  0
 22 53  1  0
 23 54  1  0
 23 55  1  0
 24 56  1  0
 25 57  1  0
 29 58  1  0
 30 59  1  0
 32 60  1  0
 32 61  1  0
 32 62  1  0
 33 63  1  0
 34 64  1  0
 35 65  1  0
M  END
$$$$
