
     RDKit          3D

 49 51  0  0  0  0  0  0  0  0999 V2000
    4.3207   -0.6458   -2.7148 C   0  0  0  0  0  0  0  0  0  0  0  0
    3.6867   -0.5493   -1.4461 O   0  0  0  0  0  0  0  0  0  0  0  0
    4.4286   -0.0647   -0.3986 C   0  0  0  0  0  0  0  0  0  0  0  0
    5.7209    0.4595   -0.5239 C   0  0  0  0  0  0  0  0  0  0  0  0
    6.4083    0.9287    0.5981 C   0  0  0  0  0  0  0  0  0  0  0  0
    5.8122    0.8820    1.8535 C   0  0  0  0  0  0  0  0  0  0  0  0
    4.5247    0.3660    1.9891 C   0  0  0  0  0  0  0  0  0  0  0  0
    3.8143   -0.1140    0.8725 C   0  0  0  0  0  0  0  0  0  0  0  0
    2.4587   -0.6601    1.0686 C   0  0  0  0  0  0  0  0  0  0  0  0
    1.3398    0.0883    0.6547 C   0  0  0  0  0  0  0  0  0  0  0  0
    0.0285   -0.3735    0.8491 C   0  0  0  0  0  0  0  0  0  0  0  0
   -1.0167    0.4555    0.3893 N   0  0  0  0  0  0  0  0  0  0  0  0
   -2.3812    0.2343    0.4873 C   0  0  0  0  0  0  0  0  0  0  0  0
   -2.9150   -0.7264    1.0301 O   0  0  0  0  0  0  0  0  0  0  0  0
   -3.2032    1.3508   -0.1744 C   0  0  0  0  0  0  0  0  0  0  0  0
   -3.0000    1.3738   -1.6956 C   0  0  0  0  0  0  0  0  0  0  0  0
   -3.7928    0.2833   -2.4094 C   0  0  0  0  0  0  0  0  0  0  0  0
   -5.2795    0.3910   -2.0881 C   0  0  0  0  0  0  0  0  0  0  0  0
   -5.5721    0.3309   -0.5861 C   0  0  0  0  0  0  0  0  0  0  0  0
   -5.4343   -1.0415   -0.1023 N   0  0  0  0  0  0  0  0  0  0  0  0
   -4.6974    1.3224    0.2019 C   0  0  0  0  0  0  0  0  0  0  0  0
   -0.1659   -1.6058    1.4711 C   0  0  0  0  0  0  0  0  0  0  0  0
    0.9298   -2.3669    1.8862 C   0  0  0  0  0  0  0  0  0  0  0  0
    2.2249   -1.9004    1.6805 C   0  0  0  0  0  0  0  0  0  0  0  0
    3.2368   -2.7210    2.1011 O   0  0  0  0  0  0  0  0  0  0  0  0
    4.5690    0.3465   -3.1058 H   0  0  0  0  0  0  0  0  0  0  0  0
    3.6116   -1.1078   -3.4090 H   0  0  0  0  0  0  0  0  0  0  0  0
    5.2069   -1.2880   -2.6680 H   0  0  0  0  0  0  0  0  0  0  0  0
    6.2228    0.5207   -1.4840 H   0  0  0  0  0  0  0  0  0  0  0  0
    7.4114    1.3339    0.4890 H   0  0  0  0  0  0  0  0  0  0  0  0
    6.3459    1.2493    2.7265 H   0  0  0  0  0  0  0  0  0  0  0  0
    4.0663    0.3385    2.9771 H   0  0  0  0  0  0  0  0  0  0  0  0
    1.5126    1.0485    0.1726 H   0  0  0  0  0  0  0  0  0  0  0  0
   -0.7254    1.3179   -0.0531 H   0  0  0  0  0  0  0  0  0  0  0  0
   -2.7966    2.2871    0.2351 H   0  0  0  0  0  0  0  0  0  0  0  0
   -1.9417    1.2743   -1.9610 H   0  0  0  0  0  0  0  0  0  0  0  0
   -3.3223    2.3511   -2.0778 H   0  0  0  0  0  0  0  0  0  0  0  0
   -3.6488    0.3808   -3.4916 H   0  0  0  0  0  0  0  0  0  0  0  0
   -3.4115   -0.7052   -2.1286 H   0  0  0  0  0  0  0  0  0  0  0  0
   -5.6590    1.3426   -2.4827 H   0  0  0  0  0  0  0  0  0  0  0  0
   -5.8285   -0.3977   -2.6175 H   0  0  0  0  0  0  0  0  0  0  0  0
   -6.6229    0.6085   -0.4380 H   0  0  0  0  0  0  0  0  0  0  0  0
   -4.4398   -1.2671    0.0308 H   0  0  0  0  0  0  0  0  0  0  0  0
   -5.7985   -1.0973    0.8500 H   0  0  0  0  0  0  0  0  0  0  0  0
   -5.0997    2.3277    0.0134 H   0  0  0  0  0  0  0  0  0  0  0  0
   -4.8158    1.1547    1.2801 H   0  0  0  0  0  0  0  0  0  0  0  0
   -1.1567   -2.0125    1.6452 H   0  0  0  0  0  0  0  0  0  0  0  0
    0.7697   -3.3299    2.3637 H   0  0  0  0  0  0  0  0  0  0  0  0
    4.0744   -2.3737    1.7497 H   0  0  0  0  0  0  0  0  0  0  0  0
  1  2  1  0
  2  3  1  0
  3  4  2  0
  4  5  1  0
  5  6  2  0
  6  7  1  0
  7  8  2  0
  8  9  1  0
  9 10  2  0
 10 11  1  0
 11 12  1  0
 12 13  1  0
 13 14  2  0
 13 15  1  0
 15 16  1  0
 16 17  1  0
 17 18  1  0
 18 19  1  0
 19 20  1  0
 19 21  1  0
 11 22  2  0
 22 23  1  0
 23 24  2  0
 24 25  1  0
  8  3  1  0
 24  9  1  0
 21 15  1  0
  1 26  1  0
  1 27  1  0
  1 28  1  0
  4 29  1  0
  5 30  1  0
  6 31  1  0
  7 32  1  0
 10 33  1  0
 12 34  1  0
 15 35  1  0
 16 36  1  0
 16 37  1  0
 17 38  1  0
 17 39  1  0
 18 40  1  0
 18 41  1  0
 19 42  1  0
 20 43  1  0
 20 44  1  0
 21 45  1  0
 21 46  1  0
 22 47  1  0
 23 48  1  0
 25 49  1  0
M  END
$$$$
