MODEL        4USER    Run = 4USERUSER    Estimated Free Energy of Binding    =  -9.94 kcal/mol  [=(1)+(2)+(3)-(4)]USERUSER    (1) Final Intermolecular Energy     = -11.73 kcal/molUSER        vdW + Hbond + desolv Energy     = -11.33 kcal/molUSER        Electrostatic Energy            =  -0.41 kcal/molUSER        Moving Ligand-Fixed Receptor    = -11.73 kcal/molUSER        Moving Ligand-Moving Receptor   =  +0.00 kcal/molUSER    (2) Final Total Internal Energy     =  -1.65 kcal/molUSER    (3) Torsional Free Energy           =  +1.79 kcal/molUSER    (4) Unbound System's Energy         =  -1.65 kcal/molUSERUSERREMARK SMILES CC(=O)N[C@@H]1CCN(C(=O)c2ccc(C(=O)Nc3cccc(N4CCN(C)CC4)c3F)cc2)C1REMARK SMILES IDX 11 1 12 2 13 3 14 4 32 5 33 6 9 7 10 8 8 9 5 10 6 11 34 12REMARK SMILES IDX 7 13 4 14 2 15 1 16 3 17 15 19 17 20 16 21 18 23 19 24 30 25REMARK SMILES IDX 20 26 22 27 21 28 31 29 23 30 24 31 29 32 25 33 28 34 26 35REMARK SMILES IDX 27 36REMARK H PARENT 4 18 17 22USER                              x       y       z     vdW  Elec       q    TypeUSER                           _______ _______ _______ _____ _____    ______ ____ROOTATOM      1  C   UNL     1      25.425  40.681  17.414 -0.19 -0.00    +0.040 A  ATOM      2  C   UNL     1      25.302  40.833  16.028 -0.24 -0.00    +0.014 A  ATOM      3  C   UNL     1      25.338  42.110  15.462 -0.32 -0.00    +0.014 A  ATOM      4  C   UNL     1      25.522  43.234  16.280 -0.30 -0.00    +0.040 A  ATOM      5  C   UNL     1      25.650  43.071  17.668 -0.34 -0.00    +0.014 A  ATOM      6  C   UNL     1      25.614  41.795  18.234 -0.27 -0.00    +0.014 A  ENDROOTBRANCH   1   7ATOM      7  C   UNL     1      25.409  39.316  17.978 -0.25 -0.01    +0.253 C  ATOM      8  O   UNL     1      25.286  38.372  17.203 -0.85 -0.09    -0.269 OA BRANCH   7   9ATOM      9  N   UNL     1      25.493  39.169  19.348 -0.10 +0.11    -0.337 N  ATOM     10  C   UNL     1      24.792  39.712  21.537 -0.40 -0.04    +0.103 C  ATOM     11  C   UNL     1      26.198  39.111  21.606 -0.35 -0.02    +0.048 C  ATOM     12  C   UNL     1      24.296  39.210  20.178 -0.30 -0.08    +0.144 C  ATOM     13  C   UNL     1      26.699  39.223  20.169 -0.24 -0.03    +0.122 C  BRANCH  10  14ATOM     14  N   UNL     1      24.833  41.171  21.590 -0.24 +0.06    -0.352 N  ATOM     15  C   UNL     1      23.927  41.889  22.333 -0.54 -0.04    +0.217 C  ATOM     16  C   UNL     1      24.168  43.375  22.330 -0.53 -0.04    +0.114 C  ATOM     17  O   UNL     1      23.010  41.376  22.964 -0.95 +0.06    -0.275 OA ATOM     18  H   UNL     1      25.656  41.637  21.224 +0.09 -0.03    +0.163 HD ENDBRANCH  10  14ENDBRANCH   7   9ENDBRANCH   1   7BRANCH   4  19ATOM     19  C   UNL     1      25.567  44.619  15.723 -0.25 +0.00    +0.255 C  ATOM     20  N   UNL     1      25.513  44.699  14.348 -0.14 +0.07    -0.319 N  ATOM     21  O   UNL     1      25.672  45.555  16.506 -0.78 -0.10    -0.269 OA ATOM     22  H   UNL     1      25.543  43.838  13.812 +0.07 -0.08    +0.170 HD BRANCH  20  23ATOM     23  C   UNL     1      25.483  45.866  13.549 -0.26 -0.01    +0.079 A  ATOM     24  C   UNL     1      26.289  46.077  12.439 -0.34 -0.01    +0.029 A  ATOM     25  C   UNL     1      24.581  46.874  13.936 -0.20 +0.02    +0.169 A  ATOM     26  C   UNL     1      26.199  47.281  11.742 -0.39 -0.00    +0.005 A  ATOM     27  C   UNL     1      24.445  48.100  13.243 -0.28 -0.01    +0.075 A  ATOM     28  C   UNL     1      25.297  48.276  12.145 -0.28 -0.01    +0.029 A  ATOM     29  F   UNL     1      23.853  46.652  15.048 -0.08 -0.09    -0.202 F  BRANCH  27  30ATOM     30  N   UNL     1      23.548  49.083  13.672 -0.20 +0.03    -0.367 N  ATOM     31  C   UNL     1      22.103  48.754  13.598 -0.29 -0.01    +0.132 C  ATOM     32  C   UNL     1      23.797  50.518  13.429 -0.38 -0.02    +0.132 C  ATOM     33  C   UNL     1      21.492  49.247  12.263 -0.19 -0.02    +0.105 C  ATOM     34  C   UNL     1      23.152  50.996  12.106 -0.24 -0.01    +0.105 C  ATOM     35  N   UNL     1      21.705  50.696  12.040 -0.55 +0.00    -0.303 NA ATOM     36  C   UNL     1      21.147  51.109  10.756 -0.22 -0.01    +0.105 C  ENDBRANCH  27  30ENDBRANCH  20  23ENDBRANCH   4  19TORSDOF 6TERENDMDL