REMARK SMILES CC(=O)N[C@@H]1CCN(C(=O)c2ccc(C(=O)Nc3cccc(N4CCN(C)CC4)c3F)cc2)C1
REMARK SMILES IDX 11 1 12 2 13 3 14 4 32 5 33 6 9 7 10 8 8 9 5 10 6 11 34 12
REMARK SMILES IDX 7 13 4 14 2 15 1 16 3 17 15 19 17 20 16 21 18 23 19 24 30 25
REMARK SMILES IDX 20 26 22 27 21 28 31 29 23 30 24 31 29 32 25 33 28 34 26 35
REMARK SMILES IDX 27 36
REMARK H PARENT 4 18 17 22
ROOT
ATOM      1  C   UNL     1      -3.292   1.280   0.763  1.00  0.00     0.040 A 
ATOM      2  C   UNL     1      -2.455   0.196   1.051  1.00  0.00     0.014 A 
ATOM      3  C   UNL     1      -1.259   0.034   0.347  1.00  0.00     0.014 A 
ATOM      4  C   UNL     1      -0.888   0.971  -0.629  1.00  0.00     0.040 A 
ATOM      5  C   UNL     1      -1.731   2.057  -0.907  1.00  0.00     0.014 A 
ATOM      6  C   UNL     1      -2.927   2.220  -0.203  1.00  0.00     0.014 A 
ENDROOT
BRANCH   1   7
ATOM      7  C   UNL     1      -4.537   1.437   1.543  1.00  0.00     0.253 C 
ATOM      8  O   UNL     1      -4.446   1.526   2.764  1.00  0.00    -0.269 OA
BRANCH   7   9
ATOM      9  N   UNL     1      -5.741   1.437   0.867  1.00  0.00    -0.337 N 
ATOM     10  C   UNL     1      -8.017   0.832   0.688  1.00  0.00     0.103 C 
ATOM     11  C   UNL     1      -7.482   1.154  -0.709  1.00  0.00     0.048 C 
ATOM     12  C   UNL     1      -7.002   1.541   1.590  1.00  0.00     0.144 C 
ATOM     13  C   UNL     1      -5.968   1.086  -0.531  1.00  0.00     0.122 C 
BRANCH  10  14
ATOM     14  N   UNL     1      -8.039  -0.608   0.931  1.00  0.00    -0.352 N 
ATOM     15  C   UNL     1      -9.050  -1.403   0.446  1.00  0.00     0.217 C 
ATOM     16  C   UNL     1      -8.868  -2.870   0.728  1.00  0.00     0.114 C 
ATOM     17  O   UNL     1     -10.010  -0.971  -0.182  1.00  0.00    -0.275 OA
ATOM     18  H   UNL     1      -7.200  -1.041   1.300  1.00  0.00     0.163 HD
ENDBRANCH  10  14
ENDBRANCH   7   9
ENDBRANCH   1   7
BRANCH   4  19
ATOM     19  C   UNL     1       0.379   0.841  -1.408  1.00  0.00     0.255 C 
ATOM     20  N   UNL     1       1.430   0.266  -0.726  1.00  0.00    -0.319 N 
ATOM     21  O   UNL     1       0.399   1.267  -2.557  1.00  0.00    -0.269 OA
ATOM     22  H   UNL     1       1.312   0.062   0.261  1.00  0.00     0.170 HD
BRANCH  20  23
ATOM     23  C   UNL     1       2.722  -0.032  -1.218  1.00  0.00     0.079 A 
ATOM     24  C   UNL     1       3.128   0.172  -2.530  1.00  0.00     0.029 A 
ATOM     25  C   UNL     1       3.635  -0.589  -0.303  1.00  0.00     0.169 A 
ATOM     26  C   UNL     1       4.418  -0.189  -2.915  1.00  0.00     0.005 A 
ATOM     27  C   UNL     1       4.958  -0.949  -0.649  1.00  0.00     0.075 A 
ATOM     28  C   UNL     1       5.312  -0.747  -1.990  1.00  0.00     0.029 A 
ATOM     29  F   UNL     1       3.186  -0.819   0.947  1.00  0.00    -0.202 F 
BRANCH  27  30
ATOM     30  N   UNL     1       5.827  -1.516   0.287  1.00  0.00    -0.367 N 
ATOM     31  C   UNL     1       5.997  -0.794   1.572  1.00  0.00     0.132 C 
ATOM     32  C   UNL     1       7.068  -2.203  -0.124  1.00  0.00     0.132 C 
ATOM     33  C   UNL     1       7.215   0.161   1.512  1.00  0.00     0.105 C 
ATOM     34  C   UNL     1       8.277  -1.238  -0.148  1.00  0.00     0.105 C 
ATOM     35  N   UNL     1       8.468  -0.537   1.141  1.00  0.00    -0.303 NA
ATOM     36  C   UNL     1       9.580   0.406   1.060  1.00  0.00     0.105 C 
ENDBRANCH  27  30
ENDBRANCH  20  23
ENDBRANCH   4  19
TORSDOF 6
