MODEL        1USER    Run = 1USERUSER    Estimated Free Energy of Binding    =  -9.52 kcal/mol  [=(1)+(2)+(3)-(4)]USERUSER    (1) Final Intermolecular Energy     = -11.01 kcal/molUSER        vdW + Hbond + desolv Energy     = -10.81 kcal/molUSER        Electrostatic Energy            =  -0.20 kcal/molUSER        Moving Ligand-Fixed Receptor    = -11.01 kcal/molUSER        Moving Ligand-Moving Receptor   =  +0.00 kcal/molUSER    (2) Final Total Internal Energy     =  -0.71 kcal/molUSER    (3) Torsional Free Energy           =  +1.49 kcal/molUSER    (4) Unbound System's Energy         =  -0.71 kcal/molUSERUSERREMARK SMILES COc1ccc(/C=C/c2n[nH]c3cc(Cl)ccc23)cc1C(=O)N1CCOCC1REMARK SMILES IDX 7 1 6 2 3 3 4 4 20 5 5 6 19 7 2 8 1 9 21 10 23 11 24 12REMARK SMILES IDX 28 13 25 14 27 15 26 16 22 17 8 18 9 19 10 20 18 21 11 22REMARK SMILES IDX 17 23 12 24 16 25 13 26 14 27 15 29REMARK H PARENT 11 28USER                              x       y       z     vdW  Elec       q    TypeUSER                           _______ _______ _______ _____ _____    ______ ____ROOTATOM      1  C   UNL     1      41.118  46.561  18.624 -0.56 -0.00    +0.010 C  ENDROOTBRANCH   1   2ATOM      2  C   UNL     1      41.711  45.940  19.815 -0.40 -0.00    -0.025 A  ATOM      3  C   UNL     1      42.833  44.830  22.169 -0.18 +0.03    +0.131 A  ATOM      4  C   UNL     1      41.910  44.105  21.410 -0.29 +0.01    +0.048 A  ATOM      5  C   UNL     1      43.196  46.111  21.727 -0.25 +0.03    +0.082 A  ATOM      6  C   UNL     1      41.355  44.656  20.246 -0.35 +0.00    +0.012 A  ATOM      7  C   UNL     1      42.623  46.673  20.577 -0.38 +0.01    +0.025 A  BRANCH   3   8ATOM      8  O   UNL     1      43.416  44.377  23.321 -0.01 -0.07    -0.496 OA ATOM      9  C   UNL     1      43.279  42.995  23.626 -0.16 +0.00    +0.278 C  ENDBRANCH   3   8BRANCH   5  10ATOM     10  C   UNL     1      44.153  46.953  22.478 -0.21 +0.11    +0.257 C  ATOM     11  N   UNL     1      43.704  47.643  23.595 -0.12 -0.07    -0.334 N  ATOM     12  C   UNL     1      44.631  48.522  24.304 -0.22 +0.03    +0.148 C  ATOM     13  C   UNL     1      42.365  47.531  24.182 -0.20 +0.02    +0.148 C  ATOM     14  C   UNL     1      43.878  49.624  25.053 -0.23 +0.03    +0.181 C  ATOM     15  C   UNL     1      42.403  47.828  25.685 -0.14 +0.02    +0.181 C  ATOM     16  O   UNL     1      42.919  49.129  26.001 -0.16 -0.02    -0.378 OA ATOM     17  O   UNL     1      45.323  46.964  22.101 -0.78 -0.26    -0.269 OA ENDBRANCH   5  10ENDBRANCH   1   2BRANCH   1  18ATOM     18  C   UNL     1      41.669  47.584  17.948 -0.54 -0.00    +0.031 C  BRANCH  18  19ATOM     19  C   UNL     1      41.064  48.240  16.825 -0.46 -0.01    +0.093 A  ATOM     20  N   UNL     1      41.393  49.471  16.408 -1.05 +0.00    -0.175 NA ATOM     21  C   UNL     1      40.037  47.674  16.006 -0.51 -0.01    +0.027 A  ATOM     22  N   UNL     1      40.597  49.689  15.351 -0.39 +0.10    -0.277 N  ATOM     23  C   UNL     1      39.319  46.461  15.960 -0.43 -0.00    +0.014 A  ATOM     24  C   UNL     1      39.758  48.651  15.054 -0.50 -0.03    +0.067 A  ATOM     25  C   UNL     1      38.351  46.278  14.961 -0.40 -0.01    +0.021 A  ATOM     26  C   UNL     1      38.798  48.493  14.048 -0.39 -0.02    +0.048 A  ATOM     27  C   UNL     1      38.101  47.281  14.027 -0.46 -0.02    +0.043 A  ATOM     28  H   UNL     1      40.676  50.577  14.869 -0.17 -0.10    +0.190 HD ATOM     29  Cl  UNL     1      36.905  47.025  12.812 -0.88 +0.03    -0.084 Cl ENDBRANCH  18  19ENDBRANCH   1  18TORSDOF 5TERENDMDL