REMARK SMILES COc1ccc(/C=C/c2n[nH]c3cc(Cl)ccc23)cc1C(=O)N1CCOCC1
REMARK SMILES IDX 7 1 6 2 3 3 4 4 20 5 5 6 19 7 2 8 1 9 21 10 23 11 24 12
REMARK SMILES IDX 28 13 25 14 27 15 26 16 22 17 8 18 9 19 10 20 18 21 11 22
REMARK SMILES IDX 17 23 12 24 16 25 13 26 14 27 15 29
REMARK H PARENT 11 28
ROOT
ATOM      1  C   UNL     1       1.994   0.234  -0.635  1.00  0.00     0.010 C 
ENDROOT
BRANCH   1   2
ATOM      2  C   UNL     1       0.628  -0.214  -0.930  1.00  0.00    -0.025 A 
ATOM      3  C   UNL     1      -2.014  -1.008  -1.581  1.00  0.00     0.131 A 
ATOM      4  C   UNL     1      -1.005  -1.960  -1.414  1.00  0.00     0.048 A 
ATOM      5  C   UNL     1      -1.686   0.345  -1.405  1.00  0.00     0.082 A 
ATOM      6  C   UNL     1       0.302  -1.566  -1.094  1.00  0.00     0.012 A 
ATOM      7  C   UNL     1      -0.374   0.742  -1.108  1.00  0.00     0.025 A 
BRANCH   3   8
ATOM      8  O   UNL     1      -3.311  -1.300  -1.904  1.00  0.00    -0.496 OA
ATOM      9  C   UNL     1      -3.600  -2.629  -2.319  1.00  0.00     0.278 C 
ENDBRANCH   3   8
BRANCH   5  10
ATOM     10  C   UNL     1      -2.688   1.419  -1.577  1.00  0.00     0.257 C 
ATOM     11  N   UNL     1      -3.713   1.533  -0.648  1.00  0.00    -0.334 N 
ATOM     12  C   UNL     1      -4.739   2.554  -0.847  1.00  0.00     0.148 C 
ATOM     13  C   UNL     1      -3.841   0.739   0.578  1.00  0.00     0.148 C 
ATOM     14  C   UNL     1      -6.047   2.158  -0.159  1.00  0.00     0.181 C 
ATOM     15  C   UNL     1      -4.599   1.521   1.656  1.00  0.00     0.181 C 
ATOM     16  O   UNL     1      -5.914   1.929   1.253  1.00  0.00    -0.378 OA
ATOM     17  O   UNL     1      -2.538   2.197  -2.517  1.00  0.00    -0.269 OA
ENDBRANCH   5  10
ENDBRANCH   1   2
BRANCH   1  18
ATOM     18  C   UNL     1       2.826  -0.383   0.223  1.00  0.00     0.031 C 
BRANCH  18  19
ATOM     19  C   UNL     1       4.158   0.056   0.525  1.00  0.00     0.093 A 
ATOM     20  N   UNL     1       4.735   1.135  -0.024  1.00  0.00    -0.175 NA
ATOM     21  C   UNL     1       5.042  -0.591   1.444  1.00  0.00     0.027 A 
ATOM     22  N   UNL     1       5.956   1.177   0.527  1.00  0.00    -0.277 N 
ATOM     23  C   UNL     1       4.992  -1.722   2.286  1.00  0.00     0.014 A 
ATOM     24  C   UNL     1       6.207   0.170   1.418  1.00  0.00     0.067 A 
ATOM     25  C   UNL     1       6.113  -2.041   3.067  1.00  0.00     0.021 A 
ATOM     26  C   UNL     1       7.338  -0.128   2.187  1.00  0.00     0.048 A 
ATOM     27  C   UNL     1       7.261  -1.254   3.012  1.00  0.00     0.043 A 
ATOM     28  H   UNL     1       6.579   1.927   0.251  1.00  0.00     0.190 HD
ATOM     29  Cl  UNL     1       8.621  -1.674   3.984  1.00  0.00    -0.084 Cl
ENDBRANCH  18  19
ENDBRANCH   1  18
TORSDOF 5
