REMARK SMILES CC1=C[C@H]2[C@@H](N1)C(F)=CN2Cc1ccc(C(=O)O)cc1O
REMARK SMILES IDX 12 1 13 2 14 3 15 4 19 5 20 6 11 7 10 8 2 9 3 10 6 11 4 12
REMARK SMILES IDX 5 13 7 14 9 15 1 16 8 18 21 19 16 21 17 22 18 23
REMARK H PARENT 6 17 21 20 18 24
ROOT
ATOM      1  C   UNL     1       1.498   0.010   0.539  1.00  0.00     0.013 A 
ATOM      2  C   UNL     1       1.981  -0.918  -0.400  1.00  0.00     0.010 A 
ATOM      3  C   UNL     1       3.344  -0.994  -0.700  1.00  0.00     0.016 A 
ATOM      4  C   UNL     1       4.252  -0.151  -0.051  1.00  0.00     0.063 A 
ATOM      5  C   UNL     1       3.791   0.762   0.904  1.00  0.00     0.062 A 
ATOM      6  C   UNL     1       2.427   0.828   1.196  1.00  0.00     0.121 A 
ENDROOT
BRANCH   1   7
ATOM      7  C   UNL     1       0.025   0.067   0.894  1.00  0.00     0.156 C 
BRANCH   7   8
ATOM      8  N   UNL     1      -0.840  -0.170  -0.254  1.00  0.00    -0.362 N 
ATOM      9  C   UNL     1      -4.152  -0.202   0.342  1.00  0.00     0.006 C 
ATOM     10  C   UNL     1      -2.988  -0.569   0.902  1.00  0.00     0.021 C 
ATOM     11  N   UNL     1      -4.153  -0.395  -1.033  1.00  0.00    -0.378 N 
ATOM     12  C   UNL     1      -2.013  -1.055  -0.138  1.00  0.00     0.136 C 
ATOM     13  C   UNL     1      -2.812  -0.806  -1.482  1.00  0.00     0.167 C 
ATOM     14  C   UNL     1      -2.049   0.336  -2.090  1.00  0.00     0.140 C 
ATOM     15  C   UNL     1      -0.973   0.648  -1.362  1.00  0.00     0.119 C 
ATOM     16  C   UNL     1      -5.329   0.388   1.039  1.00  0.00     0.063 C 
ATOM     17  H   UNL     1      -4.565   0.376  -1.555  1.00  0.00     0.161 HD
ATOM     18  F   UNL     1      -2.412   0.988  -3.208  1.00  0.00    -0.208 F 
ENDBRANCH   7   8
ENDBRANCH   1   7
BRANCH   6  19
ATOM     19  O   UNL     1       1.981   1.700   2.150  1.00  0.00    -0.508 OA
ATOM     20  H   UNL     1       2.731   2.224   2.479  1.00  0.00     0.293 HD
ENDBRANCH   6  19
BRANCH   4  21
ATOM     21  C   UNL     1       5.688  -0.265  -0.400  1.00  0.00     0.335 C 
ATOM     22  O   UNL     1       6.169  -1.040  -1.206  1.00  0.00    -0.246 OA
BRANCH  21  23
ATOM     23  O   UNL     1       6.460   0.600   0.282  1.00  0.00    -0.478 OA
ATOM     24  H   UNL     1       7.364   0.413  -0.050  1.00  0.00     0.297 HD
ENDBRANCH  21  23
ENDBRANCH   4  21
TORSDOF 5
