MODEL        6USER    Run = 6USERUSER    Estimated Free Energy of Binding    =  -7.66 kcal/mol  [=(1)+(2)+(3)-(4)]USERUSER    (1) Final Intermolecular Energy     =  -9.15 kcal/molUSER        vdW + Hbond + desolv Energy     =  -8.86 kcal/molUSER        Electrostatic Energy            =  -0.29 kcal/molUSER        Moving Ligand-Fixed Receptor    =  -9.15 kcal/molUSER        Moving Ligand-Moving Receptor   =  +0.00 kcal/molUSER    (2) Final Total Internal Energy     =  -0.21 kcal/molUSER    (3) Torsional Free Energy           =  +1.49 kcal/molUSER    (4) Unbound System's Energy         =  -0.21 kcal/molUSERUSERREMARK SMILES CC1=C[C@H]2[C@@H](N1)C(F)=CN2Cc1ccc(C(=O)O)cc1OREMARK SMILES IDX 12 1 13 2 14 3 15 4 19 5 20 6 11 7 10 8 2 9 3 10 6 11 4 12REMARK SMILES IDX 5 13 7 14 9 15 1 16 8 18 21 19 16 21 17 22 18 23REMARK H PARENT 6 17 21 20 18 24USER                              x       y       z     vdW  Elec       q    TypeUSER                           _______ _______ _______ _____ _____    ______ ____ROOTATOM      1  C   UNL     1      37.496  47.023  15.082 -0.42 -0.01    +0.013 A  ATOM      2  C   UNL     1      38.123  46.878  16.332 -0.39 -0.00    +0.010 A  ATOM      3  C   UNL     1      39.336  47.515  16.606 -0.44 -0.01    +0.016 A  ATOM      4  C   UNL     1      39.937  48.325  15.637 -0.51 -0.02    +0.063 A  ATOM      5  C   UNL     1      39.314  48.500  14.396 -0.44 -0.02    +0.062 A  ATOM      6  C   UNL     1      38.101  47.859  14.134 -0.43 -0.05    +0.121 A  ENDROOTBRANCH   1   7ATOM      7  C   UNL     1      36.161  46.364  14.797 -0.35 -0.11    +0.156 C  BRANCH   7   8ATOM      8  N   UNL     1      35.932  45.179  15.613 -0.10 +0.20    -0.362 N  ATOM      9  C   UNL     1      32.786  43.989  15.685 -0.38 -0.00    +0.006 C  ATOM     10  C   UNL     1      33.461  45.148  15.643 -0.38 -0.02    +0.021 C  ATOM     11  N   UNL     1      33.418  43.045  16.484 -0.11 +0.17    -0.378 N  ATOM     12  C   UNL     1      34.727  45.071  16.455 -0.28 -0.09    +0.136 C  ATOM     13  C   UNL     1      34.726  43.559  16.925 -0.29 -0.07    +0.167 C  ATOM     14  C   UNL     1      35.856  42.983  16.120 -0.42 -0.05    +0.140 C  ATOM     15  C   UNL     1      36.480  43.926  15.409 -0.36 -0.04    +0.119 C  ATOM     16  C   UNL     1      31.527  43.663  14.957 -0.37 -0.04    +0.063 C  ATOM     17  H   UNL     1      33.436  42.111  16.080 -0.48 -0.11    +0.161 HD ATOM     18  F   UNL     1      36.184  41.680  16.089 -0.01 +0.10    -0.208 F  ENDBRANCH   7   8ENDBRANCH   1   7BRANCH   6  19ATOM     19  O   UNL     1      37.479  48.054  12.932 -0.72 +0.10    -0.508 OA ATOM     20  H   UNL     1      36.657  48.553  13.076 +0.23 -0.12    +0.293 HD ENDBRANCH   6  19BRANCH   4  21ATOM     21  C   UNL     1      41.223  48.981  15.970 -0.32 -0.03    +0.335 C  ATOM     22  O   UNL     1      41.772  49.851  15.318 -0.92 +0.01    -0.246 OA BRANCH  21  23ATOM     23  O   UNL     1      41.767  48.514  17.108 -0.65 -0.03    -0.478 OA ATOM     24  H   UNL     1      42.177  47.666  16.835 -0.33 -0.06    +0.297 HD ENDBRANCH  21  23ENDBRANCH   4  21TORSDOF 5TERENDMDL