MODEL        8USER    Run = 8USERUSER    Estimated Free Energy of Binding    =  -8.17 kcal/mol  [=(1)+(2)+(3)-(4)]USERUSER    (1) Final Intermolecular Energy     = -10.25 kcal/molUSER        vdW + Hbond + desolv Energy     = -10.04 kcal/molUSER        Electrostatic Energy            =  -0.21 kcal/molUSER        Moving Ligand-Fixed Receptor    = -10.25 kcal/molUSER        Moving Ligand-Moving Receptor   =  +0.00 kcal/molUSER    (2) Final Total Internal Energy     =  -2.93 kcal/molUSER    (3) Torsional Free Energy           =  +2.09 kcal/molUSER    (4) Unbound System's Energy         =  -2.93 kcal/molUSERUSERREMARK SMILES Nc1ncncc1-c1nc(-c2ccc(O)cc2)c2ncn(CCO)c2n1REMARK SMILES IDX 8 1 9 2 10 3 18 4 19 5 20 6 21 7 25 8 26 9 7 10 2 11 3 12REMARK SMILES IDX 4 13 6 14 5 15 1 16 11 19 12 20 17 21 13 22 16 23 14 24REMARK SMILES IDX 15 25 22 27 23 28 24 29REMARK H PARENT 1 17 1 18 15 26 24 30USER                              x       y       z     vdW  Elec       q    TypeUSER                           _______ _______ _______ _____ _____    ______ ____ROOTATOM      1  C   UNL     1      40.480  46.214  18.232 -0.37 -0.01    +0.167 A  ATOM      2  N   UNL     1      39.414  45.382  18.285 -0.27 +0.02    -0.225 NA ATOM      3  C   UNL     1      38.531  45.323  17.236 -0.30 -0.02    +0.102 A  ATOM      4  C   UNL     1      38.778  46.145  16.126 -0.31 -0.04    +0.134 A  ATOM      5  N   UNL     1      38.138  46.341  14.918 -0.23 +0.08    -0.233 NA ATOM      6  C   UNL     1      38.858  47.240  14.280 -0.30 -0.06    +0.202 A  ATOM      7  N   UNL     1      39.925  47.651  15.027 -0.26 +0.07    -0.313 N  ATOM      8  C   UNL     1      39.904  46.954  16.203 -0.36 -0.03    +0.164 A  ATOM      9  N   UNL     1      40.787  47.041  17.210 -0.36 +0.03    -0.208 NA ENDROOTBRANCH   1  10ATOM     10  C   UNL     1      41.364  46.224  19.402 -0.40 +0.01    +0.080 A  ATOM     11  C   UNL     1      42.540  46.970  19.516 -0.41 +0.02    +0.137 A  ATOM     12  N   UNL     1      43.319  46.952  20.614 -0.31 -0.08    -0.219 NA ATOM     13  C   UNL     1      42.913  46.194  21.638 -0.19 +0.07    +0.224 A  ATOM     14  C   UNL     1      41.066  45.476  20.534 -0.29 +0.01    +0.128 A  ATOM     15  N   UNL     1      41.810  45.439  21.660 -0.15 -0.04    -0.244 NA BRANCH  11  16ATOM     16  N   UNL     1      43.058  47.718  18.441 -0.19 -0.02    -0.383 N  ATOM     17  H   UNL     1      42.563  47.450  17.594 -0.49 -0.03    +0.158 HD ATOM     18  H   UNL     1      42.831  48.700  18.603 -0.14 +0.00    +0.158 HD ENDBRANCH  11  16ENDBRANCH   1  10BRANCH   3  19ATOM     19  C   UNL     1      37.395  44.394  17.353 -0.34 -0.00    +0.003 A  ATOM     20  C   UNL     1      36.811  44.136  18.612 -0.32 -0.00    +0.014 A  ATOM     21  C   UNL     1      36.829  43.736  16.246 -0.36 -0.00    +0.014 A  ATOM     22  C   UNL     1      35.725  43.265  18.762 -0.32 -0.01    +0.047 A  ATOM     23  C   UNL     1      35.743  42.862  16.388 -0.42 -0.02    +0.047 A  ATOM     24  C   UNL     1      35.201  42.634  17.644 -0.31 -0.04    +0.115 A  BRANCH  24  25ATOM     25  O   UNL     1      34.145  41.778  17.736 -0.15 +0.18    -0.508 OA ATOM     26  H   UNL     1      34.326  41.002  17.179 -0.39 -0.20    +0.293 HD ENDBRANCH  24  25ENDBRANCH   3  19BRANCH   7  27ATOM     27  C   UNL     1      40.892  48.664  14.652 -0.50 -0.03    +0.153 C  BRANCH  27  28ATOM     28  C   UNL     1      41.009  49.763  15.700 -0.58 -0.04    +0.178 C  BRANCH  28  29ATOM     29  O   UNL     1      41.787  49.317  16.807 -0.89 -0.08    -0.395 OA ATOM     30  H   UNL     1      42.150  48.440  16.590 -0.13 +0.04    +0.210 HD ENDBRANCH  28  29ENDBRANCH  27  28ENDBRANCH   7  27TORSDOF 7TERENDMDL