REMARK SMILES Nc1ncncc1-c1nc(-c2ccc(O)cc2)c2ncn(CCO)c2n1
REMARK SMILES IDX 8 1 9 2 10 3 18 4 19 5 20 6 21 7 25 8 26 9 7 10 2 11 3 12
REMARK SMILES IDX 4 13 6 14 5 15 1 16 11 19 12 20 17 21 13 22 16 23 14 24
REMARK SMILES IDX 15 25 22 27 23 28 24 29
REMARK H PARENT 1 17 1 18 15 26 24 30
ROOT
ATOM      1  C   UNL     1      -0.798   1.141   0.302  1.00  0.00     0.167 A 
ATOM      2  N   UNL     1       0.551   1.114   0.192  1.00  0.00    -0.225 NA
ATOM      3  C   UNL     1       1.218  -0.085   0.181  1.00  0.00     0.102 A 
ATOM      4  C   UNL     1       0.457  -1.259   0.283  1.00  0.00     0.134 A 
ATOM      5  N   UNL     1       0.768  -2.605   0.293  1.00  0.00    -0.233 NA
ATOM      6  C   UNL     1      -0.384  -3.232   0.403  1.00  0.00     0.202 A 
ATOM      7  N   UNL     1      -1.427  -2.354   0.485  1.00  0.00    -0.313 N 
ATOM      8  C   UNL     1      -0.916  -1.089   0.395  1.00  0.00     0.164 A 
ATOM      9  N   UNL     1      -1.604   0.063   0.412  1.00  0.00    -0.208 NA
ENDROOT
BRANCH   1  10
ATOM     10  C   UNL     1      -1.429   2.465   0.320  1.00  0.00     0.080 A 
ATOM     11  C   UNL     1      -2.778   2.717   0.058  1.00  0.00     0.137 A 
ATOM     12  N   UNL     1      -3.315   3.951   0.092  1.00  0.00    -0.219 NA
ATOM     13  C   UNL     1      -2.502   4.962   0.416  1.00  0.00     0.224 A 
ATOM     14  C   UNL     1      -0.699   3.604   0.634  1.00  0.00     0.128 A 
ATOM     15  N   UNL     1      -1.199   4.857   0.693  1.00  0.00    -0.244 NA
BRANCH  11  16
ATOM     16  N   UNL     1      -3.659   1.705  -0.369  1.00  0.00    -0.383 N 
ATOM     17  H   UNL     1      -3.391   1.420  -1.308  1.00  0.00     0.158 HD
ATOM     18  H   UNL     1      -3.513   0.889   0.227  1.00  0.00     0.158 HD
ENDBRANCH  11  16
ENDBRANCH   1  10
BRANCH   3  19
ATOM     19  C   UNL     1       2.685  -0.047   0.054  1.00  0.00     0.003 A 
ATOM     20  C   UNL     1       3.329   1.108  -0.440  1.00  0.00     0.014 A 
ATOM     21  C   UNL     1       3.512  -1.125   0.420  1.00  0.00     0.014 A 
ATOM     22  C   UNL     1       4.721   1.184  -0.568  1.00  0.00     0.047 A 
ATOM     23  C   UNL     1       4.905  -1.057   0.294  1.00  0.00     0.047 A 
ATOM     24  C   UNL     1       5.498   0.096  -0.199  1.00  0.00     0.115 A 
BRANCH  24  25
ATOM     25  O   UNL     1       6.856   0.120  -0.304  1.00  0.00    -0.508 OA
ATOM     26  H   UNL     1       7.123   0.982  -0.665  1.00  0.00     0.293 HD
ENDBRANCH  24  25
ENDBRANCH   3  19
BRANCH   7  27
ATOM     27  C   UNL     1      -2.824  -2.700   0.663  1.00  0.00     0.153 C 
BRANCH  27  28
ATOM     28  C   UNL     1      -3.553  -2.851  -0.666  1.00  0.00     0.178 C 
BRANCH  28  29
ATOM     29  O   UNL     1      -3.187  -4.073  -1.301  1.00  0.00    -0.395 OA
ATOM     30  H   UNL     1      -3.772  -4.776  -0.967  1.00  0.00     0.210 HD
ENDBRANCH  28  29
ENDBRANCH  27  28
ENDBRANCH   7  27
TORSDOF 7
