MODEL        9USER    Run = 9USERUSER    Estimated Free Energy of Binding    =  -8.67 kcal/mol  [=(1)+(2)+(3)-(4)]USERUSER    (1) Final Intermolecular Energy     = -11.36 kcal/molUSER        vdW + Hbond + desolv Energy     = -11.09 kcal/molUSER        Electrostatic Energy            =  -0.27 kcal/molUSER        Moving Ligand-Fixed Receptor    = -11.36 kcal/molUSER        Moving Ligand-Moving Receptor   =  +0.00 kcal/molUSER    (2) Final Total Internal Energy     =  -3.36 kcal/molUSER    (3) Torsional Free Energy           =  +2.68 kcal/molUSER    (4) Unbound System's Energy         =  -3.36 kcal/molUSERUSERREMARK SMILES CC[C@H](O)[C@@H](N)c1ccc(C(=O)Nc2nc(-c3ccc(F)cc3)cs2)cc1NREMARK SMILES IDX 7 1 8 2 9 3 10 4 26 5 27 6 5 7 3 8 2 9 1 10 4 11 6 13 28 16REMARK SMILES IDX 11 19 13 20 12 21 14 23 15 24 25 25 16 26 24 27 17 28 18 29REMARK SMILES IDX 23 30 19 31 22 32 20 33 21 34REMARK H PARENT 4 12 6 14 6 15 28 17 28 18 13 22USER                              x       y       z     vdW  Elec       q    TypeUSER                           _______ _______ _______ _____ _____    ______ ____ROOTATOM      1  C   UNL     1      32.584  44.259  15.548 -0.32 +0.00    -0.006 A  ATOM      2  C   UNL     1      32.922  45.548  15.096 -0.28 -0.01    +0.008 A  ATOM      3  C   UNL     1      32.091  46.237  14.210 -0.41 -0.01    +0.014 A  ATOM      4  C   UNL     1      30.899  45.656  13.767 -0.52 -0.03    +0.042 A  ATOM      5  C   UNL     1      30.542  44.384  14.225 +0.01 -0.04    +0.039 A  ATOM      6  C   UNL     1      31.400  43.665  15.063 -0.34 -0.02    +0.037 A  ENDROOTBRANCH   1   7ATOM      7  C   UNL     1      33.485  43.586  16.584 -0.31 -0.05    +0.112 C  BRANCH   7   8ATOM      8  C   UNL     1      32.676  43.230  17.882 -0.29 -0.03    +0.135 C  BRANCH   8   9ATOM      9  C   UNL     1      33.468  43.413  19.189 -0.45 -0.00    +0.030 C  ATOM     10  C   UNL     1      34.624  42.441  19.356 -0.48 -0.00    +0.007 C  ENDBRANCH   8   9BRANCH   8  11ATOM     11  O   UNL     1      32.214  41.867  17.852 -0.13 +0.10    -0.391 OA ATOM     12  H   UNL     1      32.541  41.469  17.027 -0.18 -0.11    +0.211 HD ENDBRANCH   8  11ENDBRANCH   7   8BRANCH   7  13ATOM     13  N   UNL     1      34.209  42.438  16.004 -0.10 +0.16    -0.322 NA ATOM     14  H   UNL     1      33.943  42.326  15.028 -0.34 -0.07    +0.119 HD ATOM     15  H   UNL     1      33.907  41.591  16.486 -0.38 -0.08    +0.119 HD ENDBRANCH   7  13ENDBRANCH   1   7BRANCH   6  16ATOM     16  N   UNL     1      30.943  42.426  15.575 -0.13 +0.22    -0.398 N  ATOM     17  H   UNL     1      31.775  41.835  15.722 -0.45 -0.13    +0.156 HD ATOM     18  H   UNL     1      30.626  42.588  16.538 +0.09 -0.06    +0.156 HD ENDBRANCH   6  16BRANCH   4  19ATOM     19  C   UNL     1      30.028  46.437  12.841 -0.44 -0.17    +0.257 C  ATOM     20  N   UNL     1      28.678  46.243  13.020 -0.11 +0.30    -0.298 N  ATOM     21  O   UNL     1      30.574  47.137  11.997 -1.08 +0.08    -0.269 OA ATOM     22  H   UNL     1      28.347  45.551  13.676 -0.39 -0.26    +0.172 HD BRANCH  20  23ATOM     23  C   UNL     1      27.658  46.844  12.328 -0.30 -0.11    +0.190 A  ATOM     24  N   UNL     1      27.906  47.796  11.460 -0.39 +0.09    -0.220 NA ATOM     25  S   UNL     1      26.023  46.411  12.507 -0.46 +0.03    -0.105 S  ATOM     26  C   UNL     1      26.724  48.232  10.876 -0.37 -0.05    +0.084 A  ATOM     27  C   UNL     1      25.591  47.591  11.340 -0.28 -0.05    +0.097 A  BRANCH  26  28ATOM     28  C   UNL     1      26.729  49.298   9.874 -0.41 -0.00    +0.001 A  ATOM     29  C   UNL     1      25.901  50.419  10.061 -0.33 -0.01    +0.013 A  ATOM     30  C   UNL     1      27.544  49.249   8.732 -0.43 -0.01    +0.013 A  ATOM     31  C   UNL     1      25.879  51.458   9.126 -0.32 -0.03    +0.040 A  ATOM     32  C   UNL     1      27.523  50.290   7.797 -0.45 -0.04    +0.040 A  ATOM     33  C   UNL     1      26.690  51.382   8.002 -0.25 -0.10    +0.123 A  ATOM     34  F   UNL     1      26.672  52.376   7.105 -0.10 +0.21    -0.207 F  ENDBRANCH  26  28ENDBRANCH  20  23ENDBRANCH   4  19TORSDOF 9TERENDMDL