REMARK SMILES CC[C@H](O)[C@@H](N)c1ccc(C(=O)Nc2nc(-c3ccc(F)cc3)cs2)cc1N
REMARK SMILES IDX 7 1 8 2 9 3 10 4 26 5 27 6 5 7 3 8 2 9 1 10 4 11 6 13 28 16
REMARK SMILES IDX 11 19 13 20 12 21 14 23 15 24 25 25 16 26 24 27 17 28 18 29
REMARK SMILES IDX 23 30 19 31 22 32 20 33 21 34
REMARK H PARENT 4 12 6 14 6 15 28 17 28 18 13 22
ROOT
ATOM      1  C   UNL     1      -3.111   0.459   0.096  1.00  0.00    -0.006 A 
ATOM      2  C   UNL     1      -2.809   1.505  -0.796  1.00  0.00     0.008 A 
ATOM      3  C   UNL     1      -1.520   1.656  -1.312  1.00  0.00     0.014 A 
ATOM      4  C   UNL     1      -0.510   0.757  -0.957  1.00  0.00     0.042 A 
ATOM      5  C   UNL     1      -0.803  -0.299  -0.088  1.00  0.00     0.039 A 
ATOM      6  C   UNL     1      -2.075  -0.418   0.480  1.00  0.00     0.037 A 
ENDROOT
BRANCH   1   7
ATOM      7  C   UNL     1      -4.557   0.289   0.562  1.00  0.00     0.112 C 
BRANCH   7   8
ATOM      8  C   UNL     1      -5.306  -0.776  -0.315  1.00  0.00     0.135 C 
BRANCH   8   9
ATOM      9  C   UNL     1      -6.823  -0.846  -0.065  1.00  0.00     0.030 C 
ATOM     10  C   UNL     1      -7.559   0.455  -0.340  1.00  0.00     0.007 C 
ENDBRANCH   8   9
BRANCH   8  11
ATOM     11  O   UNL     1      -4.778  -2.098  -0.096  1.00  0.00    -0.391 OA
ATOM     12  H   UNL     1      -5.234  -2.697  -0.712  1.00  0.00     0.211 HD
ENDBRANCH   8  11
ENDBRANCH   7   8
BRANCH   7  13
ATOM     13  N   UNL     1      -4.628   0.018   2.012  1.00  0.00    -0.322 NA
ATOM     14  H   UNL     1      -5.602  -0.004   2.306  1.00  0.00     0.119 HD
ATOM     15  H   UNL     1      -4.193   0.798   2.506  1.00  0.00     0.119 HD
ENDBRANCH   7  13
ENDBRANCH   1   7
BRANCH   6  16
ATOM     16  N   UNL     1      -2.344  -1.561   1.272  1.00  0.00    -0.398 N 
ATOM     17  H   UNL     1      -3.112  -1.310   1.913  1.00  0.00     0.156 HD
ATOM     18  H   UNL     1      -2.792  -2.258   0.667  1.00  0.00     0.156 HD
ENDBRANCH   6  16
BRANCH   4  19
ATOM     19  C   UNL     1       0.846   0.939  -1.551  1.00  0.00     0.257 C 
ATOM     20  N   UNL     1       1.886   0.536  -0.746  1.00  0.00    -0.298 N 
ATOM     21  O   UNL     1       0.920   1.452  -2.661  1.00  0.00    -0.269 OA
ATOM     22  H   UNL     1       1.708   0.231   0.200  1.00  0.00     0.172 HD
BRANCH  20  23
ATOM     23  C   UNL     1       3.224   0.569  -1.045  1.00  0.00     0.190 A 
ATOM     24  N   UNL     1       4.119   0.214  -0.153  1.00  0.00    -0.220 NA
ATOM     25  S   UNL     1       3.834   1.039  -2.561  1.00  0.00    -0.105 S 
ATOM     26  C   UNL     1       5.396   0.312  -0.691  1.00  0.00     0.084 A 
ATOM     27  C   UNL     1       5.429   0.760  -1.998  1.00  0.00     0.097 A 
BRANCH  26  28
ATOM     28  C   UNL     1       6.575  -0.024   0.107  1.00  0.00     0.001 A 
ATOM     29  C   UNL     1       6.454  -0.113   1.505  1.00  0.00     0.013 A 
ATOM     30  C   UNL     1       7.828  -0.275  -0.475  1.00  0.00     0.013 A 
ATOM     31  C   UNL     1       7.557  -0.433   2.301  1.00  0.00     0.040 A 
ATOM     32  C   UNL     1       8.932  -0.596   0.322  1.00  0.00     0.040 A 
ATOM     33  C   UNL     1       8.786  -0.670   1.702  1.00  0.00     0.123 A 
ATOM     34  F   UNL     1       9.845  -0.977   2.462  1.00  0.00    -0.207 F 
ENDBRANCH  26  28
ENDBRANCH  20  23
ENDBRANCH   4  19
TORSDOF 9
