REMARK SMILES CN1CCCC[C@H]1Cc1ccc2c(c1)CN(S(=O)(=O)c1ccc(F)cc1)c1ccccc1[C@@H]2c1nc2ccccc2[nH]1
REMARK SMILES IDX 9 1 10 2 11 3 12 4 13 5 14 6 15 7 16 8 27 9 28 10 29 11
REMARK SMILES IDX 30 12 31 13 32 14 33 15 8 16 7 17 2 18 3 19 4 20 6 21 5 22
REMARK SMILES IDX 1 23 34 24 35 25 42 26 36 27 41 28 37 29 40 30 38 31 39 32
REMARK SMILES IDX 17 34 18 35 19 36 20 37 21 38 26 39 22 40 25 41 23 42 24 43
REMARK H PARENT 42 33
ROOT
ATOM      1  C   UNL     1       2.690  -0.312   0.705  1.00  0.00    -0.046 A 
ATOM      2  C   UNL     1       2.509  -1.676   0.503  1.00  0.00     0.004 A 
ATOM      3  C   UNL     1       1.287  -2.156   0.030  1.00  0.00     0.005 A 
ATOM      4  C   UNL     1       0.196  -1.300  -0.267  1.00  0.00    -0.028 A 
ATOM      5  C   UNL     1       0.381   0.084  -0.054  1.00  0.00    -0.023 A 
ATOM      6  C   UNL     1       1.629   0.552   0.417  1.00  0.00     0.009 A 
ATOM      7  C   UNL     1      -0.659   1.140  -0.341  1.00  0.00     0.171 C 
ATOM      8  N   UNL     1      -2.011   0.664  -0.072  1.00  0.00    -0.262 N 
ATOM      9  C   UNL     1      -2.654   0.002  -1.153  1.00  0.00     0.056 A 
ATOM     10  C   UNL     1      -3.643   0.641  -1.908  1.00  0.00     0.027 A 
ATOM     11  C   UNL     1      -4.208   0.010  -3.017  1.00  0.00     0.002 A 
ATOM     12  C   UNL     1      -3.767  -1.252  -3.392  1.00  0.00     0.000 A 
ATOM     13  C   UNL     1      -2.748  -1.872  -2.668  1.00  0.00     0.007 A 
ATOM     14  C   UNL     1      -2.154  -1.244  -1.552  1.00  0.00    -0.008 A 
ATOM     15  C   UNL     1      -1.072  -2.006  -0.790  1.00  0.00     0.118 C 
ENDROOT
BRANCH   1  16
ATOM     16  C   UNL     1       4.007   0.230   1.210  1.00  0.00     0.054 C 
BRANCH  16  17
ATOM     17  C   UNL     1       5.030   0.553   0.093  1.00  0.00     0.060 C 
ATOM     18  N   UNL     1       4.589   1.741  -0.683  1.00  0.00    -0.303 NA
ATOM     19  C   UNL     1       5.504   2.881  -0.585  1.00  0.00     0.084 C 
ATOM     20  C   UNL     1       6.956   2.547  -0.931  1.00  0.00     0.016 C 
ATOM     21  C   UNL     1       6.427   0.722   0.730  1.00  0.00     0.019 C 
ATOM     22  C   UNL     1       7.432   1.247  -0.288  1.00  0.00     0.003 C 
ATOM     23  C   UNL     1       4.309   1.391  -2.077  1.00  0.00     0.105 C 
ENDBRANCH  16  17
ENDBRANCH   1  16
BRANCH  15  24
ATOM     24  C   UNL     1      -1.674  -2.951   0.233  1.00  0.00     0.119 A 
ATOM     25  N   UNL     1      -1.495  -4.262   0.274  1.00  0.00    -0.232 NA
ATOM     26  N   UNL     1      -2.508  -2.545   1.248  1.00  0.00    -0.341 N 
ATOM     27  C   UNL     1      -2.218  -4.702   1.355  1.00  0.00     0.089 A 
ATOM     28  C   UNL     1      -2.863  -3.646   1.984  1.00  0.00     0.066 A 
ATOM     29  C   UNL     1      -2.377  -5.999   1.863  1.00  0.00     0.030 A 
ATOM     30  C   UNL     1      -3.676  -3.799   3.108  1.00  0.00     0.028 A 
ATOM     31  C   UNL     1      -3.184  -6.185   2.993  1.00  0.00     0.002 A 
ATOM     32  C   UNL     1      -3.821  -5.101   3.603  1.00  0.00     0.002 A 
ATOM     33  H   UNL     1      -2.841  -1.603   1.413  1.00  0.00     0.168 HD
ENDBRANCH  15  24
BRANCH   8  34
ATOM     34  S   UNL     1      -2.818   1.135   1.318  1.00  0.00     0.264 S 
ATOM     35  O   UNL     1      -1.851   1.569   2.304  1.00  0.00    -0.201 OA
ATOM     36  O   UNL     1      -3.764   0.084   1.643  1.00  0.00    -0.201 OA
BRANCH  34  37
ATOM     37  C   UNL     1      -3.744   2.581   0.852  1.00  0.00     0.088 A 
ATOM     38  C   UNL     1      -3.072   3.795   0.658  1.00  0.00     0.025 A 
ATOM     39  C   UNL     1      -5.139   2.510   0.744  1.00  0.00     0.025 A 
ATOM     40  C   UNL     1      -3.802   4.934   0.317  1.00  0.00     0.040 A 
ATOM     41  C   UNL     1      -5.860   3.654   0.402  1.00  0.00     0.040 A 
ATOM     42  C   UNL     1      -5.186   4.853   0.188  1.00  0.00     0.123 A 
ATOM     43  F   UNL     1      -5.881   5.949  -0.140  1.00  0.00    -0.207 F 
ENDBRANCH  34  37
ENDBRANCH   8  34
TORSDOF 5
