REMARK SMILES NC(=O)CN1CCN(C(=O)c2ccc(CCc3nc4ccccc4s3)cc2)CC1
REMARK SMILES IDX 5 1 6 2 7 3 8 4 9 5 10 6 28 7 29 8 4 9 2 10 1 11 3 14 11 15
REMARK SMILES IDX 12 16 27 17 13 18 26 19 14 20 15 21 16 22 17 23 18 24 25 25
REMARK SMILES IDX 19 26 24 27 20 28 23 29 21 30 22 31
REMARK H PARENT 1 12 1 13
ROOT
ATOM      1  N   UNL     1      -5.278   0.151   0.028  1.00  0.00    -0.291 NA
ATOM      2  C   UNL     1      -4.631   1.486  -0.051  1.00  0.00     0.106 C 
ATOM      3  C   UNL     1      -3.350   1.660   0.787  1.00  0.00     0.135 C 
ATOM      4  N   UNL     1      -2.368   0.611   0.518  1.00  0.00    -0.336 N 
ATOM      5  C   UNL     1      -1.037   0.864   0.837  1.00  0.00     0.253 C 
ATOM      6  O   UNL     1      -0.668   1.896   1.394  1.00  0.00    -0.269 OA
ATOM      7  C   UNL     1      -2.914  -0.710   0.186  1.00  0.00     0.135 C 
ATOM      8  C   UNL     1      -4.381  -0.857   0.633  1.00  0.00     0.106 C 
ENDROOT
BRANCH   1   9
ATOM      9  C   UNL     1      -6.555   0.202   0.785  1.00  0.00     0.184 C 
BRANCH   9  10
ATOM     10  C   UNL     1      -7.641   0.927  -0.017  1.00  0.00     0.231 C 
ATOM     11  N   UNL     1      -7.625   0.675  -1.362  1.00  0.00    -0.369 N 
ATOM     12  H   UNL     1      -6.751   0.339  -1.754  1.00  0.00     0.159 HD
ATOM     13  H   UNL     1      -8.233   1.238  -1.942  1.00  0.00     0.159 HD
ATOM     14  O   UNL     1      -8.498   1.641   0.491  1.00  0.00    -0.274 OA
ENDBRANCH   9  10
ENDBRANCH   1   9
BRANCH   5  15
ATOM     15  C   UNL     1      -0.011  -0.154   0.508  1.00  0.00     0.040 A 
ATOM     16  C   UNL     1       0.890  -0.540   1.504  1.00  0.00     0.014 A 
ATOM     17  C   UNL     1       0.102  -0.679  -0.783  1.00  0.00     0.014 A 
ATOM     18  C   UNL     1       1.879  -1.483   1.219  1.00  0.00     0.004 A 
ATOM     19  C   UNL     1       1.091  -1.625  -1.065  1.00  0.00     0.004 A 
ATOM     20  C   UNL     1       1.986  -2.037  -0.066  1.00  0.00    -0.048 A 
BRANCH  20  21
ATOM     21  C   UNL     1       3.072  -3.043  -0.371  1.00  0.00     0.043 C 
BRANCH  21  22
ATOM     22  C   UNL     1       4.173  -2.527  -1.304  1.00  0.00     0.072 C 
BRANCH  22  23
ATOM     23  C   UNL     1       4.919  -1.349  -0.752  1.00  0.00     0.094 A 
ATOM     24  N   UNL     1       4.774  -0.120  -1.201  1.00  0.00    -0.241 NA
ATOM     25  S   UNL     1       6.061  -1.547   0.516  1.00  0.00    -0.119 S 
ATOM     26  C   UNL     1       5.577   0.746  -0.479  1.00  0.00     0.081 A 
ATOM     27  C   UNL     1       6.364   0.149   0.509  1.00  0.00     0.055 A 
ATOM     28  C   UNL     1       5.661   2.142  -0.664  1.00  0.00     0.030 A 
ATOM     29  C   UNL     1       7.235   0.900   1.317  1.00  0.00     0.021 A 
ATOM     30  C   UNL     1       6.523   2.900   0.136  1.00  0.00     0.002 A 
ATOM     31  C   UNL     1       7.300   2.284   1.113  1.00  0.00     0.002 A 
ENDBRANCH  22  23
ENDBRANCH  21  22
ENDBRANCH  20  21
ENDBRANCH   5  15
TORSDOF 6
