REMARK SMILES C[C@@H]1N=C([C@H]2C[C@@H]2c2ccc(C(=O)N3CCN(S(=O)(=O)c4ccc(F)cc4)CC3)cc2)CN1
REMARK SMILES IDX 12 1 13 2 14 3 15 4 16 5 17 6 28 7 29 8 11 9 8 10 9 11 31 12
REMARK SMILES IDX 10 13 30 14 7 15 5 16 6 17 4 18 2 19 3 20 33 21 32 22 1 23
REMARK SMILES IDX 18 25 19 26 20 27 21 28 22 29 27 30 23 31 26 32 24 33 25 34
REMARK H PARENT 33 24
ROOT
ATOM      1  C   UNL     1      -1.044  -2.562  -1.409  1.00  0.00     0.253 C 
ATOM      2  O   UNL     1      -0.778  -3.277  -2.372  1.00  0.00    -0.269 OA
ATOM      3  N   UNL     1      -2.317  -2.467  -0.857  1.00  0.00    -0.336 N 
ATOM      4  C   UNL     1      -2.608  -1.883   0.459  1.00  0.00     0.136 C 
ATOM      5  C   UNL     1      -3.861  -2.482   1.114  1.00  0.00     0.124 C 
ATOM      6  N   UNL     1      -5.049  -2.403   0.223  1.00  0.00    -0.194 NA
ATOM      7  C   UNL     1      -4.769  -2.537  -1.235  1.00  0.00     0.124 C 
ATOM      8  C   UNL     1      -3.411  -3.198  -1.500  1.00  0.00     0.136 C 
ENDROOT
BRANCH   1   9
ATOM      9  C   UNL     1       0.051  -1.766  -0.813  1.00  0.00     0.040 A 
ATOM     10  C   UNL     1       2.192  -0.281   0.300  1.00  0.00    -0.044 A 
ATOM     11  C   UNL     1       2.260  -1.681   0.161  1.00  0.00     0.005 A 
ATOM     12  C   UNL     1       1.017   0.348  -0.158  1.00  0.00     0.005 A 
ATOM     13  C   UNL     1       1.210  -2.418  -0.396  1.00  0.00     0.014 A 
ATOM     14  C   UNL     1      -0.042  -0.378  -0.715  1.00  0.00     0.014 A 
BRANCH  10  15
ATOM     15  C   UNL     1       3.309   0.560   0.891  1.00  0.00     0.029 C 
ATOM     16  C   UNL     1       4.737   0.350   0.418  1.00  0.00     0.043 C 
ATOM     17  C   UNL     1       4.342  -0.003   1.831  1.00  0.00     0.019 C 
BRANCH  16  18
ATOM     18  C   UNL     1       5.575   1.525   0.136  1.00  0.00     0.032 C 
ATOM     19  C   UNL     1       7.113   3.051   0.241  1.00  0.00     0.169 C 
ATOM     20  N   UNL     1       6.532   1.884   0.929  1.00  0.00    -0.274 NA
ATOM     21  N   UNL     1       6.209   3.512  -0.823  1.00  0.00    -0.291 NA
ATOM     22  C   UNL     1       5.376   2.340  -1.099  1.00  0.00     0.134 C 
ATOM     23  C   UNL     1       8.473   2.669  -0.334  1.00  0.00     0.051 C 
ATOM     24  H   UNL     1       5.612   4.220  -0.396  1.00  0.00     0.125 HD
ENDBRANCH  16  18
ENDBRANCH  10  15
ENDBRANCH   1   9
BRANCH   6  25
ATOM     25  S   UNL     1      -6.333  -1.399   0.677  1.00  0.00     0.243 S 
ATOM     26  O   UNL     1      -7.392  -1.556  -0.297  1.00  0.00    -0.207 OA
ATOM     27  O   UNL     1      -6.575  -1.590   2.091  1.00  0.00    -0.207 OA
BRANCH  25  28
ATOM     28  C   UNL     1      -5.661   0.242   0.475  1.00  0.00     0.082 A 
ATOM     29  C   UNL     1      -5.037   0.872   1.560  1.00  0.00     0.025 A 
ATOM     30  C   UNL     1      -5.817   0.912  -0.745  1.00  0.00     0.025 A 
ATOM     31  C   UNL     1      -4.522   2.159   1.404  1.00  0.00     0.040 A 
ATOM     32  C   UNL     1      -5.300   2.199  -0.893  1.00  0.00     0.040 A 
ATOM     33  C   UNL     1      -4.653   2.808   0.179  1.00  0.00     0.123 A 
ATOM     34  F   UNL     1      -4.150   4.040   0.031  1.00  0.00    -0.207 F 
ENDBRANCH  25  28
ENDBRANCH   6  25
TORSDOF 5
