MODEL        10USER    Run = 10USERUSER    Estimated Free Energy of Binding    =  -9.98 kcal/mol  [=(1)+(2)+(3)-(4)]USERUSER    (1) Final Intermolecular Energy     = -11.47 kcal/molUSER        vdW + Hbond + desolv Energy     = -11.45 kcal/molUSER        Electrostatic Energy            =  -0.02 kcal/molUSER        Moving Ligand-Fixed Receptor    = -11.47 kcal/molUSER        Moving Ligand-Moving Receptor   =  +0.00 kcal/molUSER    (2) Final Total Internal Energy     =  -3.96 kcal/molUSER    (3) Torsional Free Energy           =  +1.49 kcal/molUSER    (4) Unbound System's Energy         =  -3.96 kcal/molUSERUSERREMARK SMILES CN1CCCC[C@H]1Cc1ccc2c(c1)CN(S(=O)(=O)c1ccc(F)cc1)c1ccccc1[C@@H]2c1nc2ccccc2[nH]1REMARK SMILES IDX 9 1 10 2 11 3 12 4 13 5 14 6 15 7 16 8 27 9 28 10 29 11REMARK SMILES IDX 30 12 31 13 32 14 33 15 8 16 7 17 2 18 3 19 4 20 6 21 5 22REMARK SMILES IDX 1 23 34 24 35 25 42 26 36 27 41 28 37 29 40 30 38 31 39 32REMARK SMILES IDX 17 34 18 35 19 36 20 37 21 38 26 39 22 40 25 41 23 42 24 43REMARK H PARENT 42 33USER                              x       y       z     vdW  Elec       q    TypeUSER                           _______ _______ _______ _____ _____    ______ ____ROOTATOM      1  C   UNL     1      40.191  43.796  26.284 -0.13 +0.00    -0.046 A  ATOM      2  C   UNL     1      40.320  43.020  25.137 -0.18 -0.00    +0.004 A  ATOM      3  C   UNL     1      41.278  43.347  24.176 -0.18 -0.00    +0.005 A  ATOM      4  C   UNL     1      42.151  44.456  24.318 -0.09 -0.00    -0.028 A  ATOM      5  C   UNL     1      42.012  45.246  25.481 -0.06 -0.00    -0.023 A  ATOM      6  C   UNL     1      41.042  44.894  26.447 -0.09 +0.00    +0.009 A  ATOM      7  C   UNL     1      42.871  46.444  25.808 -0.04 +0.01    +0.171 C  ATOM      8  N   UNL     1      43.249  47.190  24.614 -0.05 -0.04    -0.262 N  ATOM      9  C   UNL     1      44.435  46.750  23.965 -0.11 +0.01    +0.056 A  ATOM     10  C   UNL     1      45.634  47.458  24.092 -0.13 +0.01    +0.027 A  ATOM     11  C   UNL     1      46.810  46.972  23.518 -0.12 +0.00    +0.002 A  ATOM     12  C   UNL     1      46.796  45.761  22.839 -0.12 +0.00    +0.000 A  ATOM     13  C   UNL     1      45.611  45.030  22.751 -0.15 +0.00    +0.007 A  ATOM     14  C   UNL     1      44.415  45.498  23.337 -0.13 -0.00    -0.008 A  ATOM     15  C   UNL     1      43.152  44.658  23.162 -0.14 +0.02    +0.118 C  ENDROOTBRANCH   1  16ATOM     16  C   UNL     1      39.165  43.456  27.340 -0.24 -0.00    +0.054 C  BRANCH  16  17ATOM     17  C   UNL     1      37.699  43.521  26.845 -0.31 -0.01    +0.060 C  ATOM     18  N   UNL     1      37.251  42.183  26.380 -0.17 +0.04    -0.303 NA ATOM     19  C   UNL     1      36.146  41.627  27.165 -0.56 -0.03    +0.084 C  ATOM     20  C   UNL     1      34.941  42.559  27.293 -0.65 -0.00    +0.016 C  ATOM     21  C   UNL     1      36.818  44.105  27.971 -0.45 -0.00    +0.019 C  ATOM     22  C   UNL     1      35.339  43.997  27.619 -0.60 -0.00    +0.003 C  ATOM     23  C   UNL     1      36.946  42.192  24.948 -0.39 -0.00    +0.105 C  ENDBRANCH  16  17ENDBRANCH   1  16BRANCH  15  24ATOM     24  C   UNL     1      42.464  44.957  21.843 -0.20 +0.02    +0.119 A  ATOM     25  N   UNL     1      41.795  44.085  21.105 -0.22 -0.03    -0.232 NA ATOM     26  N   UNL     1      42.472  46.194  21.243 -0.15 -0.08    -0.341 N  ATOM     27  C   UNL     1      41.348  44.788  20.014 -0.31 +0.01    +0.089 A  ATOM     28  C   UNL     1      41.757  46.113  20.075 -0.36 +0.01    +0.066 A  ATOM     29  C   UNL     1      40.584  44.359  18.919 -0.38 +0.00    +0.030 A  ATOM     30  C   UNL     1      41.454  47.060  19.095 -0.35 +0.00    +0.028 A  ATOM     31  C   UNL     1      40.259  45.287  17.921 -0.41 -0.00    +0.002 A  ATOM     32  C   UNL     1      40.688  46.614  18.011 -0.51 -0.00    +0.002 A  ATOM     33  H   UNL     1      42.950  47.022  21.576 +0.07 +0.04    +0.168 HD ENDBRANCH  15  24BRANCH   8  34ATOM     34  S   UNL     1      42.481  48.628  24.231 -0.37 +0.06    +0.264 S  ATOM     35  O   UNL     1      42.576  48.852  22.804 -0.92 -0.05    -0.201 OA ATOM     36  O   UNL     1      42.967  49.634  25.157 -0.43 -0.04    -0.201 OA BRANCH  34  37ATOM     37  C   UNL     1      40.760  48.346  24.583 -0.28 +0.01    +0.088 A  ATOM     38  C   UNL     1      40.200  48.880  25.751 -0.26 +0.00    +0.025 A  ATOM     39  C   UNL     1      39.996  47.544  23.725 -0.25 +0.00    +0.025 A  ATOM     40  C   UNL     1      38.856  48.637  26.038 -0.26 +0.00    +0.040 A  ATOM     41  C   UNL     1      38.654  47.307  24.020 -0.33 +0.01    +0.040 A  ATOM     42  C   UNL     1      38.096  47.858  25.170 -0.32 +0.01    +0.123 A  ATOM     43  F   UNL     1      36.807  47.629  25.451 -0.14 -0.01    -0.207 F  ENDBRANCH  34  37ENDBRANCH   8  34TORSDOF 5TERENDMDL