MODEL        8USER    Run = 8USERUSER    Estimated Free Energy of Binding    = -11.16 kcal/mol  [=(1)+(2)+(3)-(4)]USERUSER    (1) Final Intermolecular Energy     = -12.65 kcal/molUSER        vdW + Hbond + desolv Energy     = -12.64 kcal/molUSER        Electrostatic Energy            =  -0.01 kcal/molUSER        Moving Ligand-Fixed Receptor    = -12.65 kcal/molUSER        Moving Ligand-Moving Receptor   =  +0.00 kcal/molUSER    (2) Final Total Internal Energy     =  -1.12 kcal/molUSER    (3) Torsional Free Energy           =  +1.49 kcal/molUSER    (4) Unbound System's Energy         =  -1.12 kcal/molUSERUSERREMARK SMILES C[C@@H]1N=C([C@H]2C[C@@H]2c2ccc(C(=O)N3CCN(S(=O)(=O)c4ccc(F)cc4)CC3)cc2)CN1REMARK SMILES IDX 12 1 13 2 14 3 15 4 16 5 17 6 28 7 29 8 11 9 8 10 9 11 31 12REMARK SMILES IDX 10 13 30 14 7 15 5 16 6 17 4 18 2 19 3 20 33 21 32 22 1 23REMARK SMILES IDX 18 25 19 26 20 27 21 28 22 29 27 30 23 31 26 32 24 33 25 34REMARK H PARENT 33 24USER                              x       y       z     vdW  Elec       q    TypeUSER                           _______ _______ _______ _____ _____    ______ ____ROOTATOM      1  C   UNL     1      36.078  43.383  17.519 -0.18 -0.07    +0.253 C  ATOM      2  O   UNL     1      35.594  42.338  17.092 -0.33 +0.10    -0.269 OA ATOM      3  N   UNL     1      36.243  44.523  16.739 -0.10 +0.13    -0.336 N  ATOM      4  C   UNL     1      36.518  45.862  17.277 -0.32 -0.07    +0.136 C  ATOM      5  C   UNL     1      35.992  46.987  16.373 -0.22 -0.13    +0.124 C  ATOM      6  N   UNL     1      36.491  46.862  14.978 -0.26 +0.14    -0.194 NA ATOM      7  C   UNL     1      36.682  45.468  14.486 -0.37 -0.06    +0.124 C  ATOM      8  C   UNL     1      35.891  44.452  15.319 -0.32 -0.06    +0.136 C  ENDROOTBRANCH   1   9ATOM      9  C   UNL     1      36.504  43.422  18.935 -0.24 -0.01    +0.040 A  ATOM     10  C   UNL     1      37.342  43.558  21.638 -0.37 -0.00    -0.044 A  ATOM     11  C   UNL     1      38.101  44.135  20.601 -0.35 -0.00    +0.005 A  ATOM     12  C   UNL     1      36.137  42.926  21.270 -0.40 +0.00    +0.005 A  ATOM     13  C   UNL     1      37.687  44.079  19.266 -0.32 -0.00    +0.014 A  ATOM     14  C   UNL     1      35.713  42.861  19.938 -0.44 -0.00    +0.014 A  BRANCH  10  15ATOM     15  C   UNL     1      37.748  43.601  23.100 -0.38 +0.00    +0.029 C  ATOM     16  C   UNL     1      36.700  43.377  24.176 -0.30 +0.00    +0.043 C  ATOM     17  C   UNL     1      37.357  44.726  24.021 -0.33 +0.00    +0.019 C  BRANCH  16  18ATOM     18  C   UNL     1      37.021  42.503  25.315 -0.42 -0.00    +0.032 C  ATOM     19  C   UNL     1      38.088  41.313  26.781 -0.34 -0.02    +0.169 C  ATOM     20  N   UNL     1      38.231  42.108  25.548 -0.15 +0.00    -0.274 NA ATOM     21  N   UNL     1      36.668  41.026  27.036 -0.30 +0.09    -0.291 NA ATOM     22  C   UNL     1      35.966  42.058  26.272 -0.44 -0.03    +0.134 C  ATOM     23  C   UNL     1      38.700  42.082  27.948 -0.39 -0.00    +0.051 C  ATOM     24  H   UNL     1      36.480  40.129  26.587 -0.49 -0.07    +0.125 HD ENDBRANCH  16  18ENDBRANCH  10  15ENDBRANCH   1   9BRANCH   6  25ATOM     25  S   UNL     1      37.549  48.044  14.390 -0.55 -0.14    +0.243 S  ATOM     26  O   UNL     1      38.001  47.630  13.079 -0.87 +0.04    -0.207 OA ATOM     27  O   UNL     1      36.939  49.339  14.603 -0.51 +0.20    -0.207 OA BRANCH  25  28ATOM     28  C   UNL     1      38.945  47.931  15.496 -0.44 -0.04    +0.082 A  ATOM     29  C   UNL     1      39.830  49.012  15.605 -0.53 -0.01    +0.025 A  ATOM     30  C   UNL     1      39.181  46.742  16.198 -0.43 -0.01    +0.025 A  ATOM     31  C   UNL     1      40.927  48.918  16.462 -0.50 -0.01    +0.040 A  ATOM     32  C   UNL     1      40.281  46.655  17.052 -0.46 -0.01    +0.040 A  ATOM     33  C   UNL     1      41.139  47.744  17.181 -0.40 -0.01    +0.123 A  ATOM     34  F   UNL     1      42.189  47.661  18.008 -0.20 +0.01    -0.207 F  ENDBRANCH  25  28ENDBRANCH   6  25TORSDOF 5TERENDMDL