MODEL        10USER    Run = 10USERUSER    Estimated Free Energy of Binding    =  -9.68 kcal/mol  [=(1)+(2)+(3)-(4)]USERUSER    (1) Final Intermolecular Energy     = -11.47 kcal/molUSER        vdW + Hbond + desolv Energy     = -11.39 kcal/molUSER        Electrostatic Energy            =  -0.09 kcal/molUSER        Moving Ligand-Fixed Receptor    = -11.47 kcal/molUSER        Moving Ligand-Moving Receptor   =  +0.00 kcal/molUSER    (2) Final Total Internal Energy     =  -1.57 kcal/molUSER    (3) Torsional Free Energy           =  +1.79 kcal/molUSER    (4) Unbound System's Energy         =  -1.57 kcal/molUSERUSERREMARK SMILES NC(=O)CN1CCN(C2=Cc3oc(NS(=O)(=O)c4ccc(F)cc4F)cc3C2=O)CC1REMARK SMILES IDX 9 1 10 2 11 3 12 4 13 5 26 6 27 7 28 8 29 9 8 10 5 11 6 12REMARK SMILES IDX 31 13 7 14 30 15 4 16 2 17 1 18 3 21 14 22 15 24 16 25 17 26REMARK SMILES IDX 18 27 19 28 24 29 20 30 23 31 21 32 25 33 22 34REMARK H PARENT 1 19 1 20 14 23USER                              x       y       z     vdW  Elec       q    TypeUSER                           _______ _______ _______ _____ _____    ______ ____ROOTATOM      1  C   UNL     1      40.260  46.649  18.215 -0.46 -0.01    +0.089 C  ATOM      2  C   UNL     1      39.028  46.338  17.739 -0.41 -0.02    +0.078 C  ATOM      3  C   UNL     1      38.744  47.194  16.667 -0.30 -0.06    +0.143 A  ATOM      4  O   UNL     1      37.727  47.379  15.800 -0.15 +0.26    -0.439 OA ATOM      5  C   UNL     1      38.137  48.377  14.954 -0.36 -0.12    +0.208 A  ATOM      6  C   UNL     1      39.381  48.862  15.323 -0.45 -0.04    +0.083 A  ATOM      7  C   UNL     1      39.755  48.073  16.414 -0.43 -0.02    +0.072 A  ATOM      8  C   UNL     1      40.802  47.828  17.362 -0.39 -0.03    +0.213 C  ATOM      9  O   UNL     1      41.866  48.413  17.449 -0.72 -0.01    -0.287 OA ENDROOTBRANCH   1  10ATOM     10  N   UNL     1      40.974  46.056  19.254 -0.20 -0.01    -0.366 N  ATOM     11  N   UNL     1      42.547  44.922  21.526 -0.13 -0.07    -0.291 NA ATOM     12  C   UNL     1      42.576  46.344  21.166 -0.33 +0.03    +0.106 C  ATOM     13  C   UNL     1      41.396  44.222  20.923 -0.33 +0.01    +0.106 C  ATOM     14  C   UNL     1      42.307  46.554  19.659 -0.41 +0.02    +0.132 C  ATOM     15  C   UNL     1      40.347  45.110  20.204 -0.36 +0.00    +0.132 C  BRANCH  11  16ATOM     16  C   UNL     1      42.724  44.666  22.962 -0.13 +0.03    +0.184 C  BRANCH  16  17ATOM     17  C   UNL     1      43.274  43.281  23.328 -0.18 +0.01    +0.231 C  ATOM     18  N   UNL     1      43.575  42.495  22.247 -0.12 +0.01    -0.369 N  ATOM     19  H   UNL     1      43.228  42.702  21.321 -0.23 +0.01    +0.159 HD ATOM     20  H   UNL     1      43.872  41.548  22.442 -0.39 -0.04    +0.159 HD ATOM     21  O   UNL     1      43.458  42.852  24.463 -0.10 +0.01    -0.274 OA ENDBRANCH  16  17ENDBRANCH  11  16ENDBRANCH   1  10BRANCH   5  22ATOM     22  N   UNL     1      37.352  48.870  13.847 -0.37 +0.14    -0.249 N  ATOM     23  H   UNL     1      37.646  49.734  13.394 -0.36 -0.09    +0.183 HD BRANCH  22  24ATOM     24  S   UNL     1      36.885  47.702  12.725 -0.63 -0.09    +0.267 S  ATOM     25  O   UNL     1      38.041  47.206  12.008 -0.85 +0.01    -0.201 OA ATOM     26  O   UNL     1      35.769  48.255  11.987 -0.61 +0.12    -0.201 OA BRANCH  24  27ATOM     27  C   UNL     1      36.267  46.411  13.753 -0.39 -0.07    +0.123 A  ATOM     28  C   UNL     1      34.988  46.510  14.316 -0.30 -0.03    +0.028 A  ATOM     29  C   UNL     1      37.082  45.320  14.034 -0.32 -0.06    +0.146 A  ATOM     30  C   UNL     1      34.538  45.496  15.166 -0.30 -0.03    +0.041 A  ATOM     31  C   UNL     1      36.636  44.313  14.885 -0.29 -0.03    +0.080 A  ATOM     32  C   UNL     1      35.369  44.413  15.445 -0.22 -0.06    +0.126 A  ATOM     33  F   UNL     1      38.298  45.200  13.485 -0.06 +0.05    -0.205 F  ATOM     34  F   UNL     1      34.938  43.452  16.274 -0.08 +0.09    -0.207 F  ENDBRANCH  24  27ENDBRANCH  22  24ENDBRANCH   5  22TORSDOF 6TERENDMDL