REMARK SMILES NC(=O)CN1CCN(C2=Cc3oc(NS(=O)(=O)c4ccc(F)cc4F)cc3C2=O)CC1
REMARK SMILES IDX 9 1 10 2 11 3 12 4 13 5 26 6 27 7 28 8 29 9 8 10 5 11 6 12
REMARK SMILES IDX 31 13 7 14 30 15 4 16 2 17 1 18 3 21 14 22 15 24 16 25 17 26
REMARK SMILES IDX 18 27 19 28 24 29 20 30 23 31 21 32 25 33 22 34
REMARK H PARENT 1 19 1 20 14 23
ROOT
ATOM      1  C   UNL     1       0.886  -0.424   0.502  1.00  0.00     0.089 C 
ATOM      2  C   UNL     1      -0.208  -0.297  -0.290  1.00  0.00     0.078 C 
ATOM      3  C   UNL     1      -1.318  -0.061   0.531  1.00  0.00     0.143 A 
ATOM      4  O   UNL     1      -2.639   0.155   0.359  1.00  0.00    -0.439 OA
ATOM      5  C   UNL     1      -3.146   0.370   1.615  1.00  0.00     0.208 A 
ATOM      6  C   UNL     1      -2.162   0.231   2.580  1.00  0.00     0.083 A 
ATOM      7  C   UNL     1      -0.995  -0.028   1.855  1.00  0.00     0.072 A 
ATOM      8  C   UNL     1       0.414  -0.261   1.973  1.00  0.00     0.213 C 
ATOM      9  O   UNL     1       1.069  -0.303   2.998  1.00  0.00    -0.287 OA
ENDROOT
BRANCH   1  10
ATOM     10  N   UNL     1       2.213  -0.641   0.137  1.00  0.00    -0.366 N 
ATOM     11  N   UNL     1       5.054  -0.978  -0.722  1.00  0.00    -0.291 NA
ATOM     12  C   UNL     1       4.185   0.087  -1.236  1.00  0.00     0.106 C 
ATOM     13  C   UNL     1       4.514  -1.586   0.509  1.00  0.00     0.106 C 
ATOM     14  C   UNL     1       2.699  -0.338  -1.227  1.00  0.00     0.132 C 
ATOM     15  C   UNL     1       3.276  -0.894   1.136  1.00  0.00     0.132 C 
BRANCH  11  16
ATOM     16  C   UNL     1       6.472  -0.603  -0.639  1.00  0.00     0.184 C 
BRANCH  16  17
ATOM     17  C   UNL     1       6.817   0.467   0.406  1.00  0.00     0.231 C 
ATOM     18  N   UNL     1       8.149   0.784   0.463  1.00  0.00    -0.369 N 
ATOM     19  H   UNL     1       8.858   0.194   0.052  1.00  0.00     0.159 HD
ATOM     20  H   UNL     1       8.431   1.431   1.188  1.00  0.00     0.159 HD
ATOM     21  O   UNL     1       6.024   1.032   1.152  1.00  0.00    -0.274 OA
ENDBRANCH  16  17
ENDBRANCH  11  16
ENDBRANCH   1  10
BRANCH   5  22
ATOM     22  N   UNL     1      -4.532   0.672   1.885  1.00  0.00    -0.249 N 
ATOM     23  H   UNL     1      -4.821   0.783   2.856  1.00  0.00     0.183 HD
BRANCH  22  24
ATOM     24  S   UNL     1      -5.216   1.847   0.889  1.00  0.00     0.267 S 
ATOM     25  O   UNL     1      -4.179   2.653   0.280  1.00  0.00    -0.201 OA
ATOM     26  O   UNL     1      -6.262   2.488   1.658  1.00  0.00    -0.201 OA
BRANCH  24  27
ATOM     27  C   UNL     1      -5.985   0.881  -0.368  1.00  0.00     0.123 A 
ATOM     28  C   UNL     1      -5.503   0.922  -1.683  1.00  0.00     0.028 A 
ATOM     29  C   UNL     1      -7.102   0.117  -0.048  1.00  0.00     0.146 A 
ATOM     30  C   UNL     1      -6.158   0.184  -2.672  1.00  0.00     0.041 A 
ATOM     31  C   UNL     1      -7.758  -0.613  -1.034  1.00  0.00     0.080 A 
ATOM     32  C   UNL     1      -7.281  -0.570  -2.338  1.00  0.00     0.126 A 
ATOM     33  F   UNL     1      -7.561   0.050   1.209  1.00  0.00    -0.205 F 
ATOM     34  F   UNL     1      -7.915  -1.262  -3.294  1.00  0.00    -0.207 F 
ENDBRANCH  24  27
ENDBRANCH  22  24
ENDBRANCH   5  22
TORSDOF 6
