REMARK SMILES C[C@@H]1N=C([C@@H]2C[C@H]2c2ccc(C(=O)N3CCN(CC(N)=O)CC3)cc2)C(=C2C=CC=C2F)N1
REMARK SMILES IDX 8 1 9 2 10 3 11 4 24 5 25 6 7 7 5 8 6 9 4 10 2 11 3 12 33 13
REMARK SMILES IDX 26 14 1 15 27 17 28 18 31 19 29 20 30 21 32 22 12 23 14 24
REMARK SMILES IDX 15 25 23 26 16 27 22 28 17 29 13 30 18 31 19 32 20 33 21 34
REMARK H PARENT 33 16 20 35 20 36
ROOT
ATOM      1  C   UNL     1      -1.055   0.750   1.063  1.00  0.00    -0.044 A 
ATOM      2  C   UNL     1      -0.271  -0.413   0.954  1.00  0.00     0.005 A 
ATOM      3  C   UNL     1       1.084  -0.413   1.296  1.00  0.00     0.014 A 
ATOM      4  C   UNL     1       1.682   0.771   1.731  1.00  0.00     0.040 A 
ATOM      5  C   UNL     1       0.927   1.936   1.864  1.00  0.00     0.014 A 
ATOM      6  C   UNL     1      -0.428   1.921   1.523  1.00  0.00     0.005 A 
ENDROOT
BRANCH   1   7
ATOM      7  C   UNL     1      -2.518   0.748   0.682  1.00  0.00     0.029 C 
ATOM      8  C   UNL     1      -3.440  -0.310   1.241  1.00  0.00     0.048 C 
ATOM      9  C   UNL     1      -3.567   1.095   1.727  1.00  0.00     0.019 C 
BRANCH   8  10
ATOM     10  C   UNL     1      -4.368  -1.058   0.373  1.00  0.00     0.065 C 
ATOM     11  C   UNL     1      -5.298  -2.897  -0.408  1.00  0.00     0.194 C 
ATOM     12  N   UNL     1      -4.153  -2.354   0.351  1.00  0.00    -0.263 NA
ATOM     13  N   UNL     1      -6.225  -1.814  -0.635  1.00  0.00    -0.362 N 
ATOM     14  C   UNL     1      -5.580  -0.603  -0.401  1.00  0.00     0.068 C 
ATOM     15  C   UNL     1      -5.962  -3.998   0.400  1.00  0.00     0.057 C 
ATOM     16  H   UNL     1      -6.800  -1.855  -1.470  1.00  0.00     0.162 HD
BRANCH  14  17
ATOM     17  C   UNL     1      -6.006   0.571  -0.904  1.00  0.00     0.035 C 
ATOM     18  C   UNL     1      -5.409   1.899  -0.935  1.00  0.00     0.013 C 
ATOM     19  C   UNL     1      -7.266   0.718  -1.633  1.00  0.00     0.132 C 
ATOM     20  C   UNL     1      -6.253   2.726  -1.579  1.00  0.00     0.004 C 
ATOM     21  C   UNL     1      -7.416   1.989  -2.016  1.00  0.00     0.040 C 
ATOM     22  F   UNL     1      -8.126  -0.276  -1.893  1.00  0.00    -0.206 F 
ENDBRANCH  14  17
ENDBRANCH   8  10
ENDBRANCH   1   7
BRANCH   4  23
ATOM     23  C   UNL     1       3.108   0.795   2.113  1.00  0.00     0.253 C 
ATOM     24  N   UNL     1       4.075   0.625   1.124  1.00  0.00    -0.336 N 
ATOM     25  C   UNL     1       5.451   0.379   1.559  1.00  0.00     0.135 C 
ATOM     26  C   UNL     1       3.784   0.331  -0.283  1.00  0.00     0.135 C 
ATOM     27  C   UNL     1       6.501   0.868   0.542  1.00  0.00     0.106 C 
ATOM     28  C   UNL     1       4.883   0.845  -1.234  1.00  0.00     0.106 C 
ATOM     29  N   UNL     1       6.265   0.468  -0.867  1.00  0.00    -0.291 NA
ATOM     30  O   UNL     1       3.371   0.984   3.298  1.00  0.00    -0.269 OA
BRANCH  29  31
ATOM     31  C   UNL     1       6.489  -0.986  -1.075  1.00  0.00     0.184 C 
BRANCH  31  32
ATOM     32  C   UNL     1       7.984  -1.316  -1.044  1.00  0.00     0.231 C 
ATOM     33  N   UNL     1       8.788  -0.387  -1.645  1.00  0.00    -0.369 N 
ATOM     34  O   UNL     1       8.441  -2.349  -0.569  1.00  0.00    -0.274 OA
ATOM     35  H   UNL     1       8.409   0.550  -1.739  1.00  0.00     0.159 HD
ATOM     36  H   UNL     1       9.786  -0.499  -1.530  1.00  0.00     0.159 HD
ENDBRANCH  31  32
ENDBRANCH  29  31
ENDBRANCH   4  23
TORSDOF 6
