MODEL        2USER    Run = 2USERUSER    Estimated Free Energy of Binding    = -11.27 kcal/mol  [=(1)+(2)+(3)-(4)]USERUSER    (1) Final Intermolecular Energy     = -13.06 kcal/molUSER        vdW + Hbond + desolv Energy     = -12.86 kcal/molUSER        Electrostatic Energy            =  -0.20 kcal/molUSER        Moving Ligand-Fixed Receptor    = -13.06 kcal/molUSER        Moving Ligand-Moving Receptor   =  +0.00 kcal/molUSER    (2) Final Total Internal Energy     =  -2.27 kcal/molUSER    (3) Torsional Free Energy           =  +1.79 kcal/molUSER    (4) Unbound System's Energy         =  -2.27 kcal/molUSERUSERREMARK SMILES C[C@@H]1N=C([C@@H]2C[C@H]2c2ccc(C(=O)N3CCN(CC(N)=O)CC3)cc2)C(=C2C=CC=C2F)N1REMARK SMILES IDX 8 1 9 2 10 3 11 4 24 5 25 6 7 7 5 8 6 9 4 10 2 11 3 12 33 13REMARK SMILES IDX 26 14 1 15 27 17 28 18 31 19 29 20 30 21 32 22 12 23 14 24REMARK SMILES IDX 15 25 23 26 16 27 22 28 17 29 13 30 18 31 19 32 20 33 21 34REMARK H PARENT 33 16 20 35 20 36USER                              x       y       z     vdW  Elec       q    TypeUSER                           _______ _______ _______ _____ _____    ______ ____ROOTATOM      1  C   UNL     1      39.987  45.506  18.926 -0.42 +0.00    -0.044 A  ATOM      2  C   UNL     1      38.596  45.347  18.784 -0.39 -0.00    +0.005 A  ATOM      3  C   UNL     1      37.840  44.655  19.734 -0.34 -0.00    +0.014 A  ATOM      4  C   UNL     1      38.479  44.086  20.837 -0.30 +0.00    +0.040 A  ATOM      5  C   UNL     1      39.854  44.240  21.014 -0.27 +0.00    +0.014 A  ATOM      6  C   UNL     1      40.597  44.938  20.058 -0.39 +0.00    +0.005 A  ENDROOTBRANCH   1   7ATOM      7  C   UNL     1      40.802  46.246  17.890 -0.54 -0.00    +0.029 C  ATOM      8  C   UNL     1      40.782  47.756  17.855 -0.42 -0.01    +0.048 C  ATOM      9  C   UNL     1      42.013  47.056  18.326 -0.53 -0.00    +0.019 C  BRANCH   8  10ATOM     10  C   UNL     1      40.582  48.493  16.594 -0.52 -0.01    +0.065 C  ATOM     11  C   UNL     1      41.166  49.932  15.030 -0.55 -0.05    +0.194 C  ATOM     12  N   UNL     1      41.428  49.482  16.413 -0.98 -0.00    -0.263 NA ATOM     13  N   UNL     1      40.244  48.996  14.433 -0.24 +0.12    -0.362 N  ATOM     14  C   UNL     1      39.650  48.236  15.436 -0.56 -0.02    +0.068 C  ATOM     15  C   UNL     1      42.470  49.956  14.252 -0.59 -0.01    +0.057 C  ATOM     16  H   UNL     1      39.619  49.346  13.714 -0.11 -0.08    +0.162 HD BRANCH  14  17ATOM     17  C   UNL     1      38.482  47.586  15.278 -0.52 -0.02    +0.035 C  ATOM     18  C   UNL     1      37.534  47.026  16.231 -0.43 -0.01    +0.013 C  ATOM     19  C   UNL     1      37.870  47.348  13.970 -0.47 -0.05    +0.132 C  ATOM     20  C   UNL     1      36.509  46.491  15.543 -0.44 -0.00    +0.004 C  ATOM     21  C   UNL     1      36.718  46.691  14.127 -0.49 -0.02    +0.040 C  ATOM     22  F   UNL     1      38.381  47.747  12.797 -0.07 +0.01    -0.206 F  ENDBRANCH  14  17ENDBRANCH   8  10ENDBRANCH   1   7BRANCH   4  23ATOM     23  C   UNL     1      37.702  43.363  21.864 -0.27 +0.01    +0.253 C  ATOM     24  N   UNL     1      37.651  43.877  23.158 -0.16 -0.03    -0.336 N  ATOM     25  C   UNL     1      37.113  43.011  24.209 -0.35 +0.01    +0.135 C  ATOM     26  C   UNL     1      38.393  45.057  23.615 -0.27 +0.01    +0.135 C  ATOM     27  C   UNL     1      36.471  43.798  25.368 -0.31 +0.00    +0.106 C  ATOM     28  C   UNL     1      37.690  45.783  24.779 -0.22 +0.02    +0.106 C  ATOM     29  N   UNL     1      37.278  44.920  25.907 -0.19 +0.01    -0.291 NA ATOM     30  O   UNL     1      37.119  42.341  21.513 -0.31 -0.01    -0.269 OA BRANCH  29  31ATOM     31  C   UNL     1      38.462  44.438  26.663 -0.18 -0.01    +0.184 C  BRANCH  31  32ATOM     32  C   UNL     1      38.038  43.804  27.991 -0.23 -0.03    +0.231 C  ATOM     33  N   UNL     1      36.795  44.168  28.429 -0.16 +0.10    -0.369 N  ATOM     34  O   UNL     1      38.760  43.067  28.652 -0.28 +0.02    -0.274 OA ATOM     35  H   UNL     1      36.149  44.514  27.726 +0.08 -0.04    +0.159 HD ATOM     36  H   UNL     1      36.424  43.672  29.228 -0.42 -0.10    +0.159 HD ENDBRANCH  31  32ENDBRANCH  29  31ENDBRANCH   4  23TORSDOF 6TERENDMDL