MODEL        7USER    Run = 7USERUSER    Estimated Free Energy of Binding    =  -9.81 kcal/mol  [=(1)+(2)+(3)-(4)]USERUSER    (1) Final Intermolecular Energy     = -11.60 kcal/molUSER        vdW + Hbond + desolv Energy     = -11.56 kcal/molUSER        Electrostatic Energy            =  -0.05 kcal/molUSER        Moving Ligand-Fixed Receptor    = -11.60 kcal/molUSER        Moving Ligand-Moving Receptor   =  +0.00 kcal/molUSER    (2) Final Total Internal Energy     =  -1.91 kcal/molUSER    (3) Torsional Free Energy           =  +1.79 kcal/molUSER    (4) Unbound System's Energy         =  -1.91 kcal/molUSERUSERREMARK SMILES NC(=O)CN1CCN(C(=O)c2ccc(CCc3nc4ccccc4s3)cc2)CC1REMARK SMILES IDX 5 1 6 2 7 3 8 4 9 5 10 6 28 7 29 8 4 9 2 10 1 11 3 14 11 15REMARK SMILES IDX 12 16 27 17 13 18 26 19 14 20 15 21 16 22 17 23 18 24 25 25REMARK SMILES IDX 19 26 24 27 20 28 23 29 21 30 22 31REMARK H PARENT 1 12 1 13USER                              x       y       z     vdW  Elec       q    TypeUSER                           _______ _______ _______ _____ _____    ______ ____ROOTATOM      1  N   UNL     1      39.592  48.245  15.425 -0.29 +0.10    -0.291 NA ATOM      2  C   UNL     1      38.743  48.501  14.234 -0.47 -0.05    +0.106 C  ATOM      3  C   UNL     1      38.140  47.253  13.561 -0.44 -0.04    +0.135 C  ATOM      4  N   UNL     1      37.425  46.404  14.513 -0.15 +0.15    -0.336 N  ATOM      5  C   UNL     1      36.477  45.515  14.013 -0.30 -0.12    +0.253 C  ATOM      6  O   UNL     1      36.269  45.368  12.811 -0.36 +0.11    -0.269 OA ATOM      7  C   UNL     1      37.963  46.376  15.878 -0.35 -0.06    +0.135 C  ATOM      8  C   UNL     1      39.422  46.867  15.934 -0.45 -0.03    +0.106 C  ENDROOTBRANCH   1   9ATOM      9  C   UNL     1      41.028  48.499  15.142 -0.47 -0.02    +0.184 C  BRANCH   9  10ATOM     10  C   UNL     1      41.389  49.965  15.404 -0.54 -0.04    +0.231 C  ATOM     11  N   UNL     1      40.371  50.724  15.915 -0.09 +0.20    -0.369 N  ATOM     12  H   UNL     1      39.427  50.384  15.763 -0.38 -0.12    +0.159 HD ATOM     13  H   UNL     1      40.526  51.722  15.971 -0.39 -0.10    +0.159 HD ATOM     14  O   UNL     1      42.508  50.432  15.225 -0.60 -0.00    -0.274 OA ENDBRANCH   9  10ENDBRANCH   1   9BRANCH   5  15ATOM     15  C   UNL     1      35.687  44.695  14.962 -0.26 -0.02    +0.040 A  ATOM     16  C   UNL     1      36.212  43.470  15.384 -0.37 -0.00    +0.014 A  ATOM     17  C   UNL     1      34.418  45.098  15.387 -0.30 -0.01    +0.014 A  ATOM     18  C   UNL     1      35.483  42.667  16.263 -0.44 -0.00    +0.004 A  ATOM     19  C   UNL     1      33.691  44.294  16.269 -0.32 -0.00    +0.004 A  ATOM     20  C   UNL     1      34.219  43.073  16.716 -0.35 +0.02    -0.048 A  BRANCH  20  21ATOM     21  C   UNL     1      33.428  42.189  17.653 -0.42 -0.01    +0.043 C  BRANCH  21  22ATOM     22  C   UNL     1      33.251  42.756  19.065 -0.41 -0.01    +0.072 C  BRANCH  22  23ATOM     23  C   UNL     1      34.546  42.970  19.790 -0.35 -0.00    +0.094 A  ATOM     24  N   UNL     1      35.052  42.109  20.647 -0.29 -0.02    -0.241 NA ATOM     25  S   UNL     1      35.457  44.408  19.556 -0.48 +0.02    -0.119 S  ATOM     26  C   UNL     1      36.262  42.576  21.130 -0.41 +0.00    +0.081 A  ATOM     27  C   UNL     1      36.654  43.828  20.651 -0.38 -0.00    +0.055 A  ATOM     28  C   UNL     1      37.099  41.906  22.047 -0.50 +0.00    +0.030 A  ATOM     29  C   UNL     1      37.855  44.435  21.058 -0.36 +0.00    +0.021 A  ATOM     30  C   UNL     1      38.298  42.499  22.458 -0.35 +0.00    +0.002 A  ATOM     31  C   UNL     1      38.668  43.749  21.969 -0.31 +0.00    +0.002 A  ENDBRANCH  22  23ENDBRANCH  21  22ENDBRANCH  20  21ENDBRANCH   5  15TORSDOF 6TERENDMDL