
     RDKit          3D

 66 70  0  0  0  0  0  0  0  0999 V2000
   -7.4624    3.1253   -0.5249 C   0  0  0  0  0  0  0  0  0  0  0  0
   -8.6525    2.4407   -0.1479 O   0  0  0  0  0  0  0  0  0  0  0  0
   -8.5121    1.1604    0.3101 C   0  0  0  0  0  0  0  0  0  0  0  0
   -9.6654    0.6160    0.8805 C   0  0  0  0  0  0  0  0  0  0  0  0
   -9.6699   -0.6913    1.3649 C   0  0  0  0  0  0  0  0  0  0  0  0
   -8.5140   -1.4603    1.2827 C   0  0  0  0  0  0  0  0  0  0  0  0
   -8.6090   -2.7521    1.7322 O   0  0  0  0  0  0  0  0  0  0  0  0
   -7.3362   -0.9207    0.7459 C   0  0  0  0  0  0  0  0  0  0  0  0
   -6.1106   -1.7617    0.6879 C   0  0  0  0  0  0  0  0  0  0  0  0
   -6.2314   -2.9869    0.6923 O   0  0  0  0  0  0  0  0  0  0  0  0
   -4.7506   -1.1916    0.6289 C   0  0  0  0  0  0  0  0  0  0  0  0
   -3.8142   -1.7654   -0.2331 C   0  0  0  0  0  0  0  0  0  0  0  0
   -2.5123   -1.2507   -0.2964 C   0  0  0  0  0  0  0  0  0  0  0  0
   -2.1167   -0.1737    0.5090 C   0  0  0  0  0  0  0  0  0  0  0  0
   -0.8399    0.4175    0.4685 N   0  0  0  0  0  0  0  0  0  0  0  0
    0.1205    0.3441   -0.4856 C   0  0  0  0  0  0  0  0  0  0  0  0
    1.3971    0.4336   -0.1678 N   0  0  0  0  0  0  0  0  0  0  0  0
    2.1870    0.3095   -1.2946 C   0  0  0  0  0  0  0  0  0  0  0  0
    1.4926    0.2753   -2.4843 C   0  0  0  0  0  0  0  0  0  0  0  0
   -0.1783    0.2865   -2.1934 S   0  0  0  0  0  0  0  0  0  0  0  0
    2.1108    0.2386   -3.8371 C   0  0  0  0  0  0  0  0  0  0  0  0
    3.5456    0.7861   -3.7529 C   0  0  0  0  0  0  0  0  0  0  0  0
    4.3397    0.1379   -2.6050 C   0  0  0  0  0  0  0  0  0  0  0  0
    3.6888    0.3446   -1.2137 C   0  0  0  0  0  0  0  0  0  0  0  0
    4.2228   -0.7412   -0.2729 C   0  0  0  0  0  0  0  0  0  0  0  0
    3.6978   -1.8592   -0.2272 O   0  0  0  0  0  0  0  0  0  0  0  0
    5.3625   -0.4652    0.4759 N   0  0  0  0  0  0  0  0  0  0  0  0
    6.0887    0.8035    0.5139 C   0  0  0  0  0  0  0  0  0  0  0  0
    7.6084    0.6433    0.7625 C   0  0  0  0  0  0  0  0  0  0  0  0
    8.0106   -0.4168    1.7029 N   0  0  0  0  0  0  0  0  0  0  0  0
    9.0639    0.0217    2.6099 C   0  0  0  0  0  0  0  0  0  0  0  0
    6.8643   -0.9846    2.4237 C   0  0  0  0  0  0  0  0  0  0  0  0
    5.7879   -1.4813    1.4436 C   0  0  0  0  0  0  0  0  0  0  0  0
   -3.0634    0.3702    1.3901 C   0  0  0  0  0  0  0  0  0  0  0  0
   -4.3601   -0.1393    1.4514 C   0  0  0  0  0  0  0  0  0  0  0  0
   -5.2159    0.4067    2.3264 F   0  0  0  0  0  0  0  0  0  0  0  0
   -7.3515    0.3855    0.2301 C   0  0  0  0  0  0  0  0  0  0  0  0
   -6.7284    3.1277    0.2889 H   0  0  0  0  0  0  0  0  0  0  0  0
   -7.0398    2.6955   -1.4394 H   0  0  0  0  0  0  0  0  0  0  0  0
   -7.7265    4.1674   -0.7346 H   0  0  0  0  0  0  0  0  0  0  0  0
  -10.5733    1.2118    0.9393 H   0  0  0  0  0  0  0  0  0  0  0  0
  -10.5741   -1.1124    1.7942 H   0  0  0  0  0  0  0  0  0  0  0  0
   -7.7831   -3.2204    1.4725 H   0  0  0  0  0  0  0  0  0  0  0  0
   -4.0867   -2.6184   -0.8500 H   0  0  0  0  0  0  0  0  0  0  0  0
   -1.8044   -1.7415   -0.9604 H   0  0  0  0  0  0  0  0  0  0  0  0
   -0.4633    0.5918    1.3945 H   0  0  0  0  0  0  0  0  0  0  0  0
    1.5347    0.8277   -4.5593 H   0  0  0  0  0  0  0  0  0  0  0  0
    2.1338   -0.7978   -4.1954 H   0  0  0  0  0  0  0  0  0  0  0  0
    3.5197    1.8740   -3.6028 H   0  0  0  0  0  0  0  0  0  0  0  0
    4.0596    0.6041   -4.7035 H   0  0  0  0  0  0  0  0  0  0  0  0
    5.3622    0.5346   -2.5970 H   0  0  0  0  0  0  0  0  0  0  0  0
    4.4371   -0.9360   -2.8189 H   0  0  0  0  0  0  0  0  0  0  0  0
    3.9333    1.3409   -0.8341 H   0  0  0  0  0  0  0  0  0  0  0  0
    5.6398    1.3908    1.3240 H   0  0  0  0  0  0  0  0  0  0  0  0
    5.9493    1.3629   -0.4135 H   0  0  0  0  0  0  0  0  0  0  0  0
    8.0928    0.4150   -0.1940 H   0  0  0  0  0  0  0  0  0  0  0  0
    7.9918    1.6233    1.0727 H   0  0  0  0  0  0  0  0  0  0  0  0
    9.9419    0.3555    2.0429 H   0  0  0  0  0  0  0  0  0  0  0  0
    9.3970   -0.8082    3.2437 H   0  0  0  0  0  0  0  0  0  0  0  0
    8.7371    0.8433    3.2593 H   0  0  0  0  0  0  0  0  0  0  0  0
    7.1887   -1.8328    3.0376 H   0  0  0  0  0  0  0  0  0  0  0  0
    6.4308   -0.2347    3.1004 H   0  0  0  0  0  0  0  0  0  0  0  0
    4.9103   -1.8217    2.0078 H   0  0  0  0  0  0  0  0  0  0  0  0
    6.1656   -2.3366    0.8693 H   0  0  0  0  0  0  0  0  0  0  0  0
   -2.8037    1.2058    2.0350 H   0  0  0  0  0  0  0  0  0  0  0  0
   -6.4648    0.7835   -0.2470 H   0  0  0  0  0  0  0  0  0  0  0  0
  1  2  1  0
  2  3  1  0
  3  4  2  0
  4  5  1  0
  5  6  2  0
  6  7  1  0
  6  8  1  0
  8  9  1  0
  9 10  2  0
  9 11  1  0
 11 12  2  0
 12 13  1  0
 13 14  2  0
 14 15  1  0
 15 16  1  0
 16 17  2  0
 17 18  1  0
 18 19  2  0
 19 20  1  0
 19 21  1  0
 21 22  1  0
 22 23  1  0
 23 24  1  0
 24 25  1  0
 25 26  2  0
 25 27  1  0
 27 28  1  0
 28 29  1  0
 29 30  1  0
 30 31  1  0
 30 32  1  0
 32 33  1  0
 14 34  1  0
 34 35  2  0
 35 36  1  0
  8 37  2  0
 37  3  1  0
 35 11  1  0
 20 16  1  0
 33 27  1  0
 24 18  1  0
  1 38  1  0
  1 39  1  0
  1 40  1  0
  4 41  1  0
  5 42  1  0
  7 43  1  0
 12 44  1  0
 13 45  1  0
 15 46  1  0
 21 47  1  0
 21 48  1  0
 22 49  1  0
 22 50  1  0
 23 51  1  0
 23 52  1  0
 24 53  1  0
 28 54  1  0
 28 55  1  0
 29 56  1  0
 29 57  1  0
 31 58  1  0
 31 59  1  0
 31 60  1  0
 32 61  1  0
 32 62  1  0
 33 63  1  0
 33 64  1  0
 34 65  1  0
 37 66  1  0
M  END
$$$$
