
     RDKit          3D

 56 59  0  0  0  0  0  0  0  0999 V2000
    9.9352    1.5060   -1.0130 C   0  0  0  0  0  0  0  0  0  0  0  0
    8.5146    1.4807   -0.7586 N   0  0  0  0  0  0  0  0  0  0  0  0
    7.8463    0.2763   -0.6831 C   0  0  0  0  0  0  0  0  0  0  0  0
    8.4010   -0.8141   -0.7552 O   0  0  0  0  0  0  0  0  0  0  0  0
    6.3667    0.3520   -0.5457 C   0  0  0  0  0  0  0  0  0  0  0  0
    5.7362    1.4182    0.1058 C   0  0  0  0  0  0  0  0  0  0  0  0
    4.3399    1.4407    0.2216 C   0  0  0  0  0  0  0  0  0  0  0  0
    3.5468    0.4043   -0.3007 C   0  0  0  0  0  0  0  0  0  0  0  0
    2.1580    0.4718   -0.0931 N   0  0  0  0  0  0  0  0  0  0  0  0
    1.2526   -0.5104    0.1265 C   0  0  0  0  0  0  0  0  0  0  0  0
   -0.0376   -0.2791   -0.0243 N   0  0  0  0  0  0  0  0  0  0  0  0
   -0.7797   -1.3793    0.3617 C   0  0  0  0  0  0  0  0  0  0  0  0
   -0.0342   -2.4721    0.7453 C   0  0  0  0  0  0  0  0  0  0  0  0
    1.6177   -2.0895    0.7421 S   0  0  0  0  0  0  0  0  0  0  0  0
   -0.5858   -3.7991    1.1298 C   0  0  0  0  0  0  0  0  0  0  0  0
   -2.0050   -3.9461    0.5543 C   0  0  0  0  0  0  0  0  0  0  0  0
   -2.8702   -2.7082    0.8452 C   0  0  0  0  0  0  0  0  0  0  0  0
   -2.2793   -1.4010    0.2562 C   0  0  0  0  0  0  0  0  0  0  0  0
   -2.9101   -0.2162    0.9982 C   0  0  0  0  0  0  0  0  0  0  0  0
   -2.5153    0.1179    2.1212 O   0  0  0  0  0  0  0  0  0  0  0  0
   -3.9938    0.4229    0.4035 N   0  0  0  0  0  0  0  0  0  0  0  0
   -4.6112    0.0391   -0.8706 C   0  0  0  0  0  0  0  0  0  0  0  0
   -6.0137    0.6500   -1.0478 C   0  0  0  0  0  0  0  0  0  0  0  0
   -6.0142    2.1226   -0.9777 N   0  0  0  0  0  0  0  0  0  0  0  0
   -7.3694    2.6339   -0.7874 C   0  0  0  0  0  0  0  0  0  0  0  0
   -5.0778    2.6408    0.0435 C   0  0  0  0  0  0  0  0  0  0  0  0
   -4.5648    1.6022    1.0593 C   0  0  0  0  0  0  0  0  0  0  0  0
    4.2074   -0.6546   -0.9440 C   0  0  0  0  0  0  0  0  0  0  0  0
    3.5101   -1.6394   -1.5312 F   0  0  0  0  0  0  0  0  0  0  0  0
    5.5962   -0.6910   -1.0636 C   0  0  0  0  0  0  0  0  0  0  0  0
   10.4475    0.8000   -0.3552 H   0  0  0  0  0  0  0  0  0  0  0  0
   10.1123    1.2265   -2.0554 H   0  0  0  0  0  0  0  0  0  0  0  0
   10.3038    2.5174   -0.8324 H   0  0  0  0  0  0  0  0  0  0  0  0
    7.9853    2.3152   -0.9704 H   0  0  0  0  0  0  0  0  0  0  0  0
    6.3146    2.2189    0.5602 H   0  0  0  0  0  0  0  0  0  0  0  0
    3.8704    2.2651    0.7563 H   0  0  0  0  0  0  0  0  0  0  0  0
    1.7531    1.3919   -0.2141 H   0  0  0  0  0  0  0  0  0  0  0  0
    0.0446   -4.6150    0.7588 H   0  0  0  0  0  0  0  0  0  0  0  0
   -0.6215   -3.8738    2.2234 H   0  0  0  0  0  0  0  0  0  0  0  0
   -2.4799   -4.8384    0.9778 H   0  0  0  0  0  0  0  0  0  0  0  0
   -1.9505   -4.0965   -0.5320 H   0  0  0  0  0  0  0  0  0  0  0  0
   -3.8811   -2.8653    0.4487 H   0  0  0  0  0  0  0  0  0  0  0  0
   -2.9839   -2.6152    1.9345 H   0  0  0  0  0  0  0  0  0  0  0  0
   -2.5008   -1.3571   -0.8151 H   0  0  0  0  0  0  0  0  0  0  0  0
   -3.9435    0.3726   -1.6747 H   0  0  0  0  0  0  0  0  0  0  0  0
   -4.6864   -1.0514   -0.9225 H   0  0  0  0  0  0  0  0  0  0  0  0
   -6.4204    0.3349   -2.0166 H   0  0  0  0  0  0  0  0  0  0  0  0
   -6.6676    0.2327   -0.2687 H   0  0  0  0  0  0  0  0  0  0  0  0
   -7.7939    2.3305    0.1781 H   0  0  0  0  0  0  0  0  0  0  0  0
   -8.0320    2.2767   -1.5857 H   0  0  0  0  0  0  0  0  0  0  0  0
   -7.3770    3.7287   -0.8397 H   0  0  0  0  0  0  0  0  0  0  0  0
   -4.2092    3.0336   -0.5029 H   0  0  0  0  0  0  0  0  0  0  0  0
   -5.5019    3.4962    0.5863 H   0  0  0  0  0  0  0  0  0  0  0  0
   -3.8234    2.0714    1.7141 H   0  0  0  0  0  0  0  0  0  0  0  0
   -5.3886    1.2521    1.6926 H   0  0  0  0  0  0  0  0  0  0  0  0
    6.0636   -1.5309   -1.5716 H   0  0  0  0  0  0  0  0  0  0  0  0
  1  2  1  0
  2  3  1  0
  3  4  2  0
  3  5  1  0
  5  6  2  0
  6  7  1  0
  7  8  2  0
  8  9  1  0
  9 10  1  0
 10 11  2  0
 11 12  1  0
 12 13  2  0
 13 14  1  0
 13 15  1  0
 15 16  1  0
 16 17  1  0
 17 18  1  0
 18 19  1  0
 19 20  2  0
 19 21  1  0
 21 22  1  0
 22 23  1  0
 23 24  1  0
 24 25  1  0
 24 26  1  0
 26 27  1  0
  8 28  1  0
 28 29  1  0
 28 30  2  0
 30  5  1  0
 14 10  1  0
 27 21  1  0
 18 12  1  0
  1 31  1  0
  1 32  1  0
  1 33  1  0
  2 34  1  0
  6 35  1  0
  7 36  1  0
  9 37  1  0
 15 38  1  0
 15 39  1  0
 16 40  1  0
 16 41  1  0
 17 42  1  0
 17 43  1  0
 18 44  1  0
 22 45  1  0
 22 46  1  0
 23 47  1  0
 23 48  1  0
 25 49  1  0
 25 50  1  0
 25 51  1  0
 26 52  1  0
 26 53  1  0
 27 54  1  0
 27 55  1  0
 30 56  1  0
M  END
$$$$
