REMARK SMILES N[C@H](COC(=O)c1ccc2ccccc2c1)Cc1cn[nH]c1
REMARK SMILES IDX 2 1 1 2 3 5 4 6 5 7 6 8 7 9 8 10 16 11 9 12 15 13 10 14
REMARK SMILES IDX 14 15 11 16 13 17 12 18 17 19 18 20 19 21 22 22 20 23 21 24
REMARK H PARENT 1 3 1 4 21 25
ROOT
ATOM      1  C   UNL     1      -2.789  -0.171   1.364  1.00  0.00     0.093 C 
ENDROOT
BRANCH   1   2
ATOM      2  N   UNL     1      -4.010  -0.538   2.106  1.00  0.00    -0.325 NA
ATOM      3  H   UNL     1      -3.777  -1.229   2.819  1.00  0.00     0.119 HD
ATOM      4  H   UNL     1      -4.388   0.273   2.593  1.00  0.00     0.119 HD
ENDBRANCH   1   2
BRANCH   1   5
ATOM      5  C   UNL     1      -1.747   0.459   2.316  1.00  0.00     0.252 C 
BRANCH   5   6
ATOM      6  O   UNL     1      -0.508   0.734   1.640  1.00  0.00    -0.460 OA
BRANCH   6   7
ATOM      7  C   UNL     1       0.343  -0.318   1.532  1.00  0.00     0.338 C 
ATOM      8  O   UNL     1       0.140  -1.443   1.960  1.00  0.00    -0.246 OA
BRANCH   7   9
ATOM      9  C   UNL     1       1.577   0.076   0.800  1.00  0.00     0.060 A 
ATOM     10  C   UNL     1       1.788   1.377   0.330  1.00  0.00     0.016 A 
ATOM     11  C   UNL     1       2.553  -0.905   0.578  1.00  0.00     0.024 A 
ATOM     12  C   UNL     1       2.965   1.692  -0.355  1.00  0.00     0.009 A 
ATOM     13  C   UNL     1       3.739  -0.600  -0.110  1.00  0.00    -0.018 A 
ATOM     14  C   UNL     1       3.948   0.716  -0.582  1.00  0.00    -0.018 A 
ATOM     15  C   UNL     1       4.723  -1.575  -0.338  1.00  0.00     0.009 A 
ATOM     16  C   UNL     1       5.134   1.019  -1.269  1.00  0.00     0.009 A 
ATOM     17  C   UNL     1       5.896  -1.258  -1.023  1.00  0.00     0.001 A 
ATOM     18  C   UNL     1       6.102   0.038  -1.488  1.00  0.00     0.001 A 
ENDBRANCH   7   9
ENDBRANCH   6   7
ENDBRANCH   5   6
ENDBRANCH   1   5
BRANCH   1  19
ATOM     19  C   UNL     1      -3.108   0.798   0.200  1.00  0.00     0.061 C 
BRANCH  19  20
ATOM     20  C   UNL     1      -3.863   0.164  -0.922  1.00  0.00    -0.009 A 
ATOM     21  C   UNL     1      -3.336  -0.547  -2.025  1.00  0.00     0.138 A 
ATOM     22  C   UNL     1      -5.225   0.139  -1.133  1.00  0.00     0.108 A 
ATOM     23  N   UNL     1      -4.284  -0.978  -2.861  1.00  0.00    -0.184 NA
ATOM     24  N   UNL     1      -5.424  -0.564  -2.284  1.00  0.00    -0.285 N 
ATOM     25  H   UNL     1      -6.303  -0.795  -2.735  1.00  0.00     0.189 HD
ENDBRANCH  19  20
ENDBRANCH   1  19
TORSDOF 7
