REMARK SMILES N[C@@H](CCc1c[nH]nn1)COC(=O)c1ccc2ccccc2c1
REMARK SMILES IDX 2 1 1 2 3 5 4 6 5 7 6 8 9 9 7 10 8 11 10 13 11 14 12 15
REMARK SMILES IDX 13 16 14 17 15 18 23 19 16 20 22 21 17 22 21 23 18 24 20 25
REMARK SMILES IDX 19 26
REMARK H PARENT 1 3 1 4 7 12
ROOT
ATOM      1  C   UNL     1      -2.042  -0.864  -0.454  1.00  0.00     0.089 C 
ENDROOT
BRANCH   1   2
ATOM      2  N   UNL     1      -1.700  -2.192  -1.001  1.00  0.00    -0.325 NA
ATOM      3  H   UNL     1      -2.113  -2.920  -0.418  1.00  0.00     0.119 HD
ATOM      4  H   UNL     1      -0.689  -2.320  -0.923  1.00  0.00     0.119 HD
ENDBRANCH   1   2
BRANCH   1   5
ATOM      5  C   UNL     1      -3.570  -0.707  -0.470  1.00  0.00     0.029 C 
BRANCH   5   6
ATOM      6  C   UNL     1      -4.026   0.718  -0.143  1.00  0.00     0.061 C 
BRANCH   6   7
ATOM      7  C   UNL     1      -5.502   0.859  -0.233  1.00  0.00     0.082 A 
ATOM      8  C   UNL     1      -6.284   1.348  -1.254  1.00  0.00     0.131 A 
ATOM      9  N   UNL     1      -6.311   0.470   0.802  1.00  0.00    -0.136 NA
ATOM     10  N   UNL     1      -7.554   1.228  -0.780  1.00  0.00    -0.265 N 
ATOM     11  N   UNL     1      -7.570   0.701   0.453  1.00  0.00    -0.070 NA
ATOM     12  H   UNL     1      -8.436   1.472  -1.216  1.00  0.00     0.191 HD
ENDBRANCH   6   7
ENDBRANCH   5   6
ENDBRANCH   1   5
BRANCH   1  13
ATOM     13  C   UNL     1      -1.441  -0.697   0.959  1.00  0.00     0.251 C 
BRANCH  13  14
ATOM     14  O   UNL     1      -0.008  -0.848   0.921  1.00  0.00    -0.460 OA
BRANCH  14  15
ATOM     15  C   UNL     1       0.677   0.262   0.547  1.00  0.00     0.338 C 
ATOM     16  O   UNL     1       0.181   1.336   0.244  1.00  0.00    -0.246 OA
BRANCH  15  17
ATOM     17  C   UNL     1       2.142  -0.001   0.539  1.00  0.00     0.060 A 
ATOM     18  C   UNL     1       2.687  -1.222   0.949  1.00  0.00     0.016 A 
ATOM     19  C   UNL     1       2.994   1.024   0.103  1.00  0.00     0.024 A 
ATOM     20  C   UNL     1       4.071  -1.416   0.922  1.00  0.00     0.009 A 
ATOM     21  C   UNL     1       4.386   0.840   0.072  1.00  0.00    -0.018 A 
ATOM     22  C   UNL     1       4.932  -0.396   0.487  1.00  0.00    -0.018 A 
ATOM     23  C   UNL     1       5.248   1.860  -0.363  1.00  0.00     0.009 A 
ATOM     24  C   UNL     1       6.324  -0.578   0.455  1.00  0.00     0.009 A 
ATOM     25  C   UNL     1       6.629   1.663  -0.389  1.00  0.00     0.001 A 
ATOM     26  C   UNL     1       7.166   0.446   0.020  1.00  0.00     0.001 A 
ENDBRANCH  15  17
ENDBRANCH  14  15
ENDBRANCH  13  14
ENDBRANCH   1  13
TORSDOF 8
