MODEL        9USER    Run = 9USERUSER    Estimated Free Energy of Binding    =  -8.83 kcal/mol  [=(1)+(2)+(3)-(4)]USERUSER    (1) Final Intermolecular Energy     = -11.21 kcal/molUSER        vdW + Hbond + desolv Energy     = -11.03 kcal/molUSER        Electrostatic Energy            =  -0.18 kcal/molUSER        Moving Ligand-Fixed Receptor    = -11.21 kcal/molUSER        Moving Ligand-Moving Receptor   =  +0.00 kcal/molUSER    (2) Final Total Internal Energy     =  -1.87 kcal/molUSER    (3) Torsional Free Energy           =  +2.39 kcal/molUSER    (4) Unbound System's Energy         =  -1.87 kcal/molUSERUSERREMARK SMILES N[C@@H](CCc1cn[nH]c1)COC(=O)c1ccc2ccccc2c1REMARK SMILES IDX 2 1 1 2 3 5 4 6 5 7 6 8 9 9 7 10 8 11 10 13 11 14 12 15REMARK SMILES IDX 13 16 14 17 15 18 23 19 16 20 22 21 17 22 21 23 18 24 20 25REMARK SMILES IDX 19 26REMARK H PARENT 1 3 1 4 8 12USER                              x       y       z     vdW  Elec       q    TypeUSER                           _______ _______ _______ _____ _____    ______ ____ROOTATOM      1  C   UNL     1      34.269  46.103  17.657 -0.41 -0.08    +0.089 C  ENDROOTBRANCH   1   2ATOM      2  N   UNL     1      33.922  47.054  18.726 -0.90 +0.24    -0.325 NA ATOM      3  H   UNL     1      34.035  46.629  19.644 -0.50 -0.07    +0.119 HD ATOM      4  H   UNL     1      32.938  47.324  18.645 -0.47 -0.11    +0.119 HD ENDBRANCH   1   2BRANCH   1   5ATOM      5  C   UNL     1      35.533  46.596  16.929 -0.36 -0.03    +0.027 C  BRANCH   5   6ATOM      6  C   UNL     1      35.692  46.007  15.522 -0.40 -0.03    +0.040 C  BRANCH   6   7ATOM      7  C   UNL     1      36.457  46.912  14.620 -0.42 +0.01    -0.010 A  ATOM      8  C   UNL     1      36.536  46.867  13.209 -0.47 -0.07    +0.138 A  ATOM      9  C   UNL     1      37.249  47.988  14.961 -0.41 -0.08    +0.108 A  ATOM     10  N   UNL     1      37.312  47.828  12.706 -1.03 +0.04    -0.184 NA ATOM     11  N   UNL     1      37.733  48.497  13.791 -0.33 +0.13    -0.285 N  ATOM     12  H   UNL     1      38.350  49.291  13.658 -0.34 -0.10    +0.189 HD ENDBRANCH   6   7ENDBRANCH   5   6ENDBRANCH   1   5BRANCH   1  13ATOM     13  C   UNL     1      34.430  44.664  18.201 -0.24 -0.09    +0.251 C  BRANCH  13  14ATOM     14  O   UNL     1      34.926  44.673  19.552 -0.15 +0.11    -0.460 OA BRANCH  14  15ATOM     15  C   UNL     1      35.883  43.751  19.829 -0.23 -0.03    +0.338 C  ATOM     16  O   UNL     1      35.690  42.585  20.141 -0.33 +0.01    -0.246 OA BRANCH  15  17ATOM     17  C   UNL     1      37.239  44.356  19.720 -0.33 -0.00    +0.060 A  ATOM     18  C   UNL     1      38.140  44.374  20.789 -0.36 +0.00    +0.016 A  ATOM     19  C   UNL     1      37.611  44.927  18.494 -0.35 -0.00    +0.024 A  ATOM     20  C   UNL     1      39.402  44.954  20.633 -0.35 +0.00    +0.009 A  ATOM     21  C   UNL     1      38.876  45.512  18.326 -0.40 +0.00    -0.018 A  ATOM     22  C   UNL     1      39.784  45.526  19.409 -0.40 +0.00    -0.018 A  ATOM     23  C   UNL     1      39.258  46.085  17.102 -0.42 -0.00    +0.009 A  ATOM     24  C   UNL     1      41.049  46.111  19.238 -0.45 +0.00    +0.009 A  ATOM     25  C   UNL     1      40.520  46.664  16.948 -0.48 -0.00    +0.001 A  ATOM     26  C   UNL     1      41.414  46.677  18.015 -0.50 -0.00    +0.001 A  ENDBRANCH  15  17ENDBRANCH  14  15ENDBRANCH  13  14ENDBRANCH   1  13TORSDOF 8TERENDMDL