MODEL        1USER    Run = 1USERUSER    Estimated Free Energy of Binding    =  -8.07 kcal/mol  [=(1)+(2)+(3)-(4)]USERUSER    (1) Final Intermolecular Energy     = -10.46 kcal/molUSER        vdW + Hbond + desolv Energy     = -10.27 kcal/molUSER        Electrostatic Energy            =  -0.19 kcal/molUSER        Moving Ligand-Fixed Receptor    = -10.46 kcal/molUSER        Moving Ligand-Moving Receptor   =  +0.00 kcal/molUSER    (2) Final Total Internal Energy     =  -2.44 kcal/molUSER    (3) Torsional Free Energy           =  +2.39 kcal/molUSER    (4) Unbound System's Energy         =  -2.44 kcal/molUSERUSERREMARK SMILES N[C@@H](CCc1c[nH]nn1)COC(=O)c1ccc2ccccc2c1REMARK SMILES IDX 2 1 1 2 3 5 4 6 5 7 6 8 9 9 7 10 8 11 10 13 11 14 12 15REMARK SMILES IDX 13 16 14 17 15 18 23 19 16 20 22 21 17 22 21 23 18 24 20 25REMARK SMILES IDX 19 26REMARK H PARENT 1 3 1 4 7 12USER                              x       y       z     vdW  Elec       q    TypeUSER                           _______ _______ _______ _____ _____    ______ ____ROOTATOM      1  C   UNL     1      39.880  48.707  15.075 -0.56 -0.03    +0.089 C  ENDROOTBRANCH   1   2ATOM      2  N   UNL     1      40.132  47.390  14.457 -0.16 +0.05    -0.325 NA ATOM      3  H   UNL     1      39.369  47.158  13.820 +0.08 -0.02    +0.119 HD ATOM      4  H   UNL     1      40.100  46.680  15.191 +0.08 -0.02    +0.119 HD ENDBRANCH   1   2BRANCH   1   5ATOM      5  C   UNL     1      38.367  48.867  15.287 -0.53 -0.02    +0.029 C  BRANCH   5   6ATOM      6  C   UNL     1      37.609  47.538  15.199 -0.48 -0.04    +0.061 C  BRANCH   6   7ATOM      7  C   UNL     1      37.017  47.329  13.853 -0.46 -0.04    +0.082 A  ATOM      8  C   UNL     1      35.791  46.819  13.495 -0.42 -0.09    +0.131 A  ATOM      9  N   UNL     1      37.709  47.665  12.719 -1.00 +0.02    -0.136 NA ATOM     10  N   UNL     1      35.798  46.872  12.135 -0.45 +0.15    -0.265 N  ATOM     11  N   UNL     1      36.948  47.380  11.670 -1.11 +0.02    -0.070 NA ATOM     12  H   UNL     1      35.085  46.593  11.470 -0.13 -0.15    +0.191 HD ENDBRANCH   6   7ENDBRANCH   5   6ENDBRANCH   1   5BRANCH   1  13ATOM     13  C   UNL     1      40.682  48.843  16.388 -0.38 -0.05    +0.251 C  BRANCH  13  14ATOM     14  O   UNL     1      41.335  47.600  16.714 -0.18 +0.05    -0.460 OA BRANCH  14  15ATOM     15  C   UNL     1      41.549  47.394  18.038 -0.31 -0.02    +0.338 C  ATOM     16  O   UNL     1      42.465  47.866  18.693 -0.52 -0.00    -0.246 OA BRANCH  15  17ATOM     17  C   UNL     1      40.512  46.490  18.605 -0.42 -0.00    +0.060 A  ATOM     18  C   UNL     1      40.659  45.865  19.848 -0.40 +0.00    +0.016 A  ATOM     19  C   UNL     1      39.350  46.265  17.853 -0.42 -0.00    +0.024 A  ATOM     20  C   UNL     1      39.654  45.024  20.333 -0.37 +0.00    +0.009 A  ATOM     21  C   UNL     1      38.333  45.422  18.331 -0.38 +0.00    -0.018 A  ATOM     22  C   UNL     1      38.487  44.793  19.587 -0.36 +0.00    -0.018 A  ATOM     23  C   UNL     1      37.166  45.190  17.585 -0.35 -0.00    +0.009 A  ATOM     24  C   UNL     1      37.469  43.950  20.064 -0.36 -0.00    +0.009 A  ATOM     25  C   UNL     1      36.164  44.350  18.073 -0.33 -0.00    +0.001 A  ATOM     26  C   UNL     1      36.316  43.731  19.310 -0.37 -0.00    +0.001 A  ENDBRANCH  15  17ENDBRANCH  14  15ENDBRANCH  13  14ENDBRANCH   1  13TORSDOF 8TERENDMDL