MODEL        4USER    Run = 4USERUSER    Estimated Free Energy of Binding    =  -8.24 kcal/mol  [=(1)+(2)+(3)-(4)]USERUSER    (1) Final Intermolecular Energy     = -10.33 kcal/molUSER        vdW + Hbond + desolv Energy     = -10.09 kcal/molUSER        Electrostatic Energy            =  -0.24 kcal/molUSER        Moving Ligand-Fixed Receptor    = -10.33 kcal/molUSER        Moving Ligand-Moving Receptor   =  +0.00 kcal/molUSER    (2) Final Total Internal Energy     =  -1.26 kcal/molUSER    (3) Torsional Free Energy           =  +2.09 kcal/molUSER    (4) Unbound System's Energy         =  -1.26 kcal/molUSERUSERREMARK SMILES N[C@H](COC(=O)c1ccc2ccccc2c1)Cc1cn[nH]c1REMARK SMILES IDX 2 1 1 2 3 5 4 6 5 7 6 8 7 9 8 10 16 11 9 12 15 13 10 14REMARK SMILES IDX 14 15 11 16 13 17 12 18 17 19 18 20 19 21 22 22 20 23 21 24REMARK H PARENT 1 3 1 4 21 25USER                              x       y       z     vdW  Elec       q    TypeUSER                           _______ _______ _______ _____ _____    ______ ____ROOTATOM      1  C   UNL     1      25.599  38.232  21.043 -0.29 -0.08    +0.093 C  ENDROOTBRANCH   1   2ATOM      2  N   UNL     1      25.673  37.552  22.350 -0.10 +0.32    -0.325 NA ATOM      3  H   UNL     1      24.780  37.649  22.832 -0.48 -0.14    +0.119 HD ATOM      4  H   UNL     1      25.833  36.554  22.223 -0.38 -0.18    +0.119 HD ENDBRANCH   1   2BRANCH   1   5ATOM      5  C   UNL     1      26.363  37.425  19.969 -0.16 -0.17    +0.252 C  BRANCH   5   6ATOM      6  O   UNL     1      27.286  36.495  20.561 -0.12 +0.25    -0.460 OA BRANCH   6   7ATOM      7  C   UNL     1      27.152  35.205  20.159 -0.14 -0.25    +0.338 C  ATOM      8  O   UNL     1      26.654  34.836  19.107 -0.86 +0.13    -0.246 OA BRANCH   7   9ATOM      9  C   UNL     1      27.709  34.275  21.178 -0.30 -0.03    +0.060 A  ATOM     10  C   UNL     1      28.545  34.710  22.213 -0.39 -0.00    +0.016 A  ATOM     11  C   UNL     1      27.379  32.917  21.082 -0.38 -0.02    +0.024 A  ATOM     12  C   UNL     1      29.044  33.792  23.142 -0.35 +0.00    +0.009 A  ATOM     13  C   UNL     1      27.876  31.986  22.009 -0.44 +0.01    -0.018 A  ATOM     14  C   UNL     1      28.719  32.430  23.053 -0.44 -0.00    -0.018 A  ATOM     15  C   UNL     1      27.551  30.623  21.922 -0.42 -0.01    +0.009 A  ATOM     16  C   UNL     1      29.214  31.498  23.979 -0.45 +0.00    +0.009 A  ATOM     17  C   UNL     1      28.052  29.710  22.850 -0.48 -0.00    +0.001 A  ATOM     18  C   UNL     1      28.882  30.147  23.878 -0.57 +0.00    +0.001 A  ENDBRANCH   7   9ENDBRANCH   6   7ENDBRANCH   5   6ENDBRANCH   1   5BRANCH   1  19ATOM     19  C   UNL     1      26.155  39.674  21.127 -0.35 -0.02    +0.061 C  BRANCH  19  20ATOM     20  C   UNL     1      25.118  40.703  21.440 -0.45 +0.00    -0.009 A  ATOM     21  C   UNL     1      24.088  40.625  22.406 -0.37 -0.03    +0.138 A  ATOM     22  C   UNL     1      24.932  41.938  20.858 -0.43 -0.03    +0.108 A  ATOM     23  N   UNL     1      23.317  41.715  22.426 -0.95 +0.02    -0.184 NA ATOM     24  N   UNL     1      23.865  42.505  21.488 -0.38 +0.08    -0.285 N  ATOM     25  H   UNL     1      23.454  43.419  21.330 -0.41 -0.10    +0.189 HD ENDBRANCH  19  20ENDBRANCH   1  19TORSDOF 7TERENDMDL