MODEL        3USER    Run = 3USERUSER    Estimated Free Energy of Binding    =  -8.41 kcal/mol  [=(1)+(2)+(3)-(4)]USERUSER    (1) Final Intermolecular Energy     = -10.20 kcal/molUSER        vdW + Hbond + desolv Energy     = -10.01 kcal/molUSER        Electrostatic Energy            =  -0.19 kcal/molUSER        Moving Ligand-Fixed Receptor    = -10.20 kcal/molUSER        Moving Ligand-Moving Receptor   =  +0.00 kcal/molUSER    (2) Final Total Internal Energy     =  -2.34 kcal/molUSER    (3) Torsional Free Energy           =  +1.79 kcal/molUSER    (4) Unbound System's Energy         =  -2.34 kcal/molUSERUSERREMARK SMILES NCc1c(CO)cccc1-c1n[nH]c2cc(-c3ccncc3)ccc12REMARK SMILES IDX 3 1 4 2 7 3 8 4 9 5 10 6 2 7 1 8 5 11 6 12 11 14 12 15 25 16REMARK SMILES IDX 13 17 24 18 14 19 23 20 15 21 16 22 17 24 18 25 22 26 19 27REMARK SMILES IDX 21 28 20 29REMARK H PARENT 1 9 1 10 6 13 13 23USER                              x       y       z     vdW  Elec       q    TypeUSER                           _______ _______ _______ _____ _____    ______ ____ROOTATOM      1  C   UNL     1      31.681  45.392  15.262 -0.42 +0.01    -0.019 A  ATOM      2  C   UNL     1      30.728  44.606  15.959 -0.33 +0.01    -0.017 A  ATOM      3  C   UNL     1      31.151  43.472  16.677 -0.30 -0.00    +0.006 A  ATOM      4  C   UNL     1      32.497  43.123  16.740 -0.32 -0.00    +0.001 A  ATOM      5  C   UNL     1      33.443  43.906  16.086 -0.32 -0.01    +0.011 A  ATOM      6  C   UNL     1      33.048  45.037  15.355 -0.32 -0.01    +0.007 A  ENDROOTBRANCH   1   7ATOM      7  C   UNL     1      31.248  46.604  14.463 -0.45 -0.07    +0.114 C  BRANCH   7   8ATOM      8  N   UNL     1      31.022  46.258  13.062 -0.48 +0.20    -0.326 NA ATOM      9  H   UNL     1      31.917  46.008  12.643 -0.29 -0.06    +0.119 HD ATOM     10  H   UNL     1      30.456  45.411  13.027 -0.16 -0.13    +0.119 HD ENDBRANCH   7   8ENDBRANCH   1   7BRANCH   2  11ATOM     11  C   UNL     1      29.248  44.909  15.918 -0.23 -0.07    +0.192 C  BRANCH  11  12ATOM     12  O   UNL     1      28.863  45.338  14.617 -0.05 +0.36    -0.392 OA ATOM     13  H   UNL     1      29.498  44.964  13.983 -0.37 -0.35    +0.211 HD ENDBRANCH  11  12ENDBRANCH   2  11BRANCH   6  14ATOM     14  C   UNL     1      34.095  45.834  14.729 -0.16 -0.10    +0.100 A  ATOM     15  N   UNL     1      33.965  46.301  13.478 -0.03 +0.15    -0.174 NA ATOM     16  C   UNL     1      35.343  46.218  15.302 -0.31 -0.03    +0.028 A  ATOM     17  N   UNL     1      35.111  46.965  13.258 -0.30 +0.21    -0.277 N  ATOM     18  C   UNL     1      35.995  46.023  16.533 -0.35 -0.01    +0.013 A  ATOM     19  C   UNL     1      35.977  46.963  14.318 -0.36 -0.05    +0.066 A  ATOM     20  C   UNL     1      37.264  46.590  16.724 -0.34 -0.00    +0.009 A  ATOM     21  C   UNL     1      37.243  47.537  14.489 -0.46 -0.02    +0.037 A  ATOM     22  C   UNL     1      37.898  47.343  15.721 -0.43 +0.01    -0.016 A  ATOM     23  H   UNL     1      35.244  47.404  12.354 -0.00 -0.14    +0.190 HD BRANCH  22  24ATOM     24  C   UNL     1      39.231  47.922  15.953 -0.49 +0.01    -0.015 A  ATOM     25  C   UNL     1      39.759  48.892  15.091 -0.50 -0.01    +0.029 A  ATOM     26  C   UNL     1      40.015  47.522  17.041 -0.45 -0.01    +0.029 A  ATOM     27  C   UNL     1      41.020  49.406  15.350 -0.56 -0.02    +0.111 A  ATOM     28  C   UNL     1      41.266  48.093  17.216 -0.41 -0.01    +0.111 A  ATOM     29  N   UNL     1      41.786  49.027  16.393 -0.80 -0.05    -0.265 NA ENDBRANCH  22  24ENDBRANCH   6  14TORSDOF 6TERENDMDL