MODEL        2USER    Run = 2USERUSER    Estimated Free Energy of Binding    =  -8.56 kcal/mol  [=(1)+(2)+(3)-(4)]USERUSER    (1) Final Intermolecular Energy     = -10.35 kcal/molUSER        vdW + Hbond + desolv Energy     = -10.18 kcal/molUSER        Electrostatic Energy            =  -0.16 kcal/molUSER        Moving Ligand-Fixed Receptor    = -10.35 kcal/molUSER        Moving Ligand-Moving Receptor   =  +0.00 kcal/molUSER    (2) Final Total Internal Energy     =  -1.01 kcal/molUSER    (3) Torsional Free Energy           =  +1.79 kcal/molUSER    (4) Unbound System's Energy         =  -1.01 kcal/molUSERUSERREMARK SMILES COCc1c(CO)cccc1-c1n[nH]c2cc(-c3ccncc3)ccc12REMARK SMILES IDX 4 1 5 2 8 3 9 4 10 5 11 6 3 7 2 8 1 9 6 10 7 11 12 13 13 14REMARK SMILES IDX 26 15 14 16 25 17 15 18 24 19 16 20 17 21 18 23 19 24 23 25REMARK SMILES IDX 20 26 22 27 21 28REMARK H PARENT 7 12 14 22USER                              x       y       z     vdW  Elec       q    TypeUSER                           _______ _______ _______ _____ _____    ______ ____ROOTATOM      1  C   UNL     1      38.082  47.329  15.048 -0.46 +0.00    -0.007 A  ATOM      2  C   UNL     1      36.981  47.259  14.152 -0.48 +0.01    -0.016 A  ATOM      3  C   UNL     1      36.243  46.066  14.051 -0.44 -0.00    +0.006 A  ATOM      4  C   UNL     1      36.583  44.945  14.802 -0.39 -0.00    +0.001 A  ATOM      5  C   UNL     1      37.659  45.005  15.680 -0.33 -0.00    +0.011 A  ATOM      6  C   UNL     1      38.407  46.185  15.815 -0.39 -0.00    +0.009 A  ENDROOTBRANCH   1   7ATOM      7  C   UNL     1      38.875  48.615  15.184 -0.42 -0.10    +0.196 C  BRANCH   7   8ATOM      8  O   UNL     1      40.050  48.619  14.366 -0.29 +0.11    -0.380 OA ATOM      9  C   UNL     1      41.036  49.532  14.834 -0.55 -0.05    +0.195 C  ENDBRANCH   7   8ENDBRANCH   1   7BRANCH   2  10ATOM     10  C   UNL     1      36.540  48.441  13.325 -0.39 -0.10    +0.192 C  BRANCH  10  11ATOM     11  O   UNL     1      36.682  48.120  11.948 -0.89 +0.12    -0.392 OA ATOM     12  H   UNL     1      36.136  48.759  11.463 -0.33 -0.13    +0.211 HD ENDBRANCH  10  11ENDBRANCH   2  10BRANCH   6  13ATOM     13  C   UNL     1      39.494  46.181  16.788 -0.37 -0.02    +0.100 A  ATOM     14  N   UNL     1      40.667  46.781  16.535 -0.34 +0.02    -0.174 NA ATOM     15  C   UNL     1      39.490  45.565  18.076 -0.42 -0.00    +0.028 A  ATOM     16  N   UNL     1      41.397  46.546  17.638 -0.26 +0.02    -0.277 N  ATOM     17  C   UNL     1      38.571  44.832  18.845 -0.38 -0.00    +0.013 A  ATOM     18  C   UNL     1      40.749  45.824  18.602 -0.43 -0.00    +0.066 A  ATOM     19  C   UNL     1      38.957  44.386  20.118 -0.33 -0.00    +0.009 A  ATOM     20  C   UNL     1      41.155  45.384  19.867 -0.38 +0.00    +0.037 A  ATOM     21  C   UNL     1      40.234  44.649  20.641 -0.34 -0.00    -0.016 A  ATOM     22  H   UNL     1      42.342  46.911  17.673 -0.40 -0.04    +0.190 HD BRANCH  21  23ATOM     23  C   UNL     1      40.608  44.168  21.980 -0.26 -0.00    -0.015 A  ATOM     24  C   UNL     1      41.770  43.411  22.178 -0.32 +0.00    +0.029 A  ATOM     25  C   UNL     1      39.818  44.451  23.099 -0.20 +0.00    +0.029 A  ATOM     26  C   UNL     1      42.080  42.977  23.457 -0.20 -0.00    +0.111 A  ATOM     27  C   UNL     1      40.212  43.975  24.340 -0.12 +0.00    +0.111 A  ATOM     28  N   UNL     1      41.326  43.242  24.544 -0.09 +0.00    -0.265 NA ENDBRANCH  21  23ENDBRANCH   6  13TORSDOF 6TERENDMDL