REMARK SMILES NCc1c(CO)cccc1-c1n[nH]c2cc(-c3ccncc3)ccc12
REMARK SMILES IDX 3 1 4 2 7 3 8 4 9 5 10 6 2 7 1 8 5 11 6 12 11 14 12 15 25 16
REMARK SMILES IDX 13 17 24 18 14 19 23 20 15 21 16 22 17 24 18 25 22 26 19 27
REMARK SMILES IDX 21 28 20 29
REMARK H PARENT 1 9 1 10 6 13 13 23
ROOT
ATOM      1  C   UNL     1      -3.122  -0.108   0.058  1.00  0.00    -0.019 A 
ATOM      2  C   UNL     1      -4.292  -0.100   0.860  1.00  0.00    -0.017 A 
ATOM      3  C   UNL     1      -4.523  -1.152   1.767  1.00  0.00     0.006 A 
ATOM      4  C   UNL     1      -3.606  -2.188   1.912  1.00  0.00     0.001 A 
ATOM      5  C   UNL     1      -2.440  -2.188   1.153  1.00  0.00     0.011 A 
ATOM      6  C   UNL     1      -2.188  -1.157   0.235  1.00  0.00     0.007 A 
ENDROOT
BRANCH   1   7
ATOM      7  C   UNL     1      -2.862   1.000  -0.941  1.00  0.00     0.114 C 
BRANCH   7   8
ATOM      8  N   UNL     1      -2.216   2.144  -0.302  1.00  0.00    -0.326 NA
ATOM      9  H   UNL     1      -1.290   1.857   0.012  1.00  0.00     0.119 HD
ATOM     10  H   UNL     1      -2.057   2.860  -1.009  1.00  0.00     0.119 HD
ENDBRANCH   7   8
ENDBRANCH   1   7
BRANCH   2  11
ATOM     11  C   UNL     1      -5.344   0.979   0.741  1.00  0.00     0.192 C 
BRANCH  11  12
ATOM     12  O   UNL     1      -6.244   0.683  -0.320  1.00  0.00    -0.392 OA
ATOM     13  H   UNL     1      -6.032  -0.208  -0.647  1.00  0.00     0.211 HD
ENDBRANCH  11  12
ENDBRANCH   2  11
BRANCH   6  14
ATOM     14  C   UNL     1      -0.929  -1.199  -0.497  1.00  0.00     0.100 A 
ATOM     15  N   UNL     1      -0.846  -1.759  -1.714  1.00  0.00    -0.174 NA
ATOM     16  C   UNL     1       0.332  -0.690  -0.069  1.00  0.00     0.028 A 
ATOM     17  N   UNL     1       0.446  -1.614  -2.050  1.00  0.00    -0.277 N 
ATOM     18  C   UNL     1       0.823  -0.027   1.070  1.00  0.00     0.013 A 
ATOM     19  C   UNL     1       1.205  -0.970  -1.111  1.00  0.00     0.066 A 
ATOM     20  C   UNL     1       2.179   0.330   1.113  1.00  0.00     0.009 A 
ATOM     21  C   UNL     1       2.561  -0.621  -1.087  1.00  0.00     0.037 A 
ATOM     22  C   UNL     1       3.056   0.043   0.053  1.00  0.00    -0.016 A 
ATOM     23  H   UNL     1       0.751  -1.979  -2.945  1.00  0.00     0.190 HD
BRANCH  22  24
ATOM     24  C   UNL     1       4.474   0.429   0.131  1.00  0.00    -0.015 A 
ATOM     25  C   UNL     1       5.059   1.238  -0.851  1.00  0.00     0.029 A 
ATOM     26  C   UNL     1       5.284  -0.001   1.188  1.00  0.00     0.029 A 
ATOM     27  C   UNL     1       6.399   1.574  -0.734  1.00  0.00     0.111 A 
ATOM     28  C   UNL     1       6.615   0.385   1.217  1.00  0.00     0.111 A 
ATOM     29  N   UNL     1       7.190   1.164   0.278  1.00  0.00    -0.265 NA
ENDBRANCH  22  24
ENDBRANCH   6  14
TORSDOF 6
