REMARK SMILES COCc1c(CO)cccc1-c1n[nH]c2cc(-c3ccncc3)ccc12
REMARK SMILES IDX 4 1 5 2 8 3 9 4 10 5 11 6 3 7 2 8 1 9 6 10 7 11 12 13 13 14
REMARK SMILES IDX 26 15 14 16 25 17 15 18 24 19 16 20 17 21 18 23 19 24 23 25
REMARK SMILES IDX 20 26 22 27 21 28
REMARK H PARENT 7 12 14 22
ROOT
ATOM      1  C   UNL     1       2.922   0.344   0.152  1.00  0.00    -0.007 A 
ATOM      2  C   UNL     1       4.031   1.227   0.063  1.00  0.00    -0.016 A 
ATOM      3  C   UNL     1       4.177   2.046  -1.072  1.00  0.00     0.006 A 
ATOM      4  C   UNL     1       3.262   1.993  -2.119  1.00  0.00     0.001 A 
ATOM      5  C   UNL     1       2.174   1.130  -2.039  1.00  0.00     0.011 A 
ATOM      6  C   UNL     1       1.992   0.311  -0.914  1.00  0.00     0.009 A 
ENDROOT
BRANCH   1   7
ATOM      7  C   UNL     1       2.738  -0.530   1.379  1.00  0.00     0.196 C 
BRANCH   7   8
ATOM      8  O   UNL     1       3.794  -1.485   1.530  1.00  0.00    -0.380 OA
ATOM      9  C   UNL     1       3.650  -2.599   0.657  1.00  0.00     0.195 C 
ENDBRANCH   7   8
ENDBRANCH   1   7
BRANCH   2  10
ATOM     10  C   UNL     1       5.049   1.356   1.169  1.00  0.00     0.192 C 
BRANCH  10  11
ATOM     11  O   UNL     1       4.488   2.123   2.225  1.00  0.00    -0.392 OA
ATOM     12  H   UNL     1       5.105   2.049   2.971  1.00  0.00     0.211 HD
ENDBRANCH  10  11
ENDBRANCH   2  10
BRANCH   6  13
ATOM     13  C   UNL     1       0.803  -0.535  -0.888  1.00  0.00     0.100 A 
ATOM     14  N   UNL     1       0.873  -1.853  -1.127  1.00  0.00    -0.174 NA
ATOM     15  C   UNL     1      -0.539  -0.121  -0.635  1.00  0.00     0.028 A 
ATOM     16  N   UNL     1      -0.401  -2.268  -1.034  1.00  0.00    -0.277 N 
ATOM     17  C   UNL     1      -1.185   1.089  -0.329  1.00  0.00     0.013 A 
ATOM     18  C   UNL     1      -1.298  -1.279  -0.739  1.00  0.00     0.066 A 
ATOM     19  C   UNL     1      -2.575   1.085  -0.140  1.00  0.00     0.009 A 
ATOM     20  C   UNL     1      -2.686  -1.303  -0.558  1.00  0.00     0.037 A 
ATOM     21  C   UNL     1      -3.336  -0.091  -0.250  1.00  0.00    -0.016 A 
ATOM     22  H   UNL     1      -0.596  -3.252  -1.184  1.00  0.00     0.190 HD
BRANCH  21  23
ATOM     23  C   UNL     1      -4.793  -0.062  -0.045  1.00  0.00    -0.015 A 
ATOM     24  C   UNL     1      -5.346   0.425   1.146  1.00  0.00     0.029 A 
ATOM     25  C   UNL     1      -5.673  -0.519  -1.032  1.00  0.00     0.029 A 
ATOM     26  C   UNL     1      -6.724   0.430   1.295  1.00  0.00     0.111 A 
ATOM     27  C   UNL     1      -7.037  -0.471  -0.792  1.00  0.00     0.111 A 
ATOM     28  N   UNL     1      -7.583  -0.008   0.351  1.00  0.00    -0.265 NA
ENDBRANCH  21  23
ENDBRANCH   6  13
TORSDOF 6
