MODEL        2USER    Run = 2USERUSER    Estimated Free Energy of Binding    =  -6.60 kcal/mol  [=(1)+(2)+(3)-(4)]USERUSER    (1) Final Intermolecular Energy     = -11.07 kcal/molUSER        vdW + Hbond + desolv Energy     = -11.15 kcal/molUSER        Electrostatic Energy            =  -0.33 kcal/molUSER        Moving Ligand-Fixed Receptor    = -11.48 kcal/molUSER        Moving Ligand-Moving Receptor   =  +0.41 kcal/molUSER    (2) Final Total Internal Energy     =  -3.05 kcal/molUSER    (3) Torsional Free Energy           =  +4.47 kcal/molUSER    (4) Unbound System's Energy         =  -3.05 kcal/molUSERUSERREMARK SMILES COc1ccc(O)c(C(=O)c2ccc(NC[C@@H]3CCCNC[C@@H]3NC(=O)c3ccncc3)cc2)c1FREMARK SMILES IDX 16 1 15 2 14 4 11 5 12 6 34 7 13 8 33 9 9 10 10 11 8 12 3 13REMARK SMILES IDX 4 14 35 15 5 16 6 17 36 18 2 19 1 20 7 21 17 23 18 24 23 26REMARK SMILES IDX 22 27 21 28 20 30 19 31 24 33 25 34 26 36 27 37 28 38 32 39REMARK SMILES IDX 29 40 31 41 30 42REMARK H PARENT 15 3 7 22 21 29 24 35REMARK Flexibility Score:   99.900USER                              x       y       z     vdW  Elec       q    TypeUSER                           _______ _______ _______ _____ _____    ______ ____ROOTATOM      1  C   UNL     1      38.286  46.745  16.638 -0.37 -0.05    +0.118 C  ENDROOTBRANCH   1   2ATOM      2  N   UNL     1      39.142  45.675  17.159 -0.13 +0.07    -0.385 N  ATOM      3  H   UNL     1      38.652  44.795  17.287 +0.10 -0.03    +0.160 HD BRANCH   2   4ATOM      4  C   UNL     1      40.137  45.904  18.106 -0.44 -0.00    +0.034 A  ATOM      5  C   UNL     1      42.186  46.529  19.955 -0.42 +0.00    +0.023 A  ATOM      6  C   UNL     1      41.010  45.912  20.384 -0.35 +0.00    +0.014 A  ATOM      7  C   UNL     1      42.320  46.887  18.613 -0.47 +0.00    +0.014 A  ATOM      8  C   UNL     1      39.995  45.611  19.467 -0.40 -0.00    +0.026 A  ATOM      9  C   UNL     1      41.299  46.579  17.706 -0.39 -0.00    +0.026 A  BRANCH   5  10ATOM     10  C   UNL     1      43.220  46.859  20.965 -0.31 +0.07    +0.199 C  ATOM     11  O   UNL     1      44.296  47.328  20.590 -0.50 -0.20    -0.288 OA BRANCH  10  12ATOM     12  C   UNL     1      43.052  46.604  22.413 -0.22 +0.03    +0.104 A  ATOM     13  C   UNL     1      42.669  45.099  24.293 -0.04 +0.01    +0.155 A  ATOM     14  C   UNL     1      42.754  46.180  25.172 -0.05 +0.00    +0.053 A  ATOM     15  C   UNL     1      42.811  45.324  22.915 -0.10 +0.03    +0.179 A  ATOM     16  C   UNL     1      42.960  47.470  24.678 -0.15 +0.01    +0.051 A  ATOM     17  C   UNL     1      43.093  47.680  23.308 -0.24 +0.03    +0.130 A  ATOM     18  F   UNL     1      42.685  44.283  22.077 -0.06 -0.04    -0.202 F  BRANCH  13  19ATOM     19  O   UNL     1      42.452  43.796  24.657 -0.00 -0.00    -0.494 OA ATOM     20  C   UNL     1      41.477  43.555  25.665 -0.07 -0.01    +0.278 C  ENDBRANCH  13  19BRANCH  17  21ATOM     21  O   UNL     1      43.260  48.978  22.904 -0.64 -0.18    -0.507 OA ATOM     22  H   UNL     1      43.657  48.965  22.004 -0.42 -0.01    +0.293 HD ENDBRANCH  17  21ENDBRANCH  10  12ENDBRANCH   5  10ENDBRANCH   2   4ENDBRANCH   1   2BRANCH   1  23ATOM     23  C   UNL     1      38.202  46.717  15.091 -0.46 -0.01    +0.032 C  BRANCH  23  24ATOM     24  C   UNL     1      37.571  48.026  14.572 -0.59 -0.01    +0.009 CG0ATOM     25  G   UNL     1      37.147  48.105  13.105 +0.00 +0.00    +0.000 G0 ENDBRANCH  23  24BRANCH  23  26ATOM     26  C   UNL     1      37.517  45.416  14.613 -0.38 -0.04    +0.101 C  BRANCH  26  27ATOM     27  C   UNL     1      37.126  45.495  13.118 -0.48 -0.04    +0.106 C  BRANCH  27  28ATOM     28  N   UNL     1      35.794  46.052  12.851 -0.29 +0.17    -0.315 NA ATOM     29  H   UNL     1      35.478  45.673  11.955 +0.05 -0.06    +0.122 HD BRANCH  28  30ATOM     30  C   UNL     1      35.796  47.512  12.746 -0.59 -0.05    +0.081 C  BRANCH  30  31ATOM     31  C   UNL     1      37.153  48.105  13.105 -0.56 -0.01    +0.016 CG0ATOM     32  G   UNL     1      37.571  48.023  14.573 +0.00 +0.00    +0.000 G0 ENDBRANCH  30  31ENDBRANCH  28  30ENDBRANCH  27  28ENDBRANCH  26  27BRANCH  26  33ATOM     33  N   UNL     1      36.343  45.060  15.406 -0.12 +0.16    -0.348 N  ATOM     34  C   UNL     1      36.390  44.203  16.479 -0.24 -0.09    +0.251 C  ATOM     35  H   UNL     1      35.463  45.397  15.037 +0.12 -0.10    +0.164 HD ATOM     36  O   UNL     1      37.422  43.660  16.856 -0.19 +0.07    -0.269 OA BRANCH  34  37ATOM     37  C   UNL     1      35.105  43.928  17.175 -0.29 -0.02    +0.042 A  ATOM     38  C   UNL     1      34.350  45.017  17.614 -0.32 -0.02    +0.034 A  ATOM     39  C   UNL     1      34.621  42.634  17.374 -0.38 -0.01    +0.034 A  ATOM     40  C   UNL     1      33.153  44.765  18.256 -0.29 -0.04    +0.112 A  ATOM     41  C   UNL     1      33.410  42.489  18.027 -0.29 -0.03    +0.112 A  ATOM     42  N   UNL     1      32.669  43.523  18.476 -0.17 +0.05    -0.265 NA ENDBRANCH  34  37ENDBRANCH  26  33ENDBRANCH  23  26ENDBRANCH   1  23TORSDOF 9TERENDMDL