MODEL        3USER    Run = 3USERUSER    Estimated Free Energy of Binding    = -11.41 kcal/mol  [=(1)+(2)+(3)-(4)]USERUSER    (1) Final Intermolecular Energy     = -13.20 kcal/molUSER        vdW + Hbond + desolv Energy     = -13.11 kcal/molUSER        Electrostatic Energy            =  -0.09 kcal/molUSER        Moving Ligand-Fixed Receptor    = -13.20 kcal/molUSER        Moving Ligand-Moving Receptor   =  +0.00 kcal/molUSER    (2) Final Total Internal Energy     =  -1.79 kcal/molUSER    (3) Torsional Free Energy           =  +1.79 kcal/molUSER    (4) Unbound System's Energy         =  -1.79 kcal/molUSERUSERREMARK SMILES Oc1nc2ccccc2n1C1CCN(Cc2ccc(-c3nc4ccccc4nc3-c3ccccc3)cc2)CC1REMARK SMILES IDX 11 1 12 2 13 3 14 4 38 5 39 6 10 7 2 8 3 9 4 10 9 11 5 12REMARK SMILES IDX 8 13 6 14 7 15 1 16 15 18 16 19 17 20 37 21 18 22 36 23REMARK SMILES IDX 19 24 20 25 21 26 29 27 22 28 28 29 23 30 27 31 24 32 26 33REMARK SMILES IDX 25 34 30 35 31 36 35 37 32 38 34 39 33 40REMARK H PARENT 1 17USER                              x       y       z     vdW  Elec       q    TypeUSER                           _______ _______ _______ _____ _____    ______ ____ROOTATOM      1  C   UNL     1      36.868  44.404  26.940 -0.37 -0.01    +0.095 C  ATOM      2  C   UNL     1      38.020  43.738  27.710 -0.35 -0.01    +0.041 C  ATOM      3  C   UNL     1      38.479  42.443  27.041 -0.31 -0.01    +0.087 C  ATOM      4  N   UNL     1      38.603  42.541  25.583 -0.11 -0.00    -0.299 NA ATOM      5  C   UNL     1      37.356  42.975  24.932 -0.35 +0.00    +0.087 C  ATOM      6  C   UNL     1      36.264  43.465  25.889 -0.42 -0.00    +0.041 C  ENDROOTBRANCH   1   7ATOM      7  N   UNL     1      35.868  44.987  27.822 -0.23 +0.09    -0.291 N  ATOM      8  C   UNL     1      34.828  44.330  28.418 -0.37 -0.08    +0.295 A  ATOM      9  N   UNL     1      34.090  45.100  29.168 -0.54 +0.04    -0.195 NA ATOM     10  C   UNL     1      34.682  46.337  29.071 -0.32 -0.02    +0.092 A  ATOM     11  C   UNL     1      35.803  46.301  28.238 -0.08 -0.02    +0.072 A  ATOM     12  C   UNL     1      34.313  47.547  29.679 -0.40 -0.00    +0.031 A  ATOM     13  C   UNL     1      36.588  47.435  27.985 -0.30 -0.01    +0.029 A  ATOM     14  C   UNL     1      35.084  48.690  29.437 -0.32 -0.00    +0.002 A  ATOM     15  C   UNL     1      36.202  48.631  28.604 -0.29 -0.00    +0.002 A  BRANCH   8  16ATOM     16  O   UNL     1      34.574  43.045  28.281 -0.27 +0.15    -0.480 OA ATOM     17  H   UNL     1      35.041  42.673  29.052 -0.28 -0.21    +0.296 HD ENDBRANCH   8  16ENDBRANCH   1   7BRANCH   4  18ATOM     18  C   UNL     1      39.756  43.339  25.131 -0.17 +0.00    +0.120 C  BRANCH  18  19ATOM     19  C   UNL     1      39.604  43.896  23.733 -0.19 -0.00    -0.034 A  ATOM     20  C   UNL     1      40.168  43.237  22.634 -0.27 +0.00    +0.006 A  ATOM     21  C   UNL     1      38.909  45.093  23.516 -0.26 +0.00    +0.006 A  ATOM     22  C   UNL     1      40.020  43.757  21.344 -0.12 +0.00    +0.011 A  ATOM     23  C   UNL     1      38.762  45.608  22.226 -0.32 +0.00    +0.011 A  ATOM     24  C   UNL     1      39.301  44.941  21.114 -0.34 +0.00    +0.002 A  BRANCH  24  25ATOM     25  C   UNL     1      39.140  45.461  19.745 -0.32 -0.00    +0.097 A  ATOM     26  N   UNL     1      40.185  46.231  19.324 -0.25 +0.01    -0.244 NA ATOM     27  C   UNL     1      38.028  45.231  18.920 -0.26 -0.01    +0.097 A  ATOM     28  C   UNL     1      40.092  46.790  18.105 -0.36 -0.01    +0.089 A  ATOM     29  N   UNL     1      37.936  45.811  17.689 -0.23 +0.07    -0.244 NA ATOM     30  C   UNL     1      41.126  47.592  17.638 -0.50 -0.00    +0.030 A  ATOM     31  C   UNL     1      38.961  46.581  17.285 -0.36 -0.02    +0.089 A  ATOM     32  C   UNL     1      41.069  48.194  16.380 -0.53 -0.00    +0.002 A  ATOM     33  C   UNL     1      38.912  47.184  16.034 -0.43 -0.01    +0.030 A  ATOM     34  C   UNL     1      39.956  47.988  15.575 -0.55 -0.00    +0.002 A  BRANCH  27  35ATOM     35  C   UNL     1      36.886  44.360  19.255 -0.37 -0.00    +0.002 A  ATOM     36  C   UNL     1      35.603  44.647  18.753 -0.36 -0.00    +0.010 A  ATOM     37  C   UNL     1      37.033  43.210  20.050 -0.33 -0.00    +0.010 A  ATOM     38  C   UNL     1      34.507  43.834  19.054 -0.38 -0.00    +0.001 A  ATOM     39  C   UNL     1      35.937  42.397  20.356 -0.47 -0.00    +0.001 A  ATOM     40  C   UNL     1      34.675  42.711  19.860 -0.43 -0.00    +0.000 A  ENDBRANCH  27  35ENDBRANCH  24  25ENDBRANCH  18  19ENDBRANCH   4  18TORSDOF 6TERENDMDL