MODEL        5USER    Run = 5USERUSER    Estimated Free Energy of Binding    = -12.01 kcal/mol  [=(1)+(2)+(3)-(4)]USERUSER    (1) Final Intermolecular Energy     = -13.80 kcal/molUSER        vdW + Hbond + desolv Energy     = -13.61 kcal/molUSER        Electrostatic Energy            =  -0.19 kcal/molUSER        Moving Ligand-Fixed Receptor    = -13.80 kcal/molUSER        Moving Ligand-Moving Receptor   =  +0.00 kcal/molUSER    (2) Final Total Internal Energy     =  -1.37 kcal/molUSER    (3) Torsional Free Energy           =  +1.79 kcal/molUSER    (4) Unbound System's Energy         =  -1.37 kcal/molUSERUSERREMARK SMILES Cn1ccc2ccc3c4[nH]c5c(CCCN[C@H]6CC[C@H](O)CC6)cccc5c4c4c(c3c21)C(=O)NC4=OREMARK SMILES IDX 15 1 14 2 13 3 12 4 2 5 3 6 32 7 4 8 31 9 5 10 30 11 8 12REMARK SMILES IDX 6 13 29 14 33 15 7 16 9 17 28 18 36 19 35 20 10 21 27 22REMARK SMILES IDX 11 23 26 24 25 25 24 26 1 27 34 28 37 29 16 32 17 34 23 35REMARK SMILES IDX 18 36 22 37 19 38 20 39 21 40REMARK H PARENT 35 30 10 31 16 33 21 41USER                              x       y       z     vdW  Elec       q    TypeUSER                           _______ _______ _______ _____ _____    ______ ____ROOTATOM      1  C   UNL     1      35.172  42.540  15.954 -0.26 -0.03    +0.081 C  ENDROOTBRANCH   1   2ATOM      2  C   UNL     1      36.415  43.413  15.758 -0.47 -0.01    +0.020 C  BRANCH   2   3ATOM      3  C   UNL     1      36.079  44.873  15.437 -0.39 -0.02    +0.039 C  BRANCH   3   4ATOM      4  C   UNL     1      37.262  45.808  15.508 -0.35 +0.01    -0.024 A  ATOM      5  N   UNL     1      41.547  45.714  23.048 -0.03 -0.03    -0.350 N  ATOM      6  C   UNL     1      41.541  44.811  24.085 -0.08 +0.00    +0.086 A  ATOM      7  C   UNL     1      40.828  45.219  21.966 -0.23 +0.00    +0.057 A  ATOM      8  C   UNL     1      40.643  43.825  23.776 -0.17 +0.00    +0.028 A  ATOM      9  C   UNL     1      40.640  45.653  20.600 -0.34 +0.00    +0.022 A  ATOM     10  C   UNL     1      40.131  44.111  22.484 -0.24 +0.00    +0.000 A  ATOM     11  C   UNL     1      41.400  46.573  19.860 -0.29 +0.00    +0.063 A  ATOM     12  C   UNL     1      39.540  45.055  19.910 -0.38 -0.00    +0.009 A  ATOM     13  C   UNL     1      39.129  43.492  21.719 -0.16 +0.00    +0.011 A  ATOM     14  C   UNL     1      41.027  47.005  18.582 -0.42 -0.00    +0.063 A  ATOM     15  C   UNL     1      42.735  47.154  20.091 -0.30 +0.05    +0.259 C  ATOM     16  C   UNL     1      38.804  43.997  20.464 -0.22 -0.00    +0.012 A  ATOM     17  C   UNL     1      39.182  45.524  18.607 -0.39 -0.01    +0.055 A  ATOM     18  C   UNL     1      39.895  46.518  17.924 -0.45 -0.00    +0.022 A  ATOM     19  C   UNL     1      42.046  47.939  18.105 -0.26 -0.01    +0.259 C  ATOM     20  N   UNL     1      42.950  48.064  19.107 -0.29 -0.00    -0.288 N  ATOM     21  N   UNL     1      38.151  45.152  17.772 -0.15 +0.07    -0.354 N  ATOM     22  C   UNL     1      39.239  46.741  16.667 -0.44 -0.00    +0.008 A  ATOM     23  C   UNL     1      38.148  45.873  16.602 -0.35 -0.02    +0.050 A  ATOM     24  C   UNL     1      39.462  47.601  15.571 -0.51 -0.00    +0.011 A  ATOM     25  C   UNL     1      38.604  47.563  14.468 -0.50 -0.00    +0.001 A  ATOM     26  C   UNL     1      37.527  46.683  14.440 -0.43 -0.00    +0.006 A  ATOM     27  C   UNL     1      42.027  47.065  23.254 -0.20 +0.02    +0.149 C  ATOM     28  O   UNL     1      43.551  46.818  20.923 -0.34 -0.13    -0.269 OA ATOM     29  O   UNL     1      42.124  48.460  17.013 -0.42 -0.05    -0.269 OA ATOM     30  H   UNL     1      43.848  48.499  18.961 -0.49 -0.02    +0.173 HD ATOM     31  H   UNL     1      37.460  44.453  17.996 +0.11 -0.03    +0.167 HD ENDBRANCH   3   4ENDBRANCH   2   3ENDBRANCH   1   2BRANCH   1  32ATOM     32  N   UNL     1      35.012  42.243  17.379 -0.24 +0.12    -0.314 NA ATOM     33  H   UNL     1      34.660  41.295  17.501 -0.40 -0.06    +0.122 HD BRANCH  32  34ATOM     34  C   UNL     1      34.130  43.199  18.064 -0.36 -0.01    +0.053 C  ATOM     35  C   UNL     1      34.879  44.097  19.071 -0.42 -0.00    +0.021 C  ATOM     36  C   UNL     1      33.422  44.023  16.969 -0.36 -0.01    +0.021 C  ATOM     37  C   UNL     1      35.309  45.428  18.456 -0.38 -0.01    +0.033 C  ATOM     38  C   UNL     1      32.929  45.356  17.516 -0.30 -0.02    +0.033 C  ATOM     39  C   UNL     1      34.098  46.234  17.973 -0.46 -0.09    +0.114 C  BRANCH  39  40ATOM     40  O   UNL     1      33.624  47.072  19.027 -0.83 +0.25    -0.393 OA ATOM     41  H   UNL     1      33.403  46.498  19.781 -0.41 -0.15    +0.210 HD ENDBRANCH  39  40ENDBRANCH  32  34ENDBRANCH   1  32TORSDOF 6TERENDMDL