MODEL        4USER    Run = 4USERUSER    Estimated Free Energy of Binding    = -12.72 kcal/mol  [=(1)+(2)+(3)-(4)]USERUSER    (1) Final Intermolecular Energy     = -14.51 kcal/molUSER        vdW + Hbond + desolv Energy     = -14.37 kcal/molUSER        Electrostatic Energy            =  -0.13 kcal/molUSER        Moving Ligand-Fixed Receptor    = -14.51 kcal/molUSER        Moving Ligand-Moving Receptor   =  +0.00 kcal/molUSER    (2) Final Total Internal Energy     =  -1.79 kcal/molUSER    (3) Torsional Free Energy           =  +1.79 kcal/molUSER    (4) Unbound System's Energy         =  -1.79 kcal/molUSERUSERREMARK SMILES Oc1nc2ccccc2n1C1CCN(Cc2ccc(-c3cc4ccccc4nc3-c3ccccc3)cc2)CC1REMARK SMILES IDX 11 1 12 2 13 3 14 4 38 5 39 6 10 7 2 8 3 9 4 10 9 11 5 12REMARK SMILES IDX 8 13 6 14 7 15 1 16 15 18 16 19 17 20 37 21 18 22 36 23REMARK SMILES IDX 19 24 20 25 21 26 29 27 22 28 28 29 23 30 27 31 24 32 26 33REMARK SMILES IDX 25 34 30 35 31 36 35 37 32 38 34 39 33 40REMARK H PARENT 1 17USER                              x       y       z     vdW  Elec       q    TypeUSER                           _______ _______ _______ _____ _____    ______ ____ROOTATOM      1  C   UNL     1      31.256  40.089  18.104 -0.38 -0.01    +0.095 C  ATOM      2  C   UNL     1      32.503  40.839  18.595 -0.40 -0.00    +0.041 C  ATOM      3  C   UNL     1      32.336  42.351  18.697 -0.36 -0.01    +0.087 C  ATOM      4  N   UNL     1      31.687  42.963  17.535 -0.11 +0.08    -0.299 NA ATOM      5  C   UNL     1      30.362  42.378  17.314 -0.26 -0.02    +0.087 C  ATOM      6  C   UNL     1      30.364  40.863  17.122 -0.37 -0.01    +0.041 C  ENDROOTBRANCH   1   7ATOM      7  N   UNL     1      30.525  39.388  19.159 -0.17 -0.03    -0.291 N  ATOM      8  C   UNL     1      31.123  38.905  20.298 -0.23 +0.05    +0.295 A  ATOM      9  N   UNL     1      30.302  38.287  21.099 -0.24 -0.01    -0.195 NA ATOM     10  C   UNL     1      29.092  38.367  20.465 -0.21 +0.00    +0.092 A  ATOM     11  C   UNL     1      29.188  39.059  19.249 -0.26 +0.01    +0.072 A  ATOM     12  C   UNL     1      27.852  37.858  20.889 -0.26 -0.01    +0.031 A  ATOM     13  C   UNL     1      28.061  39.266  18.445 -0.23 +0.01    +0.029 A  ATOM     14  C   UNL     1      26.727  38.058  20.086 -0.29 -0.00    +0.002 A  ATOM     15  C   UNL     1      26.833  38.753  18.885 -0.22 +0.00    +0.002 A  BRANCH   8  16ATOM     16  O   UNL     1      32.400  39.031  20.594 -0.94 -0.25    -0.480 OA ATOM     17  H   UNL     1      32.422  38.656  21.493 +0.15 +0.12    +0.296 HD ENDBRANCH   8  16ENDBRANCH   1   7BRANCH   4  18ATOM     18  C   UNL     1      32.552  42.948  16.343 -0.28 -0.06    +0.120 C  BRANCH  18  19ATOM     19  C   UNL     1      33.889  43.621  16.567 -0.32 +0.01    -0.034 A  ATOM     20  C   UNL     1      35.088  42.934  16.340 -0.43 -0.00    +0.006 A  ATOM     21  C   UNL     1      33.945  44.950  17.008 -0.32 -0.00    +0.006 A  ATOM     22  C   UNL     1      36.317  43.564  16.552 -0.37 -0.00    +0.009 A  ATOM     23  C   UNL     1      35.175  45.574  17.229 -0.35 -0.01    +0.009 A  ATOM     24  C   UNL     1      36.378  44.890  17.009 -0.32 +0.01    -0.016 A  BRANCH  24  25ATOM     25  C   UNL     1      37.672  45.552  17.232 -0.36 -0.00    +0.009 A  ATOM     26  C   UNL     1      38.361  45.321  18.432 -0.38 -0.00    +0.021 A  ATOM     27  C   UNL     1      38.295  46.390  16.292 -0.34 -0.03    +0.079 A  ATOM     28  C   UNL     1      39.617  45.895  18.663 -0.43 -0.00    +0.001 A  ATOM     29  N   UNL     1      39.524  46.945  16.499 -0.28 +0.06    -0.247 NA ATOM     30  C   UNL     1      40.325  45.674  19.857 -0.39 +0.00    +0.010 A  ATOM     31  C   UNL     1      40.164  46.706  17.654 -0.44 -0.01    +0.071 A  ATOM     32  C   UNL     1      41.576  46.257  20.053 -0.41 +0.00    +0.001 A  ATOM     33  C   UNL     1      41.413  47.274  17.872 -0.48 -0.00    +0.029 A  ATOM     34  C   UNL     1      42.123  47.059  19.057 -0.53 +0.00    +0.002 A  BRANCH  27  35ATOM     35  C   UNL     1      37.698  46.761  14.994 -0.42 -0.00    +0.001 A  ATOM     36  C   UNL     1      37.425  48.107  14.695 -0.52 -0.01    +0.010 A  ATOM     37  C   UNL     1      37.364  45.793  14.031 -0.43 -0.00    +0.010 A  ATOM     38  C   UNL     1      36.863  48.475  13.469 -0.55 -0.00    +0.001 A  ATOM     39  C   UNL     1      36.801  46.159  12.805 -0.58 -0.00    +0.001 A  ATOM     40  C   UNL     1      36.555  47.501  12.523 -0.68 -0.00    +0.000 A  ENDBRANCH  27  35ENDBRANCH  24  25ENDBRANCH  18  19ENDBRANCH   4  18TORSDOF 6TERENDMDL