MODEL        3USER    Run = 3USERUSER    Estimated Free Energy of Binding    =  -5.36 kcal/mol  [=(1)+(2)+(3)-(4)]USERUSER    (1) Final Intermolecular Energy     =  -9.84 kcal/molUSER        vdW + Hbond + desolv Energy     =  -9.80 kcal/molUSER        Electrostatic Energy            =  -0.31 kcal/molUSER        Moving Ligand-Fixed Receptor    = -10.11 kcal/molUSER        Moving Ligand-Moving Receptor   =  +0.27 kcal/molUSER    (2) Final Total Internal Energy     =  -3.38 kcal/molUSER    (3) Torsional Free Energy           =  +4.47 kcal/molUSER    (4) Unbound System's Energy         =  -3.38 kcal/molUSERUSERREMARK SMILES COc1ccc(O)c(C(=O)c2ccc(CO[C@@H]3CCCNC[C@@H]3NC(=O)c3ccncc3)cc2)c1FREMARK SMILES IDX 16 1 15 2 14 3 11 4 12 5 34 6 13 7 33 8 9 9 10 10 8 11 3 12REMARK SMILES IDX 4 13 35 14 5 15 6 16 36 17 2 18 1 19 7 20 17 22 18 23 23 25REMARK SMILES IDX 22 26 21 27 20 29 19 30 24 32 25 33 26 35 27 36 28 37 32 38REMARK SMILES IDX 29 39 31 40 30 41REMARK H PARENT 7 21 21 28 24 34REMARK Flexibility Score:   99.900USER                              x       y       z     vdW  Elec       q    TypeUSER                           _______ _______ _______ _____ _____    ______ ____ROOTATOM      1  O   UNL     1      38.344  45.431  26.915 -0.11 +0.02    -0.371 OA ENDROOTBRANCH   1   2ATOM      2  C   UNL     1      38.447  46.851  26.826 -0.20 -0.01    +0.196 C  BRANCH   2   3ATOM      3  C   UNL     1      39.577  47.184  25.887 -0.20 -0.00    -0.022 A  ATOM      4  C   UNL     1      41.664  47.826  24.119 -0.27 +0.00    +0.023 A  ATOM      5  C   UNL     1      41.007  48.840  24.823 -0.31 +0.00    +0.012 A  ATOM      6  C   UNL     1      41.301  46.491  24.324 -0.15 +0.00    +0.012 A  ATOM      7  C   UNL     1      39.965  48.518  25.696 -0.27 +0.00    +0.007 A  ATOM      8  C   UNL     1      40.259  46.172  25.198 -0.13 +0.00    +0.007 A  BRANCH   4   9ATOM      9  C   UNL     1      42.797  48.116  23.208 -0.30 +0.04    +0.199 C  ATOM     10  O   UNL     1      42.586  48.191  21.995 -0.16 -0.03    -0.288 OA BRANCH   9  11ATOM     11  C   UNL     1      44.193  48.261  23.671 -0.24 +0.03    +0.104 A  ATOM     12  C   UNL     1      45.841  49.004  25.307 -0.12 +0.02    +0.155 A  ATOM     13  C   UNL     1      46.865  48.492  24.507 -0.07 +0.01    +0.053 A  ATOM     14  C   UNL     1      44.512  48.889  24.876 -0.20 +0.03    +0.179 A  ATOM     15  C   UNL     1      46.560  47.891  23.282 -0.09 +0.02    +0.051 A  ATOM     16  C   UNL     1      45.236  47.790  22.863 -0.19 +0.05    +0.130 A  ATOM     17  F   UNL     1      43.540  49.417  25.637 -0.11 -0.02    -0.202 F  BRANCH  12  18ATOM     18  O   UNL     1      46.017  49.626  26.514 -0.04 -0.03    -0.494 OA ATOM     19  C   UNL     1      45.895  51.043  26.543 -0.17 +0.02    +0.278 C  ENDBRANCH  12  18BRANCH  16  20ATOM     20  O   UNL     1      45.028  47.215  21.638 -0.68 -0.50    -0.507 OA ATOM     21  H   UNL     1      44.488  47.839  21.100 -0.36 +0.11    +0.293 HD ENDBRANCH  16  20ENDBRANCH   9  11ENDBRANCH   4   9ENDBRANCH   2   3ENDBRANCH   1   2BRANCH   1  22ATOM     22  C   UNL     1      37.012  44.934  26.662 -0.32 -0.02    +0.142 C  BRANCH  22  23ATOM     23  C   UNL     1      36.373  44.810  28.053 -0.48 -0.01    +0.035 CG0ATOM     24  G   UNL     1      35.071  44.033  28.208 +0.00 +0.00    +0.000 G0 ENDBRANCH  22  23BRANCH  22  25ATOM     25  C   UNL     1      37.101  43.628  25.838 -0.30 -0.01    +0.125 C  BRANCH  25  26ATOM     26  C   UNL     1      37.275  42.398  26.764 -0.36 -0.02    +0.108 C  BRANCH  26  27ATOM     27  N   UNL     1      36.074  41.904  27.434 -0.27 +0.10    -0.315 NA ATOM     28  H   UNL     1      36.306  41.710  28.409 -0.45 -0.07    +0.122 HD BRANCH  27  29ATOM     29  C   UNL     1      34.923  42.791  27.346 -0.59 -0.02    +0.081 C  BRANCH  29  30ATOM     30  C   UNL     1      35.073  44.034  28.211 -0.65 -0.01    +0.018 CG0ATOM     31  G   UNL     1      36.375  44.809  28.052 +0.00 +0.00    +0.000 G0 ENDBRANCH  29  30ENDBRANCH  27  29ENDBRANCH  26  27ENDBRANCH  25  26BRANCH  25  32ATOM     32  N   UNL     1      38.117  43.734  24.780 -0.07 -0.01    -0.345 N  ATOM     33  C   UNL     1      37.759  43.902  23.458 -0.23 +0.02    +0.251 C  ATOM     34  H   UNL     1      38.974  44.190  25.066 +0.08 +0.00    +0.164 HD ATOM     35  O   UNL     1      36.604  43.869  23.056 -0.21 -0.05    -0.269 OA BRANCH  33  36ATOM     36  C   UNL     1      38.870  44.177  22.507 -0.27 +0.00    +0.042 A  ATOM     37  C   UNL     1      40.083  43.515  22.698 -0.24 +0.00    +0.034 A  ATOM     38  C   UNL     1      38.743  45.095  21.465 -0.33 +0.00    +0.034 A  ATOM     39  C   UNL     1      41.118  43.788  21.821 -0.25 +0.01    +0.112 A  ATOM     40  C   UNL     1      39.839  45.299  20.644 -0.29 +0.00    +0.112 A  ATOM     41  N   UNL     1      41.019  44.662  20.797 -0.18 -0.02    -0.265 NA ENDBRANCH  33  36ENDBRANCH  25  32ENDBRANCH  22  25ENDBRANCH   1  22TORSDOF 9TERENDMDL