MODEL        8USER    Run = 8USERUSER    Estimated Free Energy of Binding    =  -5.97 kcal/mol  [=(1)+(2)+(3)-(4)]USERUSER    (1) Final Intermolecular Energy     = -10.45 kcal/molUSER        vdW + Hbond + desolv Energy     = -11.47 kcal/molUSER        Electrostatic Energy            =  -0.33 kcal/molUSER        Moving Ligand-Fixed Receptor    = -11.80 kcal/molUSER        Moving Ligand-Moving Receptor   =  +1.35 kcal/molUSER    (2) Final Total Internal Energy     =  -2.72 kcal/molUSER    (3) Torsional Free Energy           =  +4.47 kcal/molUSER    (4) Unbound System's Energy         =  -2.72 kcal/molUSERUSERREMARK SMILES COc1ccc(O)c(C(=O)c2ccc(C(=O)O[C@@H]3CCCNC[C@H]3NC(=O)c3ccncc3)cc2)c1FREMARK SMILES IDX 17 1 15 2 16 3 14 4 11 5 12 6 35 7 13 8 34 9 9 10 10 11 8 12REMARK SMILES IDX 3 13 4 14 36 15 5 16 6 17 37 18 2 19 1 20 7 21 18 23 24 25REMARK SMILES IDX 23 26 22 27 21 29 20 30 19 31 25 33 26 34 27 36 28 37 29 38REMARK SMILES IDX 33 39 30 40 32 41 31 42REMARK H PARENT 7 22 22 28 25 35REMARK Flexibility Score:   99.900USER                              x       y       z     vdW  Elec       q    TypeUSER                           _______ _______ _______ _____ _____    ______ ____ROOTATOM      1  O   UNL     1      39.142  45.493  15.561 -0.04 +0.09    -0.457 OA ENDROOTBRANCH   1   2ATOM      2  C   UNL     1      37.990  45.365  14.855 -0.17 -0.11    +0.338 C  ATOM      3  O   UNL     1      37.768  45.790  13.731 -0.31 +0.08    -0.246 OA BRANCH   2   4ATOM      4  C   UNL     1      37.012  44.570  15.639 -0.31 -0.02    +0.060 A  ATOM      5  C   UNL     1      35.198  43.090  17.188 -0.37 -0.01    +0.023 A  ATOM      6  C   UNL     1      35.265  42.892  15.802 -0.30 -0.01    +0.013 A  ATOM      7  C   UNL     1      36.046  44.029  17.794 -0.31 -0.00    +0.013 A  ATOM      8  C   UNL     1      36.170  43.630  15.030 -0.23 -0.01    +0.016 A  ATOM      9  C   UNL     1      36.956  44.759  17.024 -0.33 -0.01    +0.016 A  BRANCH   5  10ATOM     10  C   UNL     1      34.235  42.352  18.051 -0.32 -0.05    +0.199 C  ATOM     11  O   UNL     1      34.610  41.784  19.071 -0.25 +0.03    -0.288 OA BRANCH  10  12ATOM     12  C   UNL     1      32.813  42.283  17.696 -0.29 -0.03    +0.104 A  ATOM     13  C   UNL     1      30.773  43.444  17.087 -0.17 -0.04    +0.155 A  ATOM     14  C   UNL     1      30.096  42.218  17.073 -0.24 -0.01    +0.053 A  ATOM     15  C   UNL     1      32.135  43.465  17.409 -0.18 -0.05    +0.179 A  ATOM     16  C   UNL     1      30.782  41.027  17.347 -0.30 -0.01    +0.051 A  ATOM     17  C   UNL     1      32.142  41.061  17.650 -0.27 -0.04    +0.130 A  ATOM     18  F   UNL     1      32.801  44.631  17.393 -0.04 +0.08    -0.202 F  BRANCH  13  19ATOM     19  O   UNL     1      30.218  44.660  16.786 -0.24 +0.07    -0.494 OA ATOM     20  C   UNL     1      30.442  45.174  15.479 -0.26 -0.13    +0.278 C  ENDBRANCH  13  19BRANCH  17  21ATOM     21  O   UNL     1      32.821  39.903  17.897 -0.20 +0.12    -0.507 OA ATOM     22  H   UNL     1      33.763  40.091  18.035 -0.13 -0.11    +0.293 HD ENDBRANCH  17  21ENDBRANCH  10  12ENDBRANCH   5  10ENDBRANCH   2   4ENDBRANCH   1   2BRANCH   1  23ATOM     23  C   UNL     1      39.505  46.837  15.976 -0.38 -0.05    +0.200 CG0ATOM     24  G   UNL     1      40.166  47.514  14.776 +0.00 +0.00    +0.000 G0 BRANCH  23  25ATOM     25  C   UNL     1      40.417  46.700  17.211 -0.46 -0.02    +0.137 C  BRANCH  25  26ATOM     26  C   UNL     1      40.927  48.038  17.784 -0.21 -0.01    +0.109 C  BRANCH  26  27ATOM     27  N   UNL     1      41.736  48.824  16.850 -0.74 -0.04    -0.315 NA ATOM     28  H   UNL     1      42.297  48.179  16.293 -0.32 +0.01    +0.122 HD BRANCH  27  29ATOM     29  C   UNL     1      40.994  49.702  15.940 -0.62 -0.02    +0.081 C  BRANCH  29  30ATOM     30  C   UNL     1      40.179  49.053  14.814 -0.55 -0.01    +0.019 C  BRANCH  30  31ATOM     31  C   UNL     1      40.155  47.520  14.781 -0.50 -0.01    +0.049 CG0ATOM     32  G   UNL     1      39.497  46.826  15.973 +0.00 +0.00    +0.000 G0 ENDBRANCH  30  31ENDBRANCH  29  30ENDBRANCH  27  29ENDBRANCH  26  27ENDBRANCH  25  26BRANCH  25  33ATOM     33  N   UNL     1      39.709  45.942  18.251 -0.21 +0.04    -0.344 N  ATOM     34  C   UNL     1      40.299  45.603  19.443 -0.32 -0.00    +0.251 C  ATOM     35  H   UNL     1      38.699  45.952  18.192 +0.09 -0.03    +0.164 HD ATOM     36  O   UNL     1      41.464  45.853  19.725 -0.29 -0.03    -0.269 OA BRANCH  34  37ATOM     37  C   UNL     1      39.431  44.904  20.420 -0.34 +0.00    +0.042 A  ATOM     38  C   UNL     1      38.092  44.695  20.093 -0.33 -0.00    +0.034 A  ATOM     39  C   UNL     1      39.918  44.495  21.660 -0.27 +0.00    +0.034 A  ATOM     40  C   UNL     1      37.294  44.053  21.021 -0.32 +0.00    +0.112 A  ATOM     41  C   UNL     1      39.035  43.868  22.520 -0.22 +0.01    +0.112 A  ATOM     42  N   UNL     1      37.738  43.632  22.225 -0.20 -0.02    -0.265 NA ENDBRANCH  34  37ENDBRANCH  25  33ENDBRANCH  23  25ENDBRANCH   1  23TORSDOF 9TERENDMDL