MODEL        8USER    Run = 8USERUSER    Estimated Free Energy of Binding    =  -6.87 kcal/mol  [=(1)+(2)+(3)-(4)]USERUSER    (1) Final Intermolecular Energy     = -11.04 kcal/molUSER        vdW + Hbond + desolv Energy     = -11.18 kcal/molUSER        Electrostatic Energy            =  -0.04 kcal/molUSER        Moving Ligand-Fixed Receptor    = -11.21 kcal/molUSER        Moving Ligand-Moving Receptor   =  +0.17 kcal/molUSER    (2) Final Total Internal Energy     =  -3.28 kcal/molUSER    (3) Torsional Free Energy           =  +4.18 kcal/molUSER    (4) Unbound System's Energy         =  -3.28 kcal/molUSERUSERREMARK SMILES COc1ccc(O)c(C(=O)c2ccc(C(=O)N[C@@H]3CCCNC[C@H]3NC(=O)c3ccncc3)cc2)c1FREMARK SMILES IDX 15 1 16 2 17 3 14 5 11 6 12 7 35 8 13 9 34 10 9 11 10 12REMARK SMILES IDX 8 13 3 14 4 15 36 16 5 17 6 18 37 19 2 20 1 21 7 22 18 24REMARK SMILES IDX 19 25 24 27 23 28 22 29 21 31 20 32 25 34 26 35 27 37 28 38REMARK SMILES IDX 29 39 33 40 30 41 32 42 31 43REMARK H PARENT 17 4 7 23 22 30 25 36REMARK Flexibility Score:   88.900USER                              x       y       z     vdW  Elec       q    TypeUSER                           _______ _______ _______ _____ _____    ______ ____ROOTATOM      1  C   UNL     1      37.280  44.849  18.271 -0.24 -0.05    +0.251 C  ATOM      2  O   UNL     1      37.135  45.628  17.336 -0.23 +0.10    -0.269 OA ATOM      3  N   UNL     1      36.324  43.927  18.645 -0.11 +0.07    -0.347 N  ATOM      4  H   UNL     1      36.430  43.470  19.540 +0.12 -0.02    +0.164 HD ENDROOTBRANCH   1   5ATOM      5  C   UNL     1      38.503  44.913  19.120 -0.36 -0.00    +0.039 A  ATOM      6  C   UNL     1      40.838  45.153  20.652 -0.34 +0.00    +0.023 A  ATOM      7  C   UNL     1      40.840  45.538  19.308 -0.43 +0.00    +0.013 A  ATOM      8  C   UNL     1      39.669  44.647  21.231 -0.31 +0.00    +0.013 A  ATOM      9  C   UNL     1      39.679  45.407  18.541 -0.43 -0.00    +0.014 A  ATOM     10  C   UNL     1      38.504  44.516  20.462 -0.35 -0.00    +0.014 A  BRANCH   6  11ATOM     11  C   UNL     1      42.067  45.386  21.442 -0.23 +0.04    +0.199 C  ATOM     12  O   UNL     1      42.980  44.564  21.348 -0.09 -0.10    -0.288 OA BRANCH  11  13ATOM     13  C   UNL     1      42.289  46.571  22.303 -0.21 +0.02    +0.104 A  ATOM     14  C   UNL     1      41.582  48.119  24.052 -0.25 +0.02    +0.155 A  ATOM     15  C   UNL     1      42.780  48.825  23.914 -0.34 +0.01    +0.053 A  ATOM     16  C   UNL     1      41.349  46.993  23.244 -0.15 +0.02    +0.179 A  ATOM     17  C   UNL     1      43.740  48.397  22.994 -0.26 +0.01    +0.051 A  ATOM     18  C   UNL     1      43.501  47.272  22.208 -0.27 +0.04    +0.130 A  ATOM     19  F   UNL     1      40.209  46.305  23.416 -0.04 -0.02    -0.202 F  BRANCH  14  20ATOM     20  O   UNL     1      40.575  48.432  24.927 -0.10 -0.07    -0.494 OA ATOM     21  C   UNL     1      39.262  48.556  24.389 -0.23 +0.04    +0.278 C  ENDBRANCH  14  20BRANCH  18  22ATOM     22  O   UNL     1      44.511  46.909  21.357 -0.58 -0.46    -0.507 OA ATOM     23  H   UNL     1      44.464  45.929  21.246 +0.13 +0.35    +0.293 HD ENDBRANCH  18  22ENDBRANCH  11  13ENDBRANCH   6  11ENDBRANCH   1   5BRANCH   3  24ATOM     24  C   UNL     1      34.976  43.962  18.064 -0.30 -0.03    +0.106 C  BRANCH  24  25ATOM     25  C   UNL     1      33.976  43.319  19.033 -0.43 -0.00    +0.028 CG0ATOM     26  G   UNL     1      32.536  43.854  18.959 +0.00 +0.00    +0.000 G0 ENDBRANCH  24  25BRANCH  24  27ATOM     27  C   UNL     1      34.980  43.324  16.645 -0.37 -0.05    +0.118 C  BRANCH  27  28ATOM     28  C   UNL     1      33.581  42.990  16.076 -0.29 -0.05    +0.108 C  BRANCH  28  29ATOM     29  N   UNL     1      32.482  43.895  16.428 -0.12 +0.14    -0.315 NA ATOM     30  H   UNL     1      32.818  44.855  16.452 +0.08 -0.07    +0.122 HD BRANCH  29  31ATOM     31  C   UNL     1      31.769  43.591  17.664 -0.30 -0.02    +0.081 C  BRANCH  31  32ATOM     32  C   UNL     1      32.536  43.854  18.958 -0.45 -0.00    +0.017 CG0ATOM     33  G   UNL     1      33.976  43.321  19.033 +0.00 +0.00    +0.000 G0 ENDBRANCH  31  32ENDBRANCH  29  31ENDBRANCH  28  29ENDBRANCH  27  28BRANCH  27  34ATOM     34  N   UNL     1      35.741  44.166  15.714 -0.14 +0.15    -0.346 N  ATOM     35  C   UNL     1      35.156  45.224  15.057 -0.20 -0.16    +0.251 C  ATOM     36  H   UNL     1      36.746  44.129  15.778 +0.11 -0.06    +0.164 HD ATOM     37  O   UNL     1      33.962  45.488  15.123 -0.25 +0.24    -0.269 OA BRANCH  35  38ATOM     38  C   UNL     1      36.062  46.086  14.260 -0.40 -0.03    +0.042 A  ATOM     39  C   UNL     1      35.579  46.631  13.069 -0.53 -0.02    +0.034 A  ATOM     40  C   UNL     1      37.378  46.339  14.651 -0.38 -0.02    +0.034 A  ATOM     41  C   UNL     1      36.428  47.430  12.329 -0.59 -0.05    +0.112 A  ATOM     42  C   UNL     1      38.148  47.151  13.839 -0.40 -0.04    +0.112 A  ATOM     43  N   UNL     1      37.700  47.705  12.690 -0.89 +0.03    -0.265 NA ENDBRANCH  35  38ENDBRANCH  27  34ENDBRANCH  24  27ENDBRANCH   3  24TORSDOF 8TERENDMDL