MODEL        5USER    Run = 5USERUSER    Estimated Free Energy of Binding    = -11.91 kcal/mol  [=(1)+(2)+(3)-(4)]USERUSER    (1) Final Intermolecular Energy     = -14.30 kcal/molUSER        vdW + Hbond + desolv Energy     = -14.26 kcal/molUSER        Electrostatic Energy            =  -0.04 kcal/molUSER        Moving Ligand-Fixed Receptor    = -14.30 kcal/molUSER        Moving Ligand-Moving Receptor   =  +0.00 kcal/molUSER    (2) Final Total Internal Energy     =  -1.80 kcal/molUSER    (3) Torsional Free Energy           =  +2.39 kcal/molUSER    (4) Unbound System's Energy         =  -1.80 kcal/molUSERUSERREMARK SMILES N#Cc1cnc(-c2ccc(CNCc3ccc(-c4csnn4)cc3)cc2)c(-c2ccccc2)c1REMARK SMILES IDX 11 1 10 2 7 3 8 4 26 5 9 6 25 7 6 8 3 9 4 10 34 11 5 12REMARK SMILES IDX 27 13 2 14 1 15 28 16 29 17 33 18 30 19 32 20 31 21 12 22REMARK SMILES IDX 13 24 14 25 15 26 24 27 16 28 23 29 17 30 18 31 19 32 22 33REMARK SMILES IDX 20 34 21 35REMARK H PARENT 12 23USER                              x       y       z     vdW  Elec       q    TypeUSER                           _______ _______ _______ _____ _____    ______ ____ROOTATOM      1  C   UNL     1      42.275  46.396  20.646 -0.35 +0.02    +0.117 C  ENDROOTBRANCH   1   2ATOM      2  C   UNL     1      41.326  45.632  21.538 -0.27 -0.00    -0.034 A  ATOM      3  C   UNL     1      39.524  44.178  23.183 -0.23 +0.00    +0.001 A  ATOM      4  C   UNL     1      39.661  45.573  23.305 -0.24 +0.00    +0.011 A  ATOM      5  C   UNL     1      40.323  43.526  22.230 -0.26 +0.00    +0.011 A  ATOM      6  C   UNL     1      40.543  46.292  22.491 -0.22 +0.00    +0.006 A  ATOM      7  C   UNL     1      41.205  44.242  21.413 -0.31 +0.00    +0.006 A  BRANCH   3   8ATOM      8  C   UNL     1      38.583  43.444  24.053 -0.22 +0.00    +0.078 A  ATOM      9  C   UNL     1      37.027  42.096  25.901 -0.35 -0.01    +0.071 A  ATOM     10  C   UNL     1      38.192  42.751  26.248 -0.20 -0.01    +0.131 A  ATOM     11  C   UNL     1      36.629  42.136  24.565 -0.40 -0.00    +0.032 A  ATOM     12  N   UNL     1      38.965  43.421  25.364 -0.08 -0.00    -0.254 NA ATOM     13  C   UNL     1      37.401  42.818  23.604 -0.38 +0.00    +0.009 A  BRANCH   9  14ATOM     14  C   UNL     1      36.256  41.410  26.887 -0.53 -0.03    +0.101 C  ATOM     15  N   UNL     1      35.629  40.855  27.689 -0.49 +0.09    -0.192 NA ENDBRANCH   9  14BRANCH  13  16ATOM     16  C   UNL     1      36.916  42.871  22.214 -0.43 -0.00    -0.016 A  ATOM     17  C   UNL     1      36.897  44.085  21.505 -0.38 +0.00    +0.009 A  ATOM     18  C   UNL     1      36.477  41.712  21.554 -0.56 +0.00    +0.009 A  ATOM     19  C   UNL     1      36.444  44.139  20.185 -0.39 -0.00    +0.001 A  ATOM     20  C   UNL     1      36.022  41.765  20.234 -0.38 -0.00    +0.001 A  ATOM     21  C   UNL     1      36.005  42.979  19.550 -0.40 -0.00    +0.000 A  ENDBRANCH  13  16ENDBRANCH   3   8ENDBRANCH   1   2BRANCH   1  22ATOM     22  N   UNL     1      41.968  46.145  19.238 -0.24 -0.04    -0.309 NA ATOM     23  H   UNL     1      41.059  45.689  19.187 +0.07 +0.01    +0.123 HD BRANCH  22  24ATOM     24  C   UNL     1      41.925  47.379  18.453 -0.51 -0.00    +0.117 C  BRANCH  24  25ATOM     25  C   UNL     1      40.859  47.373  17.383 -0.49 +0.00    -0.034 A  ATOM     26  C   UNL     1      40.790  48.401  16.434 -0.56 -0.00    +0.006 A  ATOM     27  C   UNL     1      39.907  46.348  17.332 -0.47 -0.00    +0.006 A  ATOM     28  C   UNL     1      39.796  48.397  15.449 -0.55 -0.00    +0.011 A  ATOM     29  C   UNL     1      38.913  46.344  16.349 -0.41 -0.00    +0.011 A  ATOM     30  C   UNL     1      38.848  47.365  15.390 -0.48 -0.00    +0.003 A  BRANCH  30  31ATOM     31  C   UNL     1      37.799  47.331  14.375 -0.40 -0.05    +0.105 A  ATOM     32  C   UNL     1      36.529  46.814  14.571 -0.34 -0.08    +0.118 A  ATOM     33  N   UNL     1      38.012  47.859  13.103 -0.84 +0.02    -0.138 NA ATOM     34  S   UNL     1      35.659  47.010  13.105 -0.78 +0.01    -0.020 S  ATOM     35  N   UNL     1      36.946  47.741  12.330 -1.20 +0.03    -0.091 NA ENDBRANCH  30  31ENDBRANCH  24  25ENDBRANCH  22  24ENDBRANCH   1  22TORSDOF 8TERENDMDL