MODEL        8USER    Run = 8USERUSER    Estimated Free Energy of Binding    =  -5.46 kcal/mol  [=(1)+(2)+(3)-(4)]USERUSER    (1) Final Intermolecular Energy     =  -9.94 kcal/molUSER        vdW + Hbond + desolv Energy     = -10.15 kcal/molUSER        Electrostatic Energy            =  -0.18 kcal/molUSER        Moving Ligand-Fixed Receptor    = -10.32 kcal/molUSER        Moving Ligand-Moving Receptor   =  +0.39 kcal/molUSER    (2) Final Total Internal Energy     =  -4.36 kcal/molUSER    (3) Torsional Free Energy           =  +4.47 kcal/molUSER    (4) Unbound System's Energy         =  -4.36 kcal/molUSERUSERREMARK SMILES COc1ccc(O)c(C(=O)c2ccc(CN[C@@H]3CCCNC[C@H]3NC(=O)c3ccncc3)cc2)c1FREMARK SMILES IDX 16 1 15 3 14 4 11 5 12 6 34 7 13 8 33 9 9 10 10 11 8 12 3 13REMARK SMILES IDX 4 14 35 15 5 16 6 17 36 18 2 19 1 20 7 21 17 23 18 24 23 26REMARK SMILES IDX 22 27 21 28 20 30 19 31 24 33 25 34 26 36 27 37 28 38 32 39REMARK SMILES IDX 29 40 31 41 30 42REMARK H PARENT 16 2 7 22 21 29 24 35REMARK Flexibility Score:   99.900USER                              x       y       z     vdW  Elec       q    TypeUSER                           _______ _______ _______ _____ _____    ______ ____ROOTATOM      1  N   UNL     1      37.828  45.389  27.083 -0.14 +0.03    -0.308 NA ATOM      2  H   UNL     1      38.850  45.364  27.120 +0.04 -0.01    +0.123 HD ENDROOTBRANCH   1   3ATOM      3  C   UNL     1      37.420  46.303  26.014 -0.32 -0.00    +0.117 C  BRANCH   3   4ATOM      4  C   UNL     1      38.043  45.987  24.676 -0.27 -0.00    -0.034 A  ATOM      5  C   UNL     1      39.184  45.387  22.177 -0.31 +0.00    +0.023 A  ATOM      6  C   UNL     1      38.057  44.686  22.617 -0.34 +0.00    +0.012 A  ATOM      7  C   UNL     1      39.755  46.367  22.996 -0.26 +0.00    +0.012 A  ATOM      8  C   UNL     1      37.487  44.993  23.856 -0.18 +0.00    +0.006 A  ATOM      9  C   UNL     1      39.184  46.669  24.235 -0.29 +0.00    +0.006 A  BRANCH   5  10ATOM     10  C   UNL     1      39.849  45.071  20.890 -0.28 +0.01    +0.199 C  ATOM     11  O   UNL     1      39.467  44.094  20.243 -0.18 -0.00    -0.288 OA BRANCH  10  12ATOM     12  C   UNL     1      40.918  45.906  20.302 -0.30 +0.01    +0.104 A  ATOM     13  C   UNL     1      43.133  46.922  20.387 -0.29 +0.05    +0.155 A  ATOM     14  C   UNL     1      42.907  47.512  19.142 -0.49 +0.01    +0.053 A  ATOM     15  C   UNL     1      42.134  46.116  20.953 -0.24 +0.04    +0.179 A  ATOM     16  C   UNL     1      41.707  47.281  18.464 -0.49 -0.00    +0.051 A  ATOM     17  C   UNL     1      40.729  46.470  19.034 -0.32 -0.00    +0.130 A  ATOM     18  F   UNL     1      42.379  45.522  22.133 -0.04 -0.04    -0.202 F  BRANCH  13  19ATOM     19  O   UNL     1      44.274  47.058  21.132 -0.47 -0.37    -0.494 OA ATOM     20  C   UNL     1      44.153  47.692  22.399 -0.20 +0.09    +0.278 C  ENDBRANCH  13  19BRANCH  17  21ATOM     21  O   UNL     1      39.598  46.265  18.289 -0.15 +0.07    -0.507 OA ATOM     22  H   UNL     1      39.208  45.404  18.568 +0.19 -0.03    +0.293 HD ENDBRANCH  17  21ENDBRANCH  10  12ENDBRANCH   5  10ENDBRANCH   3   4ENDBRANCH   1   3BRANCH   1  23ATOM     23  C   UNL     1      37.334  43.997  26.902 -0.33 -0.01    +0.077 C  BRANCH  23  24ATOM     24  C   UNL     1      36.077  43.845  27.769 -0.52 -0.01    +0.022 CG0ATOM     25  G   UNL     1      35.026  42.875  27.230 +0.00 +0.00    +0.000 G0 ENDBRANCH  23  24BRANCH  23  26ATOM     26  C   UNL     1      38.464  42.981  27.262 -0.28 -0.01    +0.113 C  BRANCH  26  27ATOM     27  C   UNL     1      37.890  41.608  27.688 -0.43 -0.02    +0.107 C  BRANCH  27  28ATOM     28  N   UNL     1      36.758  41.058  26.948 -0.26 +0.09    -0.315 NA ATOM     29  H   UNL     1      36.835  40.039  26.932 -0.49 -0.05    +0.122 HD BRANCH  28  30ATOM     30  C   UNL     1      35.421  41.411  27.402 -0.64 -0.03    +0.081 C  BRANCH  30  31ATOM     31  C   UNL     1      35.027  42.875  27.227 -0.63 -0.00    +0.017 CG0ATOM     32  G   UNL     1      36.076  43.842  27.772 +0.00 +0.00    +0.000 G0 ENDBRANCH  30  31ENDBRANCH  28  30ENDBRANCH  27  28ENDBRANCH  26  27BRANCH  26  33ATOM     33  N   UNL     1      39.356  42.805  26.099 -0.07 +0.01    -0.346 N  ATOM     34  C   UNL     1      40.384  43.685  25.840 -0.09 -0.00    +0.251 C  ATOM     35  H   UNL     1      39.244  41.966  25.548 +0.08 +0.01    +0.164 HD ATOM     36  O   UNL     1      40.570  44.710  26.484 -0.07 -0.01    -0.269 OA BRANCH  34  37ATOM     37  C   UNL     1      41.274  43.358  24.696 -0.15 -0.00    +0.042 A  ATOM     38  C   UNL     1      40.682  42.935  23.505 -0.23 +0.00    +0.034 A  ATOM     39  C   UNL     1      42.660  43.490  24.769 -0.11 -0.00    +0.034 A  ATOM     40  C   UNL     1      41.508  42.631  22.440 -0.22 -0.00    +0.112 A  ATOM     41  C   UNL     1      43.399  43.164  23.645 -0.17 +0.00    +0.112 A  ATOM     42  N   UNL     1      42.855  42.728  22.490 -0.21 +0.01    -0.265 NA ENDBRANCH  34  37ENDBRANCH  26  33ENDBRANCH  23  26ENDBRANCH   1  23TORSDOF 9TERENDMDL