
     RDKit          3D

 75 81  0  0  0  0  0  0  0  0999 V2000
   -9.7030    1.0341    1.1283 C   0  0  0  0  0  0  0  0  0  0  0  0
   -9.0189    1.7733    0.0674 N   0  0  0  0  0  0  0  0  0  0  0  0
   -9.5925    3.0762   -0.2677 C   0  0  0  0  0  0  0  0  0  0  0  0
   -7.6591    1.5435   -0.1599 C   0  0  0  0  0  0  0  0  0  0  0  0
   -6.8897    2.3750   -0.9844 C   0  0  0  0  0  0  0  0  0  0  0  0
   -5.5328    2.1249   -1.2265 C   0  0  0  0  0  0  0  0  0  0  0  0
   -4.8918    1.0356   -0.6663 C   0  0  0  0  0  0  0  0  0  0  0  0
   -3.5869    0.8252   -0.9179 N   0  0  0  0  0  0  0  0  0  0  0  0
   -3.0003   -0.2620   -0.3433 C   0  0  0  0  0  0  0  0  0  0  0  0
   -1.5605   -0.3906   -0.6348 C   0  0  0  0  0  0  0  0  0  0  0  0
   -0.6065   -0.5483    0.3849 C   0  0  0  0  0  0  0  0  0  0  0  0
    0.7531   -0.6949    0.0893 C   0  0  0  0  0  0  0  0  0  0  0  0
    1.1996   -0.6708   -1.2371 C   0  0  0  0  0  0  0  0  0  0  0  0
    2.6681   -0.8463   -1.5625 C   0  0  0  0  0  0  0  0  0  0  0  0
    3.2594    0.3112   -2.2537 N   0  0  0  0  0  0  0  0  0  0  0  0
    4.5796   -0.0002   -2.8171 C   0  0  0  0  0  0  0  0  0  0  0  0
    5.6836   -0.1310   -1.7673 C   0  0  0  0  0  0  0  0  0  0  0  0
    5.7352    1.1178   -0.8789 C   0  0  0  0  0  0  0  0  0  0  0  0
    6.7601    1.0297    0.1525 N   0  0  0  0  0  0  0  0  0  0  0  0
    7.8582    1.8425    0.2318 C   0  0  0  0  0  0  0  0  0  0  0  0
    8.1390    2.8110   -0.6154 O   0  0  0  0  0  0  0  0  0  0  0  0
    8.6316    1.5728    1.2464 N   0  0  0  0  0  0  0  0  0  0  0  0
    8.0129    0.5199    1.8735 C   0  0  0  0  0  0  0  0  0  0  0  0
    8.4090   -0.1766    3.0260 C   0  0  0  0  0  0  0  0  0  0  0  0
    7.6133   -1.2300    3.4886 C   0  0  0  0  0  0  0  0  0  0  0  0
    6.4444   -1.5855    2.8167 C   0  0  0  0  0  0  0  0  0  0  0  0
    6.0315   -0.9038    1.6656 C   0  0  0  0  0  0  0  0  0  0  0  0
    6.8369    0.1508    1.2134 C   0  0  0  0  0  0  0  0  0  0  0  0
    4.3553    1.4773   -0.3148 C   0  0  0  0  0  0  0  0  0  0  0  0
    3.3130    1.5290   -1.4322 C   0  0  0  0  0  0  0  0  0  0  0  0
    0.2609   -0.4863   -2.2595 C   0  0  0  0  0  0  0  0  0  0  0  0
   -1.0974   -0.3435   -1.9605 C   0  0  0  0  0  0  0  0  0  0  0  0
   -3.7439   -1.1423    0.4586 C   0  0  0  0  0  0  0  0  0  0  0  0
   -3.2317   -2.3820    1.0688 C   0  0  0  0  0  0  0  0  0  0  0  0
   -3.4386   -2.6386    2.4310 C   0  0  0  0  0  0  0  0  0  0  0  0
   -2.9460   -3.8106    2.9816 C   0  0  0  0  0  0  0  0  0  0  0  0
   -2.2695   -4.7414    2.2788 N   0  0  0  0  0  0  0  0  0  0  0  0
   -2.0967   -4.4970    0.9636 C   0  0  0  0  0  0  0  0  0  0  0  0
   -2.5551   -3.3561    0.3233 C   0  0  0  0  0  0  0  0  0  0  0  0
   -5.0608   -0.9095    0.7221 N   0  0  0  0  0  0  0  0  0  0  0  0
   -5.6326    0.1713    0.1580 C   0  0  0  0  0  0  0  0  0  0  0  0
   -6.9824    0.4376    0.3862 C   0  0  0  0  0  0  0  0  0  0  0  0
  -10.7612    1.3120    1.1895 H   0  0  0  0  0  0  0  0  0  0  0  0
   -9.2504    1.2395    2.1046 H   0  0  0  0  0  0  0  0  0  0  0  0
   -9.6865   -0.0437    0.9336 H   0  0  0  0  0  0  0  0  0  0  0  0
  -10.6624    3.1131   -0.0335 H   0  0  0  0  0  0  0  0  0  0  0  0
   -9.1027    3.8779    0.2960 H   0  0  0  0  0  0  0  0  0  0  0  0
   -9.5136    3.2794   -1.3413 H   0  0  0  0  0  0  0  0  0  0  0  0
   -7.3227    3.2436   -1.4714 H   0  0  0  0  0  0  0  0  0  0  0  0
   -4.9700    2.7964   -1.8699 H   0  0  0  0  0  0  0  0  0  0  0  0
   -0.9130   -0.5560    1.4293 H   0  0  0  0  0  0  0  0  0  0  0  0
    1.4591   -0.8222    0.9067 H   0  0  0  0  0  0  0  0  0  0  0  0
    3.2246   -1.1019   -0.6532 H   0  0  0  0  0  0  0  0  0  0  0  0
    2.7324   -1.7320   -2.2092 H   0  0  0  0  0  0  0  0  0  0  0  0
    4.8510    0.7956   -3.5235 H   0  0  0  0  0  0  0  0  0  0  0  0
    4.5309   -0.9155   -3.4199 H   0  0  0  0  0  0  0  0  0  0  0  0
    5.5205   -1.0363   -1.1730 H   0  0  0  0  0  0  0  0  0  0  0  0
    6.6491   -0.2685   -2.2706 H   0  0  0  0  0  0  0  0  0  0  0  0
    6.0308    1.9516   -1.5310 H   0  0  0  0  0  0  0  0  0  0  0  0
    8.9690    3.1568   -0.2395 H   0  0  0  0  0  0  0  0  0  0  0  0
    9.3195    0.1055    3.5429 H   0  0  0  0  0  0  0  0  0  0  0  0
    7.9118   -1.7752    4.3809 H   0  0  0  0  0  0  0  0  0  0  0  0
    5.8409   -2.4087    3.1945 H   0  0  0  0  0  0  0  0  0  0  0  0
    5.1203   -1.1952    1.1569 H   0  0  0  0  0  0  0  0  0  0  0  0
    4.4023    2.4543    0.1827 H   0  0  0  0  0  0  0  0  0  0  0  0
    4.0376    0.7633    0.4521 H   0  0  0  0  0  0  0  0  0  0  0  0
    2.3303    1.7660   -1.0091 H   0  0  0  0  0  0  0  0  0  0  0  0
    3.5454    2.3755   -2.0925 H   0  0  0  0  0  0  0  0  0  0  0  0
    0.5888   -0.4418   -3.2963 H   0  0  0  0  0  0  0  0  0  0  0  0
   -1.8036   -0.1909   -2.7754 H   0  0  0  0  0  0  0  0  0  0  0  0
   -3.9813   -1.9337    3.0541 H   0  0  0  0  0  0  0  0  0  0  0  0
   -3.0892   -4.0370    4.0342 H   0  0  0  0  0  0  0  0  0  0  0  0
   -1.5644   -5.2691    0.4153 H   0  0  0  0  0  0  0  0  0  0  0  0
   -2.3868   -3.2405   -0.7429 H   0  0  0  0  0  0  0  0  0  0  0  0
   -7.5042   -0.2734    1.0198 H   0  0  0  0  0  0  0  0  0  0  0  0
  1  2  1  0
  2  3  1  0
  2  4  1  0
  4  5  2  0
  5  6  1  0
  6  7  2  0
  7  8  1  0
  8  9  2  0
  9 10  1  0
 10 11  2  0
 11 12  1  0
 12 13  2  0
 13 14  1  0
 14 15  1  0
 15 16  1  0
 16 17  1  0
 17 18  1  0
 18 19  1  0
 19 20  1  0
 20 21  1  0
 20 22  2  0
 22 23  1  0
 23 24  2  0
 24 25  1  0
 25 26  2  0
 26 27  1  0
 27 28  2  0
 18 29  1  0
 29 30  1  0
 13 31  1  0
 31 32  2  0
  9 33  1  0
 33 34  1  0
 34 35  2  0
 35 36  1  0
 36 37  2  0
 37 38  1  0
 38 39  2  0
 33 40  2  0
 40 41  1  0
 41 42  2  0
 42  4  1  0
 41  7  1  0
 32 10  1  0
 39 34  1  0
 30 15  1  0
 28 19  1  0
 28 23  1  0
  1 43  1  0
  1 44  1  0
  1 45  1  0
  3 46  1  0
  3 47  1  0
  3 48  1  0
  5 49  1  0
  6 50  1  0
 11 51  1  0
 12 52  1  0
 14 53  1  0
 14 54  1  0
 16 55  1  0
 16 56  1  0
 17 57  1  0
 17 58  1  0
 18 59  1  0
 21 60  1  0
 24 61  1  0
 25 62  1  0
 26 63  1  0
 27 64  1  0
 29 65  1  0
 29 66  1  0
 30 67  1  0
 30 68  1  0
 31 69  1  0
 32 70  1  0
 35 71  1  0
 36 72  1  0
 38 73  1  0
 39 74  1  0
 42 75  1  0
M  END
$$$$
