
     RDKit          3D

 59 62  0  0  0  0  0  0  0  0999 V2000
    6.1383   -2.9955   -0.8761 C   0  0  0  0  0  0  0  0  0  0  0  0
    5.0030   -2.3759   -0.2866 O   0  0  0  0  0  0  0  0  0  0  0  0
    4.9245   -1.0105   -0.3654 C   0  0  0  0  0  0  0  0  0  0  0  0
    5.8845   -0.1759   -0.9315 C   0  0  0  0  0  0  0  0  0  0  0  0
    5.6860    1.2079   -0.9515 C   0  0  0  0  0  0  0  0  0  0  0  0
    4.5294    1.7847   -0.4016 C   0  0  0  0  0  0  0  0  0  0  0  0
    4.3573    3.2795   -0.4510 C   0  0  0  0  0  0  0  0  0  0  0  0
    3.5447    0.9592    0.1793 C   0  0  0  0  0  0  0  0  0  0  0  0
    2.3812    1.5620    0.7058 N   0  0  0  0  0  0  0  0  0  0  0  0
    1.9874    1.0775    2.0566 C   0  0  0  0  0  0  0  0  0  0  0  0
    0.6262    0.5152    1.8768 C   0  0  0  0  0  0  0  0  0  0  0  0
   -0.1914   -0.1638    2.7338 C   0  0  0  0  0  0  0  0  0  0  0  0
    0.2259   -0.4850    4.1339 C   0  0  0  0  0  0  0  0  0  0  0  0
   -1.4136   -0.5833    2.3350 N   0  0  0  0  0  0  0  0  0  0  0  0
   -1.8219   -0.3168    1.0747 C   0  0  0  0  0  0  0  0  0  0  0  0
   -3.0509   -0.7803    0.6707 N   0  0  0  0  0  0  0  0  0  0  0  0
   -3.9947   -1.2279    1.6787 C   0  0  0  0  0  0  0  0  0  0  0  0
   -5.2605   -1.4650    0.8645 C   0  0  0  0  0  0  0  0  0  0  0  0
   -5.2358   -0.3136   -0.1384 C   0  0  2  0  0  0  0  0  0  0  0  0
   -6.0367   -0.5951   -1.3183 N   0  0  0  0  0  0  0  0  0  0  0  0
   -6.3396    0.4111   -2.2079 C   0  0  0  0  0  0  0  0  0  0  0  0
   -7.0774   -0.0457   -3.4375 C   0  0  0  0  0  0  0  0  0  0  0  0
   -6.0500    1.5878   -2.0188 O   0  0  0  0  0  0  0  0  0  0  0  0
   -3.7303   -0.1033   -0.4314 C   0  0  0  0  0  0  0  0  0  0  0  0
   -1.0651    0.3447    0.1822 N   0  0  0  0  0  0  0  0  0  0  0  0
    0.1424    0.7432    0.6143 C   0  0  0  0  0  0  0  0  0  0  0  0
    1.1580    1.5175   -0.1993 C   0  0  2  0  0  0  0  0  0  0  0  0
    1.3741    0.9984   -1.6363 C   0  0  0  0  0  0  0  0  0  0  0  0
    1.0856   -0.3125   -1.9092 N   0  0  0  0  0  0  0  0  0  0  0  0
    1.8323    1.7028   -2.5383 O   0  0  0  0  0  0  0  0  0  0  0  0
    3.7689   -0.4360    0.1790 C   0  0  0  0  0  0  0  0  0  0  0  0
    2.8343   -1.2495    0.7049 F   0  0  0  0  0  0  0  0  0  0  0  0
    7.0608   -2.6876   -0.3726 H   0  0  0  0  0  0  0  0  0  0  0  0
    6.0341   -4.0771   -0.7460 H   0  0  0  0  0  0  0  0  0  0  0  0
    6.1865   -2.7926   -1.9513 H   0  0  0  0  0  0  0  0  0  0  0  0
    6.7968   -0.5644   -1.3714 H   0  0  0  0  0  0  0  0  0  0  0  0
    6.4451    1.8409   -1.4079 H   0  0  0  0  0  0  0  0  0  0  0  0
    5.2403    3.7714   -0.8728 H   0  0  0  0  0  0  0  0  0  0  0  0
    3.4992    3.5450   -1.0759 H   0  0  0  0  0  0  0  0  0  0  0  0
    4.2124    3.6797    0.5579 H   0  0  0  0  0  0  0  0  0  0  0  0
    2.6797    0.3465    2.4875 H   0  0  0  0  0  0  0  0  0  0  0  0
    1.9418    1.9415    2.7292 H   0  0  0  0  0  0  0  0  0  0  0  0
    1.1030   -1.1393    4.1274 H   0  0  0  0  0  0  0  0  0  0  0  0
   -0.5775   -0.9988    4.6716 H   0  0  0  0  0  0  0  0  0  0  0  0
    0.4647    0.4327    4.6802 H   0  0  0  0  0  0  0  0  0  0  0  0
   -4.1719   -0.4504    2.4326 H   0  0  0  0  0  0  0  0  0  0  0  0
   -3.6699   -2.1479    2.1761 H   0  0  0  0  0  0  0  0  0  0  0  0
   -5.2018   -2.4330    0.3506 H   0  0  0  0  0  0  0  0  0  0  0  0
   -6.1634   -1.4670    1.4824 H   0  0  0  0  0  0  0  0  0  0  0  0
   -5.6320    0.5927    0.3386 H   0  0  0  0  0  0  0  0  0  0  0  0
   -6.0768   -1.5509   -1.6487 H   0  0  0  0  0  0  0  0  0  0  0  0
   -6.5512    0.3170   -4.3247 H   0  0  0  0  0  0  0  0  0  0  0  0
   -8.0922    0.3617   -3.4166 H   0  0  0  0  0  0  0  0  0  0  0  0
   -7.1387   -1.1361   -3.4939 H   0  0  0  0  0  0  0  0  0  0  0  0
   -3.5162    0.9716   -0.4749 H   0  0  0  0  0  0  0  0  0  0  0  0
   -3.4353   -0.5588   -1.3836 H   0  0  0  0  0  0  0  0  0  0  0  0
    0.7817    2.5452   -0.2866 H   0  0  0  0  0  0  0  0  0  0  0  0
    0.4153   -0.8115   -1.3317 H   0  0  0  0  0  0  0  0  0  0  0  0
    1.1492   -0.5871   -2.8795 H   0  0  0  0  0  0  0  0  0  0  0  0
  1  2  1  0
  2  3  1  0
  3  4  2  0
  4  5  1  0
  5  6  2  0
  6  7  1  0
  6  8  1  0
  8  9  1  0
  9 10  1  0
 10 11  1  0
 11 12  2  0
 12 13  1  0
 12 14  1  0
 14 15  2  0
 15 16  1  0
 16 17  1  0
 17 18  1  0
 18 19  1  0
 19 20  1  0
 20 21  1  0
 21 22  1  0
 21 23  2  0
 19 24  1  0
 15 25  1  0
 25 26  2  0
 26 27  1  0
 27 28  1  0
 28 29  1  0
 28 30  2  0
  8 31  2  0
 31 32  1  0
 31  3  1  0
 27  9  1  0
 26 11  1  0
 24 16  1  0
  1 33  1  0
  1 34  1  0
  1 35  1  0
  4 36  1  0
  5 37  1  0
  7 38  1  0
  7 39  1  0
  7 40  1  0
 10 41  1  0
 10 42  1  0
 13 43  1  0
 13 44  1  0
 13 45  1  0
 17 46  1  0
 17 47  1  0
 18 48  1  0
 18 49  1  0
 19 50  1  1
 20 51  1  0
 22 52  1  0
 22 53  1  0
 22 54  1  0
 24 55  1  0
 24 56  1  0
 27 57  1  6
 29 58  1  0
 29 59  1  0
M  END
$$$$
