
     RDKit          3D

 66 70  0  0  0  0  0  0  0  0999 V2000
    5.4595   -0.9856    0.6010 N   0  0  0  0  0  0  0  0  0  0  0  0
    4.9765   -1.4149   -0.7171 C   0  0  0  0  0  0  0  0  0  0  0  0
    5.1434   -2.8937   -0.9092 C   0  0  0  0  0  0  0  0  0  0  0  0
    6.1813   -3.7234   -1.0498 C   0  0  0  0  0  0  0  0  0  0  0  0
    7.7952   -3.1063   -1.0501 S   0  0  0  0  0  0  0  0  0  0  0  0
    7.9869   -2.2718    0.3959 N   0  0  0  0  0  0  0  0  0  0  0  0
    8.6955   -4.2344   -0.9455 O   0  0  0  0  0  0  0  0  0  0  0  0
    7.9376   -2.1333   -2.1103 O   0  0  0  0  0  0  0  0  0  0  0  0
    3.7169   -3.0708   -0.9104 C   0  0  0  0  0  0  0  0  0  0  0  0
    3.4634   -1.7512   -0.6670 C   0  0  0  0  0  0  0  0  0  0  0  0
    2.4176   -0.9860   -0.4688 N   0  0  0  0  0  0  0  0  0  0  0  0
    2.3762    0.4178   -0.2431 C   0  0  0  0  0  0  0  0  0  0  0  0
    3.5180    1.1380   -0.1328 N   0  0  0  0  0  0  0  0  0  0  0  0
    3.3848    2.4630    0.0590 C   0  0  0  0  0  0  0  0  0  0  0  0
    4.5246    3.2522    0.1564 C   0  0  0  0  0  0  0  0  0  0  0  0
    4.4403    4.6302    0.3619 C   0  0  0  0  0  0  0  0  0  0  0  0
    3.1932    5.2313    0.4698 C   0  0  0  0  0  0  0  0  0  0  0  0
    2.0411    4.4490    0.3713 C   0  0  0  0  0  0  0  0  0  0  0  0
    2.1122    3.0767    0.1665 C   0  0  0  0  0  0  0  0  0  0  0  0
    0.9741    2.3655    0.0795 N   0  0  0  0  0  0  0  0  0  0  0  0
    1.0981    1.0338   -0.1195 C   0  0  0  0  0  0  0  0  0  0  0  0
   -0.0645    0.2134   -0.2015 N   0  0  0  0  0  0  0  0  0  0  0  0
   -1.1508    0.8773   -0.9652 C   0  0  0  0  0  0  0  0  0  0  0  0
   -2.2059    1.5721   -0.0702 C   0  0  0  0  0  0  0  0  0  0  0  0
   -2.7594    0.7506    1.0254 N   0  0  0  0  0  0  0  0  0  0  0  0
   -4.2150    0.5386    0.9587 C   0  0  0  0  0  0  0  0  0  0  0  0
   -4.7255   -0.2417   -0.2700 C   0  0  0  0  0  0  0  0  0  0  0  0
   -3.9780   -0.6355   -1.1679 O   0  0  0  0  0  0  0  0  0  0  0  0
   -6.0969   -0.5051   -0.3121 N   0  0  0  0  0  0  0  0  0  0  0  0
   -6.6266   -1.1143   -1.5374 C   0  0  0  0  0  0  0  0  0  0  0  0
   -7.9551   -1.8318   -1.2909 C   0  0  0  0  0  0  0  0  0  0  0  0
   -8.9022   -0.9580   -0.6584 O   0  0  0  0  0  0  0  0  0  0  0  0
   -8.4040   -0.5279    0.6149 C   0  0  0  0  0  0  0  0  0  0  0  0
   -7.0890    0.2461    0.4667 C   0  0  0  0  0  0  0  0  0  0  0  0
   -1.9801   -0.4741    1.2596 C   0  0  0  0  0  0  0  0  0  0  0  0
   -0.4608   -0.2004    1.1684 C   0  0  0  0  0  0  0  0  0  0  0  0
    4.9224   -1.4403    1.3435 H   0  0  0  0  0  0  0  0  0  0  0  0
    5.1671   -0.0027    0.7104 H   0  0  0  0  0  0  0  0  0  0  0  0
    5.3075   -0.7771   -1.5438 H   0  0  0  0  0  0  0  0  0  0  0  0
    6.0507   -4.7844   -1.1986 H   0  0  0  0  0  0  0  0  0  0  0  0
    7.2057   -1.6180    0.5573 H   0  0  0  0  0  0  0  0  0  0  0  0
    8.1587   -2.9007    1.1748 H   0  0  0  0  0  0  0  0  0  0  0  0
    3.0806   -3.9453   -1.0211 H   0  0  0  0  0  0  0  0  0  0  0  0
    1.4617   -1.3074   -0.6395 H   0  0  0  0  0  0  0  0  0  0  0  0
    5.5019    2.7834    0.0664 H   0  0  0  0  0  0  0  0  0  0  0  0
    5.3473    5.2262    0.4329 H   0  0  0  0  0  0  0  0  0  0  0  0
    3.1110    6.3038    0.6278 H   0  0  0  0  0  0  0  0  0  0  0  0
    1.0637    4.9186    0.4552 H   0  0  0  0  0  0  0  0  0  0  0  0
   -1.6396    0.0963   -1.5586 H   0  0  0  0  0  0  0  0  0  0  0  0
   -0.7566    1.5895   -1.7027 H   0  0  0  0  0  0  0  0  0  0  0  0
   -2.9992    1.9796   -0.7092 H   0  0  0  0  0  0  0  0  0  0  0  0
   -1.7369    2.4430    0.4034 H   0  0  0  0  0  0  0  0  0  0  0  0
   -4.5300    0.0019    1.8615 H   0  0  0  0  0  0  0  0  0  0  0  0
   -4.7043    1.5193    0.9712 H   0  0  0  0  0  0  0  0  0  0  0  0
   -6.7702   -0.2970   -2.2556 H   0  0  0  0  0  0  0  0  0  0  0  0
   -5.9002   -1.8153   -1.9635 H   0  0  0  0  0  0  0  0  0  0  0  0
   -7.8120   -2.7191   -0.6613 H   0  0  0  0  0  0  0  0  0  0  0  0
   -8.3859   -2.1630   -2.2418 H   0  0  0  0  0  0  0  0  0  0  0  0
   -8.2717   -1.4047    1.2611 H   0  0  0  0  0  0  0  0  0  0  0  0
   -9.1647    0.1119    1.0733 H   0  0  0  0  0  0  0  0  0  0  0  0
   -6.7020    0.5011    1.4561 H   0  0  0  0  0  0  0  0  0  0  0  0
   -7.2655    1.1808   -0.0800 H   0  0  0  0  0  0  0  0  0  0  0  0
   -2.2055   -0.8537    2.2634 H   0  0  0  0  0  0  0  0  0  0  0  0
   -2.2388   -1.2653    0.5463 H   0  0  0  0  0  0  0  0  0  0  0  0
    0.0807   -1.1170    1.4307 H   0  0  0  0  0  0  0  0  0  0  0  0
   -0.1983    0.5602    1.9176 H   0  0  0  0  0  0  0  0  0  0  0  0
  1  2  1  0
  2  3  1  0
  3  4  2  3
  4  5  1  0
  5  6  1  0
  5  7  2  0
  5  8  2  0
  3  9  1  0
  9 10  2  0
 10 11  1  0
 11 12  1  0
 12 13  2  0
 13 14  1  0
 14 15  2  0
 15 16  1  0
 16 17  2  0
 17 18  1  0
 18 19  2  0
 19 20  1  0
 20 21  2  0
 21 22  1  0
 22 23  1  0
 23 24  1  0
 24 25  1  0
 25 26  1  0
 26 27  1  0
 27 28  2  0
 27 29  1  0
 29 30  1  0
 30 31  1  0
 31 32  1  0
 32 33  1  0
 33 34  1  0
 25 35  1  0
 35 36  1  0
 10  2  1  0
 21 12  1  0
 36 22  1  0
 19 14  1  0
 34 29  1  0
  1 37  1  0
  1 38  1  0
  2 39  1  0
  4 40  1  0
  6 41  1  0
  6 42  1  0
  9 43  1  0
 11 44  1  0
 15 45  1  0
 16 46  1  0
 17 47  1  0
 18 48  1  0
 23 49  1  0
 23 50  1  0
 24 51  1  0
 24 52  1  0
 26 53  1  0
 26 54  1  0
 30 55  1  0
 30 56  1  0
 31 57  1  0
 31 58  1  0
 33 59  1  0
 33 60  1  0
 34 61  1  0
 34 62  1  0
 35 63  1  0
 35 64  1  0
 36 65  1  0
 36 66  1  0
M  END
$$$$
