MODEL        6USER    Run = 6USERUSER    Estimated Free Energy of Binding    =  -6.68 kcal/mol  [=(1)+(2)+(3)-(4)]USERUSER    (1) Final Intermolecular Energy     =  -9.36 kcal/molUSER        vdW + Hbond + desolv Energy     =  -9.12 kcal/molUSER        Electrostatic Energy            =  -0.25 kcal/molUSER        Moving Ligand-Fixed Receptor    =  -9.36 kcal/molUSER        Moving Ligand-Moving Receptor   =  +0.00 kcal/molUSER    (2) Final Total Internal Energy     =  -1.55 kcal/molUSER    (3) Torsional Free Energy           =  +2.68 kcal/molUSER    (4) Unbound System's Energy         =  -1.55 kcal/molUSERUSERREMARK SMILES COC(=O)c1ccc(O)cc1[C@H](CC(C)C)[P@](=O)(O)OCREMARK SMILES IDX 5 1 6 2 7 3 8 4 10 5 11 6 3 7 4 8 2 9 1 10 12 11 13 12 14 13REMARK SMILES IDX 15 14 16 15 17 16 18 17 19 18 20 20 21 21 9 22REMARK H PARENT 19 19 9 23USER                              x       y       z     vdW  Elec       q    TypeUSER                           _______ _______ _______ _____ _____    ______ ____ROOTATOM      1  C   UNL     1      37.552  46.870  14.984 -0.37 -0.03    +0.064 A  ATOM      2  C   UNL     1      36.175  46.703  15.211 -0.36 -0.02    +0.020 A  ATOM      3  C   UNL     1      35.712  46.198  16.425 -0.33 -0.04    +0.047 A  ATOM      4  C   UNL     1      36.630  45.865  17.412 -0.27 -0.05    +0.115 A  ATOM      5  C   UNL     1      37.997  46.044  17.211 -0.35 -0.02    +0.051 A  ATOM      6  C   UNL     1      38.486  46.567  15.999 -0.40 +0.01    -0.015 A  ENDROOTBRANCH   1   7ATOM      7  C   UNL     1      37.923  47.375  13.642 -0.31 -0.11    +0.338 C  ATOM      8  O   UNL     1      38.334  48.503  13.431 -0.57 +0.06    -0.246 OA BRANCH   7   9ATOM      9  O   UNL     1      37.641  46.429  12.713 -0.23 +0.13    -0.465 OA ATOM     10  C   UNL     1      36.518  46.744  11.891 -0.50 -0.12    +0.282 C  ENDBRANCH   7   9ENDBRANCH   1   7BRANCH   6  11ATOM     11  C   UNL     1      39.992  46.801  15.847 -0.44 -0.02    +0.136 C  BRANCH  11  12ATOM     12  C   UNL     1      40.732  45.989  16.935 -0.43 -0.00    +0.024 C  BRANCH  12  13ATOM     13  C   UNL     1      40.819  46.705  18.300 -0.56 +0.00    -0.016 C  ATOM     14  C   UNL     1      42.278  47.022  18.644 -0.58 +0.00    +0.007 C  ATOM     15  C   UNL     1      40.218  45.852  19.419 -0.47 -0.00    +0.007 C  ENDBRANCH  12  13ENDBRANCH  11  12BRANCH  11  16ATOM     16  P   UNL     1      40.468  48.549  15.769 -0.49 -0.08    +0.335 P  ATOM     17  O   UNL     1      41.428  49.053  16.800 -1.04 -0.01    -0.260 OA BRANCH  16  18ATOM     18  O   UNL     1      39.083  49.366  15.807 -0.29 +0.21    -0.324 OA ATOM     19  H   UNL     1      38.792  49.644  14.919 -0.32 -0.19    +0.221 HD ENDBRANCH  16  18BRANCH  16  20ATOM     20  O   UNL     1      40.933  48.806  14.248 -0.38 +0.05    -0.312 OA ATOM     21  C   UNL     1      41.700  49.964  13.984 -0.55 -0.05    +0.206 C  ENDBRANCH  16  20ENDBRANCH  11  16ENDBRANCH   6  11BRANCH   4  22ATOM     22  O   UNL     1      36.228  45.359  18.612 -0.04 +0.14    -0.508 OA ATOM     23  H   UNL     1      35.369  45.748  18.847 +0.18 -0.10    +0.293 HD ENDBRANCH   4  22TORSDOF 9TERENDMDL