REMARK SMILES CCC=CC=C1/C(C(N)=O)=N\C=N/C(C(=O)N(C)C)=C\N1Cc1cc(Cl)ccc1OC
REMARK SMILES IDX 20 1 21 2 6 3 5 5 4 6 3 7 2 8 1 9 22 10 23 11 24 12 29 13
REMARK SMILES IDX 25 14 28 15 27 16 26 17 30 18 31 19 14 20 13 21 12 22 11 23
REMARK SMILES IDX 7 24 8 26 9 27 10 28 15 31 17 32 16 33 18 34 19 35
REMARK H PARENT 9 29 9 30
REMARK Flexibility Score:   60.900
ROOT
ATOM      1  C   UNL     1      -1.465   0.178   0.496  1.00  0.00     0.120 C 
ENDROOT
BRANCH   1   2
ATOM      2  N   UNL     1      -0.115  -0.239   0.616  1.00  0.00    -0.339 N 
BRANCH   2   3
ATOM      3  C   UNL     1       1.043   0.521   0.150  1.00  0.00     0.073 CG0
ATOM      4  G   UNL     1       1.036   1.890   0.044  1.00  0.00     0.000 G0
BRANCH   3   5
ATOM      5  C   UNL     1       2.155  -0.193  -0.202  1.00  0.00     0.028 C 
BRANCH   5   6
ATOM      6  C   UNL     1       3.363   0.201  -0.913  1.00  0.00    -0.002 C 
BRANCH   6   7
ATOM      7  C   UNL     1       4.421  -0.612  -1.077  1.00  0.00    -0.027 C 
BRANCH   7   8
ATOM      8  C   UNL     1       5.691  -0.295  -1.814  1.00  0.00     0.024 C 
ATOM      9  C   UNL     1       5.790   1.083  -2.456  1.00  0.00     0.008 C 
ENDBRANCH   7   8
ENDBRANCH   6   7
ENDBRANCH   5   6
ENDBRANCH   3   5
ENDBRANCH   2   3
BRANCH   2  10
ATOM     10  C   UNL     1       0.147  -1.276   1.649  1.00  0.00     0.161 C 
BRANCH  10  11
ATOM     11  C   UNL     1      -0.642  -2.569   1.473  1.00  0.00     0.015 A 
ATOM     12  C   UNL     1      -1.538  -2.964   2.486  1.00  0.00     0.030 A 
ATOM     13  C   UNL     1      -0.513  -3.401   0.349  1.00  0.00     0.123 A 
ATOM     14  C   UNL     1      -2.270  -4.148   2.372  1.00  0.00     0.041 A 
ATOM     15  C   UNL     1      -1.236  -4.595   0.246  1.00  0.00     0.048 A 
ATOM     16  C   UNL     1      -2.121  -4.967   1.256  1.00  0.00     0.024 A 
ATOM     17  Cl  UNL     1      -3.350  -4.614   3.631  1.00  0.00    -0.084 Cl
BRANCH  13  18
ATOM     18  O   UNL     1       0.371  -3.111  -0.654  1.00  0.00    -0.496 OA
ATOM     19  C   UNL     1      -0.305  -2.428  -1.723  1.00  0.00     0.278 C 
ENDBRANCH  13  18
ENDBRANCH  10  11
ENDBRANCH   2  10
ENDBRANCH   1   2
BRANCH   1  20
ATOM     20  C   UNL     1      -2.164   1.053  -0.261  1.00  0.00     0.146 C 
BRANCH  20  21
ATOM     21  N   UNL     1      -1.910   1.989  -1.218  1.00  0.00    -0.230 NA
BRANCH  21  22
ATOM     22  C   UNL     1      -0.683   2.547  -1.238  1.00  0.00     0.223 C 
BRANCH  22  23
ATOM     23  N   UNL     1       0.009   2.794  -0.100  1.00  0.00    -0.229 NA
BRANCH  23  24
ATOM     24  C   UNL     1       1.036   1.890   0.044  1.00  0.00     0.153 CG0
ATOM     25  G   UNL     1       1.043   0.521   0.150  1.00  0.00     0.000 G0
BRANCH  24  26
ATOM     26  C   UNL     1       2.329   2.639   0.373  1.00  0.00     0.269 C 
ATOM     27  N   UNL     1       2.405   3.832  -0.305  1.00  0.00    -0.364 N 
ATOM     28  O   UNL     1       3.179   2.327   1.202  1.00  0.00    -0.268 OA
ATOM     29  H   UNL     1       2.893   4.544   0.201  1.00  0.00     0.160 HD
ATOM     30  H   UNL     1       1.453   4.039  -0.634  1.00  0.00     0.160 HD
ENDBRANCH  24  26
ENDBRANCH  23  24
ENDBRANCH  22  23
ENDBRANCH  21  22
ENDBRANCH  20  21
BRANCH  20  31
ATOM     31  C   UNL     1      -3.648   0.913   0.053  1.00  0.00     0.273 C 
ATOM     32  N   UNL     1      -4.236   1.949   0.798  1.00  0.00    -0.343 N 
ATOM     33  O   UNL     1      -4.288  -0.093  -0.281  1.00  0.00    -0.267 OA
ATOM     34  C   UNL     1      -3.494   3.163   1.109  1.00  0.00     0.146 C 
ATOM     35  C   UNL     1      -5.675   2.033   0.806  1.00  0.00     0.146 C 
ENDBRANCH  20  31
ENDBRANCH   1  20
TORSDOF 9
