REMARK SMILES O=CC=c1cc(NCCc2ccccc2)c2cccc([nH]cn1)c2Br
REMARK SMILES IDX 4 1 5 2 6 3 16 4 17 5 18 6 19 7 20 8 21 9 22 10 23 11 24 12
REMARK SMILES IDX 25 13 3 15 2 16 1 17 7 18 8 20 9 21 10 22 11 23 15 24 12 25
REMARK SMILES IDX 14 26 13 27
REMARK H PARENT 21 14 7 19
ROOT
ATOM      1  C   UNL     1      -1.239   1.574  -2.076  1.00  0.00     0.070 A 
ATOM      2  C   UNL     1      -0.303   0.883  -1.155  1.00  0.00     0.054 A 
ATOM      3  C   UNL     1      -0.433   0.440   0.128  1.00  0.00     0.045 A 
ATOM      4  C   UNL     1      -1.639   0.773   0.932  1.00  0.00     0.014 A 
ATOM      5  C   UNL     1      -1.554   1.867   1.812  1.00  0.00     0.011 A 
ATOM      6  C   UNL     1      -2.707   2.544   2.214  1.00  0.00     0.003 A 
ATOM      7  C   UNL     1      -3.908   2.259   1.568  1.00  0.00     0.027 A 
ATOM      8  C   UNL     1      -3.951   1.204   0.635  1.00  0.00     0.054 A 
ATOM      9  N   UNL     1      -4.487   1.571  -0.703  1.00  0.00    -0.345 N 
ATOM     10  C   UNL     1      -3.428   1.973  -1.528  1.00  0.00     0.197 A 
ATOM     11  N   UNL     1      -2.537   1.141  -1.970  1.00  0.00    -0.239 NA
ATOM     12  C   UNL     1      -2.898   0.271   0.618  1.00  0.00     0.050 A 
ATOM     13  Br  UNL     1      -3.151  -1.438  -0.180  1.00  0.00    -0.048 Br
ATOM     14  H   UNL     1      -5.210   2.268  -0.563  1.00  0.00     0.167 HD
ENDROOT
BRANCH   1  15
ATOM     15  C   UNL     1      -0.865   2.373  -3.089  1.00  0.00     0.072 C 
BRANCH  15  16
ATOM     16  C   UNL     1       0.503   2.848  -3.391  1.00  0.00     0.254 C 
ATOM     17  O   UNL     1       1.456   2.784  -2.628  1.00  0.00    -0.298 OA
ENDBRANCH  15  16
ENDBRANCH   1  15
BRANCH   3  18
ATOM     18  N   UNL     1       0.609  -0.203   0.799  1.00  0.00    -0.384 N 
ATOM     19  H   UNL     1       1.347  -0.481   0.152  1.00  0.00     0.160 HD
BRANCH  18  20
ATOM     20  C   UNL     1       0.409  -1.200   1.852  1.00  0.00     0.117 C 
BRANCH  20  21
ATOM     21  C   UNL     1       1.746  -1.595   2.495  1.00  0.00     0.056 C 
BRANCH  21  22
ATOM     22  C   UNL     1       2.674  -2.335   1.560  1.00  0.00    -0.046 A 
ATOM     23  C   UNL     1       2.430  -3.675   1.226  1.00  0.00     0.004 A 
ATOM     24  C   UNL     1       3.782  -1.686   0.999  1.00  0.00     0.004 A 
ATOM     25  C   UNL     1       3.280  -4.350   0.349  1.00  0.00     0.000 A 
ATOM     26  C   UNL     1       4.630  -2.363   0.122  1.00  0.00     0.000 A 
ATOM     27  C   UNL     1       4.379  -3.695  -0.203  1.00  0.00     0.000 A 
ENDBRANCH  21  22
ENDBRANCH  20  21
ENDBRANCH  18  20
ENDBRANCH   3  18
TORSDOF 6
