MODEL        8USER    Run = 8USERUSER    Estimated Free Energy of Binding    =  -8.91 kcal/mol  [=(1)+(2)+(3)-(4)]USERUSER    (1) Final Intermolecular Energy     = -10.40 kcal/molUSER        vdW + Hbond + desolv Energy     =  -9.98 kcal/molUSER        Electrostatic Energy            =  -0.42 kcal/molUSER        Moving Ligand-Fixed Receptor    = -10.40 kcal/molUSER        Moving Ligand-Moving Receptor   =  +0.00 kcal/molUSER    (2) Final Total Internal Energy     =  -1.17 kcal/molUSER    (3) Torsional Free Energy           =  +1.49 kcal/molUSER    (4) Unbound System's Energy         =  -1.17 kcal/molUSERUSERREMARK SMILES CCn1c(-c2ccncc2F)nc2cc(C(=O)c3ccc(F)cc3O)ccc21REMARK SMILES IDX 16 1 17 2 15 3 3 4 4 5 28 6 12 7 27 8 13 9 26 10 14 11 2 12REMARK SMILES IDX 1 13 5 14 6 15 10 16 7 17 9 18 8 19 11 20 18 21 19 22 24 23REMARK SMILES IDX 20 24 23 25 21 26 22 27 25 28REMARK H PARENT 25 29USER                              x       y       z     vdW  Elec       q    TypeUSER                           _______ _______ _______ _____ _____    ______ ____ROOTATOM      1  C   UNL     1      43.240  47.144  20.130 -0.31 +0.06    +0.196 C  ATOM      2  O   UNL     1      44.310  47.368  19.561 -0.29 -0.20    -0.288 OA ENDROOTBRANCH   1   3ATOM      3  C   UNL     1      42.047  46.832  19.310 -0.47 +0.00    +0.025 A  ATOM      4  N   UNL     1      38.832  46.083  16.861 -0.19 +0.08    -0.324 N  ATOM      5  C   UNL     1      39.069  47.072  15.922 -0.35 -0.05    +0.144 A  ATOM      6  C   UNL     1      39.821  46.155  17.822 -0.41 -0.01    +0.068 A  ATOM      7  N   UNL     1      40.186  47.716  16.212 -0.34 +0.05    -0.228 NA ATOM      8  C   UNL     1      40.081  45.423  18.988 -0.43 -0.00    +0.029 A  ATOM      9  C   UNL     1      40.647  47.182  17.383 -0.45 -0.01    +0.090 A  ATOM     10  C   UNL     1      41.216  45.783  19.723 -0.41 +0.00    +0.014 A  ATOM     11  C   UNL     1      41.787  47.530  18.123 -0.47 -0.00    +0.042 A  BRANCH   4  12ATOM     12  C   UNL     1      37.793  45.069  16.824 -0.33 -0.03    +0.121 C  ATOM     13  C   UNL     1      36.420  45.643  17.132 -0.39 -0.01    +0.028 C  ENDBRANCH   4  12BRANCH   5  14ATOM     14  C   UNL     1      38.267  47.346  14.733 -0.43 -0.02    +0.056 A  ATOM     15  C   UNL     1      37.644  48.591  14.598 -0.50 -0.02    +0.035 A  ATOM     16  C   UNL     1      38.045  46.387  13.747 -0.31 -0.05    +0.152 A  ATOM     17  C   UNL     1      36.867  48.830  13.476 -0.26 -0.05    +0.112 A  ATOM     18  C   UNL     1      37.254  46.714  12.661 -0.46 -0.05    +0.150 A  ATOM     19  N   UNL     1      36.667  47.921  12.494 -0.90 +0.09    -0.262 NA ATOM     20  F   UNL     1      38.582  45.160  13.835 -0.08 +0.05    -0.204 F  ENDBRANCH   5  14ENDBRANCH   1   3BRANCH   1  21ATOM     21  C   UNL     1      43.198  47.213  21.615 -0.32 +0.02    +0.064 A  ATOM     22  C   UNL     1      41.994  47.075  22.321 -0.22 +0.00    +0.019 A  ATOM     23  C   UNL     1      44.396  47.379  22.332 -0.25 +0.06    +0.129 A  ATOM     24  C   UNL     1      41.990  47.148  23.717 -0.20 +0.01    +0.040 A  ATOM     25  C   UNL     1      44.390  47.460  23.722 -0.18 +0.02    +0.086 A  ATOM     26  C   UNL     1      43.185  47.346  24.403 -0.12 +0.02    +0.126 A  ATOM     27  F   UNL     1      43.171  47.416  25.740 -0.00 -0.02    -0.207 F  BRANCH  23  28ATOM     28  O   UNL     1      45.619  47.469  21.723 -0.67 -0.55    -0.507 OA ATOM     29  H   UNL     1      45.567  48.181  21.044 -0.23 +0.20    +0.293 HD ENDBRANCH  23  28ENDBRANCH   1  21TORSDOF 5TERENDMDL