MODEL        2USER    Run = 2USERUSER    Estimated Free Energy of Binding    =  -9.42 kcal/mol  [=(1)+(2)+(3)-(4)]USERUSER    (1) Final Intermolecular Energy     = -11.21 kcal/molUSER        vdW + Hbond + desolv Energy     = -10.91 kcal/molUSER        Electrostatic Energy            =  -0.30 kcal/molUSER        Moving Ligand-Fixed Receptor    = -11.21 kcal/molUSER        Moving Ligand-Moving Receptor   =  +0.00 kcal/molUSER    (2) Final Total Internal Energy     =  -1.18 kcal/molUSER    (3) Torsional Free Energy           =  +1.79 kcal/molUSER    (4) Unbound System's Energy         =  -1.18 kcal/molUSERUSERREMARK SMILES CCn1c(-c2ccnc(N)c2)nc2cc(C(=O)c3ccc(F)cc3O)ccc21REMARK SMILES IDX 3 1 4 2 12 3 13 4 14 5 15 6 26 7 27 8 28 9 2 10 1 11 5 12REMARK SMILES IDX 6 13 11 14 7 15 9 16 8 17 10 18 16 21 17 22 18 23 19 24REMARK SMILES IDX 24 25 20 26 23 27 21 28 22 29 25 30REMARK H PARENT 10 19 10 20 25 31USER                              x       y       z     vdW  Elec       q    TypeUSER                           _______ _______ _______ _____ _____    ______ ____ROOTATOM      1  N   UNL     1      37.654  45.433  15.873 -0.13 +0.12    -0.324 N  ATOM      2  C   UNL     1      38.139  46.178  16.932 -0.30 -0.05    +0.141 A  ATOM      3  N   UNL     1      37.464  45.907  18.031 -0.19 +0.07    -0.228 NA ATOM      4  C   UNL     1      36.509  44.993  17.679 -0.27 -0.03    +0.090 A  ATOM      5  C   UNL     1      35.524  44.394  18.478 -0.31 -0.01    +0.042 A  ATOM      6  C   UNL     1      34.669  43.454  17.886 -0.31 -0.01    +0.025 A  ATOM      7  C   UNL     1      34.769  43.152  16.522 -0.40 -0.01    +0.014 A  ATOM      8  C   UNL     1      35.745  43.747  15.715 -0.37 -0.01    +0.029 A  ATOM      9  C   UNL     1      36.602  44.668  16.331 -0.30 -0.03    +0.068 A  ENDROOTBRANCH   1  10ATOM     10  C   UNL     1      38.172  45.415  14.518 -0.34 -0.04    +0.121 C  ATOM     11  C   UNL     1      37.314  46.227  13.562 -0.53 -0.01    +0.028 C  ENDBRANCH   1  10BRANCH   2  12ATOM     12  C   UNL     1      39.263  47.106  16.862 -0.44 -0.01    +0.023 A  ATOM     13  C   UNL     1      39.246  48.188  15.985 -0.47 -0.01    +0.032 A  ATOM     14  C   UNL     1      40.358  46.938  17.709 -0.45 -0.01    +0.058 A  ATOM     15  C   UNL     1      40.341  49.031  15.977 -0.47 -0.03    +0.114 A  ATOM     16  C   UNL     1      41.415  47.828  17.620 -0.41 -0.01    +0.124 A  ATOM     17  N   UNL     1      41.426  48.863  16.764 -0.93 -0.00    -0.240 NA BRANCH  16  18ATOM     18  N   UNL     1      42.521  47.705  18.455 -0.31 -0.00    -0.384 N  ATOM     19  H   UNL     1      43.338  47.371  17.960 -0.51 -0.01    +0.158 HD ATOM     20  H   UNL     1      42.676  48.615  18.882 -0.17 -0.01    +0.158 HD ENDBRANCH  16  18ENDBRANCH   2  12BRANCH   6  21ATOM     21  C   UNL     1      33.599  42.796  18.672 -0.30 -0.03    +0.196 C  ATOM     22  O   UNL     1      33.672  42.812  19.901 -0.72 -0.03    -0.288 OA BRANCH  21  23ATOM     23  C   UNL     1      32.444  42.107  18.039 -0.31 -0.01    +0.064 A  ATOM     24  C   UNL     1      31.839  42.606  16.875 -0.30 -0.01    +0.019 A  ATOM     25  C   UNL     1      31.917  40.950  18.639 -0.30 -0.01    +0.129 A  ATOM     26  C   UNL     1      30.757  41.930  16.304 -0.28 -0.02    +0.040 A  ATOM     27  C   UNL     1      30.844  40.273  18.067 -0.30 -0.00    +0.086 A  ATOM     28  C   UNL     1      30.275  40.769  16.902 -0.28 -0.02    +0.126 A  ATOM     29  F   UNL     1      29.238  40.128  16.347 -0.12 -0.01    -0.207 F  BRANCH  25  30ATOM     30  O   UNL     1      32.413  40.426  19.805 -0.62 -0.16    -0.507 OA ATOM     31  H   UNL     1      32.995  41.107  20.216 +0.21 +0.11    +0.293 HD ENDBRANCH  25  30ENDBRANCH  21  23ENDBRANCH   6  21TORSDOF 6TERENDMDL