REMARK SMILES CCn1c(-c2ccncc2F)nc2cc(C(=O)c3ccc(F)cc3O)ccc21
REMARK SMILES IDX 16 1 17 2 15 3 3 4 4 5 28 6 12 7 27 8 13 9 26 10 14 11 2 12
REMARK SMILES IDX 1 13 5 14 6 15 10 16 7 17 9 18 8 19 11 20 18 21 19 22 24 23
REMARK SMILES IDX 20 24 23 25 21 26 22 27 25 28
REMARK H PARENT 25 29
ROOT
ATOM      1  C   UNL     1       3.236  -1.619   0.400  1.00  0.00     0.196 C 
ATOM      2  O   UNL     1       3.598  -2.796   0.381  1.00  0.00    -0.288 OA
ENDROOT
BRANCH   1   3
ATOM      3  C   UNL     1       1.795  -1.317   0.561  1.00  0.00     0.025 A 
ATOM      4  N   UNL     1      -2.196  -0.364   0.807  1.00  0.00    -0.324 N 
ATOM      5  C   UNL     1      -2.203   0.677  -0.105  1.00  0.00     0.144 A 
ATOM      6  C   UNL     1      -0.906  -0.850   0.897  1.00  0.00     0.068 A 
ATOM      7  N   UNL     1      -1.002   0.826  -0.635  1.00  0.00    -0.228 NA
ATOM      8  C   UNL     1      -0.317  -1.874   1.649  1.00  0.00     0.029 A 
ATOM      9  C   UNL     1      -0.191  -0.086  -0.017  1.00  0.00     0.090 A 
ATOM     10  C   UNL     1       1.052  -2.094   1.459  1.00  0.00     0.014 A 
ATOM     11  C   UNL     1       1.179  -0.319  -0.206  1.00  0.00     0.042 A 
BRANCH   4  12
ATOM     12  C   UNL     1      -3.340  -0.935   1.496  1.00  0.00     0.121 C 
ATOM     13  C   UNL     1      -4.015  -2.025   0.681  1.00  0.00     0.028 C 
ENDBRANCH   4  12
BRANCH   5  14
ATOM     14  C   UNL     1      -3.363   1.469  -0.504  1.00  0.00     0.056 A 
ATOM     15  C   UNL     1      -3.718   1.532  -1.855  1.00  0.00     0.035 A 
ATOM     16  C   UNL     1      -4.101   2.220   0.408  1.00  0.00     0.152 A 
ATOM     17  C   UNL     1      -4.808   2.305  -2.223  1.00  0.00     0.112 A 
ATOM     18  C   UNL     1      -5.174   2.964  -0.050  1.00  0.00     0.150 A 
ATOM     19  N   UNL     1      -5.554   3.015  -1.347  1.00  0.00    -0.262 NA
ATOM     20  F   UNL     1      -3.790   2.234   1.713  1.00  0.00    -0.204 F 
ENDBRANCH   5  14
ENDBRANCH   1   3
BRANCH   1  21
ATOM     21  C   UNL     1       4.266  -0.557   0.246  1.00  0.00     0.064 A 
ATOM     22  C   UNL     1       4.072   0.733   0.762  1.00  0.00     0.019 A 
ATOM     23  C   UNL     1       5.479  -0.861  -0.396  1.00  0.00     0.129 A 
ATOM     24  C   UNL     1       5.060   1.708   0.596  1.00  0.00     0.040 A 
ATOM     25  C   UNL     1       6.459   0.113  -0.568  1.00  0.00     0.086 A 
ATOM     26  C   UNL     1       6.239   1.391  -0.072  1.00  0.00     0.126 A 
ATOM     27  F   UNL     1       7.179   2.332  -0.227  1.00  0.00    -0.207 F 
BRANCH  23  28
ATOM     28  O   UNL     1       5.770  -2.108  -0.882  1.00  0.00    -0.507 OA
ATOM     29  H   UNL     1       5.087  -2.731  -0.542  1.00  0.00     0.293 HD
ENDBRANCH  23  28
ENDBRANCH   1  21
TORSDOF 5
