REMARK SMILES CCn1c(-c2ccnc(N)c2)nc2cc(C(=O)c3ccc(F)cc3O)ccc21
REMARK SMILES IDX 3 1 4 2 12 3 13 4 14 5 15 6 26 7 27 8 28 9 2 10 1 11 5 12
REMARK SMILES IDX 6 13 11 14 7 15 9 16 8 17 10 18 16 21 17 22 18 23 19 24
REMARK SMILES IDX 24 25 20 26 23 27 21 28 22 29 25 30
REMARK H PARENT 10 19 10 20 25 31
ROOT
ATOM      1  N   UNL     1      -1.840  -1.113   0.448  1.00  0.00    -0.324 N 
ATOM      2  C   UNL     1      -2.031   0.255   0.499  1.00  0.00     0.141 A 
ATOM      3  N   UNL     1      -0.873   0.877   0.600  1.00  0.00    -0.228 NA
ATOM      4  C   UNL     1       0.084  -0.100   0.644  1.00  0.00     0.090 A 
ATOM      5  C   UNL     1       1.475   0.033   0.765  1.00  0.00     0.042 A 
ATOM      6  C   UNL     1       2.257  -1.131   0.757  1.00  0.00     0.025 A 
ATOM      7  C   UNL     1       1.660  -2.396   0.672  1.00  0.00     0.014 A 
ATOM      8  C   UNL     1       0.273  -2.539   0.556  1.00  0.00     0.029 A 
ATOM      9  C   UNL     1      -0.487  -1.363   0.545  1.00  0.00     0.068 A 
ENDROOT
BRANCH   1  10
ATOM     10  C   UNL     1      -2.867  -2.125   0.283  1.00  0.00     0.121 C 
ATOM     11  C   UNL     1      -3.150  -2.427  -1.179  1.00  0.00     0.028 C 
ENDBRANCH   1  10
BRANCH   2  12
ATOM     12  C   UNL     1      -3.323   0.928   0.413  1.00  0.00     0.023 A 
ATOM     13  C   UNL     1      -4.220   0.896   1.477  1.00  0.00     0.032 A 
ATOM     14  C   UNL     1      -3.658   1.648  -0.734  1.00  0.00     0.058 A 
ATOM     15  C   UNL     1      -5.423   1.561   1.330  1.00  0.00     0.114 A 
ATOM     16  C   UNL     1      -4.892   2.273  -0.794  1.00  0.00     0.124 A 
ATOM     17  N   UNL     1      -5.779   2.233   0.214  1.00  0.00    -0.240 NA
BRANCH  16  18
ATOM     18  N   UNL     1      -5.261   3.013  -1.913  1.00  0.00    -0.384 N 
ATOM     19  H   UNL     1      -5.183   2.477  -2.768  1.00  0.00     0.158 HD
ATOM     20  H   UNL     1      -6.209   3.344  -1.753  1.00  0.00     0.158 HD
ENDBRANCH  16  18
ENDBRANCH   2  12
BRANCH   6  21
ATOM     21  C   UNL     1       3.730  -1.060   0.895  1.00  0.00     0.196 C 
ATOM     22  O   UNL     1       4.298  -1.883   1.614  1.00  0.00    -0.288 OA
BRANCH  21  23
ATOM     23  C   UNL     1       4.553  -0.029   0.210  1.00  0.00     0.064 A 
ATOM     24  C   UNL     1       4.129   0.576  -0.983  1.00  0.00     0.019 A 
ATOM     25  C   UNL     1       5.805   0.322   0.745  1.00  0.00     0.129 A 
ATOM     26  C   UNL     1       4.927   1.545  -1.598  1.00  0.00     0.040 A 
ATOM     27  C   UNL     1       6.596   1.292   0.136  1.00  0.00     0.086 A 
ATOM     28  C   UNL     1       6.148   1.897  -1.030  1.00  0.00     0.126 A 
ATOM     29  F   UNL     1       6.905   2.826  -1.627  1.00  0.00    -0.207 F 
BRANCH  25  30
ATOM     30  O   UNL     1       6.319  -0.258   1.876  1.00  0.00    -0.507 OA
ATOM     31  H   UNL     1       5.755  -1.035   2.097  1.00  0.00     0.293 HD
ENDBRANCH  25  30
ENDBRANCH  21  23
ENDBRANCH   6  21
TORSDOF 6
