MODEL        5USER    Run = 5USERUSER    Estimated Free Energy of Binding    =  -8.66 kcal/mol  [=(1)+(2)+(3)-(4)]USERUSER    (1) Final Intermolecular Energy     = -10.45 kcal/molUSER        vdW + Hbond + desolv Energy     = -10.19 kcal/molUSER        Electrostatic Energy            =  -0.25 kcal/molUSER        Moving Ligand-Fixed Receptor    = -10.45 kcal/molUSER        Moving Ligand-Moving Receptor   =  +0.00 kcal/molUSER    (2) Final Total Internal Energy     =  -1.23 kcal/molUSER    (3) Torsional Free Energy           =  +1.79 kcal/molUSER    (4) Unbound System's Energy         =  -1.23 kcal/molUSERUSERREMARK SMILES CCn1c(-c2ccncc2)nc2cc(C(=O)c3ccc(F)cc3OC(F)F)ccc21REMARK SMILES IDX 17 1 18 2 19 3 20 4 21 5 22 6 23 7 15 8 16 9 14 10 3 11 4 12REMARK SMILES IDX 30 13 11 14 29 15 12 16 28 17 13 18 2 19 1 20 5 21 6 22REMARK SMILES IDX 10 23 7 24 9 25 8 26 24 27 25 28 26 29 27 30REMARK H PARENTUSER                              x       y       z     vdW  Elec       q    TypeUSER                           _______ _______ _______ _____ _____    ______ ____ROOTATOM      1  C   UNL     1      32.417  42.362  18.067 -0.30 -0.01    +0.065 A  ATOM      2  C   UNL     1      32.440  40.964  18.206 -0.41 -0.00    +0.019 A  ATOM      3  C   UNL     1      31.400  40.196  17.690 -0.36 -0.01    +0.040 A  ATOM      4  C   UNL     1      30.355  40.827  17.028 -0.27 -0.02    +0.126 A  ATOM      5  F   UNL     1      29.355  40.091  16.528 -0.12 -0.02    -0.207 F  ATOM      6  C   UNL     1      30.329  42.211  16.861 -0.24 -0.03    +0.086 A  ATOM      7  C   UNL     1      31.365  42.999  17.377 -0.20 -0.04    +0.140 A  ENDROOTBRANCH   1   8ATOM      8  C   UNL     1      33.566  43.105  18.646 -0.29 -0.03    +0.196 C  ATOM      9  O   UNL     1      33.619  43.268  19.862 -0.78 -0.01    -0.288 OA BRANCH   8  10ATOM     10  C   UNL     1      34.621  43.693  17.783 -0.30 -0.01    +0.025 A  ATOM     11  N   UNL     1      37.675  45.527  15.742 -0.13 +0.12    -0.324 N  ATOM     12  C   UNL     1      38.170  46.296  16.780 -0.30 -0.05    +0.141 A  ATOM     13  C   UNL     1      36.602  44.801  16.217 -0.30 -0.03    +0.068 A  ATOM     14  N   UNL     1      37.442  46.120  17.867 -0.17 +0.08    -0.228 NA ATOM     15  C   UNL     1      35.738  43.873  15.624 -0.34 -0.01    +0.029 A  ATOM     16  C   UNL     1      36.486  45.195  17.544 -0.28 -0.03    +0.090 A  ATOM     17  C   UNL     1      34.739  43.323  16.436 -0.39 -0.01    +0.014 A  ATOM     18  C   UNL     1      35.476  44.648  18.348 -0.32 -0.01    +0.042 A  BRANCH  11  19ATOM     19  C   UNL     1      38.124  45.537  14.362 -0.37 -0.04    +0.121 C  ATOM     20  C   UNL     1      37.216  46.346  13.452 -0.54 -0.01    +0.028 C  ENDBRANCH  11  19BRANCH  12  21ATOM     21  C   UNL     1      39.302  47.216  16.694 -0.45 -0.01    +0.020 A  ATOM     22  C   UNL     1      39.308  48.211  15.717 -0.50 -0.01    +0.032 A  ATOM     23  C   UNL     1      40.365  47.148  17.595 -0.47 -0.00    +0.032 A  ATOM     24  C   UNL     1      40.393  49.068  15.657 -0.52 -0.03    +0.111 A  ATOM     25  C   UNL     1      41.403  48.052  17.455 -0.40 -0.01    +0.111 A  ATOM     26  N   UNL     1      41.449  49.000  16.495 -0.93 -0.01    -0.265 NA ENDBRANCH  12  21ENDBRANCH   8  10ENDBRANCH   1   8BRANCH   7  27ATOM     27  O   UNL     1      31.452  44.355  17.228 -0.27 +0.08    -0.434 OA BRANCH  27  28ATOM     28  C   UNL     1      31.705  44.872  15.934 -0.02 -0.26    +0.542 C  ATOM     29  F   UNL     1      31.968  43.822  15.118 -0.11 +0.09    -0.167 F  ATOM     30  F   UNL     1      30.581  45.462  15.462 -0.12 +0.07    -0.167 F  ENDBRANCH  27  28ENDBRANCH   7  27TORSDOF 6TERENDMDL