REMARK SMILES CCn1c(-c2ccncc2)nc2cc(C(=O)c3ccc(F)cc3OC(F)F)ccc21
REMARK SMILES IDX 17 1 18 2 19 3 20 4 21 5 22 6 23 7 15 8 16 9 14 10 3 11 4 12
REMARK SMILES IDX 30 13 11 14 29 15 12 16 28 17 13 18 2 19 1 20 5 21 6 22
REMARK SMILES IDX 10 23 7 24 9 25 8 26 24 27 25 28 26 29 27 30
REMARK H PARENT
ROOT
ATOM      1  C   UNL     1       3.852   0.138   1.984  1.00  0.00     0.065 A 
ATOM      2  C   UNL     1       4.743  -0.277   2.988  1.00  0.00     0.019 A 
ATOM      3  C   UNL     1       6.010  -0.741   2.646  1.00  0.00     0.040 A 
ATOM      4  C   UNL     1       6.382  -0.773   1.309  1.00  0.00     0.126 A 
ATOM      5  F   UNL     1       7.601  -1.217   0.977  1.00  0.00    -0.207 F 
ATOM      6  C   UNL     1       5.518  -0.343   0.302  1.00  0.00     0.086 A 
ATOM      7  C   UNL     1       4.239   0.123   0.628  1.00  0.00     0.140 A 
ENDROOT
BRANCH   1   8
ATOM      8  C   UNL     1       2.521   0.620   2.435  1.00  0.00     0.196 C 
ATOM      9  O   UNL     1       2.453   1.343   3.425  1.00  0.00    -0.288 OA
BRANCH   8  10
ATOM     10  C   UNL     1       1.274   0.208   1.744  1.00  0.00     0.025 A 
ATOM     11  N   UNL     1      -2.309  -0.529  -0.121  1.00  0.00    -0.324 N 
ATOM     12  C   UNL     1      -2.867   0.728   0.022  1.00  0.00     0.141 A 
ATOM     13  C   UNL     1      -1.056  -0.514   0.456  1.00  0.00     0.068 A 
ATOM     14  N   UNL     1      -2.048   1.518   0.691  1.00  0.00    -0.228 NA
ATOM     15  C   UNL     1      -0.057  -1.484   0.600  1.00  0.00     0.029 A 
ATOM     16  C   UNL     1      -0.926   0.778   0.952  1.00  0.00     0.090 A 
ATOM     17  C   UNL     1       1.117  -1.097   1.257  1.00  0.00     0.014 A 
ATOM     18  C   UNL     1       0.248   1.154   1.619  1.00  0.00     0.042 A 
BRANCH  11  19
ATOM     19  C   UNL     1      -2.947  -1.704  -0.687  1.00  0.00     0.121 C 
ATOM     20  C   UNL     1      -2.468  -2.016  -2.094  1.00  0.00     0.028 C 
ENDBRANCH  11  19
BRANCH  12  21
ATOM     21  C   UNL     1      -4.191   1.131  -0.446  1.00  0.00     0.020 A 
ATOM     22  C   UNL     1      -5.154   1.537   0.478  1.00  0.00     0.032 A 
ATOM     23  C   UNL     1      -4.505   1.158  -1.805  1.00  0.00     0.032 A 
ATOM     24  C   UNL     1      -6.400   1.912   0.008  1.00  0.00     0.111 A 
ATOM     25  C   UNL     1      -5.779   1.551  -2.176  1.00  0.00     0.111 A 
ATOM     26  N   UNL     1      -6.739   1.913  -1.299  1.00  0.00    -0.265 NA
ENDBRANCH  12  21
ENDBRANCH   8  10
ENDBRANCH   1   8
BRANCH   7  27
ATOM     27  O   UNL     1       3.338   0.605  -0.280  1.00  0.00    -0.434 OA
BRANCH  27  28
ATOM     28  C   UNL     1       3.649   0.492  -1.658  1.00  0.00     0.542 C 
ATOM     29  F   UNL     1       2.579   0.944  -2.357  1.00  0.00    -0.167 F 
ATOM     30  F   UNL     1       4.684   1.315  -1.951  1.00  0.00    -0.167 F 
ENDBRANCH  27  28
ENDBRANCH   7  27
TORSDOF 6
