
     RDKit          3D

 42 44  0  0  0  0  0  0  0  0999 V2000
    5.7864    0.7657    0.8322 C   0  0  0  0  0  0  0  0  0  0  0  0
    5.3000    0.3922   -0.5592 C   0  0  0  0  0  0  0  0  0  0  0  0
    5.1366   -1.1170   -0.7636 C   0  0  0  0  0  0  0  0  0  0  0  0
    4.0961   -1.7694    0.1439 C   0  0  0  0  0  0  0  0  0  0  0  0
    2.8311   -1.1261   -0.0576 O   0  0  0  0  0  0  0  0  0  0  0  0
    1.8215   -1.6335    0.6969 C   0  0  0  0  0  0  0  0  0  0  0  0
    1.9322   -2.5445    1.5039 O   0  0  0  0  0  0  0  0  0  0  0  0
    0.5521   -0.8856    0.4738 C   0  0  0  0  0  0  0  0  0  0  0  0
   -0.3912   -0.9516    1.5131 C   0  0  0  0  0  0  0  0  0  0  0  0
   -1.6207   -0.2993    1.4042 C   0  0  0  0  0  0  0  0  0  0  0  0
   -1.9480    0.4156    0.2467 C   0  0  0  0  0  0  0  0  0  0  0  0
   -3.2426    1.0856    0.1129 C   0  0  0  0  0  0  0  0  0  0  0  0
   -3.3557    2.4770   -0.0273 C   0  0  0  0  0  0  0  0  0  0  0  0
   -4.6138    3.0526   -0.1450 C   0  0  0  0  0  0  0  0  0  0  0  0
   -5.7883    2.3864   -0.1428 N   0  0  0  0  0  0  0  0  0  0  0  0
   -5.6347    1.0565   -0.0133 C   0  0  0  0  0  0  0  0  0  0  0  0
   -6.6714    0.1644    0.0106 N   0  0  0  0  0  0  0  0  0  0  0  0
   -6.1866   -1.1109    0.1426 C   0  0  0  0  0  0  0  0  0  0  0  0
   -4.8112   -1.0316    0.2059 C   0  0  0  0  0  0  0  0  0  0  0  0
   -4.4456    0.3445    0.1151 C   0  0  0  0  0  0  0  0  0  0  0  0
   -0.9996    0.4711   -0.7900 C   0  0  0  0  0  0  0  0  0  0  0  0
    0.2660   -0.1341   -0.6837 C   0  0  0  0  0  0  0  0  0  0  0  0
    1.0803   -0.1481   -1.8330 N   0  0  0  0  0  0  0  0  0  0  0  0
    5.0396    0.5266    1.5951 H   0  0  0  0  0  0  0  0  0  0  0  0
    6.7149    0.2411    1.0783 H   0  0  0  0  0  0  0  0  0  0  0  0
    5.9808    1.8418    0.8857 H   0  0  0  0  0  0  0  0  0  0  0  0
    4.3550    0.9079   -0.7648 H   0  0  0  0  0  0  0  0  0  0  0  0
    6.0247    0.7636   -1.2939 H   0  0  0  0  0  0  0  0  0  0  0  0
    4.8386   -1.2778   -1.8073 H   0  0  0  0  0  0  0  0  0  0  0  0
    6.1023   -1.6162   -0.6231 H   0  0  0  0  0  0  0  0  0  0  0  0
    4.3938   -1.6868    1.1950 H   0  0  0  0  0  0  0  0  0  0  0  0
    4.0084   -2.8306   -0.1174 H   0  0  0  0  0  0  0  0  0  0  0  0
   -0.1726   -1.5197    2.4161 H   0  0  0  0  0  0  0  0  0  0  0  0
   -2.3291   -0.3632    2.2286 H   0  0  0  0  0  0  0  0  0  0  0  0
   -2.4727    3.1081   -0.0336 H   0  0  0  0  0  0  0  0  0  0  0  0
   -4.7097    4.1312   -0.2485 H   0  0  0  0  0  0  0  0  0  0  0  0
   -7.6406    0.4351   -0.0665 H   0  0  0  0  0  0  0  0  0  0  0  0
   -6.8571   -1.9592    0.1753 H   0  0  0  0  0  0  0  0  0  0  0  0
   -4.1372   -1.8731    0.3030 H   0  0  0  0  0  0  0  0  0  0  0  0
   -1.2631    0.9852   -1.7134 H   0  0  0  0  0  0  0  0  0  0  0  0
    2.0597   -0.3370   -1.6133 H   0  0  0  0  0  0  0  0  0  0  0  0
    0.9714    0.6630   -2.4334 H   0  0  0  0  0  0  0  0  0  0  0  0
  1  2  1  0
  2  3  1  0
  3  4  1  0
  4  5  1  0
  5  6  1  0
  6  7  2  0
  6  8  1  0
  8  9  2  0
  9 10  1  0
 10 11  2  0
 11 12  1  0
 12 13  2  0
 13 14  1  0
 14 15  2  0
 15 16  1  0
 16 17  1  0
 17 18  1  0
 18 19  2  0
 19 20  1  0
 11 21  1  0
 21 22  2  0
 22 23  1  0
 22  8  1  0
 20 12  1  0
 20 16  2  0
  1 24  1  0
  1 25  1  0
  1 26  1  0
  2 27  1  0
  2 28  1  0
  3 29  1  0
  3 30  1  0
  4 31  1  0
  4 32  1  0
  9 33  1  0
 10 34  1  0
 13 35  1  0
 14 36  1  0
 17 37  1  0
 18 38  1  0
 19 39  1  0
 21 40  1  0
 23 41  1  0
 23 42  1  0
M  END
$$$$
