
     RDKit          3D

 32 34  0  0  0  0  0  0  0  0999 V2000
    0.6267   -2.4700   -1.8625 O   0  0  0  0  0  0  0  0  0  0  0  0
    1.4426   -1.8497   -1.2063 C   0  0  0  0  0  0  0  0  0  0  0  0
    2.7996   -2.1000   -1.0746 N   0  0  0  0  0  0  0  0  0  0  0  0
    3.4066   -1.1682   -0.2342 C   0  0  0  0  0  0  0  0  0  0  0  0
    4.7390   -1.1150    0.1189 C   0  0  0  0  0  0  0  0  0  0  0  0
    5.1291   -0.0871    0.9803 C   0  0  0  0  0  0  0  0  0  0  0  0
    4.1892    0.8419    1.4549 C   0  0  0  0  0  0  0  0  0  0  0  0
    4.6483    1.8170    2.2929 O   0  0  0  0  0  0  0  0  0  0  0  0
    2.8432    0.7790    1.0913 C   0  0  0  0  0  0  0  0  0  0  0  0
    2.4664   -0.2424    0.2379 C   0  0  0  0  0  0  0  0  0  0  0  0
    1.1903   -0.6360   -0.3568 C   0  0  0  0  0  0  0  0  0  0  0  0
   -0.0121   -0.0637   -0.2110 C   0  0  0  0  0  0  0  0  0  0  0  0
   -1.1890   -0.4688   -0.7910 N   0  0  0  0  0  0  0  0  0  0  0  0
   -2.4798    0.0747   -0.6876 C   0  0  0  0  0  0  0  0  0  0  0  0
   -2.7888    1.2030    0.0845 C   0  0  0  0  0  0  0  0  0  0  0  0
   -4.0955    1.7004    0.1497 C   0  0  0  0  0  0  0  0  0  0  0  0
   -5.1099    1.0724   -0.5590 C   0  0  0  0  0  0  0  0  0  0  0  0
   -6.3654    1.6011   -0.4583 O   0  0  0  0  0  0  0  0  0  0  0  0
   -4.8282   -0.0501   -1.3332 C   0  0  0  0  0  0  0  0  0  0  0  0
   -6.1974   -0.9233   -2.3089 Br  0  0  0  0  0  0  0  0  0  0  0  0
   -3.5232   -0.5448   -1.3967 C   0  0  0  0  0  0  0  0  0  0  0  0
    3.2629   -2.8658   -1.5390 H   0  0  0  0  0  0  0  0  0  0  0  0
    5.4601   -1.8346   -0.2504 H   0  0  0  0  0  0  0  0  0  0  0  0
    6.1685   -0.0015    1.2888 H   0  0  0  0  0  0  0  0  0  0  0  0
    3.9076    2.3912    2.5487 H   0  0  0  0  0  0  0  0  0  0  0  0
    2.1194    1.4960    1.4580 H   0  0  0  0  0  0  0  0  0  0  0  0
   -0.1029    0.8110    0.4226 H   0  0  0  0  0  0  0  0  0  0  0  0
   -1.0999   -1.2953   -1.3889 H   0  0  0  0  0  0  0  0  0  0  0  0
   -2.0242    1.7218    0.6527 H   0  0  0  0  0  0  0  0  0  0  0  0
   -4.3162    2.5762    0.7536 H   0  0  0  0  0  0  0  0  0  0  0  0
   -6.9547    1.0525   -1.0076 H   0  0  0  0  0  0  0  0  0  0  0  0
   -3.3123   -1.4220   -2.0039 H   0  0  0  0  0  0  0  0  0  0  0  0
  1  2  2  0
  2  3  1  0
  3  4  1  0
  4  5  2  0
  5  6  1  0
  6  7  2  0
  7  8  1  0
  7  9  1  0
  9 10  2  0
 10 11  1  0
 11 12  2  0
 12 13  1  0
 13 14  1  0
 14 15  2  0
 15 16  1  0
 16 17  2  0
 17 18  1  0
 17 19  1  0
 19 20  1  0
 19 21  2  0
 11  2  1  0
 21 14  1  0
 10  4  1  0
  3 22  1  0
  5 23  1  0
  6 24  1  0
  8 25  1  0
  9 26  1  0
 12 27  1  0
 13 28  1  0
 15 29  1  0
 16 30  1  0
 18 31  1  0
 21 32  1  0
M  END
$$$$
