
     RDKit          3D

 41 43  0  0  0  0  0  0  0  0999 V2000
   -0.3992   -1.9826    0.9421 N   0  0  0  0  0  0  0  0  0  0  0  0
    0.0244   -0.7204    0.5276 C   0  0  0  0  0  0  0  0  0  0  0  0
    1.1100   -0.1766    1.1190 C   0  0  0  0  0  0  0  0  0  0  0  0
    1.7589    1.1650    0.9026 C   0  0  0  0  0  0  0  0  0  0  0  0
    3.2160    1.0492    0.5229 C   0  0  0  0  0  0  0  0  0  0  0  0
    4.1717    0.9091    1.5392 C   0  0  0  0  0  0  0  0  0  0  0  0
    3.7802    0.8989    2.8222 F   0  0  0  0  0  0  0  0  0  0  0  0
    5.5308    0.7763    1.2642 C   0  0  0  0  0  0  0  0  0  0  0  0
    5.9689    0.7767   -0.0553 C   0  0  0  0  0  0  0  0  0  0  0  0
    5.0402    0.9099   -1.0871 C   0  0  0  0  0  0  0  0  0  0  0  0
    3.6743    1.0432   -0.8021 C   0  0  0  0  0  0  0  0  0  0  0  0
    2.6016    1.2109   -2.1450 Cl  0  0  0  0  0  0  0  0  0  0  0  0
   -0.7920   -0.0282   -0.5907 C   0  0  0  0  0  0  0  0  0  0  0  0
   -0.7389   -0.7762   -1.8887 C   0  0  0  0  0  0  0  0  0  0  0  0
   -1.5085   -1.7897   -2.2918 C   0  0  0  0  0  0  0  0  0  0  0  0
   -2.5620   -2.4605   -1.5145 C   0  0  0  0  0  0  0  0  0  0  0  0
   -2.8220   -3.6378   -1.7974 O   0  0  0  0  0  0  0  0  0  0  0  0
   -3.3167   -1.7911   -0.5799 N   0  0  0  0  0  0  0  0  0  0  0  0
   -4.3930   -2.5952   -0.0899 O   0  0  0  0  0  0  0  0  0  0  0  0
   -3.3035   -0.4608   -0.0974 C   0  0  0  0  0  0  0  0  0  0  0  0
   -4.4908    0.0329    0.4889 C   0  0  0  0  0  0  0  0  0  0  0  0
   -4.5916    1.3325    0.9877 C   0  0  0  0  0  0  0  0  0  0  0  0
   -3.4952    2.1737    0.9273 C   0  0  0  0  0  0  0  0  0  0  0  0
   -2.3046    1.7035    0.3797 C   0  0  0  0  0  0  0  0  0  0  0  0
   -2.1831    0.3876   -0.1381 C   0  0  0  0  0  0  0  0  0  0  0  0
   -1.4133   -2.0849    0.9409 H   0  0  0  0  0  0  0  0  0  0  0  0
   -0.0141   -2.2733    1.8375 H   0  0  0  0  0  0  0  0  0  0  0  0
    1.6032   -0.7622    1.8957 H   0  0  0  0  0  0  0  0  0  0  0  0
    1.2280    1.7927    0.1840 H   0  0  0  0  0  0  0  0  0  0  0  0
    1.6852    1.7265    1.8440 H   0  0  0  0  0  0  0  0  0  0  0  0
    6.2354    0.6704    2.0836 H   0  0  0  0  0  0  0  0  0  0  0  0
    7.0269    0.6716   -0.2816 H   0  0  0  0  0  0  0  0  0  0  0  0
    5.3868    0.9077   -2.1185 H   0  0  0  0  0  0  0  0  0  0  0  0
   -0.2910    0.9117   -0.8503 H   0  0  0  0  0  0  0  0  0  0  0  0
    0.0498   -0.4589   -2.5686 H   0  0  0  0  0  0  0  0  0  0  0  0
   -1.3040   -2.2657   -3.2466 H   0  0  0  0  0  0  0  0  0  0  0  0
   -4.2590   -3.4285   -0.5928 H   0  0  0  0  0  0  0  0  0  0  0  0
   -5.3782   -0.5952    0.5463 H   0  0  0  0  0  0  0  0  0  0  0  0
   -5.5269    1.6773    1.4203 H   0  0  0  0  0  0  0  0  0  0  0  0
   -3.5578    3.1861    1.3170 H   0  0  0  0  0  0  0  0  0  0  0  0
   -1.4465    2.3745    0.3743 H   0  0  0  0  0  0  0  0  0  0  0  0
  1  2  1  0
  2  3  2  3
  3  4  1  0
  4  5  1  0
  5  6  2  0
  6  7  1  0
  6  8  1  0
  8  9  2  0
  9 10  1  0
 10 11  2  0
 11 12  1  0
  2 13  1  0
 13 14  1  0
 14 15  2  0
 15 16  1  0
 16 17  2  0
 16 18  1  0
 18 19  1  0
 18 20  1  0
 20 21  2  0
 21 22  1  0
 22 23  2  0
 23 24  1  0
 24 25  2  0
 11  5  1  0
 25 13  1  0
 25 20  1  0
  1 26  1  0
  1 27  1  0
  3 28  1  0
  4 29  1  0
  4 30  1  0
  8 31  1  0
  9 32  1  0
 10 33  1  0
 13 34  1  0
 14 35  1  0
 15 36  1  0
 19 37  1  0
 21 38  1  0
 22 39  1  0
 23 40  1  0
 24 41  1  0
M  END
$$$$
