
     RDKit          3D

 52 55  0  0  0  0  0  0  0  0999 V2000
    4.1904   -2.2433   -0.4348 N   0  0  0  0  0  0  0  0  0  0  0  0
    2.9774   -1.4896   -0.1610 C   0  0  0  0  0  0  0  0  0  0  0  0
    2.6684   -1.3101    1.3621 C   0  0  0  0  0  0  0  0  0  0  0  0
    1.3963   -0.5833    1.5462 N   0  0  0  0  0  0  0  0  0  0  0  0
    0.2549   -1.3577    1.3392 C   0  0  0  0  0  0  0  0  0  0  0  0
    0.3209   -2.6821    1.5488 N   0  0  0  0  0  0  0  0  0  0  0  0
   -0.8042   -3.4057    1.3674 C   0  0  0  0  0  0  0  0  0  0  0  0
   -2.0089   -2.8720    0.9803 C   0  0  0  0  0  0  0  0  0  0  0  0
   -3.3602   -3.9020    0.7332 Cl  0  0  0  0  0  0  0  0  0  0  0  0
   -2.0051   -1.5048    0.7825 C   0  0  0  0  0  0  0  0  0  0  0  0
   -3.1764   -0.7205    0.3560 C   0  0  0  0  0  0  0  0  0  0  0  0
   -4.3663   -0.7048    1.0982 C   0  0  0  0  0  0  0  0  0  0  0  0
   -5.4667    0.0502    0.6796 C   0  0  0  0  0  0  0  0  0  0  0  0
   -5.4046    0.8205   -0.4900 C   0  0  0  0  0  0  0  0  0  0  0  0
   -6.5005    1.5838   -0.9244 C   0  0  0  0  0  0  0  0  0  0  0  0
   -6.4193    2.3496   -2.0885 C   0  0  0  0  0  0  0  0  0  0  0  0
   -5.2425    2.3628   -2.8313 C   0  0  0  0  0  0  0  0  0  0  0  0
   -4.1448    1.6094   -2.4120 C   0  0  0  0  0  0  0  0  0  0  0  0
   -4.2110    0.8322   -1.2441 C   0  0  0  0  0  0  0  0  0  0  0  0
   -3.1151    0.0667   -0.8084 C   0  0  0  0  0  0  0  0  0  0  0  0
   -0.8821   -0.7588    0.9525 N   0  0  0  0  0  0  0  0  0  0  0  0
    1.3907    0.7240    0.8655 C   0  0  0  0  0  0  0  0  0  0  0  0
    1.8113    0.5990   -0.6216 C   0  0  0  0  0  0  0  0  0  0  0  0
    2.9910   -0.2419   -0.9233 N   0  0  0  0  0  0  0  0  0  0  0  0
    4.2403    0.4930   -1.1215 C   0  0  0  0  0  0  0  0  0  0  0  0
    5.2232    0.7838    0.0236 C   0  0  0  0  0  0  0  0  0  0  0  0
    4.8284    1.8613    1.0197 C   0  0  0  0  0  0  0  0  0  0  0  0
    4.3064    3.0131    0.3755 O   0  0  0  0  0  0  0  0  0  0  0  0
    4.2443   -2.3434   -1.4468 H   0  0  0  0  0  0  0  0  0  0  0  0
    4.0746   -3.1852   -0.0658 H   0  0  0  0  0  0  0  0  0  0  0  0
    2.1599   -2.0904   -0.5815 H   0  0  0  0  0  0  0  0  0  0  0  0
    3.4691   -0.7347    1.8403 H   0  0  0  0  0  0  0  0  0  0  0  0
    2.6693   -2.2792    1.8770 H   0  0  0  0  0  0  0  0  0  0  0  0
   -0.6911   -4.4709    1.5476 H   0  0  0  0  0  0  0  0  0  0  0  0
   -4.4473   -1.2754    2.0214 H   0  0  0  0  0  0  0  0  0  0  0  0
   -6.3732    0.0351    1.2807 H   0  0  0  0  0  0  0  0  0  0  0  0
   -7.4277    1.5880   -0.3559 H   0  0  0  0  0  0  0  0  0  0  0  0
   -7.2746    2.9364   -2.4131 H   0  0  0  0  0  0  0  0  0  0  0  0
   -5.1770    2.9598   -3.7370 H   0  0  0  0  0  0  0  0  0  0  0  0
   -3.2333    1.6335   -3.0052 H   0  0  0  0  0  0  0  0  0  0  0  0
   -2.1900    0.0813   -1.3838 H   0  0  0  0  0  0  0  0  0  0  0  0
    0.4236    1.2362    0.9427 H   0  0  0  0  0  0  0  0  0  0  0  0
    2.0859    1.3822    1.3887 H   0  0  0  0  0  0  0  0  0  0  0  0
    1.9200    1.6032   -1.0489 H   0  0  0  0  0  0  0  0  0  0  0  0
    0.9686    0.1528   -1.1668 H   0  0  0  0  0  0  0  0  0  0  0  0
    4.8110   -0.0819   -1.8648 H   0  0  0  0  0  0  0  0  0  0  0  0
    4.0321    1.4293   -1.6562 H   0  0  0  0  0  0  0  0  0  0  0  0
    5.4934   -0.1292    0.5633 H   0  0  0  0  0  0  0  0  0  0  0  0
    6.1521    1.1224   -0.4566 H   0  0  0  0  0  0  0  0  0  0  0  0
    5.7015    2.1653    1.6079 H   0  0  0  0  0  0  0  0  0  0  0  0
    4.0930    1.4934    1.7337 H   0  0  0  0  0  0  0  0  0  0  0  0
    5.0243    3.3986   -0.1559 H   0  0  0  0  0  0  0  0  0  0  0  0
  1  2  1  0
  2  3  1  0
  3  4  1  0
  4  5  1  0
  5  6  2  0
  6  7  1  0
  7  8  2  0
  8  9  1  0
  8 10  1  0
 10 11  1  0
 11 12  2  0
 12 13  1  0
 13 14  2  0
 14 15  1  0
 15 16  2  0
 16 17  1  0
 17 18  2  0
 18 19  1  0
 19 20  2  0
 10 21  2  0
  4 22  1  0
 22 23  1  0
 23 24  1  0
 24 25  1  0
 25 26  1  0
 26 27  1  0
 27 28  1  0
 24  2  1  0
 21  5  1  0
 20 11  1  0
 19 14  1  0
  1 29  1  0
  1 30  1  0
  2 31  1  0
  3 32  1  0
  3 33  1  0
  7 34  1  0
 12 35  1  0
 13 36  1  0
 15 37  1  0
 16 38  1  0
 17 39  1  0
 18 40  1  0
 20 41  1  0
 22 42  1  0
 22 43  1  0
 23 44  1  0
 23 45  1  0
 25 46  1  0
 25 47  1  0
 26 48  1  0
 26 49  1  0
 27 50  1  0
 27 51  1  0
 28 52  1  0
M  END
$$$$
