
     RDKit          3D

 44 47  0  0  0  0  0  0  0  0999 V2000
    4.5735    0.8146    0.8990 C   0  0  0  0  0  0  0  0  0  0  0  0
    4.1475    0.2407   -0.4439 C   0  0  0  0  0  0  0  0  0  0  0  0
    2.6405    0.0889   -0.5405 C   0  0  0  0  0  0  0  0  0  0  0  0
    1.8066    1.1683   -1.0151 C   0  0  0  0  0  0  0  0  0  0  0  0
    2.3049    2.4168   -1.4305 C   0  0  0  0  0  0  0  0  0  0  0  0
    1.4393    3.3793   -1.9109 C   0  0  0  0  0  0  0  0  0  0  0  0
    0.1191    3.1732   -2.0026 N   0  0  0  0  0  0  0  0  0  0  0  0
   -0.3924    1.9770   -1.5952 N   0  0  0  0  0  0  0  0  0  0  0  0
    0.3966    1.0095   -1.0963 C   0  0  0  0  0  0  0  0  0  0  0  0
   -0.1614   -0.1729   -0.6621 C   0  0  0  0  0  0  0  0  0  0  0  0
    0.6504   -1.1952   -0.2708 C   0  0  0  0  0  0  0  0  0  0  0  0
   -0.1261   -2.2903   -0.0240 C   0  0  0  0  0  0  0  0  0  0  0  0
    0.4626   -3.4564    0.4251 C   0  0  0  0  0  0  0  0  0  0  0  0
    1.8516   -3.4792    0.6009 C   0  0  0  0  0  0  0  0  0  0  0  0
    2.6346   -2.3429    0.3131 C   0  0  0  0  0  0  0  0  0  0  0  0
    2.0385   -1.1453   -0.1585 C   0  0  0  0  0  0  0  0  0  0  0  0
   -1.5175   -2.0914   -0.2564 N   0  0  0  0  0  0  0  0  0  0  0  0
   -1.6048   -0.6171   -0.6217 C   0  0  0  0  0  0  0  0  0  0  0  0
   -2.6069    0.0628    0.4067 C   0  0  2  0  0  0  0  0  0  0  0  0
   -2.4761    1.5839    0.5119 C   0  0  0  0  0  0  0  0  0  0  0  0
   -2.3603   -0.4921    1.7214 O   0  0  0  0  0  0  0  0  0  0  0  0
   -4.0540   -0.3358   -0.0018 C   0  0  0  0  0  0  0  0  0  0  0  0
   -5.1620    0.1492    0.9278 C   0  0  0  0  0  0  0  0  0  0  0  0
    5.6632    0.9096    0.9404 H   0  0  0  0  0  0  0  0  0  0  0  0
    4.2588    0.1684    1.7253 H   0  0  0  0  0  0  0  0  0  0  0  0
    4.1410    1.8065    1.0663 H   0  0  0  0  0  0  0  0  0  0  0  0
    4.5263    0.8654   -1.2597 H   0  0  0  0  0  0  0  0  0  0  0  0
    4.6410   -0.7242   -0.6040 H   0  0  0  0  0  0  0  0  0  0  0  0
    3.3607    2.6575   -1.3911 H   0  0  0  0  0  0  0  0  0  0  0  0
    1.7877    4.3502   -2.2431 H   0  0  0  0  0  0  0  0  0  0  0  0
   -0.1374   -4.3363    0.6303 H   0  0  0  0  0  0  0  0  0  0  0  0
    2.3325   -4.3881    0.9546 H   0  0  0  0  0  0  0  0  0  0  0  0
    3.7092   -2.4106    0.4567 H   0  0  0  0  0  0  0  0  0  0  0  0
   -1.9725   -2.2164    0.6560 H   0  0  0  0  0  0  0  0  0  0  0  0
   -2.0056   -0.5451   -1.6412 H   0  0  0  0  0  0  0  0  0  0  0  0
   -2.7015    2.0754   -0.4386 H   0  0  0  0  0  0  0  0  0  0  0  0
   -1.4783    1.8740    0.8553 H   0  0  0  0  0  0  0  0  0  0  0  0
   -3.1537    1.9939    1.2689 H   0  0  0  0  0  0  0  0  0  0  0  0
   -2.8072    0.0706    2.3767 H   0  0  0  0  0  0  0  0  0  0  0  0
   -4.2636    0.0320   -1.0139 H   0  0  0  0  0  0  0  0  0  0  0  0
   -4.1318   -1.4297   -0.0376 H   0  0  0  0  0  0  0  0  0  0  0  0
   -6.1265   -0.2447    0.5897 H   0  0  0  0  0  0  0  0  0  0  0  0
   -5.2399    1.2398    0.9293 H   0  0  0  0  0  0  0  0  0  0  0  0
   -5.0067   -0.1939    1.9547 H   0  0  0  0  0  0  0  0  0  0  0  0
  1  2  1  0
  2  3  1  0
  3  4  2  0
  4  5  1  0
  5  6  2  0
  6  7  1  0
  7  8  2  0
  8  9  1  0
  9 10  2  0
 10 11  1  0
 11 12  2  0
 12 13  1  0
 13 14  2  0
 14 15  1  0
 15 16  2  0
 12 17  1  0
 17 18  1  0
 18 19  1  0
 19 20  1  0
 19 21  1  1
 19 22  1  0
 22 23  1  0
 16  3  1  0
  9  4  1  0
 18 10  1  0
 16 11  1  0
  1 24  1  0
  1 25  1  0
  1 26  1  0
  2 27  1  0
  2 28  1  0
  5 29  1  0
  6 30  1  0
 13 31  1  0
 14 32  1  0
 15 33  1  0
 17 34  1  0
 18 35  1  0
 20 36  1  0
 20 37  1  0
 20 38  1  0
 21 39  1  0
 22 40  1  0
 22 41  1  0
 23 42  1  0
 23 43  1  0
 23 44  1  0
M  END
$$$$
