MODEL        2USER    Run = 2USERUSER    Estimated Free Energy of Binding    =  -8.78 kcal/mol  [=(1)+(2)+(3)-(4)]USERUSER    (1) Final Intermolecular Energy     = -11.17 kcal/molUSER        vdW + Hbond + desolv Energy     = -11.07 kcal/molUSER        Electrostatic Energy            =  -0.10 kcal/molUSER        Moving Ligand-Fixed Receptor    = -11.17 kcal/molUSER        Moving Ligand-Moving Receptor   =  +0.00 kcal/molUSER    (2) Final Total Internal Energy     =  -4.57 kcal/molUSER    (3) Torsional Free Energy           =  +2.39 kcal/molUSER    (4) Unbound System's Energy         =  -4.57 kcal/molUSERUSERREMARK SMILES C[C@H](NC(=O)[C@@H]1NC(=O)c2cc(-c3ccc(O)cc3)ccc21)[C@H]1CC[C@]1(C)CNS(C)(=O)=OREMARK SMILES IDX 1 1 2 2 3 3 4 4 5 6 6 7 7 8 22 9 8 10 21 11 10 12 20 13REMARK SMILES IDX 11 14 12 15 9 17 13 18 14 19 19 20 15 21 18 22 16 23 17 24REMARK SMILES IDX 23 26 24 27 26 28 25 29 27 30 28 31 29 32 30 34 31 35 32 36REMARK SMILES IDX 33 37REMARK H PARENT 3 5 7 16 17 25 29 33USER                              x       y       z     vdW  Elec       q    TypeUSER                           _______ _______ _______ _____ _____    ______ ____ROOTATOM      1  C   UNL     1      39.069  46.809  23.695 -0.36 +0.00    +0.031 C  ATOM      2  C   UNL     1      40.471  47.380  23.554 -0.25 +0.01    +0.082 C  ENDROOTBRANCH   2   3ATOM      3  N   UNL     1      41.063  46.998  22.283 +0.05 -0.04    -0.351 N  ATOM      4  C   UNL     1      40.715  45.819  21.647 -0.19 +0.02    +0.247 C  ATOM      5  H   UNL     1      41.761  47.606  21.861 +0.08 +0.02    +0.163 HD ATOM      6  O   UNL     1      39.869  45.051  22.103 -0.16 -0.01    -0.272 OA BRANCH   4   7ATOM      7  C   UNL     1      41.479  45.544  20.333 -0.30 +0.03    +0.203 C  ATOM      8  N   UNL     1      42.506  46.555  20.118 -0.22 -0.08    -0.336 N  ATOM      9  C   UNL     1      40.613  45.717  19.118 -0.45 -0.00    -0.003 A  ATOM     10  C   UNL     1      42.223  47.378  19.052 -0.38 +0.01    +0.252 C  ATOM     11  C   UNL     1      39.519  44.993  18.683 -0.42 -0.00    +0.008 A  ATOM     12  C   UNL     1      41.058  46.808  18.372 -0.48 -0.00    +0.046 A  ATOM     13  C   UNL     1      38.885  45.394  17.498 -0.38 -0.00    +0.009 A  ATOM     14  C   UNL     1      40.446  47.226  17.204 -0.50 -0.00    +0.023 A  ATOM     15  C   UNL     1      39.331  46.509  16.744 -0.43 +0.00    -0.018 A  ATOM     16  H   UNL     1      43.075  46.920  20.872 +0.06 +0.05    +0.165 HD ATOM     17  O   UNL     1      42.806  48.394  18.731 -0.43 +0.00    -0.269 OA BRANCH  15  18ATOM     18  C   UNL     1      38.639  46.905  15.506 -0.42 +0.01    -0.018 A  ATOM     19  C   UNL     1      38.296  45.953  14.530 -0.40 -0.00    +0.012 A  ATOM     20  C   UNL     1      38.299  48.249  15.264 -0.51 -0.01    +0.012 A  ATOM     21  C   UNL     1      37.638  46.329  13.356 -0.43 -0.02    +0.047 A  ATOM     22  C   UNL     1      37.641  48.629  14.090 -0.46 -0.03    +0.047 A  ATOM     23  C   UNL     1      37.316  47.662  13.146 -0.47 -0.04    +0.115 A  BRANCH  23  24ATOM     24  O   UNL     1      36.676  47.987  11.987 -0.81 +0.17    -0.508 OA ATOM     25  H   UNL     1      37.276  47.817  11.245 -0.06 -0.05    +0.293 HD ENDBRANCH  23  24ENDBRANCH  15  18ENDBRANCH   4   7ENDBRANCH   2   3BRANCH   2  26ATOM     26  C   UNL     1      41.467  46.956  24.634 -0.19 +0.00    +0.018 C  ATOM     27  C   UNL     1      40.956  46.718  26.080 -0.15 +0.00    +0.007 C  ATOM     28  C   UNL     1      42.205  45.555  24.749 -0.09 -0.00    -0.014 C  ATOM     29  C   UNL     1      42.178  45.800  26.295 -0.08 +0.00    +0.009 C  ATOM     30  C   UNL     1      41.463  44.265  24.390 -0.14 +0.00    +0.013 C  BRANCH  28  31ATOM     31  C   UNL     1      43.634  45.570  24.181 -0.07 +0.02    +0.105 C  BRANCH  31  32ATOM     32  N   UNL     1      43.650  46.065  22.791 -0.11 -0.07    -0.215 NA ATOM     33  H   UNL     1      43.926  45.376  22.087 +0.05 +0.07    +0.140 HD BRANCH  32  34ATOM     34  S   UNL     1      44.320  47.576  22.481 -0.33 +0.07    +0.208 S  ATOM     35  C   UNL     1      45.337  47.877  23.914 -0.16 +0.05    +0.176 C  ATOM     36  O   UNL     1      45.174  47.372  21.334 -0.82 -0.24    -0.213 OA ATOM     37  O   UNL     1      43.228  48.520  22.450 -0.67 -0.04    -0.213 OA ENDBRANCH  32  34ENDBRANCH  31  32ENDBRANCH  28  31ENDBRANCH   2  26TORSDOF 8TERENDMDL