MODEL        8USER    Run = 8USERUSER    Estimated Free Energy of Binding    = -13.20 kcal/mol  [=(1)+(2)+(3)-(4)]USERUSER    (1) Final Intermolecular Energy     = -14.99 kcal/molUSER        vdW + Hbond + desolv Energy     = -14.83 kcal/molUSER        Electrostatic Energy            =  -0.16 kcal/molUSER        Moving Ligand-Fixed Receptor    = -14.99 kcal/molUSER        Moving Ligand-Moving Receptor   =  +0.00 kcal/molUSER    (2) Final Total Internal Energy     =  -2.60 kcal/molUSER    (3) Torsional Free Energy           =  +1.79 kcal/molUSER    (4) Unbound System's Energy         =  -2.60 kcal/molUSERUSERREMARK SMILES Oc1nc2ccccc2n1C1CCN(Cc2ccc(-c3nc4cc(F)ccc4nc3-c3ccc(F)cc3)cc2)CC1REMARK SMILES IDX 15 1 14 2 11 3 12 4 41 5 13 6 40 7 10 8 2 9 3 10 4 11 9 12REMARK SMILES IDX 5 13 8 14 6 15 7 16 1 17 16 19 17 20 39 21 18 22 38 23 19 24REMARK SMILES IDX 20 25 21 26 30 27 22 28 29 29 23 30 28 31 24 32 27 33 26 34REMARK SMILES IDX 25 35 31 36 32 37 37 38 33 39 36 40 34 41 35 42REMARK H PARENT 1 18USER                              x       y       z     vdW  Elec       q    TypeUSER                           _______ _______ _______ _____ _____    ______ ____ROOTATOM      1  C   UNL     1      35.818  46.249  13.511 -0.48 -0.07    +0.120 C  ENDROOTBRANCH   1   2ATOM      2  N   UNL     1      36.683  47.406  13.228 -0.41 +0.14    -0.299 NA ATOM      3  C   UNL     1      38.590  47.572  15.388 -0.47 -0.04    +0.095 C  ATOM      4  C   UNL     1      37.869  48.847  14.934 -0.53 -0.03    +0.041 C  ATOM      5  C   UNL     1      38.840  46.603  14.220 -0.47 -0.01    +0.041 C  ATOM      6  C   UNL     1      36.559  48.476  14.233 -0.27 -0.07    +0.087 C  ATOM      7  C   UNL     1      38.069  47.012  12.964 -0.36 -0.02    +0.087 C  BRANCH   3   8ATOM      8  N   UNL     1      39.790  47.850  16.162 -0.29 +0.09    -0.291 N  ATOM      9  C   UNL     1      40.659  48.891  15.971 -0.34 -0.06    +0.295 A  ATOM     10  N   UNL     1      41.646  48.904  16.824 -0.90 -0.02    -0.195 NA ATOM     11  C   UNL     1      41.426  47.803  17.618 -0.44 -0.01    +0.092 A  ATOM     12  C   UNL     1      40.271  47.118  17.228 -0.45 -0.01    +0.072 A  ATOM     13  C   UNL     1      42.183  47.322  18.698 -0.53 +0.00    +0.031 A  ATOM     14  C   UNL     1      39.834  45.955  17.877 -0.44 -0.00    +0.029 A  ATOM     15  C   UNL     1      41.759  46.162  19.359 -0.46 +0.00    +0.002 A  ATOM     16  C   UNL     1      40.604  45.493  18.953 -0.46 +0.00    +0.002 A  BRANCH   9  17ATOM     17  O   UNL     1      40.551  49.797  15.020 -0.22 +0.20    -0.480 OA ATOM     18  H   UNL     1      39.828  50.353  15.365 -0.21 -0.23    +0.296 HD ENDBRANCH   9  17ENDBRANCH   3   8ENDBRANCH   1   2BRANCH   1  19ATOM     19  C   UNL     1      35.990  45.713  14.918 -0.36 +0.02    -0.034 A  ATOM     20  C   UNL     1      35.418  46.382  16.008 -0.27 -0.01    +0.006 A  ATOM     21  C   UNL     1      36.716  44.540  15.154 -0.37 -0.00    +0.006 A  ATOM     22  C   UNL     1      35.572  45.892  17.308 -0.36 -0.01    +0.011 A  ATOM     23  C   UNL     1      36.870  44.054  16.457 -0.35 -0.00    +0.011 A  ATOM     24  C   UNL     1      36.290  44.712  17.555 -0.32 -0.00    +0.002 A  BRANCH  24  25ATOM     25  C   UNL     1      36.457  44.178  18.916 -0.29 -0.02    +0.097 A  ATOM     26  N   UNL     1      37.629  44.540  19.512 -0.21 +0.02    -0.244 NA ATOM     27  C   UNL     1      35.516  43.382  19.591 -0.34 -0.01    +0.097 A  ATOM     28  C   UNL     1      37.836  44.136  20.776 -0.31 -0.00    +0.092 A  ATOM     29  N   UNL     1      35.727  42.982  20.877 -0.27 -0.01    -0.244 NA ATOM     30  C   UNL     1      39.009  44.496  21.421 -0.29 +0.00    +0.069 A  ATOM     31  C   UNL     1      36.878  43.353  21.464 -0.36 +0.00    +0.090 A  ATOM     32  C   UNL     1      39.246  44.092  22.729 -0.19 +0.01    +0.125 A  ATOM     33  C   UNL     1      37.135  42.959  22.772 -0.39 +0.00    +0.033 A  ATOM     34  C   UNL     1      38.317  43.324  23.413 -0.28 +0.00    +0.041 A  ATOM     35  F   UNL     1      40.382  44.450  23.336 -0.01 -0.01    -0.207 F  BRANCH  27  36ATOM     36  C   UNL     1      34.252  42.888  19.013 -0.40 -0.00    +0.003 A  ATOM     37  C   UNL     1      33.022  43.535  19.245 -0.41 -0.00    +0.013 A  ATOM     38  C   UNL     1      34.249  41.752  18.180 -0.39 -0.00    +0.013 A  ATOM     39  C   UNL     1      31.834  43.047  18.693 -0.30 -0.00    +0.040 A  ATOM     40  C   UNL     1      33.063  41.264  17.625 -0.35 -0.01    +0.040 A  ATOM     41  C   UNL     1      31.865  41.914  17.890 -0.25 -0.03    +0.123 A  ATOM     42  F   UNL     1      30.728  41.448  17.361 -0.05 +0.05    -0.207 F  ENDBRANCH  27  36ENDBRANCH  24  25ENDBRANCH   1  19TORSDOF 6TERENDMDL