MODEL        6USER    Run = 6USERUSER    Estimated Free Energy of Binding    =  -6.96 kcal/mol  [=(1)+(2)+(3)-(4)]USERUSER    (1) Final Intermolecular Energy     = -10.24 kcal/molUSER        vdW + Hbond + desolv Energy     = -10.49 kcal/molUSER        Electrostatic Energy            =  -0.13 kcal/molUSER        Moving Ligand-Fixed Receptor    = -10.62 kcal/molUSER        Moving Ligand-Moving Receptor   =  +0.38 kcal/molUSER    (2) Final Total Internal Energy     =  -1.36 kcal/molUSER    (3) Torsional Free Energy           =  +3.28 kcal/molUSER    (4) Unbound System's Energy         =  -1.36 kcal/molUSERUSERREMARK SMILES CCN1CC[C@@H](NC(=O)C2=CC(c3ccc(F)cc3)=CC=CN=C2)C[C@@H]1CREMARK SMILES IDX 10 1 8 2 7 3 9 5 6 6 3 7 4 8 26 9 5 10 25 11 27 12 2 13 1 14REMARK SMILES IDX 11 15 12 16 13 17 14 18 19 19 15 20 18 21 16 22 17 23 20 24REMARK SMILES IDX 24 26 23 27 22 28 21 29REMARK H PARENT 7 4REMARK Flexibility Score:   44.900USER                              x       y       z     vdW  Elec       q    TypeUSER                           _______ _______ _______ _____ _____    ______ ____ROOTATOM      1  C   UNL     1      37.642  45.701  14.742 -0.41 -0.02    +0.058 C  ENDROOTBRANCH   1   2ATOM      2  C   UNL     1      36.320  45.020  14.814 -0.25 -0.11    +0.253 C  ATOM      3  N   UNL     1      36.135  44.227  15.925 -0.14 +0.14    -0.349 N  ATOM      4  H   UNL     1      36.889  44.119  16.589 +0.11 -0.05    +0.164 HD ATOM      5  O   UNL     1      35.464  45.203  13.957 -0.14 +0.14    -0.269 OA BRANCH   3   6ATOM      6  C   UNL     1      34.960  43.373  16.088 -0.40 -0.04    +0.085 C  ATOM      7  N   UNL     1      33.659  44.381  18.522 -0.15 +0.09    -0.301 NA ATOM      8  C   UNL     1      32.862  44.144  17.314 -0.31 -0.03    +0.087 C  ATOM      9  C   UNL     1      34.840  43.495  18.618 -0.37 -0.01    +0.055 C  ATOM     10  C   UNL     1      33.672  44.206  16.018 -0.35 -0.02    +0.040 C  ATOM     11  C   UNL     1      35.042  42.579  17.396 -0.45 -0.02    +0.043 C  ATOM     12  C   UNL     1      34.700  42.639  19.880 -0.47 +0.00    +0.024 C  BRANCH   7  13ATOM     13  C   UNL     1      33.978  45.806  18.696 -0.50 -0.04    +0.081 C  ATOM     14  C   UNL     1      35.242  46.229  17.952 -0.42 -0.01    +0.021 C  ENDBRANCH   7  13ENDBRANCH   3   6ENDBRANCH   1   2BRANCH   1  15ATOM     15  C   UNL     1      38.394  45.808  15.853 -0.41 -0.01    +0.024 C  BRANCH  15  16ATOM     16  C   UNL     1      38.944  47.025  16.435 -0.49 +0.01    -0.017 C  BRANCH  16  17ATOM     17  C   UNL     1      40.057  46.936  17.401 -0.48 +0.00    -0.018 A  ATOM     18  C   UNL     1      41.099  47.876  17.375 -0.50 -0.00    +0.012 A  ATOM     19  C   UNL     1      40.091  45.889  18.333 -0.45 -0.00    +0.012 A  ATOM     20  C   UNL     1      42.161  47.769  18.275 -0.46 -0.00    +0.040 A  ATOM     21  C   UNL     1      41.153  45.786  19.233 -0.43 +0.00    +0.040 A  ATOM     22  C   UNL     1      42.177  46.726  19.194 -0.42 +0.01    +0.123 A  ATOM     23  F   UNL     1      43.197  46.624  20.056 -0.12 -0.09    -0.207 F  ENDBRANCH  16  17BRANCH  16  24ATOM     24  C   UNL     1      38.551  48.266  16.084 -0.37 -0.01    +0.010 CG0ATOM     25  G   UNL     1      37.463  48.578  15.187 +0.00 +0.00    +0.000 G0 ENDBRANCH  16  24ENDBRANCH  15  16ENDBRANCH   1  15BRANCH   1  26ATOM     26  C   UNL     1      38.030  46.327  13.450 -0.35 -0.04    +0.124 C  BRANCH  26  27ATOM     27  N   UNL     1      38.084  47.564  13.072 -0.69 +0.05    -0.264 NA BRANCH  27  28ATOM     28  C   UNL     1      37.513  48.533  13.849 -0.51 -0.05    +0.111 C  BRANCH  28  29ATOM     29  C   UNL     1      37.461  48.578  15.187 -0.56 -0.02    +0.021 CG0ATOM     30  G   UNL     1      38.551  48.272  16.084 +0.00 +0.00    +0.000 G0 ENDBRANCH  28  29ENDBRANCH  27  28ENDBRANCH  26  27ENDBRANCH   1  26TORSDOF 4TERENDMDL