MODEL        9USER    Run = 9USERUSER    Estimated Free Energy of Binding    =  -9.54 kcal/mol  [=(1)+(2)+(3)-(4)]USERUSER    (1) Final Intermolecular Energy     = -11.03 kcal/molUSER        vdW + Hbond + desolv Energy     = -10.57 kcal/molUSER        Electrostatic Energy            =  -0.46 kcal/molUSER        Moving Ligand-Fixed Receptor    = -11.03 kcal/molUSER        Moving Ligand-Moving Receptor   =  +0.00 kcal/molUSER    (2) Final Total Internal Energy     =  -0.82 kcal/molUSER    (3) Torsional Free Energy           =  +1.49 kcal/molUSER    (4) Unbound System's Energy         =  -0.82 kcal/molUSERUSERREMARK SMILES C[C@@H]1CC(c2ccc(C(=O)c3cccc(C(=O)O)c3)cc2)=CCN1REMARK SMILES IDX 11 1 12 2 13 3 14 4 15 5 19 6 9 7 10 8 8 9 5 10 6 11 21 12REMARK SMILES IDX 7 13 20 14 4 15 2 16 3 17 24 18 23 19 22 20 1 21 16 23 17 24REMARK SMILES IDX 18 25REMARK H PARENT 24 22 18 26USER                              x       y       z     vdW  Elec       q    TypeUSER                           _______ _______ _______ _____ _____    ______ ____ROOTATOM      1  C   UNL     1      33.384  43.697  16.150 -0.32 -0.01    +0.023 A  ATOM      2  C   UNL     1      32.370  42.936  16.745 -0.31 -0.00    +0.012 A  ATOM      3  C   UNL     1      31.032  43.291  16.571 -0.30 -0.00    +0.002 A  ATOM      4  C   UNL     1      30.703  44.400  15.790 -0.33 -0.01    +0.016 A  ATOM      5  C   UNL     1      31.712  45.154  15.175 -0.38 -0.04    +0.060 A  ATOM      6  C   UNL     1      33.055  44.798  15.349 -0.27 -0.02    +0.027 A  ENDROOTBRANCH   1   7ATOM      7  C   UNL     1      34.792  43.272  16.348 -0.32 -0.08    +0.193 C  ATOM      8  O   UNL     1      35.035  42.081  16.526 -0.35 +0.14    -0.289 OA BRANCH   7   9ATOM      9  C   UNL     1      35.911  44.248  16.336 -0.33 -0.01    +0.023 A  ATOM     10  C   UNL     1      38.004  46.137  16.394 -0.37 +0.01    -0.023 A  ATOM     11  C   UNL     1      37.351  45.753  17.575 -0.35 -0.00    +0.009 A  ATOM     12  C   UNL     1      37.586  45.565  15.183 -0.37 -0.00    +0.009 A  ATOM     13  C   UNL     1      36.308  44.823  17.547 -0.32 -0.00    +0.013 A  ATOM     14  C   UNL     1      36.542  44.635  15.149 -0.37 -0.01    +0.013 A  BRANCH  10  15ATOM     15  C   UNL     1      39.116  47.108  16.423 -0.48 +0.01    -0.042 C  ATOM     16  C   UNL     1      41.125  48.113  17.595 -0.47 -0.01    +0.055 C  ATOM     17  C   UNL     1      40.276  46.845  17.357 -0.52 -0.01    +0.054 C  ATOM     18  N   UNL     1      41.455  48.753  16.315 -0.81 -0.00    -0.310 NA ATOM     19  C   UNL     1      40.246  49.200  15.623 -0.58 -0.04    +0.109 C  ATOM     20  C   UNL     1      39.126  48.201  15.637 -0.58 +0.00    -0.008 C  ATOM     21  C   UNL     1      42.413  47.762  18.337 -0.52 -0.00    +0.024 C  ATOM     22  H   UNL     1      42.063  49.554  16.471 +0.09 +0.06    +0.123 HD ENDBRANCH  10  15ENDBRANCH   7   9ENDBRANCH   1   7BRANCH   5  23ATOM     23  C   UNL     1      31.310  46.314  14.343 -0.33 -0.22    +0.335 C  ATOM     24  O   UNL     1      31.351  46.370  13.129 -0.70 +0.15    -0.246 OA BRANCH  23  25ATOM     25  O   UNL     1      30.865  47.349  15.076 -0.67 +0.16    -0.478 OA ATOM     26  H   UNL     1      31.669  47.681  15.527 -0.31 -0.52    +0.297 HD ENDBRANCH  23  25ENDBRANCH   5  23TORSDOF 5TERENDMDL