MODEL        7USER    Run = 7USERUSER    Estimated Free Energy of Binding    =  -9.06 kcal/mol  [=(1)+(2)+(3)-(4)]USERUSER    (1) Final Intermolecular Energy     = -11.15 kcal/molUSER        vdW + Hbond + desolv Energy     = -11.08 kcal/molUSER        Electrostatic Energy            =  -0.07 kcal/molUSER        Moving Ligand-Fixed Receptor    = -11.15 kcal/molUSER        Moving Ligand-Moving Receptor   =  +0.00 kcal/molUSER    (2) Final Total Internal Energy     =  -1.65 kcal/molUSER    (3) Torsional Free Energy           =  +2.09 kcal/molUSER    (4) Unbound System's Energy         =  -1.65 kcal/molUSERUSERREMARK SMILES Cc1n[nH]c2ccc(-c3cncc(OC[C@@H](N)Cc4ccc(F)cc4)c3)cc12REMARK SMILES IDX 15 1 14 2 13 3 9 4 10 5 26 6 11 7 12 8 8 9 2 10 3 11 28 12REMARK SMILES IDX 4 13 27 14 5 15 6 16 7 17 1 18 16 20 17 21 18 24 19 25 20 26REMARK SMILES IDX 25 27 21 28 24 29 22 30 23 31REMARK H PARENT 4 19 17 22 17 23USER                              x       y       z     vdW  Elec       q    TypeUSER                           _______ _______ _______ _____ _____    ______ ____ROOTATOM      1  C   UNL     1      37.599  44.731  25.819 -0.21 -0.01    +0.248 C  ENDROOTBRANCH   1   2ATOM      2  O   UNL     1      37.328  45.500  24.632 -0.52 -0.09    -0.490 OA BRANCH   2   3ATOM      3  C   UNL     1      37.648  44.832  23.487 -0.21 +0.02    +0.138 A  ATOM      4  C   UNL     1      38.582  44.724  21.254 -0.36 +0.00    +0.004 A  ATOM      5  C   UNL     1      38.120  43.406  21.217 -0.16 +0.00    +0.120 A  ATOM      6  C   UNL     1      38.320  45.441  22.430 -0.27 +0.01    +0.058 A  ATOM      7  N   UNL     1      37.438  42.792  22.216 -0.23 -0.02    -0.260 NA ATOM      8  C   UNL     1      37.209  43.528  23.327 -0.26 +0.02    +0.157 A  BRANCH   4   9ATOM      9  C   UNL     1      39.298  45.331  20.121 -0.37 +0.00    -0.016 A  ATOM     10  C   UNL     1      39.031  46.538  16.487 -0.38 -0.02    +0.067 A  ATOM     11  N   UNL     1      40.091  47.066  15.864 -0.33 +0.03    -0.180 NA ATOM     12  C   UNL     1      39.338  46.153  17.821 -0.42 -0.00    +0.023 A  ATOM     13  N   UNL     1      41.063  47.022  16.791 -0.22 +0.03    -0.278 N  ATOM     14  C   UNL     1      38.638  45.569  18.896 -0.34 -0.00    +0.021 A  ATOM     15  C   UNL     1      40.675  46.485  17.989 -0.46 -0.01    +0.065 A  ATOM     16  C   UNL     1      41.369  46.271  19.180 -0.46 +0.00    +0.029 A  ATOM     17  C   UNL     1      40.654  45.689  20.237 -0.37 +0.00    +0.011 A  ATOM     18  C   UNL     1      37.731  46.413  15.782 -0.40 -0.03    +0.069 C  ATOM     19  H   UNL     1      41.980  47.376  16.542 -0.39 -0.05    +0.190 HD ENDBRANCH   4   9ENDBRANCH   2   3ENDBRANCH   1   2BRANCH   1  20ATOM     20  C   UNL     1      37.337  45.592  27.075 -0.34 -0.01    +0.093 C  BRANCH  20  21ATOM     21  N   UNL     1      36.572  46.799  26.692 -0.09 +0.08    -0.325 NA ATOM     22  H   UNL     1      35.793  46.932  27.336 -0.49 -0.05    +0.119 HD ATOM     23  H   UNL     1      36.153  46.636  25.773 -0.51 -0.03    +0.119 HD ENDBRANCH  20  21BRANCH  20  24ATOM     24  C   UNL     1      36.584  44.825  28.186 -0.40 -0.01    +0.057 C  BRANCH  24  25ATOM     25  C   UNL     1      36.095  43.461  27.753 -0.41 +0.01    -0.046 A  ATOM     26  C   UNL     1      34.748  43.264  27.410 -0.59 -0.00    +0.007 A  ATOM     27  C   UNL     1      36.981  42.375  27.698 -0.39 -0.00    +0.007 A  ATOM     28  C   UNL     1      34.298  42.003  27.017 -0.32 -0.01    +0.039 A  ATOM     29  C   UNL     1      36.528  41.116  27.306 -0.52 -0.01    +0.039 A  ATOM     30  C   UNL     1      35.192  40.941  26.968 -0.51 -0.05    +0.123 A  ATOM     31  F   UNL     1      34.758  39.730  26.597 -0.16 +0.14    -0.207 F  ENDBRANCH  24  25ENDBRANCH  20  24ENDBRANCH   1  20TORSDOF 7TERENDMDL