REMARK SMILES Nc1ncc(Br)c(N[C@H]2CCC[C@@H](O)C2)n1
REMARK SMILES IDX 8 1 7 3 2 4 3 5 16 6 4 7 5 8 6 9 1 10 9 13 10 14 15 15 11 16
REMARK SMILES IDX 13 17 12 18 14 19
REMARK H PARENT 8 2 1 11 1 12 14 20
ROOT
ATOM      1  N   UNL     1       0.231  -1.798  -0.260  1.00  0.00    -0.366 N 
ATOM      2  H   UNL     1       0.146  -2.420  -1.062  1.00  0.00     0.162 HD
ENDROOT
BRANCH   1   3
ATOM      3  C   UNL     1       1.520  -1.247  -0.239  1.00  0.00     0.146 A 
ATOM      4  C   UNL     1       2.936   0.526   0.167  1.00  0.00     0.221 A 
ATOM      5  N   UNL     1       4.042  -0.173  -0.086  1.00  0.00    -0.221 NA
ATOM      6  N   UNL     1       1.692   0.039   0.123  1.00  0.00    -0.195 NA
ATOM      7  C   UNL     1       3.856  -1.461  -0.430  1.00  0.00     0.134 A 
ATOM      8  C   UNL     1       2.617  -2.054  -0.520  1.00  0.00     0.078 A 
ATOM      9  Br  UNL     1       2.474  -3.870  -1.021  1.00  0.00    -0.045 Br
BRANCH   4  10
ATOM     10  N   UNL     1       3.091   1.843   0.549  1.00  0.00    -0.368 N 
ATOM     11  H   UNL     1       4.016   1.976   0.933  1.00  0.00     0.159 HD
ATOM     12  H   UNL     1       2.308   2.124   1.122  1.00  0.00     0.159 HD
ENDBRANCH   4  10
ENDBRANCH   1   3
BRANCH   1  13
ATOM     13  C   UNL     1      -0.971  -0.975  -0.080  1.00  0.00     0.083 C 
ATOM     14  C   UNL     1      -1.098  -0.407   1.340  1.00  0.00     0.025 C 
ATOM     15  C   UNL     1      -1.141   0.088  -1.169  1.00  0.00     0.056 C 
ATOM     16  C   UNL     1      -2.397   0.382   1.507  1.00  0.00     0.005 C 
ATOM     17  C   UNL     1      -2.442   0.866  -0.970  1.00  0.00     0.116 C 
ATOM     18  C   UNL     1      -2.541   1.457   0.435  1.00  0.00     0.032 C 
BRANCH  17  19
ATOM     19  O   UNL     1      -2.529   1.911  -1.934  1.00  0.00    -0.393 OA
ATOM     20  H   UNL     1      -1.760   2.494  -1.815  1.00  0.00     0.210 HD
ENDBRANCH  17  19
ENDBRANCH   1  13
TORSDOF 4
