MODEL        8USER    Run = 8USERUSER    Estimated Free Energy of Binding    =  -7.93 kcal/mol  [=(1)+(2)+(3)-(4)]USERUSER    (1) Final Intermolecular Energy     =  -9.12 kcal/molUSER        vdW + Hbond + desolv Energy     =  -9.04 kcal/molUSER        Electrostatic Energy            =  -0.08 kcal/molUSER        Moving Ligand-Fixed Receptor    =  -9.12 kcal/molUSER        Moving Ligand-Moving Receptor   =  +0.00 kcal/molUSER    (2) Final Total Internal Energy     =  -0.31 kcal/molUSER    (3) Torsional Free Energy           =  +1.19 kcal/molUSER    (4) Unbound System's Energy         =  -0.31 kcal/molUSERUSERREMARK SMILES Nc1ncc(Br)c(N[C@H]2CCC[C@@H](O)C2)n1REMARK SMILES IDX 8 1 7 3 2 4 3 5 16 6 4 7 5 8 6 9 1 10 9 13 10 14 15 15 11 16REMARK SMILES IDX 13 17 12 18 14 19REMARK H PARENT 8 2 1 11 1 12 14 20USER                              x       y       z     vdW  Elec       q    TypeUSER                           _______ _______ _______ _____ _____    ______ ____ROOTATOM      1  N   UNL     1      38.436  46.669  16.033 -0.15 +0.14    -0.366 N  ATOM      2  H   UNL     1      38.437  45.802  16.567 +0.11 -0.05    +0.162 HD ENDROOTBRANCH   1   3ATOM      3  C   UNL     1      39.578  47.412  16.359 -0.38 -0.04    +0.146 A  ATOM      4  C   UNL     1      40.900  49.281  16.085 -0.40 -0.04    +0.221 A  ATOM      5  N   UNL     1      41.751  48.941  17.053 -0.80 -0.03    -0.221 NA ATOM      6  N   UNL     1      39.821  48.577  15.728 -0.38 +0.07    -0.195 NA ATOM      7  C   UNL     1      41.486  47.783  17.686 -0.38 -0.01    +0.134 A  ATOM      8  C   UNL     1      40.412  46.978  17.384 -0.45 -0.01    +0.078 A  ATOM      9  Br  UNL     1      40.142  45.367  18.334 -0.83 +0.00    -0.045 Br BRANCH   4  10ATOM     10  N   UNL     1      41.126  50.476  15.432 -0.35 +0.12    -0.368 N  ATOM     11  H   UNL     1      41.584  51.121  16.060 -0.45 -0.06    +0.159 HD ATOM     12  H   UNL     1      40.272  50.787  14.991 -0.32 -0.12    +0.159 HD ENDBRANCH   4  10ENDBRANCH   1   3BRANCH   1  13ATOM     13  C   UNL     1      38.019  46.450  14.642 -0.42 -0.03    +0.083 C  ATOM     14  C   UNL     1      37.264  45.128  14.446 -0.44 -0.01    +0.025 C  ATOM     15  C   UNL     1      37.291  47.653  14.036 -0.56 -0.03    +0.056 C  ATOM     16  C   UNL     1      36.913  44.903  12.975 -0.55 -0.00    +0.005 C  ATOM     17  C   UNL     1      36.945  47.395  12.569 -0.62 -0.04    +0.116 C  ATOM     18  C   UNL     1      36.162  46.095  12.391 -0.67 -0.01    +0.032 C  BRANCH  17  19ATOM     19  O   UNL     1      36.183  48.484  12.057 -0.67 +0.18    -0.393 OA ATOM     20  H   UNL     1      36.587  48.764  11.218 -0.31 -0.10    +0.210 HD ENDBRANCH  17  19ENDBRANCH   1  13TORSDOF 4TERENDMDL