REMARK SMILES Fc1ccc(-c2cnc3[nH]occ(-c4ccc5[nH]ncc5c4)ncc3c2)cc1
REMARK SMILES IDX 6 1 7 2 8 3 9 4 10 5 11 6 12 7 13 8 23 9 24 10 25 11 26 12
REMARK SMILES IDX 5 14 2 15 3 16 28 17 4 18 27 19 1 20 14 21 15 22 22 23 16 24
REMARK SMILES IDX 21 25 17 26 20 27 18 28 19 29
REMARK H PARENT 10 13 18 30
ROOT
ATOM      1  C   UNL     1       2.971  -0.604   0.138  1.00  0.00     0.001 A 
ATOM      2  C   UNL     1       2.801  -1.960   0.404  1.00  0.00     0.122 A 
ATOM      3  N   UNL     1       1.878  -2.766  -0.174  1.00  0.00    -0.235 NA
ATOM      4  C   UNL     1       1.036  -2.207  -1.087  1.00  0.00     0.168 A 
ATOM      5  N   UNL     1       0.102  -3.096  -1.623  1.00  0.00    -0.204 N 
ATOM      6  O   UNL     1      -1.026  -2.713  -2.334  1.00  0.00    -0.386 OA
ATOM      7  C   UNL     1      -1.852  -1.968  -1.522  1.00  0.00     0.255 A 
ATOM      8  C   UNL     1      -1.841  -0.617  -1.492  1.00  0.00     0.108 A 
ATOM      9  N   UNL     1      -1.067   0.321  -2.097  1.00  0.00    -0.252 NA
ATOM     10  C   UNL     1       0.171  -0.090  -2.457  1.00  0.00     0.124 A 
ATOM     11  C   UNL     1       1.132  -0.856  -1.440  1.00  0.00     0.039 A 
ATOM     12  C   UNL     1       2.103  -0.063  -0.811  1.00  0.00     0.024 A 
ATOM     13  H   UNL     1       0.024  -3.938  -1.077  1.00  0.00     0.211 HD
ENDROOT
BRANCH   1  14
ATOM     14  C   UNL     1       3.985   0.210   0.825  1.00  0.00    -0.017 A 
ATOM     15  C   UNL     1       5.911   1.770   2.143  1.00  0.00     0.123 A 
ATOM     16  C   UNL     1       4.604   2.228   2.055  1.00  0.00     0.040 A 
ATOM     17  C   UNL     1       6.279   0.553   1.586  1.00  0.00     0.040 A 
ATOM     18  C   UNL     1       3.646   1.451   1.398  1.00  0.00     0.012 A 
ATOM     19  C   UNL     1       5.320  -0.223   0.929  1.00  0.00     0.012 A 
ATOM     20  F   UNL     1       6.831   2.512   2.774  1.00  0.00    -0.207 F 
ENDBRANCH   1  14
BRANCH   8  21
ATOM     21  C   UNL     1      -2.937  -0.034  -0.680  1.00  0.00     0.004 A 
ATOM     22  C   UNL     1      -2.782   0.098   0.708  1.00  0.00     0.013 A 
ATOM     23  C   UNL     1      -4.135   0.365  -1.296  1.00  0.00     0.022 A 
ATOM     24  C   UNL     1      -3.800   0.619   1.515  1.00  0.00     0.029 A 
ATOM     25  C   UNL     1      -5.168   0.889  -0.502  1.00  0.00     0.020 A 
ATOM     26  C   UNL     1      -4.981   1.002   0.871  1.00  0.00     0.065 A 
ATOM     27  C   UNL     1      -6.471   1.387  -0.722  1.00  0.00     0.143 A 
ATOM     28  N   UNL     1      -6.144   1.542   1.347  1.00  0.00    -0.278 N 
ATOM     29  N   UNL     1      -7.078   1.779   0.405  1.00  0.00    -0.183 NA
ATOM     30  H   UNL     1      -6.363   1.772   2.308  1.00  0.00     0.190 HD
ENDBRANCH   8  21
TORSDOF 2
