MODEL        2USER    Run = 2USERUSER    Estimated Free Energy of Binding    = -10.33 kcal/mol  [=(1)+(2)+(3)-(4)]USERUSER    (1) Final Intermolecular Energy     = -12.12 kcal/molUSER        vdW + Hbond + desolv Energy     = -11.87 kcal/molUSER        Electrostatic Energy            =  -0.25 kcal/molUSER        Moving Ligand-Fixed Receptor    = -12.12 kcal/molUSER        Moving Ligand-Moving Receptor   =  +0.00 kcal/molUSER    (2) Final Total Internal Energy     =  -1.49 kcal/molUSER    (3) Torsional Free Energy           =  +1.79 kcal/molUSER    (4) Unbound System's Energy         =  -1.49 kcal/molUSERUSERREMARK SMILES CC(=O)N[C@H]1C[C@H]1S(=O)(=O)Nc1cc(-c2ccncc2)cc(-c2nccs2)c1REMARK SMILES IDX 8 1 9 2 10 3 7 4 5 5 6 6 4 7 2 8 1 9 3 10 11 12 12 14 13 15REMARK SMILES IDX 28 16 14 17 22 18 21 19 15 20 16 21 20 22 17 23 19 24 18 25REMARK SMILES IDX 23 26 24 27 27 28 25 29 26 30REMARK H PARENT 4 11 11 13USER                              x       y       z     vdW  Elec       q    TypeUSER                           _______ _______ _______ _____ _____    ______ ____ROOTATOM      1  S   UNL     1      32.922  43.817  18.860 -0.41 -0.04    +0.237 S  ATOM      2  O   UNL     1      32.638  43.629  20.270 -0.96 -0.02    -0.206 OA ATOM      3  O   UNL     1      31.881  43.601  17.878 -0.24 +0.04    -0.206 OA ENDROOTBRANCH   1   4ATOM      4  C   UNL     1      34.261  42.687  18.397 -0.33 -0.03    +0.154 C  ATOM      5  C   UNL     1      33.903  41.349  17.814 -0.28 -0.04    +0.103 C  ATOM      6  C   UNL     1      34.399  42.458  16.917 -0.45 -0.02    +0.050 C  BRANCH   5   7ATOM      7  N   UNL     1      32.590  40.813  17.616 -0.18 +0.12    -0.352 N  ATOM      8  C   UNL     1      31.852  40.265  18.645 -0.32 -0.00    +0.217 C  ATOM      9  C   UNL     1      30.464  39.835  18.256 -0.33 +0.00    +0.114 C  ATOM     10  O   UNL     1      32.267  40.169  19.797 -0.87 -0.09    -0.275 OA ATOM     11  H   UNL     1      32.058  41.170  16.823 -0.34 -0.09    +0.163 HD ENDBRANCH   5   7ENDBRANCH   1   4BRANCH   1  12ATOM     12  N   UNL     1      33.554  45.387  18.696 -0.28 +0.12    -0.283 N  ATOM     13  H   UNL     1      33.384  45.885  19.580 -0.35 -0.10    +0.180 HD BRANCH  12  14ATOM     14  C   UNL     1      34.903  45.533  18.225 -0.38 -0.02    +0.050 A  ATOM     15  C   UNL     1      35.099  46.019  16.931 -0.33 -0.03    +0.035 A  ATOM     16  C   UNL     1      36.002  45.139  18.985 -0.10 -0.01    +0.038 A  ATOM     17  C   UNL     1      36.387  46.174  16.396 -0.36 +0.01    -0.016 A  ATOM     18  C   UNL     1      37.312  45.278  18.492 -0.27 -0.00    +0.013 A  ATOM     19  C   UNL     1      37.482  45.808  17.199 -0.36 -0.01    +0.020 A  BRANCH  17  20ATOM     20  C   UNL     1      36.584  46.708  15.036 -0.39 +0.01    -0.015 A  ATOM     21  C   UNL     1      37.537  47.699  14.773 -0.47 -0.02    +0.029 A  ATOM     22  C   UNL     1      35.829  46.237  13.955 -0.44 -0.02    +0.029 A  ATOM     23  C   UNL     1      37.684  48.172  13.477 -0.37 -0.04    +0.111 A  ATOM     24  C   UNL     1      36.048  46.770  12.693 -0.54 -0.06    +0.111 A  ATOM     25  N   UNL     1      36.957  47.730  12.431 -1.01 +0.08    -0.265 NA ENDBRANCH  17  20BRANCH  18  26ATOM     26  C   UNL     1      38.443  44.882  19.357 -0.30 -0.01    +0.123 A  ATOM     27  N   UNL     1      38.304  44.460  20.601 -0.21 +0.00    -0.245 NA ATOM     28  S   UNL     1      40.081  44.917  18.802 -0.52 +0.00    -0.122 S  ATOM     29  C   UNL     1      39.531  44.167  21.157 -0.20 +0.00    +0.123 A  ATOM     30  C   UNL     1      40.614  44.362  20.332 -0.29 +0.00    +0.087 A  ENDBRANCH  18  26ENDBRANCH  12  14ENDBRANCH   1  12TORSDOF 6TERENDMDL