REMARK SMILES CCN1CC[C@@H](NC(=O)C2=CC(c3ccc(F)cc3)=CC=CN=C2)C[C@@H]1C
REMARK SMILES IDX 10 1 8 2 7 3 9 5 6 6 3 7 4 8 26 9 5 10 25 11 27 12 2 13 1 14
REMARK SMILES IDX 11 15 12 16 13 17 14 18 19 19 15 20 18 21 16 22 17 23 20 24
REMARK SMILES IDX 24 26 23 27 22 28 21 29
REMARK H PARENT 7 4
REMARK Flexibility Score:   44.900
ROOT
ATOM      1  C   UNL     1      -1.511  -0.719  -1.975  1.00  0.00     0.058 C 
ENDROOT
BRANCH   1   2
ATOM      2  C   UNL     1      -0.167  -0.464  -2.564  1.00  0.00     0.253 C 
ATOM      3  N   UNL     1       0.886  -0.603  -1.687  1.00  0.00    -0.349 N 
ATOM      4  H   UNL     1       0.700  -0.823  -0.718  1.00  0.00     0.164 HD
ATOM      5  O   UNL     1      -0.035  -0.195  -3.751  1.00  0.00    -0.269 OA
BRANCH   3   6
ATOM      6  C   UNL     1       2.257  -0.252  -2.052  1.00  0.00     0.085 C 
ATOM      7  N   UNL     1       3.384   0.924   0.394  1.00  0.00    -0.301 NA
ATOM      8  C   UNL     1       4.138  -0.099  -0.338  1.00  0.00     0.087 C 
ATOM      9  C   UNL     1       2.498   1.724  -0.480  1.00  0.00     0.055 C 
ATOM     10  C   UNL     1       3.262  -1.024  -1.185  1.00  0.00     0.040 C 
ATOM     11  C   UNL     1       2.477   1.261  -1.950  1.00  0.00     0.043 C 
ATOM     12  C   UNL     1       2.944   3.187  -0.412  1.00  0.00     0.024 C 
BRANCH   7  13
ATOM     13  C   UNL     1       2.700   0.364   1.569  1.00  0.00     0.081 C 
ATOM     14  C   UNL     1       2.240   1.433   2.557  1.00  0.00     0.021 C 
ENDBRANCH   7  13
ENDBRANCH   3   6
ENDBRANCH   1   2
BRANCH   1  15
ATOM     15  C   UNL     1      -1.813  -0.209  -0.767  1.00  0.00     0.024 C 
BRANCH  15  16
ATOM     16  C   UNL     1      -3.010  -0.461   0.025  1.00  0.00    -0.017 C 
BRANCH  16  17
ATOM     17  C   UNL     1      -2.879  -0.910   1.426  1.00  0.00    -0.018 A 
ATOM     18  C   UNL     1      -2.828   0.025   2.471  1.00  0.00     0.012 A 
ATOM     19  C   UNL     1      -2.774  -2.279   1.714  1.00  0.00     0.012 A 
ATOM     20  C   UNL     1      -2.678  -0.407   3.790  1.00  0.00     0.040 A 
ATOM     21  C   UNL     1      -2.626  -2.707   3.034  1.00  0.00     0.040 A 
ATOM     22  C   UNL     1      -2.578  -1.768   4.058  1.00  0.00     0.123 A 
ATOM     23  F   UNL     1      -2.433  -2.181   5.324  1.00  0.00    -0.207 F 
ENDBRANCH  16  17
BRANCH  16  24
ATOM     24  C   UNL     1      -4.262  -0.231  -0.417  1.00  0.00     0.010 CG0
ATOM     25  G   UNL     1      -4.609   0.282  -1.722  1.00  0.00     0.000 G0
ENDBRANCH  16  24
ENDBRANCH  15  16
ENDBRANCH   1  15
BRANCH   1  26
ATOM     26  C   UNL     1      -2.432  -1.622  -2.716  1.00  0.00     0.124 C 
BRANCH  26  27
ATOM     27  N   UNL     1      -3.661  -1.479  -3.096  1.00  0.00    -0.264 NA
BRANCH  27  28
ATOM     28  C   UNL     1      -4.295  -0.285  -2.894  1.00  0.00     0.111 C 
BRANCH  28  29
ATOM     29  C   UNL     1      -4.609   0.282  -1.722  1.00  0.00     0.021 CG0
ATOM     30  G   UNL     1      -4.262  -0.231  -0.417  1.00  0.00     0.000 G0
ENDBRANCH  28  29
ENDBRANCH  27  28
ENDBRANCH  26  27
ENDBRANCH   1  26
TORSDOF 4
