REMARK SMILES C[C@H](NC(=O)[C@@H]1NC(=O)c2cc(-c3ccc(O)cc3)ccc21)[C@H]1CC[C@]1(C)CNS(C)(=O)=O
REMARK SMILES IDX 1 1 2 2 3 3 4 4 5 6 6 7 7 8 22 9 8 10 21 11 10 12 20 13
REMARK SMILES IDX 11 14 12 15 9 17 13 18 14 19 19 20 15 21 18 22 16 23 17 24
REMARK SMILES IDX 23 26 24 27 26 28 25 29 27 30 28 31 29 32 30 34 31 35 32 36
REMARK SMILES IDX 33 37
REMARK H PARENT 3 5 7 16 17 25 29 33
ROOT
ATOM      1  C   UNL     1       1.293  -3.234   0.001  1.00  0.00     0.031 C 
ATOM      2  C   UNL     1       2.075  -2.384   0.990  1.00  0.00     0.082 C 
ENDROOT
BRANCH   2   3
ATOM      3  N   UNL     1       1.383  -1.135   1.263  1.00  0.00    -0.351 N 
ATOM      4  C   UNL     1       0.340  -1.068   2.171  1.00  0.00     0.247 C 
ATOM      5  H   UNL     1       1.663  -0.296   0.762  1.00  0.00     0.163 HD
ATOM      6  O   UNL     1      -0.035  -2.047   2.815  1.00  0.00    -0.272 OA
BRANCH   4   7
ATOM      7  C   UNL     1      -0.316   0.324   2.299  1.00  0.00     0.203 C 
ATOM      8  N   UNL     1      -1.083   0.416   3.535  1.00  0.00    -0.336 N 
ATOM      9  C   UNL     1      -1.373   0.559   1.258  1.00  0.00    -0.003 A 
ATOM     10  C   UNL     1      -2.439   0.486   3.311  1.00  0.00     0.252 C 
ATOM     11  C   UNL     1      -1.271   0.687  -0.114  1.00  0.00     0.008 A 
ATOM     12  C   UNL     1      -2.624   0.646   1.867  1.00  0.00     0.046 A 
ATOM     13  C   UNL     1      -2.446   0.892  -0.852  1.00  0.00     0.009 A 
ATOM     14  C   UNL     1      -3.798   0.842   1.161  1.00  0.00     0.023 A 
ATOM     15  C   UNL     1      -3.720   0.971  -0.234  1.00  0.00    -0.018 A 
ATOM     16  H   UNL     1      -0.757   0.018   4.407  1.00  0.00     0.165 HD
ATOM     17  O   UNL     1      -3.326   0.414   4.138  1.00  0.00    -0.269 OA
BRANCH  15  18
ATOM     18  C   UNL     1      -4.934   1.183  -1.040  1.00  0.00    -0.018 A 
ATOM     19  C   UNL     1      -5.020   2.245  -1.957  1.00  0.00     0.012 A 
ATOM     20  C   UNL     1      -6.045   0.328  -0.916  1.00  0.00     0.012 A 
ATOM     21  C   UNL     1      -6.172   2.445  -2.722  1.00  0.00     0.047 A 
ATOM     22  C   UNL     1      -7.199   0.525  -1.680  1.00  0.00     0.047 A 
ATOM     23  C   UNL     1      -7.251   1.584  -2.578  1.00  0.00     0.115 A 
BRANCH  23  24
ATOM     24  O   UNL     1      -8.356   1.815  -3.342  1.00  0.00    -0.508 OA
ATOM     25  H   UNL     1      -9.033   1.159  -3.112  1.00  0.00     0.293 HD
ENDBRANCH  23  24
ENDBRANCH  15  18
ENDBRANCH   4   7
ENDBRANCH   2   3
BRANCH   2  26
ATOM     26  C   UNL     1       3.491  -2.002   0.556  1.00  0.00     0.018 C 
ATOM     27  C   UNL     1       4.489  -3.125   0.166  1.00  0.00     0.007 C 
ATOM     28  C   UNL     1       3.908  -1.273  -0.792  1.00  0.00    -0.014 C 
ATOM     29  C   UNL     1       5.247  -2.075  -0.673  1.00  0.00     0.009 C 
ATOM     30  C   UNL     1       3.187  -1.608  -2.100  1.00  0.00     0.013 C 
BRANCH  28  31
ATOM     31  C   UNL     1       4.118   0.241  -0.626  1.00  0.00     0.105 C 
BRANCH  31  32
ATOM     32  N   UNL     1       2.828   0.957  -0.585  1.00  0.00    -0.215 NA
ATOM     33  H   UNL     1       2.362   1.066  -1.489  1.00  0.00     0.140 HD
BRANCH  32  34
ATOM     34  S   UNL     1       2.709   2.350   0.350  1.00  0.00     0.208 S 
ATOM     35  C   UNL     1       3.956   3.419  -0.344  1.00  0.00     0.176 C 
ATOM     36  O   UNL     1       1.405   2.890   0.042  1.00  0.00    -0.213 OA
ATOM     37  O   UNL     1       3.075   1.983   1.697  1.00  0.00    -0.213 OA
ENDBRANCH  32  34
ENDBRANCH  31  32
ENDBRANCH  28  31
ENDBRANCH   2  26
TORSDOF 8
