REMARK SMILES C[C@@H]1CC(c2ccc(C(=O)c3cccc(C(=O)O)c3)cc2)=CCN1
REMARK SMILES IDX 11 1 12 2 13 3 14 4 15 5 19 6 9 7 10 8 8 9 5 10 6 11 21 12
REMARK SMILES IDX 7 13 20 14 4 15 2 16 3 17 24 18 23 19 22 20 1 21 16 23 17 24
REMARK SMILES IDX 18 25
REMARK H PARENT 24 22 18 26
ROOT
ATOM      1  C   UNL     1      -3.829  -1.390   0.159  1.00  0.00     0.023 A 
ATOM      2  C   UNL     1      -4.913  -2.099   0.691  1.00  0.00     0.012 A 
ATOM      3  C   UNL     1      -6.010  -1.415   1.215  1.00  0.00     0.002 A 
ATOM      4  C   UNL     1      -6.033  -0.020   1.197  1.00  0.00     0.016 A 
ATOM      5  C   UNL     1      -4.961   0.696   0.647  1.00  0.00     0.060 A 
ATOM      6  C   UNL     1      -3.859   0.010   0.120  1.00  0.00     0.027 A 
ENDROOT
BRANCH   1   7
ATOM      7  C   UNL     1      -2.691  -2.159  -0.404  1.00  0.00     0.193 C 
ATOM      8  O   UNL     1      -2.916  -3.226  -0.970  1.00  0.00    -0.289 OA
BRANCH   7   9
ATOM      9  C   UNL     1      -1.292  -1.672  -0.300  1.00  0.00     0.023 A 
ATOM     10  C   UNL     1       1.391  -0.815  -0.162  1.00  0.00    -0.023 A 
ATOM     11  C   UNL     1       0.925  -1.540  -1.270  1.00  0.00     0.009 A 
ATOM     12  C   UNL     1       0.493  -0.534   0.878  1.00  0.00     0.009 A 
ATOM     13  C   UNL     1      -0.403  -1.972  -1.336  1.00  0.00     0.013 A 
ATOM     14  C   UNL     1      -0.837  -0.966   0.818  1.00  0.00     0.013 A 
BRANCH  10  15
ATOM     15  C   UNL     1       2.788  -0.344  -0.097  1.00  0.00    -0.042 C 
ATOM     16  C   UNL     1       4.466   1.554  -0.021  1.00  0.00     0.055 C 
ATOM     17  C   UNL     1       3.049   1.074   0.361  1.00  0.00     0.054 C 
ATOM     18  N   UNL     1       5.466   0.552   0.369  1.00  0.00    -0.310 NA
ATOM     19  C   UNL     1       5.258  -0.707  -0.348  1.00  0.00     0.109 C 
ATOM     20  C   UNL     1       3.823  -1.142  -0.420  1.00  0.00    -0.008 C 
ATOM     21  C   UNL     1       4.783   2.883   0.661  1.00  0.00     0.024 C 
ATOM     22  H   UNL     1       6.403   0.896   0.169  1.00  0.00     0.123 HD
ENDBRANCH  10  15
ENDBRANCH   7   9
ENDBRANCH   1   7
BRANCH   5  23
ATOM     23  C   UNL     1      -5.040   2.177   0.638  1.00  0.00     0.335 C 
ATOM     24  O   UNL     1      -5.968   2.844   1.054  1.00  0.00    -0.246 OA
BRANCH  23  25
ATOM     25  O   UNL     1      -3.944   2.752   0.114  1.00  0.00    -0.478 OA
ATOM     26  H   UNL     1      -4.134   3.712   0.167  1.00  0.00     0.297 HD
ENDBRANCH  23  25
ENDBRANCH   5  23
TORSDOF 5
