REMARK SMILES Cc1n[nH]c2ccc(-c3cncc(OC[C@@H](N)Cc4ccc(F)cc4)c3)cc12
REMARK SMILES IDX 15 1 14 2 13 3 9 4 10 5 26 6 11 7 12 8 8 9 2 10 3 11 28 12
REMARK SMILES IDX 4 13 27 14 5 15 6 16 7 17 1 18 16 20 17 21 18 24 19 25 20 26
REMARK SMILES IDX 25 27 21 28 24 29 22 30 23 31
REMARK H PARENT 4 19 17 22 17 23
ROOT
ATOM      1  C   UNL     1      -2.119  -0.409  -0.507  1.00  0.00     0.248 C 
ENDROOT
BRANCH   1   2
ATOM      2  O   UNL     1      -1.698   0.584   0.447  1.00  0.00    -0.490 OA
BRANCH   2   3
ATOM      3  C   UNL     1      -0.502   1.153   0.121  1.00  0.00     0.138 A 
ATOM      4  C   UNL     1       1.896   1.065  -0.216  1.00  0.00     0.004 A 
ATOM      5  C   UNL     1       1.830   2.443  -0.434  1.00  0.00     0.120 A 
ATOM      6  C   UNL     1       0.684   0.424   0.077  1.00  0.00     0.058 A 
ATOM      7  N   UNL     1       0.698   3.188  -0.370  1.00  0.00    -0.260 NA
ATOM      8  C   UNL     1      -0.443   2.522  -0.082  1.00  0.00     0.157 A 
BRANCH   4   9
ATOM      9  C   UNL     1       3.167   0.326  -0.282  1.00  0.00    -0.016 A 
ATOM     10  C   UNL     1       6.809   0.178   0.919  1.00  0.00     0.067 A 
ATOM     11  N   UNL     1       7.621  -0.808   0.517  1.00  0.00    -0.180 NA
ATOM     12  C   UNL     1       5.507   0.053   0.362  1.00  0.00     0.023 A 
ATOM     13  N   UNL     1       6.844  -1.556  -0.285  1.00  0.00    -0.278 N 
ATOM     14  C   UNL     1       4.298   0.773   0.434  1.00  0.00     0.021 A 
ATOM     15  C   UNL     1       5.562  -1.093  -0.419  1.00  0.00     0.065 A 
ATOM     16  C   UNL     1       4.471  -1.575  -1.143  1.00  0.00     0.029 A 
ATOM     17  C   UNL     1       3.278  -0.843  -1.057  1.00  0.00     0.011 A 
ATOM     18  C   UNL     1       7.306   1.231   1.840  1.00  0.00     0.069 C 
ATOM     19  H   UNL     1       7.251  -2.378  -0.716  1.00  0.00     0.190 HD
ENDBRANCH   4   9
ENDBRANCH   2   3
ENDBRANCH   1   2
BRANCH   1  20
ATOM     20  C   UNL     1      -2.821  -1.576   0.224  1.00  0.00     0.093 C 
BRANCH  20  21
ATOM     21  N   UNL     1      -1.832  -2.304   1.049  1.00  0.00    -0.325 NA
ATOM     22  H   UNL     1      -2.304  -3.022   1.598  1.00  0.00     0.119 HD
ATOM     23  H   UNL     1      -1.434  -1.649   1.726  1.00  0.00     0.119 HD
ENDBRANCH  20  21
BRANCH  20  24
ATOM     24  C   UNL     1      -4.001  -1.111   1.108  1.00  0.00     0.057 C 
BRANCH  24  25
ATOM     25  C   UNL     1      -5.143  -0.507   0.322  1.00  0.00    -0.046 A 
ATOM     26  C   UNL     1      -5.998  -1.325  -0.433  1.00  0.00     0.007 A 
ATOM     27  C   UNL     1      -5.354   0.880   0.332  1.00  0.00     0.007 A 
ATOM     28  C   UNL     1      -7.047  -0.764  -1.163  1.00  0.00     0.039 A 
ATOM     29  C   UNL     1      -6.403   1.438  -0.399  1.00  0.00     0.039 A 
ATOM     30  C   UNL     1      -7.240   0.612  -1.139  1.00  0.00     0.123 A 
ATOM     31  F   UNL     1      -8.243   1.150  -1.844  1.00  0.00    -0.207 F 
ENDBRANCH  24  25
ENDBRANCH  20  24
ENDBRANCH   1  20
TORSDOF 7
