MODEL        2USER    Run = 2USERUSER    Estimated Free Energy of Binding    = -10.11 kcal/mol  [=(1)+(2)+(3)-(4)]USERUSER    (1) Final Intermolecular Energy     = -11.30 kcal/molUSER        vdW + Hbond + desolv Energy     = -11.25 kcal/molUSER        Electrostatic Energy            =  -0.05 kcal/molUSER        Moving Ligand-Fixed Receptor    = -11.30 kcal/molUSER        Moving Ligand-Moving Receptor   =  +0.00 kcal/molUSER    (2) Final Total Internal Energy     =  -0.69 kcal/molUSER    (3) Torsional Free Energy           =  +1.19 kcal/molUSER    (4) Unbound System's Energy         =  -0.69 kcal/molUSERUSERREMARK SMILES NCC[C@@H]1C(=O)Nc2ccc3ncnc(-c4ccc(F)cc4)c3c21REMARK SMILES IDX 3 1 2 2 1 3 4 6 5 7 24 8 7 9 23 10 8 11 15 12 11 13 9 14REMARK SMILES IDX 14 15 10 16 12 17 13 18 6 19 16 21 17 22 22 23 18 24 21 25REMARK SMILES IDX 19 26 20 27REMARK H PARENT 1 4 1 5 7 20USER                              x       y       z     vdW  Elec       q    TypeUSER                           _______ _______ _______ _____ _____    ______ ____ROOTATOM      1  C   UNL     1      36.104  46.629  16.904 -0.33 -0.03    +0.033 C  ENDROOTBRANCH   1   2ATOM      2  C   UNL     1      34.974  46.204  17.850 -0.43 -0.06    +0.079 C  BRANCH   2   3ATOM      3  N   UNL     1      34.316  47.305  18.530 -0.82 +0.28    -0.330 NA ATOM      4  H   UNL     1      33.536  47.674  17.977 -0.50 -0.20    +0.118 HD ATOM      5  H   UNL     1      33.925  46.993  19.417 -0.49 -0.06    +0.118 HD ENDBRANCH   2   3ENDBRANCH   1   2BRANCH   1   6ATOM      6  C   UNL     1      37.285  45.648  16.849 -0.34 -0.04    +0.113 C  ATOM      7  C   UNL     1      37.132  44.654  18.030 -0.25 -0.05    +0.232 C  ATOM      8  C   UNL     1      38.628  46.297  17.155 -0.41 +0.00    -0.000 A  ATOM      9  N   UNL     1      38.227  44.818  18.857 -0.18 +0.04    -0.325 N  ATOM     10  C   UNL     1      39.402  47.266  16.455 -0.45 -0.01    +0.033 A  ATOM     11  C   UNL     1      39.087  45.782  18.372 -0.39 -0.01    +0.046 A  ATOM     12  C   UNL     1      39.191  47.850  15.183 -0.46 -0.03    +0.082 A  ATOM     13  C   UNL     1      40.568  47.739  17.101 -0.46 -0.01    +0.075 A  ATOM     14  C   UNL     1      40.243  46.205  18.977 -0.41 -0.00    +0.029 A  ATOM     15  N   UNL     1      39.977  48.834  14.680 -0.36 +0.08    -0.236 NA ATOM     16  C   UNL     1      40.961  47.204  18.328 -0.45 -0.00    +0.031 A  ATOM     17  N   UNL     1      41.358  48.690  16.602 -0.85 +0.01    -0.236 NA ATOM     18  C   UNL     1      41.019  49.206  15.420 -0.45 -0.04    +0.223 A  ATOM     19  O   UNL     1      36.206  43.892  18.257 -0.18 +0.06    -0.274 OA ATOM     20  H   UNL     1      38.339  44.297  19.715 +0.10 -0.01    +0.169 HD BRANCH  12  21ATOM     21  C   UNL     1      38.174  47.433  14.203 -0.50 -0.00    +0.001 A  ATOM     22  C   UNL     1      38.055  46.079  13.831 -0.41 -0.00    +0.013 A  ATOM     23  C   UNL     1      37.220  48.342  13.711 -0.55 -0.01    +0.013 A  ATOM     24  C   UNL     1      37.039  45.654  12.974 -0.48 -0.01    +0.040 A  ATOM     25  C   UNL     1      36.207  47.920  12.844 -0.57 -0.02    +0.040 A  ATOM     26  C   UNL     1      36.126  46.581  12.485 -0.54 -0.06    +0.123 A  ATOM     27  F   UNL     1      35.150  46.174  11.663 -0.10 +0.14    -0.207 F  ENDBRANCH  12  21ENDBRANCH   1   6TORSDOF 4TERENDMDL