MODEL        1USER    Run = 1USERUSER    Estimated Free Energy of Binding    = -10.23 kcal/mol  [=(1)+(2)+(3)-(4)]USERUSER    (1) Final Intermolecular Energy     = -10.83 kcal/molUSER        vdW + Hbond + desolv Energy     = -10.66 kcal/molUSER        Electrostatic Energy            =  -0.17 kcal/molUSER        Moving Ligand-Fixed Receptor    = -10.83 kcal/molUSER        Moving Ligand-Moving Receptor   =  +0.00 kcal/molUSER    (2) Final Total Internal Energy     =  -0.56 kcal/molUSER    (3) Torsional Free Energy           =  +0.60 kcal/molUSER    (4) Unbound System's Energy         =  -0.56 kcal/molUSERUSERREMARK SMILES Fc1ccc(-c2cnc3[nH]occ(-c4ccc5[nH]ncc5c4)ncc3c2)cc1REMARK SMILES IDX 6 1 7 2 8 3 9 4 10 5 11 6 12 7 13 8 23 9 24 10 25 11 26 12REMARK SMILES IDX 5 14 2 15 3 16 28 17 4 18 27 19 1 20 14 21 15 22 22 23 16 24REMARK SMILES IDX 21 25 17 26 20 27 18 28 19 29REMARK H PARENT 10 13 18 30USER                              x       y       z     vdW  Elec       q    TypeUSER                           _______ _______ _______ _____ _____    ______ ____ROOTATOM      1  C   UNL     1      39.773  47.403  16.107 -0.51 -0.00    +0.001 A  ATOM      2  C   UNL     1      40.492  48.531  16.492 -0.41 -0.03    +0.122 A  ATOM      3  N   UNL     1      41.447  48.567  17.453 -0.62 +0.00    -0.235 NA ATOM      4  C   UNL     1      41.726  47.405  18.107 -0.37 -0.01    +0.168 A  ATOM      5  N   UNL     1      42.706  47.527  19.094 -0.45 -0.02    -0.204 N  ATOM      6  O   UNL     1      42.950  46.578  20.076 -0.23 -0.14    -0.386 OA ATOM      7  C   UNL     1      41.834  46.438  20.871 -0.17 +0.04    +0.255 A  ATOM      8  C   UNL     1      40.898  45.483  20.674 -0.29 +0.01    +0.108 A  ATOM      9  N   UNL     1      40.722  44.536  19.717 -0.23 -0.01    -0.252 NA ATOM     10  C   UNL     1      41.287  44.808  18.518 -0.19 +0.01    +0.124 A  ATOM     11  C   UNL     1      41.073  46.209  17.786 -0.45 -0.00    +0.039 A  ATOM     12  C   UNL     1      40.090  46.226  16.786 -0.43 -0.00    +0.024 A  ATOM     13  H   UNL     1      42.872  48.487  19.347 -0.38 -0.03    +0.211 HD ENDROOTBRANCH   1  14ATOM     14  C   UNL     1      38.734  47.451  15.067 -0.47 +0.01    -0.017 A  ATOM     15  C   UNL     1      36.751  47.555  13.083 -0.52 -0.05    +0.123 A  ATOM     16  C   UNL     1      36.951  48.653  13.908 -0.49 -0.02    +0.040 A  ATOM     17  C   UNL     1      37.517  46.406  13.227 -0.45 -0.01    +0.040 A  ATOM     18  C   UNL     1      37.938  48.599  14.896 -0.52 -0.01    +0.012 A  ATOM     19  C   UNL     1      38.503  46.354  14.216 -0.42 -0.00    +0.012 A  ATOM     20  F   UNL     1      35.807  47.604  12.133 -0.24 +0.12    -0.207 F  ENDBRANCH   1  14BRANCH   8  21ATOM     21  C   UNL     1      39.887  45.414  21.757 -0.31 +0.00    +0.004 A  ATOM     22  C   UNL     1      39.023  44.311  21.835 -0.30 +0.00    +0.013 A  ATOM     23  C   UNL     1      39.780  46.459  22.690 -0.15 +0.00    +0.022 A  ATOM     24  C   UNL     1      38.038  44.217  22.825 -0.32 +0.00    +0.029 A  ATOM     25  C   UNL     1      38.797  46.382  23.690 -0.32 +0.00    +0.020 A  ATOM     26  C   UNL     1      37.956  45.276  23.734 -0.22 +0.01    +0.065 A  ATOM     27  C   UNL     1      38.380  47.186  24.773 -0.27 +0.02    +0.143 A  ATOM     28  N   UNL     1      37.132  45.496  24.804 -0.11 -0.05    -0.278 N  ATOM     29  N   UNL     1      37.356  46.656  25.453 -0.82 -0.02    -0.183 NA ATOM     30  H   UNL     1      36.395  44.891  25.143 +0.01 +0.01    +0.190 HD ENDBRANCH   8  21TORSDOF 2TERENDMDL