MODEL        6USER    Run = 6USERUSER    Estimated Free Energy of Binding    =  -6.64 kcal/mol  [=(1)+(2)+(3)-(4)]USERUSER    (1) Final Intermolecular Energy     = -10.81 kcal/molUSER        vdW + Hbond + desolv Energy     = -11.84 kcal/molUSER        Electrostatic Energy            =  -0.06 kcal/molUSER        Moving Ligand-Fixed Receptor    = -11.90 kcal/molUSER        Moving Ligand-Moving Receptor   =  +1.08 kcal/molUSER    (2) Final Total Internal Energy     =  -2.90 kcal/molUSER    (3) Torsional Free Energy           =  +4.18 kcal/molUSER    (4) Unbound System's Energy         =  -2.90 kcal/molUSERUSERREMARK SMILES COc1ccc(O)c(C(=O)c2ccc(C(=O)N[C@@H]3CCCN[C@@H](C)[C@H]3NC(=O)c3ccncc3)cc2)c1FREMARK SMILES IDX 15 1 16 2 17 3 14 5 11 6 12 7 36 8 13 9 35 10 9 11 10 12REMARK SMILES IDX 8 13 3 14 4 15 37 16 5 17 6 18 38 19 2 20 1 21 7 22 18 24REMARK SMILES IDX 19 25 25 27 23 28 24 29 22 30 21 32 20 33 26 35 27 36 28 38REMARK SMILES IDX 29 39 30 40 34 41 31 42 33 43 32 44REMARK H PARENT 17 4 7 23 22 31 26 37REMARK Flexibility Score:   88.900USER                              x       y       z     vdW  Elec       q    TypeUSER                           _______ _______ _______ _____ _____    ______ ____ROOTATOM      1  C   UNL     1      38.240  43.823  22.938 -0.22 +0.02    +0.251 C  ATOM      2  O   UNL     1      37.106  43.362  22.972 -0.27 -0.03    -0.269 OA ATOM      3  N   UNL     1      39.023  43.993  24.062 -0.05 -0.01    -0.347 N  ATOM      4  H   UNL     1      39.914  44.462  23.980 +0.08 +0.01    +0.164 HD ENDROOTBRANCH   1   5ATOM      5  C   UNL     1      38.830  44.258  21.641 -0.30 +0.00    +0.039 A  ATOM      6  C   UNL     1      40.040  45.054  19.237 -0.41 -0.00    +0.023 A  ATOM      7  C   UNL     1      40.811  44.464  20.245 -0.36 +0.00    +0.013 A  ATOM      8  C   UNL     1      38.675  45.284  19.451 -0.35 -0.00    +0.013 A  ATOM      9  C   UNL     1      40.204  44.065  21.441 -0.27 +0.00    +0.014 A  ATOM     10  C   UNL     1      38.070  44.887  20.647 -0.26 +0.00    +0.014 A  BRANCH   6  11ATOM     11  C   UNL     1      40.643  45.527  17.967 -0.38 -0.01    +0.199 C  ATOM     12  O   UNL     1      41.726  45.058  17.611 -0.23 -0.02    -0.288 OA BRANCH  11  13ATOM     13  C   UNL     1      39.984  46.496  17.066 -0.40 -0.02    +0.104 A  ATOM     14  C   UNL     1      38.169  47.132  15.565 -0.32 -0.07    +0.155 A  ATOM     15  C   UNL     1      38.788  48.365  15.346 -0.48 -0.03    +0.053 A  ATOM     16  C   UNL     1      38.772  46.210  16.433 -0.28 -0.05    +0.179 A  ATOM     17  C   UNL     1      39.982  48.676  16.002 -0.50 -0.02    +0.051 A  ATOM     18  C   UNL     1      40.565  47.754  16.866 -0.43 -0.02    +0.130 A  ATOM     19  F   UNL     1      38.149  45.044  16.670 -0.07 +0.05    -0.202 F  BRANCH  14  20ATOM     20  O   UNL     1      36.994  46.723  14.996 -0.07 +0.30    -0.494 OA ATOM     21  C   UNL     1      36.499  47.481  13.900 -0.35 -0.18    +0.278 C  ENDBRANCH  14  20BRANCH  18  22ATOM     22  O   UNL     1      41.715  48.151  17.494 -0.48 +0.01    -0.507 OA ATOM     23  H   UNL     1      42.330  47.381  17.513 -0.34 -0.06    +0.293 HD ENDBRANCH  18  22ENDBRANCH  11  13ENDBRANCH   6  11ENDBRANCH   1   5BRANCH   3  24ATOM     24  C   UNL     1      38.580  43.547  25.387 -0.20 +0.00    +0.106 C  BRANCH  24  25ATOM     25  C   UNL     1      39.080  42.117  25.655 -0.15 +0.00    +0.028 CG0ATOM     26  G   UNL     1      38.562  41.351  26.875 +0.00 +0.00    +0.000 G0 ENDBRANCH  24  25BRANCH  24  27ATOM     27  C   UNL     1      37.065  43.804  25.642 -0.31 -0.00    +0.121 C  BRANCH  27  28ATOM     28  C   UNL     1      36.557  43.188  26.981 -0.41 -0.01    +0.075 C  ATOM     29  C   UNL     1      35.267  43.877  27.453 -0.56 -0.01    +0.026 C  BRANCH  28  30ATOM     30  N   UNL     1      37.506  43.251  28.100 -0.18 +0.07    -0.312 NA ATOM     31  H   UNL     1      37.996  44.144  28.089 +0.04 -0.02    +0.123 HD BRANCH  30  32ATOM     32  C   UNL     1      38.431  42.133  28.182 -0.37 -0.01    +0.081 C  BRANCH  32  33ATOM     33  C   UNL     1      38.558  41.358  26.878 -0.42 -0.00    +0.017 CG0ATOM     34  G   UNL     1      39.068  42.119  25.651 +0.00 +0.00    +0.000 G0 ENDBRANCH  32  33ENDBRANCH  30  32ENDBRANCH  28  30ENDBRANCH  27  28BRANCH  27  35ATOM     35  N   UNL     1      36.736  45.238  25.539 -0.15 +0.00    -0.346 N  ATOM     36  C   UNL     1      37.413  46.203  26.253 -0.25 -0.02    +0.251 C  ATOM     37  H   UNL     1      35.998  45.512  24.910 -0.23 +0.03    +0.164 HD ATOM     38  O   UNL     1      38.290  45.961  27.072 -0.17 +0.02    -0.269 OA BRANCH  36  39ATOM     39  C   UNL     1      37.015  47.611  25.998 -0.37 -0.00    +0.042 A  ATOM     40  C   UNL     1      37.482  48.228  24.837 -0.26 +0.00    +0.034 A  ATOM     41  C   UNL     1      36.167  48.308  26.858 -0.33 -0.00    +0.034 A  ATOM     42  C   UNL     1      37.105  49.535  24.600 -0.16 +0.00    +0.112 A  ATOM     43  C   UNL     1      35.846  49.612  26.527 -0.31 -0.00    +0.112 A  ATOM     44  N   UNL     1      36.303  50.242  25.425 -0.29 +0.01    -0.265 NA ENDBRANCH  36  39ENDBRANCH  27  35ENDBRANCH  24  27ENDBRANCH   3  24TORSDOF 8TERENDMDL