REMARK SMILES Cn1ccc2ccc3c4[nH]c5c(CCCN[C@H]6CC[C@H](O)CC6)cccc5c4c4c(c3c21)C(=O)NC4=O
REMARK SMILES IDX 15 1 14 2 13 3 12 4 2 5 3 6 32 7 4 8 31 9 5 10 30 11 8 12
REMARK SMILES IDX 6 13 29 14 33 15 7 16 9 17 28 18 36 19 35 20 10 21 27 22
REMARK SMILES IDX 11 23 26 24 25 25 24 26 1 27 34 28 37 29 16 32 17 34 23 35
REMARK SMILES IDX 18 36 22 37 19 38 20 39 21 40
REMARK H PARENT 35 30 10 31 16 33 21 41
ROOT
ATOM      1  C   UNL     1       3.077  -0.835   1.083  1.00  0.00     0.081 C 
ENDROOT
BRANCH   1   2
ATOM      2  C   UNL     1       2.016  -1.918   1.300  1.00  0.00     0.020 C 
BRANCH   2   3
ATOM      3  C   UNL     1       1.286  -1.783   2.641  1.00  0.00     0.039 C 
BRANCH   3   4
ATOM      4  C   UNL     1       0.481  -0.514   2.780  1.00  0.00    -0.024 A 
ATOM      5  N   UNL     1      -6.432   0.018  -2.430  1.00  0.00    -0.350 N 
ATOM      6  C   UNL     1      -7.105  -0.943  -3.148  1.00  0.00     0.086 A 
ATOM      7  C   UNL     1      -5.486  -0.568  -1.597  1.00  0.00     0.057 A 
ATOM      8  C   UNL     1      -6.460  -2.135  -2.957  1.00  0.00     0.028 A 
ATOM      9  C   UNL     1      -4.632  -0.074  -0.541  1.00  0.00     0.022 A 
ATOM     10  C   UNL     1      -5.396  -1.898  -2.049  1.00  0.00     0.000 A 
ATOM     11  C   UNL     1      -4.734   1.127   0.179  1.00  0.00     0.063 A 
ATOM     12  C   UNL     1      -3.548  -0.931  -0.174  1.00  0.00     0.009 A 
ATOM     13  C   UNL     1      -4.371  -2.733  -1.575  1.00  0.00     0.011 A 
ATOM     14  C   UNL     1      -3.757   1.546   1.090  1.00  0.00     0.063 A 
ATOM     15  C   UNL     1      -5.832   2.100   0.315  1.00  0.00     0.259 C 
ATOM     16  C   UNL     1      -3.426  -2.232  -0.685  1.00  0.00     0.012 A 
ATOM     17  C   UNL     1      -2.564  -0.470   0.756  1.00  0.00     0.055 A 
ATOM     18  C   UNL     1      -2.629   0.778   1.389  1.00  0.00     0.022 A 
ATOM     19  C   UNL     1      -4.190   2.819   1.663  1.00  0.00     0.259 C 
ATOM     20  N   UNL     1      -5.362   3.133   1.059  1.00  0.00    -0.288 N 
ATOM     21  N   UNL     1      -1.418  -1.076   1.223  1.00  0.00    -0.354 N 
ATOM     22  C   UNL     1      -1.471   0.903   2.229  1.00  0.00     0.008 A 
ATOM     23  C   UNL     1      -0.731  -0.273   2.101  1.00  0.00     0.050 A 
ATOM     24  C   UNL     1      -0.974   1.904   3.089  1.00  0.00     0.011 A 
ATOM     25  C   UNL     1       0.224   1.699   3.780  1.00  0.00     0.001 A 
ATOM     26  C   UNL     1       0.934   0.513   3.627  1.00  0.00     0.006 A 
ATOM     27  C   UNL     1      -6.574   1.419  -2.768  1.00  0.00     0.149 C 
ATOM     28  O   UNL     1      -6.980   1.972  -0.057  1.00  0.00    -0.269 OA
ATOM     29  O   UNL     1      -3.658   3.455   2.549  1.00  0.00    -0.269 OA
ATOM     30  H   UNL     1      -5.963   3.862   1.411  1.00  0.00     0.173 HD
ATOM     31  H   UNL     1      -1.100  -1.990   0.940  1.00  0.00     0.167 HD
ENDBRANCH   3   4
ENDBRANCH   2   3
ENDBRANCH   1   2
BRANCH   1  32
ATOM     32  N   UNL     1       3.792  -1.105  -0.166  1.00  0.00    -0.314 NA
ATOM     33  H   UNL     1       4.248  -2.015  -0.118  1.00  0.00     0.122 HD
BRANCH  32  34
ATOM     34  C   UNL     1       4.779  -0.066  -0.493  1.00  0.00     0.053 C 
ATOM     35  C   UNL     1       6.092  -0.208   0.306  1.00  0.00     0.021 C 
ATOM     36  C   UNL     1       5.018  -0.135  -2.015  1.00  0.00     0.021 C 
ATOM     37  C   UNL     1       7.153  -1.002  -0.454  1.00  0.00     0.033 C 
ATOM     38  C   UNL     1       6.362   0.475  -2.390  1.00  0.00     0.033 C 
ATOM     39  C   UNL     1       7.521  -0.315  -1.775  1.00  0.00     0.114 C 
BRANCH  39  40
ATOM     40  O   UNL     1       8.601   0.593  -1.562  1.00  0.00    -0.393 OA
ATOM     41  H   UNL     1       9.366   0.074  -1.259  1.00  0.00     0.210 HD
ENDBRANCH  39  40
ENDBRANCH  32  34
ENDBRANCH   1  32
TORSDOF 6
