MODEL        2USER    Run = 2USERUSER    Estimated Free Energy of Binding    =  -6.63 kcal/mol  [=(1)+(2)+(3)-(4)]USERUSER    (1) Final Intermolecular Energy     = -11.10 kcal/molUSER        vdW + Hbond + desolv Energy     = -11.22 kcal/molUSER        Electrostatic Energy            =  -0.20 kcal/molUSER        Moving Ligand-Fixed Receptor    = -11.41 kcal/molUSER        Moving Ligand-Moving Receptor   =  +0.31 kcal/molUSER    (2) Final Total Internal Energy     =  -3.50 kcal/molUSER    (3) Torsional Free Energy           =  +4.47 kcal/molUSER    (4) Unbound System's Energy         =  -3.50 kcal/molUSERUSERREMARK SMILES COc1ccc(O)c(C(=O)c2ccc(CO[C@@H]3CCCNC[C@@H]3NC(=O)c3ccncc3)cc2)c1FREMARK SMILES IDX 16 1 15 2 14 3 11 4 12 5 34 6 13 7 33 8 9 9 10 10 8 11 3 12REMARK SMILES IDX 4 13 35 14 5 15 6 16 36 17 2 18 1 19 7 20 17 22 18 23 23 25REMARK SMILES IDX 22 26 21 27 20 29 19 30 24 32 25 33 26 35 27 36 28 37 32 38REMARK SMILES IDX 29 39 31 40 30 41REMARK H PARENT 7 21 21 28 24 34REMARK Flexibility Score:   99.900USER                              x       y       z     vdW  Elec       q    TypeUSER                           _______ _______ _______ _____ _____    ______ ____ROOTATOM      1  O   UNL     1      39.386  46.932  15.793 -0.20 +0.10    -0.371 OA ENDROOTBRANCH   1   2ATOM      2  C   UNL     1      40.583  46.165  15.916 -0.23 -0.01    +0.196 C  BRANCH   2   3ATOM      3  C   UNL     1      41.094  46.311  17.325 -0.34 +0.00    -0.022 A  ATOM      4  C   UNL     1      42.078  46.594  19.942 -0.42 +0.00    +0.023 A  ATOM      5  C   UNL     1      42.185  47.654  19.036 -0.34 +0.00    +0.012 A  ATOM      6  C   UNL     1      41.450  45.407  19.550 -0.40 +0.00    +0.012 A  ATOM      7  C   UNL     1      41.701  47.508  17.735 -0.34 -0.00    +0.007 A  ATOM      8  C   UNL     1      40.966  45.264  18.248 -0.45 +0.00    +0.007 A  BRANCH   4   9ATOM      9  C   UNL     1      42.546  46.714  21.344 -0.28 +0.04    +0.199 C  ATOM     10  O   UNL     1      43.705  46.393  21.618 -0.26 -0.15    -0.288 OA BRANCH   9  11ATOM     11  C   UNL     1      41.672  47.141  22.457 -0.10 +0.01    +0.104 A  ATOM     12  C   UNL     1      39.617  46.962  23.757 -0.22 +0.02    +0.155 A  ATOM     13  C   UNL     1      40.061  47.986  24.597 -0.28 +0.01    +0.053 A  ATOM     14  C   UNL     1      40.427  46.554  22.687 -0.08 +0.02    +0.179 A  ATOM     15  C   UNL     1      41.291  48.604  24.355 -0.33 +0.01    +0.051 A  ATOM     16  C   UNL     1      42.082  48.193  23.285 -0.26 +0.02    +0.130 A  ATOM     17  F   UNL     1      39.973  45.594  21.865 -0.07 -0.01    -0.202 F  BRANCH  12  18ATOM     18  O   UNL     1      38.428  46.295  23.883 -0.24 -0.07    -0.494 OA ATOM     19  C   UNL     1      38.482  44.935  24.294 -0.16 +0.02    +0.278 C  ENDBRANCH  12  18BRANCH  16  20ATOM     20  O   UNL     1      43.257  48.872  23.101 -0.73 -0.16    -0.507 OA ATOM     21  H   UNL     1      43.679  48.527  22.281 -0.26 +0.04    +0.293 HD ENDBRANCH  16  20ENDBRANCH   9  11ENDBRANCH   4   9ENDBRANCH   2   3ENDBRANCH   1   2BRANCH   1  22ATOM     22  C   UNL     1      38.674  46.690  14.560 -0.40 -0.04    +0.142 C  BRANCH  22  23ATOM     23  C   UNL     1      37.734  47.896  14.413 -0.57 -0.02    +0.035 CG0ATOM     24  G   UNL     1      36.507  47.779  13.515 +0.00 +0.00    +0.000 G0 ENDBRANCH  22  23BRANCH  22  25ATOM     25  C   UNL     1      37.991  45.303  14.627 -0.32 -0.04    +0.125 C  BRANCH  25  26ATOM     26  C   UNL     1      36.977  45.127  13.470 -0.45 -0.04    +0.108 C  BRANCH  26  27ATOM     27  N   UNL     1      35.589  45.489  13.750 -0.11 +0.17    -0.315 NA ATOM     28  H   UNL     1      35.256  44.912  14.525 +0.08 -0.06    +0.122 HD BRANCH  27  29ATOM     29  C   UNL     1      35.377  46.901  14.033 -0.34 -0.07    +0.081 C  BRANCH  29  30ATOM     30  C   UNL     1      36.507  47.779  13.517 -0.63 -0.01    +0.018 CG0ATOM     31  G   UNL     1      37.732  47.895  14.417 +0.00 +0.00    +0.000 G0 ENDBRANCH  29  30ENDBRANCH  27  29ENDBRANCH  26  27ENDBRANCH  25  26BRANCH  25  32ATOM     32  N   UNL     1      37.432  45.049  15.963 -0.12 +0.12    -0.345 N  ATOM     33  C   UNL     1      36.638  43.948  16.210 -0.26 -0.08    +0.251 C  ATOM     34  H   UNL     1      38.024  45.346  16.729 +0.11 -0.05    +0.164 HD ATOM     35  O   UNL     1      36.257  43.176  15.341 -0.36 +0.09    -0.269 OA BRANCH  33  36ATOM     36  C   UNL     1      36.282  43.702  17.633 -0.27 -0.01    +0.042 A  ATOM     37  C   UNL     1      35.410  42.652  17.925 -0.35 -0.01    +0.034 A  ATOM     38  C   UNL     1      36.763  44.505  18.667 -0.33 -0.01    +0.034 A  ATOM     39  C   UNL     1      35.068  42.439  19.247 -0.34 -0.01    +0.112 A  ATOM     40  C   UNL     1      36.358  44.210  19.957 -0.31 -0.01    +0.112 A  ATOM     41  N   UNL     1      35.528  43.192  20.269 -0.27 +0.01    -0.265 NA ENDBRANCH  33  36ENDBRANCH  25  32ENDBRANCH  22  25ENDBRANCH   1  22TORSDOF 9TERENDMDL