MODEL        1USER    Run = 1USERUSER    Estimated Free Energy of Binding    =  -7.19 kcal/mol  [=(1)+(2)+(3)-(4)]USERUSER    (1) Final Intermolecular Energy     = -11.66 kcal/molUSER        vdW + Hbond + desolv Energy     = -11.89 kcal/molUSER        Electrostatic Energy            =  -0.32 kcal/molUSER        Moving Ligand-Fixed Receptor    = -12.21 kcal/molUSER        Moving Ligand-Moving Receptor   =  +0.54 kcal/molUSER    (2) Final Total Internal Energy     =  -3.07 kcal/molUSER    (3) Torsional Free Energy           =  +4.47 kcal/molUSER    (4) Unbound System's Energy         =  -3.07 kcal/molUSERUSERREMARK SMILES COc1ccc(O)c(C(=O)c2ccc(NC[C@@H]3CCCNC[C@@H]3NC(=O)c3ccncc3)cc2)c1FREMARK SMILES IDX 16 1 15 2 14 4 11 5 12 6 34 7 13 8 33 9 9 10 10 11 8 12 3 13REMARK SMILES IDX 4 14 35 15 5 16 6 17 36 18 2 19 1 20 7 21 17 23 18 24 23 26REMARK SMILES IDX 22 27 21 28 20 30 19 31 24 33 25 34 26 36 27 37 28 38 32 39REMARK SMILES IDX 29 40 31 41 30 42REMARK H PARENT 15 3 7 22 21 29 24 35REMARK Flexibility Score:   99.900USER                              x       y       z     vdW  Elec       q    TypeUSER                           _______ _______ _______ _____ _____    ______ ____ROOTATOM      1  C   UNL     1      38.775  46.858  16.402 -0.40 -0.04    +0.118 C  ENDROOTBRANCH   1   2ATOM      2  N   UNL     1      39.784  45.877  16.812 -0.14 +0.06    -0.385 N  ATOM      3  H   UNL     1      39.478  44.916  16.699 +0.13 -0.02    +0.160 HD BRANCH   2   4ATOM      4  C   UNL     1      40.620  46.073  17.907 -0.47 -0.00    +0.034 A  ATOM      5  C   UNL     1      42.281  46.645  20.127 -0.41 +0.00    +0.023 A  ATOM      6  C   UNL     1      41.454  45.519  20.132 -0.38 +0.00    +0.014 A  ATOM      7  C   UNL     1      42.239  47.518  19.040 -0.43 +0.00    +0.014 A  ATOM      8  C   UNL     1      40.628  45.244  19.035 -0.43 +0.00    +0.026 A  ATOM      9  C   UNL     1      41.410  47.231  17.948 -0.50 -0.00    +0.026 A  BRANCH   5  10ATOM     10  C   UNL     1      43.114  46.916  21.323 -0.30 +0.06    +0.199 C  ATOM     11  O   UNL     1      44.302  46.590  21.313 -0.57 -0.26    -0.288 OA BRANCH  10  12ATOM     12  C   UNL     1      42.579  47.515  22.566 -0.25 +0.02    +0.104 A  ATOM     13  C   UNL     1      40.822  47.770  24.238 -0.21 +0.02    +0.155 A  ATOM     14  C   UNL     1      41.623  48.674  24.938 -0.31 +0.01    +0.053 A  ATOM     15  C   UNL     1      41.307  47.203  23.049 -0.12 +0.02    +0.179 A  ATOM     16  C   UNL     1      42.884  49.019  24.446 -0.33 +0.01    +0.051 A  ATOM     17  C   UNL     1      43.349  48.454  23.261 -0.28 +0.03    +0.130 A  ATOM     18  F   UNL     1      40.510  46.368  22.364 -0.06 -0.02    -0.202 F  BRANCH  13  19ATOM     19  O   UNL     1      39.566  47.370  24.612 -0.07 -0.05    -0.494 OA ATOM     20  C   UNL     1      38.506  48.302  24.436 -0.30 +0.04    +0.278 C  ENDBRANCH  13  19BRANCH  17  21ATOM     21  O   UNL     1      44.581  48.872  22.831 -0.13 -0.15    -0.507 OA ATOM     22  H   UNL     1      44.656  48.653  21.874 -0.43 +0.02    +0.293 HD ENDBRANCH  17  21ENDBRANCH  10  12ENDBRANCH   5  10ENDBRANCH   2   4ENDBRANCH   1   2BRANCH   1  23ATOM     23  C   UNL     1      38.488  46.795  14.881 -0.48 -0.01    +0.032 C  BRANCH  23  24ATOM     24  C   UNL     1      37.797  48.094  14.419 -0.60 -0.00    +0.009 CG0ATOM     25  G   UNL     1      37.111  48.113  13.052 +0.00 +0.00    +0.000 G0 ENDBRANCH  23  24BRANCH  23  26ATOM     26  C   UNL     1      37.745  45.486  14.528 -0.38 -0.03    +0.101 C  BRANCH  26  27ATOM     27  C   UNL     1      37.212  45.508  13.076 -0.47 -0.04    +0.106 C  BRANCH  27  28ATOM     28  N   UNL     1      35.835  45.997  12.926 -0.28 +0.16    -0.315 NA ATOM     29  H   UNL     1      35.496  45.679  12.015 +0.05 -0.06    +0.122 HD BRANCH  28  30ATOM     30  C   UNL     1      35.741  47.457  12.956 -0.53 -0.05    +0.081 C  BRANCH  30  31ATOM     31  C   UNL     1      37.113  48.113  13.051 -0.53 -0.01    +0.016 CG0ATOM     32  G   UNL     1      37.789  48.094  14.422 +0.00 +0.00    +0.000 G0 ENDBRANCH  30  31ENDBRANCH  28  30ENDBRANCH  27  28ENDBRANCH  26  27BRANCH  26  33ATOM     33  N   UNL     1      36.650  45.182  15.446 -0.12 +0.16    -0.348 N  ATOM     34  C   UNL     1      36.808  44.432  16.587 -0.23 -0.08    +0.251 C  ATOM     35  H   UNL     1      35.733  45.462  15.121 +0.12 -0.10    +0.164 HD ATOM     36  O   UNL     1      37.883  43.951  16.926 -0.19 +0.06    -0.269 OA BRANCH  34  37ATOM     37  C   UNL     1      35.592  44.197  17.410 -0.28 -0.02    +0.042 A  ATOM     38  C   UNL     1      34.945  45.307  17.956 -0.36 -0.02    +0.034 A  ATOM     39  C   UNL     1      35.068  42.922  17.625 -0.36 -0.01    +0.034 A  ATOM     40  C   UNL     1      33.811  45.092  18.716 -0.36 -0.04    +0.112 A  ATOM     41  C   UNL     1      33.927  42.815  18.400 -0.29 -0.02    +0.112 A  ATOM     42  N   UNL     1      33.292  43.868  18.954 -0.22 +0.05    -0.265 NA ENDBRANCH  34  37ENDBRANCH  26  33ENDBRANCH  23  26ENDBRANCH   1  23TORSDOF 9TERENDMDL