MODEL        6USER    Run = 6USERUSER    Estimated Free Energy of Binding    =  -7.54 kcal/mol  [=(1)+(2)+(3)-(4)]USERUSER    (1) Final Intermolecular Energy     = -12.01 kcal/molUSER        vdW + Hbond + desolv Energy     = -12.26 kcal/molUSER        Electrostatic Energy            =  -0.24 kcal/molUSER        Moving Ligand-Fixed Receptor    = -12.49 kcal/molUSER        Moving Ligand-Moving Receptor   =  +0.48 kcal/molUSER    (2) Final Total Internal Energy     =  -2.48 kcal/molUSER    (3) Torsional Free Energy           =  +4.47 kcal/molUSER    (4) Unbound System's Energy         =  -2.48 kcal/molUSERUSERREMARK SMILES COc1ccc(O)c(C(=O)c2ccc(/C=C/[C@@H]3CCCNC[C@H]3NC(=O)c3ccncc3)cc2)c1FREMARK SMILES IDX 16 1 15 2 14 3 11 4 12 5 34 6 13 7 33 8 9 9 10 10 8 11 3 12REMARK SMILES IDX 4 13 35 14 5 15 6 16 36 17 2 18 1 19 7 20 17 22 18 23 23 25REMARK SMILES IDX 22 26 21 27 20 29 19 30 24 32 25 33 26 35 27 36 28 37 32 38REMARK SMILES IDX 29 39 31 40 30 41REMARK H PARENT 7 21 21 28 24 34REMARK Flexibility Score:   99.900USER                              x       y       z     vdW  Elec       q    TypeUSER                           _______ _______ _______ _____ _____    ______ ____ROOTATOM      1  C   UNL     1      38.933  43.538  25.639 -0.21 +0.00    -0.021 C  ENDROOTBRANCH   1   2ATOM      2  C   UNL     1      39.125  43.030  24.411 -0.27 +0.00    +0.004 C  BRANCH   2   3ATOM      3  C   UNL     1      38.175  43.205  23.306 -0.31 -0.00    -0.026 A  ATOM      4  C   UNL     1      36.301  43.501  21.237 -0.35 +0.00    +0.023 A  ATOM      5  C   UNL     1      36.273  42.361  22.046 -0.41 +0.00    +0.013 A  ATOM      6  C   UNL     1      37.235  44.510  21.483 -0.31 +0.00    +0.013 A  ATOM      7  C   UNL     1      37.206  42.220  23.079 -0.45 +0.00    +0.009 A  ATOM      8  C   UNL     1      38.172  44.357  22.508 -0.34 +0.00    +0.009 A  BRANCH   4   9ATOM      9  C   UNL     1      35.312  43.700  20.156 -0.32 -0.01    +0.199 C  ATOM     10  O   UNL     1      34.231  43.111  20.224 -0.70 -0.03    -0.288 OA BRANCH   9  11ATOM     11  C   UNL     1      35.580  44.537  18.965 -0.30 -0.02    +0.104 A  ATOM     12  C   UNL     1      37.062  45.319  17.193 -0.25 -0.06    +0.155 A  ATOM     13  C   UNL     1      36.044  46.141  16.709 -0.33 -0.04    +0.053 A  ATOM     14  C   UNL     1      36.820  44.523  18.323 -0.22 -0.04    +0.179 A  ATOM     15  C   UNL     1      34.809  46.184  17.362 -0.35 -0.05    +0.051 A  ATOM     16  C   UNL     1      34.585  45.398  18.487 -0.34 -0.06    +0.130 A  ATOM     17  F   UNL     1      37.820  43.766  18.803 -0.03 +0.02    -0.202 F  BRANCH  12  18ATOM     18  O   UNL     1      38.316  45.207  16.653 -0.07 +0.13    -0.494 OA ATOM     19  C   UNL     1      39.030  46.412  16.407 -0.29 -0.08    +0.278 C  ENDBRANCH  12  18BRANCH  16  20ATOM     20  O   UNL     1      33.358  45.524  19.082 -0.17 +0.21    -0.507 OA ATOM     21  H   UNL     1      33.416  45.120  19.979 -0.21 -0.12    +0.293 HD ENDBRANCH  16  20ENDBRANCH   9  11ENDBRANCH   4   9ENDBRANCH   2   3ENDBRANCH   1   2BRANCH   1  22ATOM     22  C   UNL     1      37.792  43.184  26.590 -0.31 -0.00    +0.035 C  BRANCH  22  23ATOM     23  C   UNL     1      37.731  41.646  26.661 -0.45 -0.00    +0.011 CG0ATOM     24  G   UNL     1      37.028  41.002  27.851 +0.00 +0.00    +0.000 G0 ENDBRANCH  22  23BRANCH  22  25ATOM     25  C   UNL     1      36.417  43.866  26.313 -0.38 -0.01    +0.103 C  BRANCH  25  26ATOM     26  C   UNL     1      35.280  43.194  27.137 -0.52 -0.02    +0.106 C  BRANCH  26  27ATOM     27  N   UNL     1      34.928  41.814  26.825 -0.30 +0.09    -0.315 NA ATOM     28  H   UNL     1      35.156  41.620  25.848 +0.03 -0.03    +0.122 HD BRANCH  27  29ATOM     29  C   UNL     1      35.523  40.811  27.694 -0.56 -0.04    +0.081 C  BRANCH  29  30ATOM     30  C   UNL     1      37.025  41.002  27.853 -0.55 -0.00    +0.016 CG0ATOM     31  G   UNL     1      37.734  41.644  26.666 +0.00 +0.00    +0.000 G0 ENDBRANCH  29  30ENDBRANCH  27  29ENDBRANCH  26  27ENDBRANCH  25  26BRANCH  25  32ATOM     32  N   UNL     1      36.453  45.296  26.650 -0.01 +0.08    -0.347 N  ATOM     33  C   UNL     1      37.042  46.224  25.820 -0.19 -0.01    +0.251 C  ATOM     34  H   UNL     1      35.869  45.614  27.412 -0.34 -0.07    +0.164 HD ATOM     35  O   UNL     1      37.577  45.939  24.757 -0.71 -0.05    -0.269 OA BRANCH  33  36ATOM     36  C   UNL     1      36.971  47.638  26.266 -0.36 -0.00    +0.042 A  ATOM     37  C   UNL     1      37.113  47.992  27.608 -0.28 -0.01    +0.034 A  ATOM     38  C   UNL     1      36.793  48.629  25.303 -0.42 +0.00    +0.034 A  ATOM     39  C   UNL     1      37.041  49.334  27.930 -0.21 -0.00    +0.112 A  ATOM     40  C   UNL     1      36.732  49.942  25.729 -0.33 +0.00    +0.112 A  ATOM     41  N   UNL     1      36.842  50.315  27.023 -0.15 -0.03    -0.265 NA ENDBRANCH  33  36ENDBRANCH  25  32ENDBRANCH  22  25ENDBRANCH   1  22TORSDOF 9TERENDMDL