MODEL        9USER    Run = 9USERUSER    Estimated Free Energy of Binding    =  -7.58 kcal/mol  [=(1)+(2)+(3)-(4)]USERUSER    (1) Final Intermolecular Energy     = -12.05 kcal/molUSER        vdW + Hbond + desolv Energy     = -12.26 kcal/molUSER        Electrostatic Energy            =  -0.21 kcal/molUSER        Moving Ligand-Fixed Receptor    = -12.47 kcal/molUSER        Moving Ligand-Moving Receptor   =  +0.42 kcal/molUSER    (2) Final Total Internal Energy     =  -3.46 kcal/molUSER    (3) Torsional Free Energy           =  +4.47 kcal/molUSER    (4) Unbound System's Energy         =  -3.46 kcal/molUSERUSERREMARK SMILES COc1ccc(O)c(C(=O)c2ccc(CN[C@@H]3CCCNC[C@H]3NC(=O)c3ccncc3)cc2)c1FREMARK SMILES IDX 16 1 15 3 14 4 11 5 12 6 34 7 13 8 33 9 9 10 10 11 8 12 3 13REMARK SMILES IDX 4 14 35 15 5 16 6 17 36 18 2 19 1 20 7 21 17 23 18 24 23 26REMARK SMILES IDX 22 27 21 28 20 30 19 31 24 33 25 34 26 36 27 37 28 38 32 39REMARK SMILES IDX 29 40 31 41 30 42REMARK H PARENT 16 2 7 22 21 29 24 35REMARK Flexibility Score:   99.900USER                              x       y       z     vdW  Elec       q    TypeUSER                           _______ _______ _______ _____ _____    ______ ____ROOTATOM      1  N   UNL     1      37.476  46.414  15.503 -0.15 +0.15    -0.308 NA ATOM      2  H   UNL     1      37.633  45.503  15.940 +0.09 -0.04    +0.123 HD ENDROOTBRANCH   1   3ATOM      3  C   UNL     1      36.188  46.938  15.960 -0.32 -0.11    +0.117 C  BRANCH   3   4ATOM      4  C   UNL     1      35.355  45.927  16.710 -0.33 +0.03    -0.034 A  ATOM      5  C   UNL     1      33.814  44.026  18.096 -0.31 -0.01    +0.023 A  ATOM      6  C   UNL     1      34.456  43.672  16.905 -0.33 -0.00    +0.012 A  ATOM      7  C   UNL     1      33.921  45.336  18.579 -0.45 -0.01    +0.012 A  ATOM      8  C   UNL     1      35.228  44.617  16.224 -0.32 -0.00    +0.006 A  ATOM      9  C   UNL     1      34.692  46.278  17.894 -0.46 -0.00    +0.006 A  BRANCH   5  10ATOM     10  C   UNL     1      32.950  43.073  18.834 -0.30 -0.02    +0.199 C  ATOM     11  O   UNL     1      33.027  43.026  20.064 -0.80 -0.05    -0.288 OA BRANCH  10  12ATOM     12  C   UNL     1      31.947  42.209  18.176 -0.26 -0.02    +0.104 A  ATOM     13  C   UNL     1      30.266  41.806  16.457 -0.24 -0.05    +0.155 A  ATOM     14  C   UNL     1      30.048  40.528  16.974 -0.33 -0.01    +0.053 A  ATOM     15  C   UNL     1      31.223  42.635  17.062 -0.18 -0.06    +0.179 A  ATOM     16  C   UNL     1      30.792  40.078  18.068 -0.33 -0.00    +0.051 A  ATOM     17  C   UNL     1      31.746  40.907  18.652 -0.28 -0.01    +0.130 A  ATOM     18  F   UNL     1      31.452  43.848  16.532 -0.04 +0.07    -0.202 F  BRANCH  13  19ATOM     19  O   UNL     1      29.615  42.347  15.379 -0.07 +0.31    -0.494 OA ATOM     20  C   UNL     1      28.624  43.331  15.644 -0.07 -0.19    +0.278 C  ENDBRANCH  13  19BRANCH  17  21ATOM     21  O   UNL     1      32.457  40.377  19.695 -0.47 -0.16    -0.507 OA ATOM     22  H   UNL     1      32.909  41.120  20.158 +0.20 +0.10    +0.293 HD ENDBRANCH  17  21ENDBRANCH  10  12ENDBRANCH   5  10ENDBRANCH   3   4ENDBRANCH   1   3BRANCH   1  23ATOM     23  C   UNL     1      38.632  47.293  15.829 -0.46 -0.03    +0.077 C  BRANCH  23  24ATOM     24  C   UNL     1      39.341  47.621  14.509 -0.53 -0.01    +0.022 CG0ATOM     25  G   UNL     1      40.835  47.920  14.627 +0.00 +0.00    +0.000 G0 ENDBRANCH  23  24BRANCH  23  26ATOM     26  C   UNL     1      39.555  46.591  16.874 -0.44 -0.02    +0.113 C  BRANCH  26  27ATOM     27  C   UNL     1      40.375  47.614  17.698 -0.33 -0.02    +0.107 C  BRANCH  27  28ATOM     28  N   UNL     1      41.443  48.355  17.036 -0.65 +0.01    -0.315 NA ATOM     29  H   UNL     1      42.265  47.752  16.953 -0.49 -0.02    +0.122 HD BRANCH  28  30ATOM     30  C   UNL     1      41.158  48.925  15.727 -0.59 -0.01    +0.081 C  BRANCH  30  31ATOM     31  C   UNL     1      40.838  47.920  14.623 -0.46 -0.00    +0.017 CG0ATOM     32  G   UNL     1      39.344  47.619  14.509 +0.00 +0.00    +0.000 G0 ENDBRANCH  30  31ENDBRANCH  28  30ENDBRANCH  27  28ENDBRANCH  26  27BRANCH  26  33ATOM     33  N   UNL     1      38.734  45.768  17.783 -0.18 +0.07    -0.346 N  ATOM     34  C   UNL     1      39.269  45.197  18.918 -0.30 -0.02    +0.251 C  ATOM     35  H   UNL     1      37.744  45.710  17.594 +0.10 -0.05    +0.164 HD ATOM     36  O   UNL     1      40.461  45.248  19.198 -0.29 -0.00    -0.269 OA BRANCH  34  37ATOM     37  C   UNL     1      38.329  44.466  19.806 -0.33 -0.00    +0.042 A  ATOM     38  C   UNL     1      38.636  44.390  21.165 -0.33 +0.00    +0.034 A  ATOM     39  C   UNL     1      37.151  43.890  19.331 -0.31 -0.00    +0.034 A  ATOM     40  C   UNL     1      37.762  43.711  21.993 -0.30 +0.01    +0.112 A  ATOM     41  C   UNL     1      36.341  43.235  20.242 -0.35 -0.00    +0.112 A  ATOM     42  N   UNL     1      36.626  43.125  21.557 -0.25 -0.02    -0.265 NA ENDBRANCH  34  37ENDBRANCH  26  33ENDBRANCH  23  26ENDBRANCH   1  23TORSDOF 9TERENDMDL