MODEL        8USER    Run = 8USERUSER    Estimated Free Energy of Binding    = -11.94 kcal/mol  [=(1)+(2)+(3)-(4)]USERUSER    (1) Final Intermolecular Energy     = -13.73 kcal/molUSER        vdW + Hbond + desolv Energy     = -13.60 kcal/molUSER        Electrostatic Energy            =  -0.13 kcal/molUSER        Moving Ligand-Fixed Receptor    = -13.73 kcal/molUSER        Moving Ligand-Moving Receptor   =  +0.00 kcal/molUSER    (2) Final Total Internal Energy     =  -1.82 kcal/molUSER    (3) Torsional Free Energy           =  +1.79 kcal/molUSER    (4) Unbound System's Energy         =  -1.82 kcal/molUSERUSERREMARK SMILES Oc1nc2ccccc2n1C1CCN(Cc2ccc(-c3nc4ccccc4nc3-c3ccccc3)cc2)CC1REMARK SMILES IDX 11 1 12 2 13 3 14 4 38 5 39 6 10 7 2 8 3 9 4 10 9 11 5 12REMARK SMILES IDX 8 13 6 14 7 15 1 16 15 18 16 19 17 20 37 21 18 22 36 23REMARK SMILES IDX 19 24 20 25 21 26 29 27 22 28 28 29 23 30 27 31 24 32 26 33REMARK SMILES IDX 25 34 30 35 31 36 35 37 32 38 34 39 33 40REMARK H PARENT 1 17USER                              x       y       z     vdW  Elec       q    TypeUSER                           _______ _______ _______ _____ _____    ______ ____ROOTATOM      1  C   UNL     1      31.354  40.328  18.050 -0.38 -0.01    +0.095 C  ATOM      2  C   UNL     1      30.402  40.932  17.005 -0.38 -0.01    +0.041 C  ATOM      3  C   UNL     1      30.308  42.452  17.132 -0.26 -0.02    +0.087 C  ATOM      4  N   UNL     1      31.602  43.111  17.333 -0.11 +0.08    -0.299 NA ATOM      5  C   UNL     1      32.327  42.598  18.507 -0.35 -0.01    +0.087 C  ATOM      6  C   UNL     1      31.723  41.340  19.140 -0.27 -0.00    +0.041 C  ENDROOTBRANCH   1   7ATOM      7  N   UNL     1      30.867  39.066  18.586 -0.21 -0.04    -0.291 N  ATOM      8  C   UNL     1      31.583  37.909  18.720 -0.28 +0.07    +0.295 A  ATOM      9  N   UNL     1      30.896  36.931  19.241 -0.72 -0.10    -0.195 NA ATOM     10  C   UNL     1      29.657  37.475  19.477 -0.21 +0.03    +0.092 A  ATOM     11  C   UNL     1      29.604  38.814  19.082 -0.30 +0.01    +0.072 A  ATOM     12  C   UNL     1      28.517  36.876  20.037 -0.23 +0.00    +0.031 A  ATOM     13  C   UNL     1      28.450  39.596  19.229 -0.16 +0.00    +0.029 A  ATOM     14  C   UNL     1      27.355  37.642  20.189 -0.30 -0.00    +0.002 A  ATOM     15  C   UNL     1      27.325  38.979  19.791 -0.26 -0.00    +0.002 A  BRANCH   8  16ATOM     16  O   UNL     1      32.847  37.764  18.378 -0.18 -0.02    -0.480 OA ATOM     17  H   UNL     1      32.945  38.463  17.705 +0.19 -0.05    +0.296 HD ENDBRANCH   8  16ENDBRANCH   1   7BRANCH   4  18ATOM     18  C   UNL     1      32.458  43.132  16.135 -0.29 -0.06    +0.120 C  BRANCH  18  19ATOM     19  C   UNL     1      33.826  43.736  16.369 -0.31 +0.02    -0.034 A  ATOM     20  C   UNL     1      34.970  42.931  16.384 -0.43 -0.00    +0.006 A  ATOM     21  C   UNL     1      33.966  45.112  16.591 -0.32 -0.00    +0.006 A  ATOM     22  C   UNL     1      36.232  43.498  16.598 -0.37 -0.00    +0.011 A  ATOM     23  C   UNL     1      35.227  45.675  16.803 -0.34 -0.01    +0.011 A  ATOM     24  C   UNL     1      36.385  44.880  16.794 -0.33 -0.00    +0.002 A  BRANCH  24  25ATOM     25  C   UNL     1      37.724  45.459  16.997 -0.30 -0.03    +0.097 A  ATOM     26  N   UNL     1      38.333  45.043  18.145 -0.23 +0.04    -0.244 NA ATOM     27  C   UNL     1      38.348  46.372  16.133 -0.33 -0.03    +0.097 A  ATOM     28  C   UNL     1      39.537  45.568  18.434 -0.38 -0.01    +0.089 A  ATOM     29  N   UNL     1      39.565  46.908  16.439 -0.28 +0.06    -0.244 NA ATOM     30  C   UNL     1      40.191  45.183  19.599 -0.40 +0.00    +0.030 A  ATOM     31  C   UNL     1      40.154  46.506  17.578 -0.42 -0.01    +0.089 A  ATOM     32  C   UNL     1      41.440  45.705  19.938 -0.40 +0.00    +0.002 A  ATOM     33  C   UNL     1      41.398  47.021  17.924 -0.48 -0.00    +0.030 A  ATOM     34  C   UNL     1      42.046  46.629  19.096 -0.51 +0.00    +0.002 A  BRANCH  27  35ATOM     35  C   UNL     1      37.805  46.827  14.840 -0.43 -0.00    +0.002 A  ATOM     36  C   UNL     1      37.426  48.170  14.662 -0.52 -0.01    +0.010 A  ATOM     37  C   UNL     1      37.676  45.961  13.739 -0.44 -0.00    +0.010 A  ATOM     38  C   UNL     1      36.912  48.624  13.444 -0.48 -0.00    +0.001 A  ATOM     39  C   UNL     1      37.159  46.412  12.521 -0.58 -0.00    +0.001 A  ATOM     40  C   UNL     1      36.775  47.743  12.375 -0.60 -0.00    +0.000 A  ENDBRANCH  27  35ENDBRANCH  24  25ENDBRANCH  18  19ENDBRANCH   4  18TORSDOF 6TERENDMDL