MODEL        5USER    Run = 5USERUSER    Estimated Free Energy of Binding    =  -8.25 kcal/mol  [=(1)+(2)+(3)-(4)]USERUSER    (1) Final Intermolecular Energy     = -12.43 kcal/molUSER        vdW + Hbond + desolv Energy     = -12.65 kcal/molUSER        Electrostatic Energy            =  -0.01 kcal/molUSER        Moving Ligand-Fixed Receptor    = -12.66 kcal/molUSER        Moving Ligand-Moving Receptor   =  +0.23 kcal/molUSER    (2) Final Total Internal Energy     =  -2.57 kcal/molUSER    (3) Torsional Free Energy           =  +4.18 kcal/molUSER    (4) Unbound System's Energy         =  -2.57 kcal/molUSERUSERREMARK SMILES COc1ccc(O)c(C(=O)c2ccc(C(=O)N[C@@H]3CCCNC[C@H]3NC(=O)c3ccncc3)cc2)c1FREMARK SMILES IDX 15 1 16 2 17 3 14 5 11 6 12 7 35 8 13 9 34 10 9 11 10 12REMARK SMILES IDX 8 13 3 14 4 15 36 16 5 17 6 18 37 19 2 20 1 21 7 22 18 24REMARK SMILES IDX 19 25 24 27 23 28 22 29 21 31 20 32 25 34 26 35 27 37 28 38REMARK SMILES IDX 29 39 33 40 30 41 32 42 31 43REMARK H PARENT 17 4 7 23 22 30 25 36REMARK Flexibility Score:   88.900USER                              x       y       z     vdW  Elec       q    TypeUSER                           _______ _______ _______ _____ _____    ______ ____ROOTATOM      1  C   UNL     1      36.581  44.720  16.920 -0.22 -0.09    +0.251 C  ATOM      2  O   UNL     1      36.700  43.939  15.983 -0.26 +0.09    -0.269 OA ATOM      3  N   UNL     1      36.348  46.071  16.756 -0.14 +0.21    -0.347 N  ATOM      4  H   UNL     1      36.469  46.673  17.559 +0.10 -0.10    +0.164 HD ENDROOTBRANCH   1   5ATOM      5  C   UNL     1      36.761  44.246  18.321 -0.30 -0.01    +0.039 A  ATOM      6  C   UNL     1      37.026  43.239  20.924 -0.39 +0.00    +0.023 A  ATOM      7  C   UNL     1      35.837  43.044  20.215 -0.44 -0.00    +0.013 A  ATOM      8  C   UNL     1      38.084  43.939  20.331 -0.31 -0.00    +0.013 A  ATOM      9  C   UNL     1      35.700  43.557  18.922 -0.35 -0.00    +0.014 A  ATOM     10  C   UNL     1      37.948  44.453  19.034 -0.35 -0.00    +0.014 A  BRANCH   6  11ATOM     11  C   UNL     1      37.151  42.610  22.256 -0.37 +0.01    +0.199 C  ATOM     12  O   UNL     1      37.365  41.397  22.307 -0.40 -0.02    -0.288 OA BRANCH  11  13ATOM     13  C   UNL     1      37.083  43.353  23.536 -0.29 +0.01    +0.104 A  ATOM     14  C   UNL     1      37.377  45.383  24.860 -0.16 +0.02    +0.155 A  ATOM     15  C   UNL     1      36.918  44.710  25.996 -0.32 -0.00    +0.053 A  ATOM     16  C   UNL     1      37.452  44.696  23.636 -0.17 +0.03    +0.179 A  ATOM     17  C   UNL     1      36.520  43.374  25.902 -0.35 -0.00    +0.051 A  ATOM     18  C   UNL     1      36.589  42.709  24.680 -0.29 +0.00    +0.130 A  ATOM     19  F   UNL     1      37.860  45.368  22.548 -0.11 -0.02    -0.202 F  BRANCH  14  20ATOM     20  O   UNL     1      37.778  46.692  24.825 -0.57 -0.09    -0.494 OA ATOM     21  C   UNL     1      39.163  46.940  24.601 -0.19 +0.03    +0.278 C  ENDBRANCH  14  20BRANCH  18  22ATOM     22  O   UNL     1      36.149  41.412  24.677 -0.12 +0.09    -0.507 OA ATOM     23  H   UNL     1      36.553  40.965  23.896 +0.13 -0.03    +0.293 HD ENDBRANCH  18  22ENDBRANCH  11  13ENDBRANCH   6  11ENDBRANCH   1   5BRANCH   3  24ATOM     24  C   UNL     1      36.432  46.694  15.429 -0.37 -0.08    +0.106 C  BRANCH  24  25ATOM     25  C   UNL     1      35.204  46.305  14.595 -0.42 -0.02    +0.028 CG0ATOM     26  G   UNL     1      35.198  46.809  13.143 +0.00 +0.00    +0.000 G0 ENDBRANCH  24  25BRANCH  24  27ATOM     27  C   UNL     1      37.789  46.348  14.753 -0.38 -0.05    +0.118 C  BRANCH  27  28ATOM     28  C   UNL     1      38.271  47.372  13.698 -0.46 -0.03    +0.108 C  BRANCH  28  29ATOM     29  N   UNL     1      37.544  47.414  12.426 -0.90 +0.05    -0.315 NA ATOM     30  H   UNL     1      37.231  48.364  12.237 +0.05 +0.01    +0.122 HD BRANCH  29  31ATOM     31  C   UNL     1      36.422  46.492  12.294 -0.67 -0.04    +0.081 C  BRANCH  31  32ATOM     32  C   UNL     1      35.194  46.809  13.143 -0.48 -0.01    +0.017 CG0ATOM     33  G   UNL     1      35.203  46.305  14.596 +0.00 +0.00    +0.000 G0 ENDBRANCH  31  32ENDBRANCH  29  31ENDBRANCH  28  29ENDBRANCH  27  28BRANCH  27  34ATOM     34  N   UNL     1      38.819  46.120  15.775 -0.15 +0.10    -0.346 N  ATOM     35  C   UNL     1      39.597  47.147  16.256 -0.36 -0.06    +0.251 C  ATOM     36  H   UNL     1      38.755  45.267  16.309 +0.11 -0.04    +0.164 HD ATOM     37  O   UNL     1      39.560  48.290  15.817 -0.36 +0.10    -0.269 OA BRANCH  35  38ATOM     38  C   UNL     1      40.497  46.818  17.388 -0.48 -0.01    +0.042 A  ATOM     39  C   UNL     1      40.461  45.523  17.907 -0.43 -0.00    +0.034 A  ATOM     40  C   UNL     1      41.348  47.767  17.957 -0.48 -0.00    +0.034 A  ATOM     41  C   UNL     1      41.298  45.223  18.963 -0.33 +0.01    +0.112 A  ATOM     42  C   UNL     1      42.145  47.367  19.014 -0.42 +0.00    +0.112 A  ATOM     43  N   UNL     1      42.143  46.115  19.525 -0.25 -0.05    -0.265 NA ENDBRANCH  35  38ENDBRANCH  27  34ENDBRANCH  24  27ENDBRANCH   3  24TORSDOF 8TERENDMDL