MODEL        2USER    Run = 2USERUSER    Estimated Free Energy of Binding    = -12.36 kcal/mol  [=(1)+(2)+(3)-(4)]USERUSER    (1) Final Intermolecular Energy     = -14.15 kcal/molUSER        vdW + Hbond + desolv Energy     = -14.13 kcal/molUSER        Electrostatic Energy            =  -0.03 kcal/molUSER        Moving Ligand-Fixed Receptor    = -14.15 kcal/molUSER        Moving Ligand-Moving Receptor   =  +0.00 kcal/molUSER    (2) Final Total Internal Energy     =  -0.79 kcal/molUSER    (3) Torsional Free Energy           =  +1.79 kcal/molUSER    (4) Unbound System's Energy         =  -0.79 kcal/molUSERUSERREMARK SMILES Cn1ccc2ccc3c4[nH]c5c(CCCN[C@H]6CC[C@H](O)CC6)cccc5c4c4c(c3c21)C(=O)NC4=OREMARK SMILES IDX 15 1 14 2 13 3 12 4 2 5 3 6 32 7 4 8 31 9 5 10 30 11 8 12REMARK SMILES IDX 6 13 29 14 33 15 7 16 9 17 28 18 36 19 35 20 10 21 27 22REMARK SMILES IDX 11 23 26 24 25 25 24 26 1 27 34 28 37 29 16 32 17 34 23 35REMARK SMILES IDX 18 36 22 37 19 38 20 39 21 40REMARK H PARENT 35 30 10 31 16 33 21 41USER                              x       y       z     vdW  Elec       q    TypeUSER                           _______ _______ _______ _____ _____    ______ ____ROOTATOM      1  C   UNL     1      38.052  45.140  24.983 -0.28 +0.00    +0.081 C  ENDROOTBRANCH   1   2ATOM      2  C   UNL     1      37.975  45.087  23.454 -0.33 +0.00    +0.020 C  BRANCH   2   3ATOM      3  C   UNL     1      38.146  43.671  22.893 -0.35 +0.00    +0.039 C  BRANCH   3   4ATOM      4  C   UNL     1      37.327  43.394  21.656 -0.38 -0.00    -0.024 A  ATOM      5  N   UNL     1      39.372  48.235  14.758 -0.25 +0.12    -0.350 N  ATOM      6  C   UNL     1      40.482  48.999  14.480 -0.43 -0.02    +0.086 A  ATOM      7  C   UNL     1      39.566  47.495  15.918 -0.46 -0.02    +0.057 A  ATOM      8  C   UNL     1      41.315  48.934  15.564 -0.52 -0.00    +0.028 A  ATOM      9  C   UNL     1      38.827  46.441  16.574 -0.40 -0.01    +0.022 A  ATOM     10  C   UNL     1      40.716  48.057  16.505 -0.56 -0.00    +0.000 A  ATOM     11  C   UNL     1      37.815  45.622  16.048 -0.32 -0.02    +0.063 A  ATOM     12  C   UNL     1      39.186  46.193  17.936 -0.42 -0.00    +0.009 A  ATOM     13  C   UNL     1      41.085  47.698  17.811 -0.50 -0.00    +0.011 A  ATOM     14  C   UNL     1      37.086  44.723  16.836 -0.30 -0.02    +0.063 A  ATOM     15  C   UNL     1      37.385  45.359  14.664 -0.26 -0.10    +0.259 C  ATOM     16  C   UNL     1      40.292  46.813  18.536 -0.33 -0.00    +0.012 A  ATOM     17  C   UNL     1      38.416  45.272  18.715 -0.35 -0.01    +0.055 A  ATOM     18  C   UNL     1      37.342  44.537  18.197 -0.33 -0.00    +0.022 A  ATOM     19  C   UNL     1      36.136  44.030  15.969 -0.26 -0.10    +0.259 C  ATOM     20  N   UNL     1      36.294  44.555  14.729 -0.19 +0.12    -0.288 N  ATOM     21  N   UNL     1      38.527  44.907  20.038 -0.16 +0.01    -0.354 N  ATOM     22  C   UNL     1      36.802  43.742  19.264 -0.33 -0.00    +0.008 A  ATOM     23  C   UNL     1      37.564  43.997  20.404 -0.34 -0.00    +0.050 A  ATOM     24  C   UNL     1      35.736  42.826  19.375 -0.40 -0.00    +0.011 A  ATOM     25  C   UNL     1      35.472  42.207  20.601 -0.45 +0.00    +0.001 A  ATOM     26  C   UNL     1      36.254  42.487  21.716 -0.43 +0.00    +0.006 A  ATOM     27  C   UNL     1      38.135  48.452  14.037 -0.44 -0.07    +0.149 C  ATOM     28  O   UNL     1      37.950  45.690  13.642 -0.29 +0.08    -0.269 OA ATOM     29  O   UNL     1      35.389  43.120  16.261 -0.32 +0.10    -0.269 OA ATOM     30  H   UNL     1      35.895  44.119  13.912 +0.15 -0.06    +0.173 HD ATOM     31  H   UNL     1      39.214  45.277  20.677 +0.09 +0.00    +0.167 HD ENDBRANCH   3   4ENDBRANCH   2   3ENDBRANCH   1   2BRANCH   1  32ATOM     32  N   UNL     1      36.711  45.368  25.524 -0.46 +0.00    -0.314 NA ATOM     33  H   UNL     1      36.591  46.352  25.759 -0.23 -0.01    +0.122 HD BRANCH  32  34ATOM     34  C   UNL     1      36.421  44.533  26.699 -0.36 -0.01    +0.053 C  ATOM     35  C   UNL     1      35.470  43.359  26.385 -0.43 -0.00    +0.021 C  ATOM     36  C   UNL     1      37.777  44.048  27.251 -0.35 -0.00    +0.021 C  ATOM     37  C   UNL     1      36.224  42.071  26.057 -0.50 -0.01    +0.033 C  ATOM     38  C   UNL     1      37.612  42.786  28.086 -0.32 -0.01    +0.033 C  ATOM     39  C   UNL     1      37.096  41.621  27.236 -0.46 -0.03    +0.114 C  BRANCH  39  40ATOM     40  O   UNL     1      36.344  40.759  28.090 -0.39 +0.16    -0.393 OA ATOM     41  H   UNL     1      36.512  41.035  29.007 -0.45 -0.14    +0.210 HD ENDBRANCH  39  40ENDBRANCH  32  34ENDBRANCH   1  32TORSDOF 6TERENDMDL