MODEL        4USER    Run = 4USERUSER    Estimated Free Energy of Binding    = -12.51 kcal/mol  [=(1)+(2)+(3)-(4)]USERUSER    (1) Final Intermolecular Energy     = -14.30 kcal/molUSER        vdW + Hbond + desolv Energy     = -14.18 kcal/molUSER        Electrostatic Energy            =  -0.12 kcal/molUSER        Moving Ligand-Fixed Receptor    = -14.30 kcal/molUSER        Moving Ligand-Moving Receptor   =  +0.00 kcal/molUSER    (2) Final Total Internal Energy     =  -1.92 kcal/molUSER    (3) Torsional Free Energy           =  +1.79 kcal/molUSER    (4) Unbound System's Energy         =  -1.92 kcal/molUSERUSERREMARK SMILES Oc1nc2ccccc2n1C1CCN(Cc2ccc(-c3cc4ccccc4nc3-c3ccccc3)cc2)CC1REMARK SMILES IDX 11 1 12 2 13 3 14 4 38 5 39 6 10 7 2 8 3 9 4 10 9 11 5 12REMARK SMILES IDX 8 13 6 14 7 15 1 16 15 18 16 19 17 20 37 21 18 22 36 23REMARK SMILES IDX 19 24 20 25 21 26 29 27 22 28 28 29 23 30 27 31 24 32 26 33REMARK SMILES IDX 25 34 30 35 31 36 35 37 32 38 34 39 33 40REMARK H PARENT 1 17USER                              x       y       z     vdW  Elec       q    TypeUSER                           _______ _______ _______ _____ _____    ______ ____ROOTATOM      1  C   UNL     1      31.280  39.898  17.380 -0.24 -0.01    +0.095 C  ATOM      2  C   UNL     1      32.447  40.763  17.879 -0.44 -0.01    +0.041 C  ATOM      3  C   UNL     1      32.057  42.178  18.295 -0.34 -0.01    +0.087 C  ATOM      4  N   UNL     1      31.169  42.857  17.349 -0.10 +0.08    -0.299 NA ATOM      5  C   UNL     1      29.936  42.090  17.153 -0.26 -0.02    +0.087 C  ATOM      6  C   UNL     1      30.153  40.660  16.666 -0.41 -0.01    +0.041 C  ENDROOTBRANCH   1   7ATOM      7  N   UNL     1      30.819  38.901  18.343 -0.22 -0.05    -0.291 N  ATOM      8  C   UNL     1      31.593  37.848  18.769 -0.28 +0.07    +0.295 A  ATOM      9  N   UNL     1      30.987  37.057  19.608 -0.64 -0.07    -0.195 NA ATOM     10  C   UNL     1      29.745  37.613  19.756 -0.31 +0.02    +0.092 A  ATOM     11  C   UNL     1      29.604  38.777  18.986 -0.31 +0.01    +0.072 A  ATOM     12  C   UNL     1      28.677  37.161  20.550 -0.30 -0.00    +0.031 A  ATOM     13  C   UNL     1      28.412  39.513  19.002 -0.23 +0.00    +0.029 A  ATOM     14  C   UNL     1      27.485  37.889  20.562 -0.29 -0.00    +0.002 A  ATOM     15  C   UNL     1      27.360  39.047  19.801 -0.26 -0.00    +0.002 A  BRANCH   8  16ATOM     16  O   UNL     1      32.834  37.621  18.392 -0.19 -0.03    -0.480 OA ATOM     17  H   UNL     1      32.927  38.260  17.662 +0.20 -0.04    +0.296 HD ENDBRANCH   8  16ENDBRANCH   1   7BRANCH   4  18ATOM     18  C   UNL     1      31.856  43.211  16.095 -0.31 -0.06    +0.120 C  BRANCH  18  19ATOM     19  C   UNL     1      33.245  43.772  16.315 -0.31 +0.02    -0.034 A  ATOM     20  C   UNL     1      34.381  42.975  16.133 -0.37 -0.00    +0.006 A  ATOM     21  C   UNL     1      33.413  45.108  16.705 -0.32 -0.00    +0.006 A  ATOM     22  C   UNL     1      35.659  43.502  16.340 -0.40 -0.00    +0.009 A  ATOM     23  C   UNL     1      34.690  45.630  16.920 -0.34 -0.01    +0.009 A  ATOM     24  C   UNL     1      35.831  44.835  16.746 -0.31 +0.01    -0.016 A  BRANCH  24  25ATOM     25  C   UNL     1      37.176  45.389  16.964 -0.35 -0.00    +0.009 A  ATOM     26  C   UNL     1      37.818  45.165  18.190 -0.36 -0.00    +0.021 A  ATOM     27  C   UNL     1      37.890  46.113  15.995 -0.32 -0.03    +0.079 A  ATOM     28  C   UNL     1      39.116  45.636  18.420 -0.42 -0.00    +0.001 A  ATOM     29  N   UNL     1      39.160  46.566  16.201 -0.24 +0.07    -0.247 NA ATOM     30  C   UNL     1      39.779  45.419  19.641 -0.40 -0.00    +0.010 A  ATOM     31  C   UNL     1      39.754  46.336  17.382 -0.41 -0.01    +0.071 A  ATOM     32  C   UNL     1      41.074  45.896  19.836 -0.41 +0.00    +0.001 A  ATOM     33  C   UNL     1      41.045  46.800  17.599 -0.48 -0.00    +0.029 A  ATOM     34  C   UNL     1      41.710  46.588  18.811 -0.52 +0.00    +0.002 A  BRANCH  27  35ATOM     35  C   UNL     1      37.354  46.463  14.666 -0.41 -0.00    +0.001 A  ATOM     36  C   UNL     1      37.144  45.465  13.698 -0.45 -0.00    +0.010 A  ATOM     37  C   UNL     1      37.059  47.791  14.313 -0.51 -0.01    +0.010 A  ATOM     38  C   UNL     1      36.634  45.780  12.435 -0.60 -0.00    +0.001 A  ATOM     39  C   UNL     1      36.550  48.108  13.051 -0.62 -0.00    +0.001 A  ATOM     40  C   UNL     1      36.334  47.101  12.113 -0.69 -0.00    +0.000 A  ENDBRANCH  27  35ENDBRANCH  24  25ENDBRANCH  18  19ENDBRANCH   4  18TORSDOF 6TERENDMDL