MODEL        6USER    Run = 6USERUSER    Estimated Free Energy of Binding    = -12.88 kcal/mol  [=(1)+(2)+(3)-(4)]USERUSER    (1) Final Intermolecular Energy     = -15.26 kcal/molUSER        vdW + Hbond + desolv Energy     = -15.13 kcal/molUSER        Electrostatic Energy            =  -0.13 kcal/molUSER        Moving Ligand-Fixed Receptor    = -15.26 kcal/molUSER        Moving Ligand-Moving Receptor   =  +0.00 kcal/molUSER    (2) Final Total Internal Energy     =  -2.58 kcal/molUSER    (3) Torsional Free Energy           =  +2.39 kcal/molUSER    (4) Unbound System's Energy         =  -2.58 kcal/molUSERUSERREMARK SMILES N#Cc1cnc(-c2ccc(CNCc3ccc(-c4csnn4)cc3)cc2)c(-c2ccccc2)c1REMARK SMILES IDX 11 1 10 2 7 3 8 4 26 5 9 6 25 7 6 8 3 9 4 10 34 11 5 12REMARK SMILES IDX 27 13 2 14 1 15 28 16 29 17 33 18 30 19 32 20 31 21 12 22REMARK SMILES IDX 13 24 14 25 15 26 24 27 16 28 23 29 17 30 18 31 19 32 22 33REMARK SMILES IDX 20 34 21 35REMARK H PARENT 12 23USER                              x       y       z     vdW  Elec       q    TypeUSER                           _______ _______ _______ _____ _____    ______ ____ROOTATOM      1  C   UNL     1      36.225  43.261  20.353 -0.41 -0.00    +0.117 C  ENDROOTBRANCH   1   2ATOM      2  C   UNL     1      35.365  43.789  19.230 -0.36 +0.01    -0.034 A  ATOM      3  C   UNL     1      33.775  44.767  17.090 -0.32 -0.00    +0.001 A  ATOM      4  C   UNL     1      34.270  45.629  18.084 -0.44 -0.01    +0.011 A  ATOM      5  C   UNL     1      34.080  43.401  17.201 -0.33 -0.00    +0.011 A  ATOM      6  C   UNL     1      35.059  45.151  19.136 -0.31 -0.00    +0.006 A  ATOM      7  C   UNL     1      34.871  42.919  18.250 -0.37 -0.00    +0.006 A  BRANCH   3   8ATOM      8  C   UNL     1      32.946  45.298  15.989 -0.26 -0.06    +0.078 A  ATOM      9  C   UNL     1      31.154  46.192  14.080 -0.52 -0.05    +0.071 A  ATOM     10  C   UNL     1      30.750  45.704  15.307 -0.36 -0.06    +0.131 A  ATOM     11  C   UNL     1      32.521  46.240  13.815 -0.13 -0.03    +0.032 A  ATOM     12  N   UNL     1      31.607  45.266  16.257 -0.65 +0.10    -0.254 NA ATOM     13  C   UNL     1      33.456  45.795  14.771 -0.14 -0.01    +0.009 A  BRANCH   9  14ATOM     14  C   UNL     1      30.194  46.641  13.123 -0.57 -0.05    +0.101 C  ATOM     15  N   UNL     1      29.415  47.005  12.345 -0.76 +0.09    -0.192 NA ENDBRANCH   9  14BRANCH  13  16ATOM     16  C   UNL     1      34.893  45.908  14.463 -0.34 +0.01    -0.016 A  ATOM     17  C   UNL     1      35.382  46.986  13.706 -0.41 -0.01    +0.009 A  ATOM     18  C   UNL     1      35.812  44.955  14.929 -0.34 -0.00    +0.009 A  ATOM     19  C   UNL     1      36.744  47.101  13.415 -0.57 -0.00    +0.001 A  ATOM     20  C   UNL     1      37.174  45.068  14.638 -0.38 -0.00    +0.001 A  ATOM     21  C   UNL     1      37.639  46.140  13.880 -0.45 -0.00    +0.000 A  ENDBRANCH  13  16ENDBRANCH   3   8ENDBRANCH   1   2BRANCH   1  22ATOM     22  N   UNL     1      37.137  44.299  20.832 -0.20 -0.00    -0.309 NA ATOM     23  H   UNL     1      37.087  44.321  21.849 +0.06 +0.01    +0.123 HD BRANCH  22  24ATOM     24  C   UNL     1      38.521  44.047  20.429 -0.27 -0.00    +0.117 C  BRANCH  24  25ATOM     25  C   UNL     1      39.045  45.045  19.423 -0.37 +0.00    -0.034 A  ATOM     26  C   UNL     1      40.306  45.632  19.586 -0.41 +0.00    +0.006 A  ATOM     27  C   UNL     1      38.269  45.417  18.319 -0.38 -0.00    +0.006 A  ATOM     28  C   UNL     1      40.784  46.564  18.657 -0.47 -0.00    +0.011 A  ATOM     29  C   UNL     1      38.746  46.348  17.392 -0.40 -0.00    +0.011 A  ATOM     30  C   UNL     1      40.013  46.929  17.544 -0.48 -0.00    +0.003 A  BRANCH  30  31ATOM     31  C   UNL     1      40.483  47.896  16.557 -0.46 -0.02    +0.105 A  ATOM     32  C   UNL     1      40.038  47.964  15.246 -0.45 -0.03    +0.118 A  ATOM     33  N   UNL     1      41.428  48.864  16.891 -1.00 -0.00    -0.138 NA ATOM     34  S   UNL     1      40.867  49.261  14.487 -0.82 +0.01    -0.020 S  ATOM     35  N   UNL     1      41.721  49.649  15.869 -1.06 -0.01    -0.091 NA ENDBRANCH  30  31ENDBRANCH  24  25ENDBRANCH  22  24ENDBRANCH   1  22TORSDOF 8TERENDMDL