
     RDKit          3D

 42 45  0  0  0  0  0  0  0  0999 V2000
   -5.1327    0.3975   -1.3681 C   0  0  0  0  0  0  0  0  0  0  0  0
   -4.7937    0.1849    0.0031 O   0  0  0  0  0  0  0  0  0  0  0  0
   -3.4363   -0.0612    0.1085 C   0  0  0  0  0  0  0  0  0  0  0  0
   -2.9360   -1.3992    0.0075 C   0  0  0  0  0  0  0  0  0  0  0  0
   -3.6301   -2.6416   -0.2062 C   0  0  0  0  0  0  0  0  0  0  0  0
   -2.7934   -3.7314   -0.2315 C   0  0  0  0  0  0  0  0  0  0  0  0
   -1.1660   -3.2918    0.0073 S   0  0  0  0  0  0  0  0  0  0  0  0
   -1.5509   -1.6174    0.1399 C   0  0  0  0  0  0  0  0  0  0  0  0
   -0.6777   -0.5439    0.3647 C   0  0  0  0  0  0  0  0  0  0  0  0
   -1.2265    0.6987    0.5070 C   0  0  0  0  0  0  0  0  0  0  0  0
   -0.2264    1.5791    0.8055 C   0  0  0  0  0  0  0  0  0  0  0  0
   -0.5385    2.9072    1.0293 C   0  0  0  0  0  0  0  0  0  0  0  0
   -1.8805    3.3088    0.9369 C   0  0  0  0  0  0  0  0  0  0  0  0
   -2.8932    2.3789    0.6300 C   0  0  0  0  0  0  0  0  0  0  0  0
   -2.5734    1.0204    0.4080 C   0  0  0  0  0  0  0  0  0  0  0  0
    1.0680    0.9932    0.8746 N   0  0  0  0  0  0  0  0  0  0  0  0
    0.8235   -0.4526    0.5654 C   0  0  0  0  0  0  0  0  0  0  0  0
    1.6112   -0.8442   -0.6950 C   0  0  0  0  0  0  0  0  0  0  0  0
    3.0933   -1.1556   -0.4443 C   0  0  0  0  0  0  0  0  0  0  0  0
    3.9321    0.0533   -0.0261 C   0  0  0  0  0  0  0  0  0  0  0  0
    5.4212   -0.2952    0.0079 C   0  0  0  0  0  0  0  0  0  0  0  0
    6.2210    0.8576    0.4089 N   0  0  0  0  0  0  0  0  0  0  0  0
   -4.9435   -0.4983   -1.9692 H   0  0  0  0  0  0  0  0  0  0  0  0
   -6.2035    0.6165   -1.4169 H   0  0  0  0  0  0  0  0  0  0  0  0
   -4.5930    1.2551   -1.7846 H   0  0  0  0  0  0  0  0  0  0  0  0
   -4.7041   -2.7166   -0.3260 H   0  0  0  0  0  0  0  0  0  0  0  0
   -3.0641   -4.7689   -0.3724 H   0  0  0  0  0  0  0  0  0  0  0  0
    0.2375    3.6281    1.2633 H   0  0  0  0  0  0  0  0  0  0  0  0
   -2.1426    4.3503    1.1077 H   0  0  0  0  0  0  0  0  0  0  0  0
   -3.9280    2.7085    0.5766 H   0  0  0  0  0  0  0  0  0  0  0  0
    1.4280    1.1220    1.8183 H   0  0  0  0  0  0  0  0  0  0  0  0
    1.1110   -1.0653    1.4284 H   0  0  0  0  0  0  0  0  0  0  0  0
    1.1740   -1.7467   -1.1376 H   0  0  0  0  0  0  0  0  0  0  0  0
    1.5263   -0.0627   -1.4618 H   0  0  0  0  0  0  0  0  0  0  0  0
    3.1791   -1.9443    0.3132 H   0  0  0  0  0  0  0  0  0  0  0  0
    3.5077   -1.5690   -1.3727 H   0  0  0  0  0  0  0  0  0  0  0  0
    3.7613    0.8801   -0.7265 H   0  0  0  0  0  0  0  0  0  0  0  0
    3.6242    0.3933    0.9687 H   0  0  0  0  0  0  0  0  0  0  0  0
    5.7560   -0.6319   -0.9792 H   0  0  0  0  0  0  0  0  0  0  0  0
    5.6021   -1.1150    0.7115 H   0  0  0  0  0  0  0  0  0  0  0  0
    5.9014    1.1945    1.3163 H   0  0  0  0  0  0  0  0  0  0  0  0
    6.0554    1.6251   -0.2422 H   0  0  0  0  0  0  0  0  0  0  0  0
  1  2  1  0
  2  3  1  0
  3  4  2  0
  4  5  1  0
  5  6  2  0
  6  7  1  0
  7  8  1  0
  8  9  2  0
  9 10  1  0
 10 11  2  0
 11 12  1  0
 12 13  2  0
 13 14  1  0
 14 15  2  0
 11 16  1  0
 16 17  1  0
 17 18  1  0
 18 19  1  0
 19 20  1  0
 20 21  1  0
 21 22  1  0
 15  3  1  0
  8  4  1  0
 17  9  1  0
 15 10  1  0
  1 23  1  0
  1 24  1  0
  1 25  1  0
  5 26  1  0
  6 27  1  0
 12 28  1  0
 13 29  1  0
 14 30  1  0
 16 31  1  0
 17 32  1  0
 18 33  1  0
 18 34  1  0
 19 35  1  0
 19 36  1  0
 20 37  1  0
 20 38  1  0
 21 39  1  0
 21 40  1  0
 22 41  1  0
 22 42  1  0
M  END
$$$$
