
     RDKit          3D

 37 39  0  0  0  0  0  0  0  0999 V2000
   -4.8619   -0.8189   -1.5303 C   0  0  0  0  0  0  0  0  0  0  0  0
   -4.0129    0.0436   -0.6350 C   0  0  0  0  0  0  0  0  0  0  0  0
   -4.4440    1.3500   -0.3532 C   0  0  0  0  0  0  0  0  0  0  0  0
   -3.6749    2.1981    0.4365 C   0  0  0  0  0  0  0  0  0  0  0  0
   -2.4568    1.7546    0.9425 C   0  0  0  0  0  0  0  0  0  0  0  0
   -1.9956    0.4509    0.6834 C   0  0  0  0  0  0  0  0  0  0  0  0
   -0.6886    0.0486    1.2284 C   0  0  0  0  0  0  0  0  0  0  0  0
   -0.5505   -0.2724    2.5801 C   0  0  0  0  0  0  0  0  0  0  0  0
    0.6964   -0.6450    3.0447 C   0  0  0  0  0  0  0  0  0  0  0  0
    1.7969   -0.7161    2.2666 N   0  0  0  0  0  0  0  0  0  0  0  0
    1.6599   -0.3974    0.9608 C   0  0  0  0  0  0  0  0  0  0  0  0
    2.8537   -0.4934    0.2486 N   0  0  0  0  0  0  0  0  0  0  0  0
    3.0801   -0.2256   -1.0730 C   0  0  0  0  0  0  0  0  0  0  0  0
    2.2742    0.1361   -1.9158 O   0  0  0  0  0  0  0  0  0  0  0  0
    4.4980   -0.4480   -1.4735 C   0  0  0  0  0  0  0  0  0  0  0  0
    5.6361    0.2400   -0.7543 C   0  0  0  0  0  0  0  0  0  0  0  0
    5.2664    0.6683   -2.1431 C   0  0  0  0  0  0  0  0  0  0  0  0
    0.4463   -0.0163    0.4079 C   0  0  0  0  0  0  0  0  0  0  0  0
   -2.8074   -0.4343   -0.0729 C   0  0  0  0  0  0  0  0  0  0  0  0
   -2.3267   -1.7114   -0.4337 N   0  0  0  0  0  0  0  0  0  0  0  0
   -4.2784   -1.1714   -2.3870 H   0  0  0  0  0  0  0  0  0  0  0  0
   -5.7203   -0.2664   -1.9271 H   0  0  0  0  0  0  0  0  0  0  0  0
   -5.2496   -1.6768   -0.9718 H   0  0  0  0  0  0  0  0  0  0  0  0
   -5.3802    1.7204   -0.7653 H   0  0  0  0  0  0  0  0  0  0  0  0
   -4.0130    3.2108    0.6390 H   0  0  0  0  0  0  0  0  0  0  0  0
   -1.8499    2.4394    1.5317 H   0  0  0  0  0  0  0  0  0  0  0  0
   -1.3989   -0.2362    3.2558 H   0  0  0  0  0  0  0  0  0  0  0  0
    0.8488   -0.9048    4.0883 H   0  0  0  0  0  0  0  0  0  0  0  0
    3.6268   -0.7900    0.8264 H   0  0  0  0  0  0  0  0  0  0  0  0
    4.6798   -1.4442   -1.8649 H   0  0  0  0  0  0  0  0  0  0  0  0
    6.5602   -0.3114   -0.6235 H   0  0  0  0  0  0  0  0  0  0  0  0
    5.4120    0.9285    0.0531 H   0  0  0  0  0  0  0  0  0  0  0  0
    4.7689    1.6239   -2.2716 H   0  0  0  0  0  0  0  0  0  0  0  0
    5.9306    0.4041   -2.9578 H   0  0  0  0  0  0  0  0  0  0  0  0
    0.3491    0.2297   -0.6442 H   0  0  0  0  0  0  0  0  0  0  0  0
   -1.6227   -2.0777    0.1997 H   0  0  0  0  0  0  0  0  0  0  0  0
   -3.0518   -2.3891   -0.6359 H   0  0  0  0  0  0  0  0  0  0  0  0
  1  2  1  0
  2  3  2  0
  3  4  1  0
  4  5  2  0
  5  6  1  0
  6  7  1  0
  7  8  2  0
  8  9  1  0
  9 10  2  0
 10 11  1  0
 11 12  1  0
 12 13  1  0
 13 14  2  0
 13 15  1  0
 15 16  1  0
 16 17  1  0
 11 18  2  0
  6 19  2  0
 19 20  1  0
 19  2  1  0
 18  7  1  0
 17 15  1  0
  1 21  1  0
  1 22  1  0
  1 23  1  0
  3 24  1  0
  4 25  1  0
  5 26  1  0
  8 27  1  0
  9 28  1  0
 12 29  1  0
 15 30  1  0
 16 31  1  0
 16 32  1  0
 17 33  1  0
 17 34  1  0
 18 35  1  0
 20 36  1  0
 20 37  1  0
M  END
$$$$
