
     RDKit          3D

 48 51  0  0  0  0  0  0  0  0999 V2000
   -0.4193   -3.3828    4.7678 N   0  0  0  0  0  0  0  0  0  0  0  0
   -0.0752   -2.7186    3.6264 C   0  0  0  0  0  0  0  0  0  0  0  0
    1.1231   -2.8822    3.1861 N   0  0  0  0  0  0  0  0  0  0  0  0
    1.5541   -2.2240    2.0622 C   0  0  0  0  0  0  0  0  0  0  0  0
    0.9765   -1.3296    1.2327 C   0  0  0  0  0  0  0  0  0  0  0  0
    1.7627   -0.8364    0.1341 C   0  0  0  0  0  0  0  0  0  0  0  0
    3.0306   -1.0632   -0.3764 C   0  0  0  0  0  0  0  0  0  0  0  0
    3.2157   -0.2308   -1.5182 C   0  0  0  0  0  0  0  0  0  0  0  0
    4.2779   -0.0244   -2.4227 C   0  0  0  0  0  0  0  0  0  0  0  0
    4.1254    0.8732   -3.4890 C   0  0  0  0  0  0  0  0  0  0  0  0
    5.2172    1.1605   -4.3227 N   0  0  0  0  0  0  0  0  0  0  0  0
    2.9582    1.6363   -3.5792 C   0  0  0  0  0  0  0  0  0  0  0  0
    1.8871    1.4550   -2.6944 C   0  0  0  0  0  0  0  0  0  0  0  0
    2.0464    0.5065   -1.6804 C   0  0  0  0  0  0  0  0  0  0  0  0
    1.1912    0.1178   -0.6807 N   0  0  0  0  0  0  0  0  0  0  0  0
   -0.2890   -0.7863    1.2409 N   0  0  0  0  0  0  0  0  0  0  0  0
   -1.1945   -1.1244    2.0955 C   0  0  0  0  0  0  0  0  0  0  0  0
   -2.4721   -0.6021    2.0477 N   0  0  0  0  0  0  0  0  0  0  0  0
   -2.9274    0.4176    1.1031 C   0  0  0  0  0  0  0  0  0  0  0  0
   -2.1607    1.7343    1.2436 C   0  0  0  0  0  0  0  0  0  0  0  0
   -2.7825    2.8378    0.3829 C   0  0  0  0  0  0  0  0  0  0  0  0
   -3.4316    2.3244   -0.9053 C   0  0  0  0  0  0  0  0  0  0  0  0
   -2.8142    1.0157   -1.3821 C   0  0  0  0  0  0  0  0  0  0  0  0
   -2.9666   -0.0992   -0.3428 C   0  0  0  0  0  0  0  0  0  0  0  0
   -1.0982   -1.9784    3.1477 N   0  0  0  0  0  0  0  0  0  0  0  0
   -0.7238   -2.7575    5.5046 H   0  0  0  0  0  0  0  0  0  0  0  0
    0.4037   -3.8833    5.0977 H   0  0  0  0  0  0  0  0  0  0  0  0
    2.5812   -2.5094    1.8458 H   0  0  0  0  0  0  0  0  0  0  0  0
    3.7626   -1.7545    0.0193 H   0  0  0  0  0  0  0  0  0  0  0  0
    5.2072   -0.5688   -2.2880 H   0  0  0  0  0  0  0  0  0  0  0  0
    5.8710    0.3877   -4.4111 H   0  0  0  0  0  0  0  0  0  0  0  0
    4.9492    1.5456   -5.2230 H   0  0  0  0  0  0  0  0  0  0  0  0
    2.8660    2.3936   -4.3540 H   0  0  0  0  0  0  0  0  0  0  0  0
    0.9796    2.0428   -2.7869 H   0  0  0  0  0  0  0  0  0  0  0  0
    0.2560    0.4665   -0.5264 H   0  0  0  0  0  0  0  0  0  0  0  0
   -3.1863   -1.3082    2.1862 H   0  0  0  0  0  0  0  0  0  0  0  0
   -3.9658    0.6376    1.3908 H   0  0  0  0  0  0  0  0  0  0  0  0
   -1.1158    1.6087    0.9406 H   0  0  0  0  0  0  0  0  0  0  0  0
   -2.1329    2.0586    2.2914 H   0  0  0  0  0  0  0  0  0  0  0  0
   -2.0042    3.5720    0.1410 H   0  0  0  0  0  0  0  0  0  0  0  0
   -3.5392    3.3785    0.9647 H   0  0  0  0  0  0  0  0  0  0  0  0
   -4.5049    2.1715   -0.7341 H   0  0  0  0  0  0  0  0  0  0  0  0
   -3.3485    3.0894   -1.6841 H   0  0  0  0  0  0  0  0  0  0  0  0
   -3.2776    0.7006   -2.3252 H   0  0  0  0  0  0  0  0  0  0  0  0
   -1.7500    1.1763   -1.5941 H   0  0  0  0  0  0  0  0  0  0  0  0
   -2.2038   -0.8614   -0.5359 H   0  0  0  0  0  0  0  0  0  0  0  0
   -3.9268   -0.6069   -0.5004 H   0  0  0  0  0  0  0  0  0  0  0  0
   -1.9316   -2.0437    3.7041 H   0  0  0  0  0  0  0  0  0  0  0  0
  1  2  1  0
  2  3  2  0
  3  4  1  0
  4  5  2  0
  5  6  1  0
  6  7  2  0
  7  8  1  0
  8  9  2  0
  9 10  1  0
 10 11  1  0
 10 12  2  0
 12 13  1  0
 13 14  2  0
 14 15  1  0
  5 16  1  0
 16 17  2  0
 17 18  1  0
 18 19  1  0
 19 20  1  0
 20 21  1  0
 21 22  1  0
 22 23  1  0
 23 24  1  0
 17 25  1  0
 25  2  1  0
 15  6  1  0
 24 19  1  0
 14  8  1  0
  1 26  1  0
  1 27  1  0
  4 28  1  0
  7 29  1  0
  9 30  1  0
 11 31  1  0
 11 32  1  0
 12 33  1  0
 13 34  1  0
 15 35  1  0
 18 36  1  0
 19 37  1  0
 20 38  1  0
 20 39  1  0
 21 40  1  0
 21 41  1  0
 22 42  1  0
 22 43  1  0
 23 44  1  0
 23 45  1  0
 24 46  1  0
 24 47  1  0
 25 48  1  0
M  END
$$$$
