
     RDKit          3D

 40 41  0  0  0  0  0  0  0  0999 V2000
   -3.9097    4.0002    1.6737 C   0  0  0  0  0  0  0  0  0  0  0  0
   -2.8284    4.3526    0.7659 N   0  0  0  0  0  0  0  0  0  0  0  0
   -2.2507    3.4150    0.1033 C   0  0  0  0  0  0  0  0  0  0  0  0
   -2.5188    1.9607    0.1219 C   0  0  0  0  0  0  0  0  0  0  0  0
   -1.7635    1.1495   -0.6266 C   0  0  0  0  0  0  0  0  0  0  0  0
   -1.9782   -0.2007   -0.6570 N   0  0  0  0  0  0  0  0  0  0  0  0
   -0.9683   -1.0186   -0.7092 C   0  0  0  0  0  0  0  0  0  0  0  0
    0.4815   -0.6507   -0.6704 C   0  0  0  0  0  0  0  0  0  0  0  0
    0.9755   -0.0349    0.4148 C   0  0  0  0  0  0  0  0  0  0  0  0
    2.3526    0.3931    0.5862 C   0  0  0  0  0  0  0  0  0  0  0  0
    3.3825   -0.3869    0.2274 C   0  0  0  0  0  0  0  0  0  0  0  0
    4.7856   -0.0437    0.4798 C   0  0  0  0  0  0  0  0  0  0  0  0
    5.5713   -0.8693    0.9227 O   0  0  0  0  0  0  0  0  0  0  0  0
    5.2562    1.3298    0.0709 C   0  0  0  0  0  0  0  0  0  0  0  0
    6.2014    1.4492   -0.6977 O   0  0  0  0  0  0  0  0  0  0  0  0
    4.5791    2.5118    0.6184 C   0  0  0  0  0  0  0  0  0  0  0  0
    3.3611    2.5349    1.1655 C   0  0  0  0  0  0  0  0  0  0  0  0
    2.4215    1.5573    1.3211 O   0  0  0  0  0  0  0  0  0  0  0  0
   -1.2454   -2.4884   -0.8619 C   0  0  0  0  0  0  0  0  0  0  0  0
   -2.5030   -2.8933   -1.3326 C   0  0  0  0  0  0  0  0  0  0  0  0
   -2.7989   -4.2491   -1.4908 C   0  0  0  0  0  0  0  0  0  0  0  0
   -1.8434   -5.2123   -1.1747 C   0  0  0  0  0  0  0  0  0  0  0  0
   -0.5937   -4.8225   -0.6963 C   0  0  0  0  0  0  0  0  0  0  0  0
   -0.2937   -3.4663   -0.5375 C   0  0  0  0  0  0  0  0  0  0  0  0
   -4.2829    4.9111    2.1524 H   0  0  0  0  0  0  0  0  0  0  0  0
   -4.7505    3.5447    1.1403 H   0  0  0  0  0  0  0  0  0  0  0  0
   -3.5655    3.3316    2.4695 H   0  0  0  0  0  0  0  0  0  0  0  0
   -1.4363    3.7296   -0.5730 H   0  0  0  0  0  0  0  0  0  0  0  0
   -3.3139    1.5711    0.7420 H   0  0  0  0  0  0  0  0  0  0  0  0
   -0.9798    1.5536   -1.2652 H   0  0  0  0  0  0  0  0  0  0  0  0
    1.0768   -0.9296   -1.5323 H   0  0  0  0  0  0  0  0  0  0  0  0
    0.3085    0.2093    1.2426 H   0  0  0  0  0  0  0  0  0  0  0  0
    3.2400   -1.3727   -0.2003 H   0  0  0  0  0  0  0  0  0  0  0  0
    5.1570    3.4281    0.5459 H   0  0  0  0  0  0  0  0  0  0  0  0
    2.9591    3.4560    1.5791 H   0  0  0  0  0  0  0  0  0  0  0  0
   -3.2615   -2.1541   -1.5826 H   0  0  0  0  0  0  0  0  0  0  0  0
   -3.7766   -4.5508   -1.8583 H   0  0  0  0  0  0  0  0  0  0  0  0
   -2.0754   -6.2677   -1.2953 H   0  0  0  0  0  0  0  0  0  0  0  0
    0.1467   -5.5767   -0.4400 H   0  0  0  0  0  0  0  0  0  0  0  0
    0.6819   -3.2011   -0.1417 H   0  0  0  0  0  0  0  0  0  0  0  0
  1  2  1  0
  2  3  2  3
  3  4  1  0
  4  5  2  3
  5  6  1  0
  6  7  2  3
  7  8  1  0
  8  9  2  3
  9 10  1  0
 10 11  2  0
 11 12  1  0
 12 13  2  0
 12 14  1  0
 14 15  2  0
 14 16  1  0
 16 17  2  0
 17 18  1  0
  7 19  1  0
 19 20  2  0
 20 21  1  0
 21 22  2  0
 22 23  1  0
 23 24  2  0
 18 10  1  0
 24 19  1  0
  1 25  1  0
  1 26  1  0
  1 27  1  0
  3 28  1  0
  4 29  1  0
  5 30  1  0
  8 31  1  0
  9 32  1  0
 11 33  1  0
 16 34  1  0
 17 35  1  0
 20 36  1  0
 21 37  1  0
 22 38  1  0
 23 39  1  0
 24 40  1  0
M  END
$$$$
