
     RDKit          3D

 29 30  0  0  0  0  0  0  0  0999 V2000
    6.0262   -0.9699   -0.2456 N   0  0  0  0  0  0  0  0  0  0  0  0
    4.7700   -0.6958   -0.1504 C   0  0  0  0  0  0  0  0  0  0  0  0
    4.1653    0.0297    0.9859 C   0  0  0  0  0  0  0  0  0  0  0  0
    2.8670    0.3414    1.1151 C   0  0  0  0  0  0  0  0  0  0  0  0
    1.7837    0.0471    0.1976 C   0  0  0  0  0  0  0  0  0  0  0  0
    0.5140    0.4040    0.4562 C   0  0  0  0  0  0  0  0  0  0  0  0
   -0.6398    0.1819   -0.3219 N   0  0  0  0  0  0  0  0  0  0  0  0
   -0.7408   -0.1609   -1.6703 C   0  0  0  0  0  0  0  0  0  0  0  0
    0.3093   -0.1286   -2.6610 C   0  0  0  0  0  0  0  0  0  0  0  0
    0.2473   -0.6793   -3.7575 O   0  0  0  0  0  0  0  0  0  0  0  0
   -2.0574   -0.4974   -1.9288 C   0  0  0  0  0  0  0  0  0  0  0  0
   -2.8277   -0.1996   -0.7870 C   0  0  0  0  0  0  0  0  0  0  0  0
   -4.2068   -0.2680   -0.5063 C   0  0  0  0  0  0  0  0  0  0  0  0
   -4.6781    0.1333    0.7459 C   0  0  0  0  0  0  0  0  0  0  0  0
   -3.7947    0.5960    1.7132 C   0  0  0  0  0  0  0  0  0  0  0  0
   -2.4215    0.6667    1.4571 C   0  0  0  0  0  0  0  0  0  0  0  0
   -1.9467    0.2675    0.1897 C   0  0  0  0  0  0  0  0  0  0  0  0
    6.5505   -0.6242    0.5634 H   0  0  0  0  0  0  0  0  0  0  0  0
    4.1024   -1.0184   -0.9630 H   0  0  0  0  0  0  0  0  0  0  0  0
    4.8568    0.3247    1.7695 H   0  0  0  0  0  0  0  0  0  0  0  0
    2.5882    0.8828    2.0203 H   0  0  0  0  0  0  0  0  0  0  0  0
    2.0295   -0.5225   -0.6900 H   0  0  0  0  0  0  0  0  0  0  0  0
    0.3048    0.8855    1.4073 H   0  0  0  0  0  0  0  0  0  0  0  0
    1.2019    0.4680   -2.4170 H   0  0  0  0  0  0  0  0  0  0  0  0
   -2.4311   -0.8425   -2.8861 H   0  0  0  0  0  0  0  0  0  0  0  0
   -4.9027   -0.6256   -1.2604 H   0  0  0  0  0  0  0  0  0  0  0  0
   -5.7424    0.0823    0.9618 H   0  0  0  0  0  0  0  0  0  0  0  0
   -4.1750    0.9021    2.6854 H   0  0  0  0  0  0  0  0  0  0  0  0
   -1.7522    1.0198    2.2349 H   0  0  0  0  0  0  0  0  0  0  0  0
  1  2  2  3
  2  3  1  0
  3  4  2  3
  4  5  1  0
  5  6  2  3
  6  7  1  0
  7  8  1  0
  8  9  1  0
  9 10  2  0
  8 11  2  0
 11 12  1  0
 12 13  2  0
 13 14  1  0
 14 15  2  0
 15 16  1  0
 16 17  2  0
 17  7  1  0
 17 12  1  0
  1 18  1  0
  2 19  1  0
  3 20  1  0
  4 21  1  0
  5 22  1  0
  6 23  1  0
  9 24  1  0
 11 25  1  0
 13 26  1  0
 14 27  1  0
 15 28  1  0
 16 29  1  0
M  END
$$$$
