
     RDKit          3D

 43 45  0  0  0  0  0  0  0  0999 V2000
   -4.6908    0.9259    0.7482 C   0  0  0  0  0  0  0  0  0  0  0  0
   -4.2993   -0.3969    0.1058 C   0  0  0  0  0  0  0  0  0  0  0  0
   -2.9109   -0.3503   -0.4909 C   0  0  0  0  0  0  0  0  0  0  0  0
   -2.7813   -0.0364   -1.8553 C   0  0  0  0  0  0  0  0  0  0  0  0
   -1.5269    0.0935   -2.4508 C   0  0  0  0  0  0  0  0  0  0  0  0
   -0.3782   -0.0829   -1.6854 C   0  0  0  0  0  0  0  0  0  0  0  0
    0.8492    0.0591   -2.2780 O   0  0  0  0  0  0  0  0  0  0  0  0
   -0.4639   -0.4054   -0.3173 C   0  0  0  0  0  0  0  0  0  0  0  0
    0.6880   -0.5889    0.5189 N   0  0  0  0  0  0  0  0  0  0  0  0
    1.7511    0.3702    0.6138 C   0  0  0  0  0  0  0  0  0  0  0  0
    1.6741    1.7628    0.6753 C   0  0  0  0  0  0  0  0  0  0  0  0
    0.3923    2.4919    0.7304 C   0  0  0  0  0  0  0  0  0  0  0  0
    0.3444    3.7131    0.6048 O   0  0  0  0  0  0  0  0  0  0  0  0
    2.8602    2.5169    0.7403 C   0  0  0  0  0  0  0  0  0  0  0  0
    4.0990    1.8742    0.7776 C   0  0  0  0  0  0  0  0  0  0  0  0
    5.2612    2.5844    0.8515 O   0  0  0  0  0  0  0  0  0  0  0  0
    4.1897    0.4893    0.7568 C   0  0  0  0  0  0  0  0  0  0  0  0
    3.0122   -0.2395    0.6719 C   0  0  0  0  0  0  0  0  0  0  0  0
    2.8674   -1.7181    0.6632 C   0  0  0  0  0  0  0  0  0  0  0  0
    1.4077   -1.8653    0.1888 C   0  0  1  0  0  0  0  0  0  0  0  0
    0.7423   -3.0608    0.8680 C   0  0  0  0  0  0  0  0  0  0  0  0
   -1.7485   -0.5615    0.2771 C   0  0  0  0  0  0  0  0  0  0  0  0
   -1.8237   -0.7162    1.6822 N   0  0  0  0  0  0  0  0  0  0  0  0
   -4.6679    1.7423    0.0183 H   0  0  0  0  0  0  0  0  0  0  0  0
   -5.7055    0.8626    1.1538 H   0  0  0  0  0  0  0  0  0  0  0  0
   -4.0155    1.1911    1.5681 H   0  0  0  0  0  0  0  0  0  0  0  0
   -4.3736   -1.2110    0.8352 H   0  0  0  0  0  0  0  0  0  0  0  0
   -5.0274   -0.6456   -0.6768 H   0  0  0  0  0  0  0  0  0  0  0  0
   -3.6698    0.1313   -2.4616 H   0  0  0  0  0  0  0  0  0  0  0  0
   -1.4680    0.3407   -3.5063 H   0  0  0  0  0  0  0  0  0  0  0  0
    0.7295    0.4597   -3.1542 H   0  0  0  0  0  0  0  0  0  0  0  0
   -0.5224    1.9128    0.9147 H   0  0  0  0  0  0  0  0  0  0  0  0
    2.8003    3.6015    0.7812 H   0  0  0  0  0  0  0  0  0  0  0  0
    5.0458    3.5325    0.8530 H   0  0  0  0  0  0  0  0  0  0  0  0
    5.1562   -0.0012    0.8029 H   0  0  0  0  0  0  0  0  0  0  0  0
    3.0209   -2.1128    1.6735 H   0  0  0  0  0  0  0  0  0  0  0  0
    3.5603   -2.2031   -0.0311 H   0  0  0  0  0  0  0  0  0  0  0  0
    1.4234   -2.0429   -0.8959 H   0  0  0  0  0  0  0  0  0  0  0  0
    0.6656   -2.9126    1.9507 H   0  0  0  0  0  0  0  0  0  0  0  0
   -0.2692   -3.2234    0.4827 H   0  0  0  0  0  0  0  0  0  0  0  0
    1.3169   -3.9757    0.6888 H   0  0  0  0  0  0  0  0  0  0  0  0
   -0.9208   -1.0134    2.0507 H   0  0  0  0  0  0  0  0  0  0  0  0
   -2.5941   -1.2919    1.9970 H   0  0  0  0  0  0  0  0  0  0  0  0
  1  2  1  0
  2  3  1  0
  3  4  2  0
  4  5  1  0
  5  6  2  0
  6  7  1  0
  6  8  1  0
  8  9  1  0
  9 10  1  0
 10 11  2  0
 11 12  1  0
 12 13  2  0
 11 14  1  0
 14 15  2  0
 15 16  1  0
 15 17  1  0
 17 18  2  0
 18 19  1  0
 19 20  1  0
 20 21  1  0
  8 22  2  0
 22 23  1  0
 22  3  1  0
 20  9  1  0
 18 10  1  0
  1 24  1  0
  1 25  1  0
  1 26  1  0
  2 27  1  0
  2 28  1  0
  4 29  1  0
  5 30  1  0
  7 31  1  0
 12 32  1  0
 14 33  1  0
 16 34  1  0
 17 35  1  0
 19 36  1  0
 19 37  1  0
 20 38  1  6
 21 39  1  0
 21 40  1  0
 21 41  1  0
 23 42  1  0
 23 43  1  0
M  END
$$$$
