
     RDKit          3D

 30 32  0  0  0  0  0  0  0  0999 V2000
    4.8008    0.5951   -3.2061 N   0  0  0  0  0  0  0  0  0  0  0  0
    4.6716   -0.8590   -2.3572 S   0  0  0  0  0  0  0  0  0  0  0  0
    4.4161   -1.8454   -3.3845 O   0  0  0  0  0  0  0  0  0  0  0  0
    5.8886   -0.9108   -1.5742 O   0  0  0  0  0  0  0  0  0  0  0  0
    3.2940   -0.7075   -1.3320 C   0  0  0  0  0  0  0  0  0  0  0  0
    2.0325   -0.1942   -1.7520 C   0  0  0  0  0  0  0  0  0  0  0  0
    1.0603   -0.1038   -1.0589 C   0  0  0  0  0  0  0  0  0  0  0  0
    0.9494   -0.4847    0.3138 C   0  0  0  0  0  0  0  0  0  0  0  0
   -0.2429   -0.3170    1.1922 C   0  0  0  0  0  0  0  0  0  0  0  0
   -0.1211   -0.2858    2.4150 O   0  0  0  0  0  0  0  0  0  0  0  0
   -1.5437   -0.1728    0.5406 C   0  0  0  0  0  0  0  0  0  0  0  0
   -1.9461   -0.6691   -0.6931 C   0  0  0  0  0  0  0  0  0  0  0  0
   -3.2560   -0.3181   -0.9029 N   0  0  0  0  0  0  0  0  0  0  0  0
   -3.7286    0.3694    0.1767 C   0  0  0  0  0  0  0  0  0  0  0  0
   -4.9849    0.8399    0.2820 N   0  0  0  0  0  0  0  0  0  0  0  0
   -5.2066    1.4774    1.4591 C   0  0  0  0  0  0  0  0  0  0  0  0
   -4.2736    1.6518    2.4739 C   0  0  0  0  0  0  0  0  0  0  0  0
   -4.6972    2.4841    3.9163 Cl  0  0  0  0  0  0  0  0  0  0  0  0
   -2.9861    1.1448    2.3090 C   0  0  0  0  0  0  0  0  0  0  0  0
   -2.6978    0.4726    1.1051 C   0  0  0  0  0  0  0  0  0  0  0  0
    2.1139   -0.9788    0.8259 C   0  0  0  0  0  0  0  0  0  0  0  0
    3.3305   -1.1099   -0.0325 C   0  0  0  0  0  0  0  0  0  0  0  0
    4.6754    0.4008   -4.2016 H   0  0  0  0  0  0  0  0  0  0  0  0
    5.7185    1.0017   -3.0137 H   0  0  0  0  0  0  0  0  0  0  0  0
   -1.4264   -1.2536   -1.4412 H   0  0  0  0  0  0  0  0  0  0  0  0
   -3.8171   -0.5393   -1.7132 H   0  0  0  0  0  0  0  0  0  0  0  0
   -6.2162    1.8666    1.5698 H   0  0  0  0  0  0  0  0  0  0  0  0
   -2.2311    1.2581    3.0809 H   0  0  0  0  0  0  0  0  0  0  0  0
    2.1998   -1.2842    1.8659 H   0  0  0  0  0  0  0  0  0  0  0  0
    4.2244   -1.5283    0.4226 H   0  0  0  0  0  0  0  0  0  0  0  0
  1  2  1  0
  2  3  2  0
  2  4  2  0
  2  5  1  0
  5  6  1  0
  6  7  3  0
  7  8  1  0
  8  9  1  0
  9 10  2  0
  9 11  1  0
 11 12  2  0
 12 13  1  0
 13 14  1  0
 14 15  2  0
 15 16  1  0
 16 17  2  0
 17 18  1  0
 17 19  1  0
 19 20  2  0
  8 21  2  0
 21 22  1  0
 22  5  2  0
 20 11  1  0
 20 14  1  0
  1 23  1  0
  1 24  1  0
 12 25  1  0
 13 26  1  0
 16 27  1  0
 19 28  1  0
 21 29  1  0
 22 30  1  0
M  END
$$$$
