
     RDKit          3D

 40 43  0  0  0  0  0  0  0  0999 V2000
   -3.5794    3.5061    0.2651 O   0  0  0  0  0  0  0  0  0  0  0  0
   -2.6133    2.4344    0.3727 S   0  0  0  0  0  0  0  0  0  0  0  0
   -1.5222    2.5271    1.3243 O   0  0  0  0  0  0  0  0  0  0  0  0
   -1.9513    2.1920   -1.1715 N   0  0  0  0  0  0  0  0  0  0  0  0
   -1.1092    1.0584   -1.3791 C   0  0  0  0  0  0  0  0  0  0  0  0
   -1.5206    0.0578   -2.2579 C   0  0  0  0  0  0  0  0  0  0  0  0
   -0.7239   -1.0697   -2.4428 C   0  0  0  0  0  0  0  0  0  0  0  0
    0.4806   -1.1935   -1.7465 C   0  0  0  0  0  0  0  0  0  0  0  0
    0.9128   -0.1930   -0.8626 C   0  0  0  0  0  0  0  0  0  0  0  0
    2.1791   -0.3709   -0.1414 C   0  0  0  0  0  0  0  0  0  0  0  0
    3.0150   -1.3849   -0.2908 N   0  0  0  0  0  0  0  0  0  0  0  0
    4.0500   -1.1643    0.5821 C   0  0  0  0  0  0  0  0  0  0  0  0
    5.1972   -1.9313    0.8287 C   0  0  0  0  0  0  0  0  0  0  0  0
    6.1112   -1.4809    1.7899 C   0  0  0  0  0  0  0  0  0  0  0  0
    5.8872   -0.2914    2.4882 C   0  0  0  0  0  0  0  0  0  0  0  0
    4.7477    0.4869    2.2538 C   0  0  0  0  0  0  0  0  0  0  0  0
    3.8546    0.0119    1.2916 C   0  0  0  0  0  0  0  0  0  0  0  0
    2.6637    0.4954    0.8155 N   0  0  0  0  0  0  0  0  0  0  0  0
    0.1061    0.9412   -0.6988 C   0  0  0  0  0  0  0  0  0  0  0  0
   -3.4871    0.9512    0.7068 C   0  0  0  0  0  0  0  0  0  0  0  0
   -3.2033    0.1854    1.8372 C   0  0  0  0  0  0  0  0  0  0  0  0
   -3.9330   -0.9795    2.0617 C   0  0  0  0  0  0  0  0  0  0  0  0
   -4.9168   -1.3264    1.1472 C   0  0  0  0  0  0  0  0  0  0  0  0
   -5.2074   -0.6002    0.0432 N   0  0  0  0  0  0  0  0  0  0  0  0
   -4.4817    0.5193   -0.1419 C   0  0  0  0  0  0  0  0  0  0  0  0
   -4.8127    1.1564   -1.2903 O   0  0  0  0  0  0  0  0  0  0  0  0
   -2.6659    2.3702   -1.8808 H   0  0  0  0  0  0  0  0  0  0  0  0
   -2.4593    0.1385   -2.7987 H   0  0  0  0  0  0  0  0  0  0  0  0
   -1.0369   -1.8554   -3.1255 H   0  0  0  0  0  0  0  0  0  0  0  0
    1.0923   -2.0831   -1.8964 H   0  0  0  0  0  0  0  0  0  0  0  0
    5.3634   -2.8528    0.2827 H   0  0  0  0  0  0  0  0  0  0  0  0
    7.0047   -2.0663    1.9930 H   0  0  0  0  0  0  0  0  0  0  0  0
    6.6127    0.0364    3.2301 H   0  0  0  0  0  0  0  0  0  0  0  0
    4.5740    1.4096    2.7964 H   0  0  0  0  0  0  0  0  0  0  0  0
    2.2124    1.3409    1.1289 H   0  0  0  0  0  0  0  0  0  0  0  0
    0.4158    1.7536   -0.0491 H   0  0  0  0  0  0  0  0  0  0  0  0
   -2.4282    0.4850    2.5386 H   0  0  0  0  0  0  0  0  0  0  0  0
   -3.7403   -1.6010    2.9303 H   0  0  0  0  0  0  0  0  0  0  0  0
   -5.5123   -2.2254    1.2829 H   0  0  0  0  0  0  0  0  0  0  0  0
   -5.5757    0.6121   -1.5660 H   0  0  0  0  0  0  0  0  0  0  0  0
  1  2  2  0
  2  3  2  0
  2  4  1  0
  4  5  1  0
  5  6  2  0
  6  7  1  0
  7  8  2  0
  8  9  1  0
  9 10  1  0
 10 11  2  0
 11 12  1  0
 12 13  2  0
 13 14  1  0
 14 15  2  0
 15 16  1  0
 16 17  2  0
 17 18  1  0
  9 19  2  0
  2 20  1  0
 20 21  2  0
 21 22  1  0
 22 23  2  0
 23 24  1  0
 24 25  2  0
 25 26  1  0
 19  5  1  0
 25 20  1  0
 18 10  1  0
 17 12  1  0
  4 27  1  0
  6 28  1  0
  7 29  1  0
  8 30  1  0
 13 31  1  0
 14 32  1  0
 15 33  1  0
 16 34  1  0
 18 35  1  0
 19 36  1  0
 21 37  1  0
 22 38  1  0
 23 39  1  0
 26 40  1  0
M  END
$$$$
