
     RDKit          3D

 55 57  0  0  0  0  0  0  0  0999 V2000
    0.3239   -2.9073   -2.5886 C   0  0  0  0  0  0  0  0  0  0  0  0
    0.1449   -2.7526   -1.1198 C   0  0  0  0  0  3  0  0  0  0  0  0
   -0.4379   -1.4937   -0.5529 C   0  0  0  0  0  0  0  0  0  0  0  0
   -1.4117   -1.6930    0.6302 C   0  0  2  0  0  0  0  0  0  0  0  0
   -2.7965   -2.2205    0.1856 C   0  0  0  0  0  0  0  0  0  0  0  0
   -2.8146   -3.6857   -0.2230 C   0  0  0  0  0  0  0  0  0  0  0  0
   -1.5780   -0.3666    1.4159 C   0  0  0  0  0  0  0  0  0  0  0  0
   -1.9444    0.7706    0.5562 N   0  0  0  0  0  0  0  0  0  0  0  0
   -3.3094    1.2187    0.5831 C   0  0  0  0  0  0  0  0  0  0  0  0
   -4.0011    1.4209    1.7874 C   0  0  0  0  0  0  0  0  0  0  0  0
   -3.3857    1.2615    2.9733 F   0  0  0  0  0  0  0  0  0  0  0  0
   -5.3298    1.8466    1.8021 C   0  0  0  0  0  0  0  0  0  0  0  0
   -6.0047    2.0780    0.6053 C   0  0  0  0  0  0  0  0  0  0  0  0
   -5.3424    1.8785   -0.6044 C   0  0  0  0  0  0  0  0  0  0  0  0
   -4.0127    1.4520   -0.6088 C   0  0  0  0  0  0  0  0  0  0  0  0
   -3.4513    1.1695   -1.7961 F   0  0  0  0  0  0  0  0  0  0  0  0
   -1.0400    1.4057   -0.3004 C   0  0  0  0  0  0  0  0  0  0  0  0
   -1.2919    2.4853   -0.8538 O   0  0  0  0  0  0  0  0  0  0  0  0
    0.3911    0.8391   -0.4588 C   0  0  0  0  0  0  0  0  0  0  0  0
    0.6584   -0.5851   -0.2034 N   0  0  0  0  0  0  0  0  0  0  0  0
    1.6339   -0.9812    0.7055 C   0  0  0  0  0  0  0  0  0  0  0  0
    1.5538   -1.9831    1.4090 O   0  0  0  0  0  0  0  0  0  0  0  0
    2.8355   -0.1253    0.8689 C   0  0  0  0  0  0  0  0  0  0  0  0
    3.4924    0.4251   -0.1646 C   0  0  0  0  0  0  0  0  0  0  0  0
    4.6915    1.2349    0.0407 C   0  0  0  0  0  0  0  0  0  0  0  0
    5.8846    0.6524    0.4827 C   0  0  0  0  0  0  0  0  0  0  0  0
    7.0198    1.4423    0.6827 C   0  0  0  0  0  0  0  0  0  0  0  0
    6.9673    2.8158    0.4454 C   0  0  0  0  0  0  0  0  0  0  0  0
    5.7831    3.4013    0.0009 C   0  0  0  0  0  0  0  0  0  0  0  0
    4.6481    2.6120   -0.2052 C   0  0  0  0  0  0  0  0  0  0  0  0
    0.5612   -3.9517   -2.8319 H   0  0  0  0  0  0  0  0  0  0  0  0
   -0.5894   -2.6391   -3.1227 H   0  0  0  0  0  0  0  0  0  0  0  0
    1.1476   -2.2803   -2.9541 H   0  0  0  0  0  0  0  0  0  0  0  0
    0.5878   -3.4885   -0.4542 H   0  0  0  0  0  0  0  0  0  0  0  0
   -0.9916   -1.0221   -1.3762 H   0  0  0  0  0  0  0  0  0  0  0  0
   -0.9935   -2.4189    1.3413 H   0  0  0  0  0  0  0  0  0  0  0  0
   -3.1845   -1.6168   -0.6364 H   0  0  0  0  0  0  0  0  0  0  0  0
   -3.5032   -2.1087    1.0167 H   0  0  0  0  0  0  0  0  0  0  0  0
   -2.2782   -3.8598   -1.1596 H   0  0  0  0  0  0  0  0  0  0  0  0
   -2.3708   -4.3134    0.5567 H   0  0  0  0  0  0  0  0  0  0  0  0
   -3.8481   -4.0142   -0.3786 H   0  0  0  0  0  0  0  0  0  0  0  0
   -2.3088   -0.5227    2.2117 H   0  0  0  0  0  0  0  0  0  0  0  0
   -0.6486   -0.1011    1.9329 H   0  0  0  0  0  0  0  0  0  0  0  0
   -5.8326    2.0026    2.7530 H   0  0  0  0  0  0  0  0  0  0  0  0
   -7.0429    2.4001    0.6136 H   0  0  0  0  0  0  0  0  0  0  0  0
   -5.8530    2.0325   -1.5476 H   0  0  0  0  0  0  0  0  0  0  0  0
    0.6831    1.0133   -1.5040 H   0  0  0  0  0  0  0  0  0  0  0  0
    1.0136    1.4682    0.1846 H   0  0  0  0  0  0  0  0  0  0  0  0
    3.1962   -0.0419    1.8898 H   0  0  0  0  0  0  0  0  0  0  0  0
    3.1714    0.2913   -1.1937 H   0  0  0  0  0  0  0  0  0  0  0  0
    5.9413   -0.4185    0.6680 H   0  0  0  0  0  0  0  0  0  0  0  0
    7.9445    0.9841    1.0241 H   0  0  0  0  0  0  0  0  0  0  0  0
    7.8501    3.4304    0.6060 H   0  0  0  0  0  0  0  0  0  0  0  0
    5.7403    4.4734   -0.1856 H   0  0  0  0  0  0  0  0  0  0  0  0
    3.7318    3.0857   -0.5459 H   0  0  0  0  0  0  0  0  0  0  0  0
  1  2  1  0
  2  3  1  0
  3  4  1  0
  4  5  1  0
  5  6  1  0
  4  7  1  0
  7  8  1  0
  8  9  1  0
  9 10  2  0
 10 11  1  0
 10 12  1  0
 12 13  2  0
 13 14  1  0
 14 15  2  0
 15 16  1  0
  8 17  1  0
 17 18  2  0
 17 19  1  0
 19 20  1  0
 20 21  1  0
 21 22  2  0
 21 23  1  0
 23 24  2  0
 24 25  1  0
 25 26  2  0
 26 27  1  0
 27 28  2  0
 28 29  1  0
 29 30  2  0
 20  3  1  0
 30 25  1  0
 15  9  1  0
  1 31  1  0
  1 32  1  0
  1 33  1  0
  2 34  1  0
  3 35  1  0
  4 36  1  1
  5 37  1  0
  5 38  1  0
  6 39  1  0
  6 40  1  0
  6 41  1  0
  7 42  1  0
  7 43  1  0
 12 44  1  0
 13 45  1  0
 14 46  1  0
 19 47  1  0
 19 48  1  0
 23 49  1  0
 24 50  1  0
 26 51  1  0
 27 52  1  0
 28 53  1  0
 29 54  1  0
 30 55  1  0
M  RAD  1   2   2
M  END
$$$$
