
     RDKit          3D

 33 34  0  0  0  0  0  0  0  0999 V2000
    4.8277    0.5605    0.1271 C   0  0  0  0  0  0  0  0  0  0  0  0
    3.3743    0.3145    0.5000 C   0  0  0  0  0  0  0  0  0  0  0  0
    2.5802   -0.2381   -0.6854 C   0  0  0  0  0  0  0  0  0  0  0  0
    1.1264   -0.4742   -0.3318 C   0  0  0  0  0  0  0  0  0  0  0  0
    0.7681   -1.7641    0.0771 C   0  0  0  0  0  0  0  0  0  0  0  0
   -0.5447   -2.0700    0.4156 C   0  0  0  0  0  0  0  0  0  0  0  0
   -0.7654   -3.3803    0.7540 O   0  0  0  0  0  0  0  0  0  0  0  0
   -1.5611   -1.0975    0.3926 C   0  0  0  0  0  0  0  0  0  0  0  0
   -2.8912   -1.3799    0.7887 C   0  0  0  0  0  0  0  0  0  0  0  0
   -3.8696   -0.3996    0.7441 C   0  0  0  0  0  0  0  0  0  0  0  0
   -5.1240   -0.6956    1.1911 O   0  0  0  0  0  0  0  0  0  0  0  0
   -3.5644    0.8662    0.2827 C   0  0  0  0  0  0  0  0  0  0  0  0
   -4.5376    1.8140    0.1546 O   0  0  0  0  0  0  0  0  0  0  0  0
   -2.2623    1.1844   -0.0774 C   0  0  0  0  0  0  0  0  0  0  0  0
   -1.2227    0.2225   -0.0255 C   0  0  0  0  0  0  0  0  0  0  0  0
    0.1330    0.5327   -0.3766 C   0  0  0  0  0  0  0  0  0  0  0  0
    0.4794    1.9441   -0.8016 C   0  0  0  0  0  0  0  0  0  0  0  0
    4.9056    1.2902   -0.6851 H   0  0  0  0  0  0  0  0  0  0  0  0
    5.3125   -0.3666   -0.1950 H   0  0  0  0  0  0  0  0  0  0  0  0
    5.3792    0.9506    0.9883 H   0  0  0  0  0  0  0  0  0  0  0  0
    3.3336   -0.3905    1.3394 H   0  0  0  0  0  0  0  0  0  0  0  0
    2.9332    1.2524    0.8567 H   0  0  0  0  0  0  0  0  0  0  0  0
    2.6566    0.4198   -1.5584 H   0  0  0  0  0  0  0  0  0  0  0  0
    3.0318   -1.1841   -1.0138 H   0  0  0  0  0  0  0  0  0  0  0  0
    1.5162   -2.5531    0.1249 H   0  0  0  0  0  0  0  0  0  0  0  0
   -1.6890   -3.5971    0.5528 H   0  0  0  0  0  0  0  0  0  0  0  0
   -3.1744   -2.3549    1.1724 H   0  0  0  0  0  0  0  0  0  0  0  0
   -5.4397    0.1029    1.6541 H   0  0  0  0  0  0  0  0  0  0  0  0
   -5.3378    1.3421   -0.1415 H   0  0  0  0  0  0  0  0  0  0  0  0
   -2.0721    2.1989   -0.4166 H   0  0  0  0  0  0  0  0  0  0  0  0
   -0.0092    2.1778   -1.7533 H   0  0  0  0  0  0  0  0  0  0  0  0
    1.5490    2.1130   -0.9363 H   0  0  0  0  0  0  0  0  0  0  0  0
    0.1586    2.6591   -0.0363 H   0  0  0  0  0  0  0  0  0  0  0  0
  1  2  1  0
  2  3  1  0
  3  4  1  0
  4  5  2  0
  5  6  1  0
  6  7  1  0
  6  8  2  0
  8  9  1  0
  9 10  2  0
 10 11  1  0
 10 12  1  0
 12 13  1  0
 12 14  2  0
 14 15  1  0
 15 16  2  0
 16 17  1  0
 16  4  1  0
 15  8  1  0
  1 18  1  0
  1 19  1  0
  1 20  1  0
  2 21  1  0
  2 22  1  0
  3 23  1  0
  3 24  1  0
  5 25  1  0
  7 26  1  0
  9 27  1  0
 11 28  1  0
 13 29  1  0
 14 30  1  0
 17 31  1  0
 17 32  1  0
 17 33  1  0
M  END
$$$$
