MODEL        5USER    Run = 5USERUSER    Estimated Free Energy of Binding    = -10.43 kcal/mol  [=(1)+(2)+(3)-(4)]USERUSER    (1) Final Intermolecular Energy     = -12.52 kcal/molUSER        vdW + Hbond + desolv Energy     = -12.50 kcal/molUSER        Electrostatic Energy            =  -0.01 kcal/molUSER        Moving Ligand-Fixed Receptor    = -12.52 kcal/molUSER        Moving Ligand-Moving Receptor   =  +0.00 kcal/molUSER    (2) Final Total Internal Energy     =  -2.05 kcal/molUSER    (3) Torsional Free Energy           =  +2.09 kcal/molUSER    (4) Unbound System's Energy         =  -2.05 kcal/molUSERUSERREMARK SMILES COc1ccc(O)c(C(=O)c2ccc(Nc3nc4c(s3)CCC[C@@H]4C(=O)N3CCN(C)CC3)cc2F)c1REMARK SMILES IDX 11 1 12 2 13 3 14 4 34 5 35 6 36 7 9 8 10 9 8 10 3 11 4 12REMARK SMILES IDX 37 13 5 14 6 15 2 16 1 17 7 18 15 20 16 22 17 23 20 24 18 25REMARK SMILES IDX 19 26 24 27 21 28 23 29 22 30 25 31 27 32 28 33 33 34 29 35REMARK SMILES IDX 32 36 30 37 26 38 31 39REMARK H PARENT 7 19 15 21USER                              x       y       z     vdW  Elec       q    TypeUSER                           _______ _______ _______ _____ _____    ______ ____ROOTATOM      1  C   UNL     1      39.148  47.057  16.294 -0.41 -0.02    +0.059 A  ATOM      2  C   UNL     1      38.260  46.422  17.165 -0.37 -0.01    +0.017 A  ATOM      3  C   UNL     1      38.747  45.729  18.281 -0.38 -0.00    +0.027 A  ATOM      4  C   UNL     1      40.120  45.673  18.558 -0.43 -0.00    +0.043 A  ATOM      5  C   UNL     1      40.994  46.341  17.689 -0.44 -0.00    +0.066 A  ATOM      6  C   UNL     1      40.510  47.029  16.577 -0.39 -0.02    +0.136 A  ATOM      7  F   UNL     1      41.390  47.666  15.792 -0.04 +0.01    -0.206 F  ENDROOTBRANCH   1   8ATOM      8  C   UNL     1      38.608  47.794  15.135 -0.41 -0.09    +0.199 C  ATOM      9  O   UNL     1      38.848  48.998  15.045 -0.32 +0.18    -0.288 OA BRANCH   8  10ATOM     10  C   UNL     1      37.793  47.144  14.075 -0.43 -0.03    +0.068 A  ATOM     11  C   UNL     1      37.092  45.175  12.836 -0.39 -0.04    +0.119 A  ATOM     12  C   UNL     1      36.239  45.973  12.070 -0.57 -0.02    +0.050 A  ATOM     13  C   UNL     1      37.858  45.759  13.848 -0.37 -0.02    +0.062 A  ATOM     14  C   UNL     1      36.143  47.343  12.308 -0.64 -0.03    +0.051 A  ATOM     15  C   UNL     1      36.905  47.922  13.318 -0.49 -0.06    +0.127 A  BRANCH  11  16ATOM     16  O   UNL     1      37.071  43.846  12.514 -0.04 +0.15    -0.497 OA ATOM     17  C   UNL     1      37.295  43.509  11.149 -0.35 -0.08    +0.278 C  ENDBRANCH  11  16BRANCH  15  18ATOM     18  O   UNL     1      36.719  49.264  13.529 -0.15 +0.27    -0.507 OA ATOM     19  H   UNL     1      37.549  49.623  13.915 -0.29 -0.21    +0.293 HD ENDBRANCH  15  18ENDBRANCH   8  10ENDBRANCH   1   8BRANCH   4  20ATOM     20  N   UNL     1      40.680  44.963  19.637 -0.19 -0.01    -0.331 N  ATOM     21  H   UNL     1      41.635  45.244  19.834 +0.10 +0.03    +0.169 HD BRANCH  20  22ATOM     22  C   UNL     1      40.074  44.378  20.699 -0.21 +0.01    +0.187 A  ATOM     23  N   UNL     1      38.764  44.220  20.727 -0.20 -0.00    -0.224 NA ATOM     24  S   UNL     1      40.868  43.920  22.171 -0.34 -0.01    -0.102 S  ATOM     25  C   UNL     1      38.377  43.582  21.890 -0.28 +0.00    +0.069 A  ATOM     26  C   UNL     1      39.387  43.396  22.808 -0.25 +0.00    +0.031 A  ATOM     27  C   UNL     1      36.936  43.250  22.166 -0.38 +0.01    +0.129 C  ATOM     28  C   UNL     1      39.213  42.821  24.169 -0.22 +0.00    +0.049 C  ATOM     29  C   UNL     1      36.772  42.498  23.511 -0.46 +0.00    +0.020 C  ATOM     30  C   UNL     1      37.745  42.979  24.602 -0.37 +0.00    +0.007 C  BRANCH  27  31ATOM     31  C   UNL     1      36.344  42.373  21.056 -0.38 +0.00    +0.231 C  ATOM     32  N   UNL     1      35.887  42.992  19.897 -0.19 +0.02    -0.340 N  ATOM     33  C   UNL     1      35.970  44.418  19.585 -0.33 -0.02    +0.135 C  ATOM     34  C   UNL     1      35.424  42.121  18.812 -0.34 -0.02    +0.135 C  ATOM     35  C   UNL     1      34.808  44.932  18.702 -0.38 -0.04    +0.105 C  ATOM     36  C   UNL     1      35.216  42.858  17.478 -0.37 -0.03    +0.105 C  ATOM     37  N   UNL     1      34.330  44.017  17.650 -0.08 +0.11    -0.303 NA ATOM     38  O   UNL     1      36.211  41.154  21.209 -0.40 +0.00    -0.274 OA ATOM     39  C   UNL     1      34.083  44.707  16.390 -0.30 -0.06    +0.105 C  ENDBRANCH  27  31ENDBRANCH  20  22ENDBRANCH   4  20TORSDOF 7TERENDMDL