MODEL        8USER    Run = 8USERUSER    Estimated Free Energy of Binding    = -10.15 kcal/mol  [=(1)+(2)+(3)-(4)]USERUSER    (1) Final Intermolecular Energy     = -11.64 kcal/molUSER        vdW + Hbond + desolv Energy     = -11.46 kcal/molUSER        Electrostatic Energy            =  -0.17 kcal/molUSER        Moving Ligand-Fixed Receptor    = -11.64 kcal/molUSER        Moving Ligand-Moving Receptor   =  +0.00 kcal/molUSER    (2) Final Total Internal Energy     =  -1.65 kcal/molUSER    (3) Torsional Free Energy           =  +1.49 kcal/molUSER    (4) Unbound System's Energy         =  -1.65 kcal/molUSERUSERREMARK SMILES CNC(=O)c1ccc(Nc2nc3c(s2)CCC[C@@H]3C(=O)N2CCN(C)CC2)cc1NREMARK SMILES IDX 9 1 8 3 5 4 6 5 29 6 7 7 28 8 3 9 2 10 1 11 4 13 30 14 10 17REMARK SMILES IDX 11 18 14 19 12 20 13 21 18 22 15 23 17 24 16 25 19 26 21 27REMARK SMILES IDX 22 28 27 29 23 30 26 31 24 32 20 33 25 34REMARK H PARENT 9 2 2 12 30 15 30 16USER                              x       y       z     vdW  Elec       q    TypeUSER                           _______ _______ _______ _____ _____    ______ ____ROOTATOM      1  N   UNL     1      36.566  44.289  19.814 -0.18 +0.03    -0.331 N  ATOM      2  H   UNL     1      36.485  43.419  20.330 +0.11 -0.01    +0.169 HD ENDROOTBRANCH   1   3ATOM      3  C   UNL     1      35.564  44.397  18.829 -0.33 -0.01    +0.042 A  ATOM      4  C   UNL     1      33.538  44.427  16.849 -0.27 -0.03    +0.062 A  ATOM      5  C   UNL     1      33.689  45.502  17.737 -0.39 -0.01    +0.018 A  ATOM      6  C   UNL     1      34.452  43.357  16.898 -0.33 -0.02    +0.046 A  ATOM      7  C   UNL     1      34.692  45.484  18.714 -0.41 -0.01    +0.027 A  ATOM      8  C   UNL     1      35.417  43.337  17.918 -0.30 -0.01    +0.052 A  BRANCH   4   9ATOM      9  C   UNL     1      32.436  44.435  15.839 -0.23 -0.13    +0.253 C  ATOM     10  N   UNL     1      32.183  45.640  15.212 -0.16 +0.29    -0.355 N  ATOM     11  C   UNL     1      31.063  45.775  14.314 -0.49 -0.09    +0.143 C  ATOM     12  H   UNL     1      32.568  46.485  15.611 -0.42 -0.29    +0.163 HD ATOM     13  O   UNL     1      31.774  43.422  15.631 -0.26 +0.14    -0.269 OA ENDBRANCH   4   9BRANCH   6  14ATOM     14  N   UNL     1      34.332  42.198  16.094 -0.03 +0.21    -0.398 N  ATOM     15  H   UNL     1      34.670  41.376  16.589 -0.48 -0.11    +0.156 HD ATOM     16  H   UNL     1      33.339  42.043  15.865 -0.50 -0.12    +0.156 HD ENDBRANCH   6  14ENDBRANCH   1   3BRANCH   1  17ATOM     17  C   UNL     1      37.824  44.791  19.809 -0.18 -0.01    +0.187 A  ATOM     18  N   UNL     1      38.470  45.006  18.679 -0.25 +0.03    -0.224 NA ATOM     19  S   UNL     1      38.780  45.057  21.233 -0.44 -0.00    -0.102 S  ATOM     20  C   UNL     1      39.733  45.502  18.934 -0.39 -0.00    +0.069 A  ATOM     21  C   UNL     1      40.079  45.565  20.266 -0.34 +0.00    +0.031 A  ATOM     22  C   UNL     1      40.668  45.874  17.824 -0.45 -0.01    +0.129 C  ATOM     23  C   UNL     1      41.412  45.963  20.799 -0.36 +0.01    +0.049 C  ATOM     24  C   UNL     1      42.130  45.913  18.336 -0.28 +0.00    +0.020 C  ATOM     25  C   UNL     1      42.262  46.622  19.699 -0.51 +0.00    +0.007 C  BRANCH  22  26ATOM     26  C   UNL     1      40.306  47.242  17.227 -0.39 -0.04    +0.231 C  ATOM     27  N   UNL     1      39.227  47.302  16.350 -0.21 +0.11    -0.340 N  ATOM     28  C   UNL     1      38.274  46.213  16.106 -0.35 -0.05    +0.135 C  ATOM     29  C   UNL     1      38.961  48.551  15.628 -0.46 -0.07    +0.135 C  ATOM     30  C   UNL     1      37.011  46.672  15.353 -0.38 -0.06    +0.105 C  ATOM     31  C   UNL     1      38.482  48.259  14.194 -0.50 -0.04    +0.105 C  ATOM     32  N   UNL     1      37.251  47.443  14.122 -0.26 +0.16    -0.303 NA ATOM     33  O   UNL     1      41.003  48.238  17.441 -0.48 +0.03    -0.274 OA ATOM     34  C   UNL     1      37.256  46.595  12.932 -0.55 -0.04    +0.105 C  ENDBRANCH  22  26ENDBRANCH   1  17TORSDOF 5TERENDMDL