REMARK SMILES Cc1ccc(-c2nc(-c3ccc(CNC(=O)[C@H](C)NC(=O)C(F)F)cc3F)cnc2O)cc1C
REMARK SMILES IDX 14 1 15 2 16 3 13 5 12 6 9 7 10 8 26 9 11 10 25 11 27 12
REMARK SMILES IDX 8 13 6 14 7 15 30 16 29 17 28 18 5 19 2 20 3 21 33 22 4 23
REMARK SMILES IDX 32 24 1 25 34 26 31 27 17 29 18 30 19 31 20 32 21 34 22 35
REMARK SMILES IDX 23 36 24 37
REMARK H PARENT 14 4 31 28 19 33
ROOT
ATOM      1  N   UNL     1       4.723  -0.613  -0.530  1.00  0.00    -0.350 N 
ATOM      2  C   UNL     1       5.511   0.435  -0.957  1.00  0.00     0.242 C 
ATOM      3  O   UNL     1       5.398   0.947  -2.069  1.00  0.00    -0.273 OA
ATOM      4  H   UNL     1       4.720  -0.822   0.467  1.00  0.00     0.163 HD
ENDROOT
BRANCH   1   5
ATOM      5  C   UNL     1       3.654  -1.152  -1.335  1.00  0.00     0.151 C 
BRANCH   5   6
ATOM      6  C   UNL     1       2.340  -0.500  -0.994  1.00  0.00    -0.026 A 
ATOM      7  C   UNL     1      -0.123   0.753  -0.332  1.00  0.00     0.038 A 
ATOM      8  C   UNL     1       0.716   1.282  -1.330  1.00  0.00     0.014 A 
ATOM      9  C   UNL     1       0.311  -0.403   0.330  1.00  0.00     0.132 A 
ATOM     10  C   UNL     1       1.932   0.667  -1.652  1.00  0.00     0.006 A 
ATOM     11  C   UNL     1       1.521  -1.023   0.013  1.00  0.00     0.045 A 
ATOM     12  F   UNL     1      -0.418  -0.931   1.325  1.00  0.00    -0.206 F 
BRANCH   7  13
ATOM     13  C   UNL     1      -1.400   1.387   0.005  1.00  0.00     0.092 A 
ATOM     14  C   UNL     1      -3.685   1.153   0.336  1.00  0.00     0.133 A 
ATOM     15  N   UNL     1      -2.489   0.577   0.032  1.00  0.00    -0.240 NA
ATOM     16  C   UNL     1      -3.766   2.524   0.625  1.00  0.00     0.238 A 
ATOM     17  N   UNL     1      -2.698   3.346   0.583  1.00  0.00    -0.218 NA
ATOM     18  C   UNL     1      -1.523   2.749   0.271  1.00  0.00     0.144 A 
BRANCH  14  19
ATOM     19  C   UNL     1      -4.835   0.234   0.331  1.00  0.00     0.006 A 
ATOM     20  C   UNL     1      -7.048  -1.545   0.356  1.00  0.00    -0.048 A 
ATOM     21  C   UNL     1      -5.861  -1.864   1.029  1.00  0.00     0.004 A 
ATOM     22  C   UNL     1      -7.129  -0.332  -0.353  1.00  0.00    -0.048 A 
ATOM     23  C   UNL     1      -4.772  -0.989   1.013  1.00  0.00     0.011 A 
ATOM     24  C   UNL     1      -6.022   0.536  -0.362  1.00  0.00     0.014 A 
ATOM     25  C   UNL     1      -8.196  -2.517   0.389  1.00  0.00     0.044 C 
ATOM     26  C   UNL     1      -8.369   0.046  -1.117  1.00  0.00     0.044 C 
ENDBRANCH  14  19
BRANCH  16  27
ATOM     27  O   UNL     1      -4.919   3.146   1.012  1.00  0.00    -0.492 OA
ATOM     28  H   UNL     1      -5.540   2.462   1.309  1.00  0.00     0.295 HD
ENDBRANCH  16  27
ENDBRANCH   7  13
ENDBRANCH   5   6
ENDBRANCH   1   5
BRANCH   2  29
ATOM     29  C   UNL     1       6.497   0.954   0.119  1.00  0.00     0.168 C 
ATOM     30  C   UNL     1       7.337   2.108  -0.409  1.00  0.00     0.041 C 
BRANCH  29  31
ATOM     31  N   UNL     1       7.370  -0.123   0.590  1.00  0.00    -0.340 N 
ATOM     32  C   UNL     1       6.968  -1.037   1.547  1.00  0.00     0.287 C 
ATOM     33  H   UNL     1       8.151  -0.398   0.001  1.00  0.00     0.164 HD
ATOM     34  O   UNL     1       5.862  -0.972   2.082  1.00  0.00    -0.268 OA
BRANCH  32  35
ATOM     35  C   UNL     1       7.982  -2.148   1.840  1.00  0.00     0.430 C 
ATOM     36  F   UNL     1       7.485  -3.380   1.535  1.00  0.00    -0.199 F 
ATOM     37  F   UNL     1       9.119  -2.006   1.094  1.00  0.00    -0.199 F 
ENDBRANCH  32  35
ENDBRANCH  29  31
ENDBRANCH   2  29
TORSDOF 8
