MODEL        9USER    Run = 9USERUSER    Estimated Free Energy of Binding    =  -9.44 kcal/mol  [=(1)+(2)+(3)-(4)]USERUSER    (1) Final Intermolecular Energy     = -11.83 kcal/molUSER        vdW + Hbond + desolv Energy     = -11.72 kcal/molUSER        Electrostatic Energy            =  -0.12 kcal/molUSER        Moving Ligand-Fixed Receptor    = -11.83 kcal/molUSER        Moving Ligand-Moving Receptor   =  +0.00 kcal/molUSER    (2) Final Total Internal Energy     =  -2.05 kcal/molUSER    (3) Torsional Free Energy           =  +2.39 kcal/molUSER    (4) Unbound System's Energy         =  -2.05 kcal/molUSERUSERREMARK SMILES Cc1ccc(-c2nc(-c3ccc(CNC(=O)[C@H](C)NC(=O)C(F)F)cc3F)cnc2O)cc1CREMARK SMILES IDX 14 1 15 2 16 3 13 5 12 6 9 7 10 8 26 9 11 10 25 11 27 12REMARK SMILES IDX 8 13 6 14 7 15 30 16 29 17 28 18 5 19 2 20 3 21 33 22 4 23REMARK SMILES IDX 32 24 1 25 34 26 31 27 17 29 18 30 19 31 20 32 21 34 22 35REMARK SMILES IDX 23 36 24 37REMARK H PARENT 14 4 31 28 19 33USER                              x       y       z     vdW  Elec       q    TypeUSER                           _______ _______ _______ _____ _____    ______ ____ROOTATOM      1  N   UNL     1      38.642  43.643  24.205 -0.06 -0.02    -0.350 N  ATOM      2  C   UNL     1      37.349  43.464  24.650 -0.24 +0.01    +0.242 C  ATOM      3  O   UNL     1      36.544  42.724  24.088 -0.30 -0.02    -0.273 OA ATOM      4  H   UNL     1      39.302  44.081  24.845 +0.07 +0.00    +0.163 HD ENDROOTBRANCH   1   5ATOM      5  C   UNL     1      39.175  42.921  23.075 -0.24 +0.01    +0.151 C  BRANCH   5   6ATOM      6  C   UNL     1      39.515  43.859  21.947 -0.25 -0.00    -0.026 A  ATOM      7  C   UNL     1      40.151  45.655  19.838 -0.36 +0.00    +0.038 A  ATOM      8  C   UNL     1      41.098  45.331  20.827 -0.34 +0.00    +0.014 A  ATOM      9  C   UNL     1      38.882  45.071  19.944 -0.29 -0.00    +0.132 A  ATOM     10  C   UNL     1      40.782  44.450  21.869 -0.27 +0.00    +0.006 A  ATOM     11  C   UNL     1      38.560  44.190  20.979 -0.31 +0.00    +0.045 A  ATOM     12  F   UNL     1      37.918  45.375  19.062 -0.09 +0.02    -0.206 F  BRANCH   7  13ATOM     13  C   UNL     1      40.477  46.570  18.742 -0.36 -0.01    +0.092 A  ATOM     14  C   UNL     1      39.879  47.469  16.687 -0.39 -0.03    +0.133 A  ATOM     15  N   UNL     1      39.587  46.629  17.718 -0.30 +0.04    -0.240 NA ATOM     16  C   UNL     1      41.047  48.248  16.708 -0.34 -0.03    +0.238 A  ATOM     17  N   UNL     1      41.951  48.186  17.707 -0.55 -0.00    -0.218 NA ATOM     18  C   UNL     1      41.639  47.338  18.715 -0.37 -0.00    +0.144 A  BRANCH  14  19ATOM     19  C   UNL     1      38.892  47.479  15.596 -0.48 -0.00    +0.006 A  ATOM     20  C   UNL     1      37.002  47.527  13.477 -0.54 +0.02    -0.048 A  ATOM     21  C   UNL     1      37.363  48.704  14.145 -0.53 -0.00    +0.004 A  ATOM     22  C   UNL     1      37.575  46.307  13.880 -0.42 +0.02    -0.048 A  ATOM     23  C   UNL     1      38.291  48.679  15.190 -0.50 -0.01    +0.011 A  ATOM     24  C   UNL     1      38.505  46.298  14.936 -0.41 -0.00    +0.014 A  ATOM     25  C   UNL     1      35.992  47.594  12.363 -0.67 -0.02    +0.044 C  ATOM     26  C   UNL     1      37.200  45.009  13.217 -0.48 -0.01    +0.044 C  ENDBRANCH  14  19BRANCH  16  27ATOM     27  O   UNL     1      41.359  49.165  15.745 -0.71 +0.03    -0.492 OA ATOM     28  H   UNL     1      40.562  49.690  15.566 +0.21 -0.10    +0.295 HD ENDBRANCH  16  27ENDBRANCH   7  13ENDBRANCH   5   6ENDBRANCH   1   5BRANCH   2  29ATOM     29  C   UNL     1      37.029  44.223  25.962 -0.29 -0.01    +0.168 C  ATOM     30  C   UNL     1      35.740  43.718  26.594 -0.47 -0.01    +0.041 C  BRANCH  29  31ATOM     31  N   UNL     1      36.936  45.664  25.723 -0.17 +0.01    -0.340 N  ATOM     32  C   UNL     1      38.049  46.447  25.477 -0.20 +0.02    +0.287 C  ATOM     33  H   UNL     1      36.041  46.043  25.426 -0.50 -0.02    +0.164 HD ATOM     34  O   UNL     1      39.187  45.978  25.482 -0.10 -0.01    -0.268 OA BRANCH  32  35ATOM     35  C   UNL     1      37.744  47.914  25.154 -0.19 +0.04    +0.430 C  ATOM     36  F   UNL     1      38.204  48.266  23.920 -0.15 -0.03    -0.199 F  ATOM     37  F   UNL     1      36.399  48.160  25.138 -0.15 -0.01    -0.199 F  ENDBRANCH  32  35ENDBRANCH  29  31ENDBRANCH   2  29TORSDOF 8TERENDMDL