REMARK SMILES Cc1ccc(-c2nc(-c3ccc(CNC(=O)[C@H](C)NCC(F)(F)F)cc3F)cnc2O)cc1C
REMARK SMILES IDX 14 1 15 2 16 3 13 5 12 6 9 7 10 8 26 9 11 10 25 11 27 12
REMARK SMILES IDX 8 13 6 14 7 15 30 16 29 17 28 18 5 19 2 20 3 21 33 22 4 23
REMARK SMILES IDX 32 24 1 25 34 26 31 27 17 29 18 30 19 31 20 33 21 34 22 35
REMARK SMILES IDX 23 36 24 37
REMARK H PARENT 14 4 31 28 19 32
ROOT
ATOM      1  N   UNL     1       4.559  -0.721  -1.122  1.00  0.00    -0.351 N 
ATOM      2  C   UNL     1       5.352  -0.741   0.005  1.00  0.00     0.237 C 
ATOM      3  O   UNL     1       5.580  -1.763   0.649  1.00  0.00    -0.273 OA
ATOM      4  H   UNL     1       4.282   0.171  -1.510  1.00  0.00     0.163 HD
ENDROOT
BRANCH   1   5
ATOM      5  C   UNL     1       3.835  -1.892  -1.560  1.00  0.00     0.151 C 
BRANCH   5   6
ATOM      6  C   UNL     1       2.422  -1.865  -1.040  1.00  0.00    -0.026 A 
ATOM      7  C   UNL     1      -0.235  -1.759  -0.010  1.00  0.00     0.038 A 
ATOM      8  C   UNL     1       0.074  -1.300  -1.306  1.00  0.00     0.014 A 
ATOM      9  C   UNL     1       0.832  -2.257   0.751  1.00  0.00     0.132 A 
ATOM     10  C   UNL     1       1.379  -1.350  -1.814  1.00  0.00     0.006 A 
ATOM     11  C   UNL     1       2.136  -2.313   0.255  1.00  0.00     0.045 A 
ATOM     12  F   UNL     1       0.632  -2.681   2.009  1.00  0.00    -0.206 F 
BRANCH   7  13
ATOM     13  C   UNL     1      -1.618  -1.691   0.498  1.00  0.00     0.092 A 
ATOM     14  C   UNL     1      -3.697  -0.625   0.376  1.00  0.00     0.133 A 
ATOM     15  N   UNL     1      -2.402  -0.720  -0.048  1.00  0.00    -0.240 NA
ATOM     16  C   UNL     1      -4.169  -1.509   1.347  1.00  0.00     0.238 A 
ATOM     17  N   UNL     1      -3.428  -2.486   1.904  1.00  0.00    -0.218 NA
ATOM     18  C   UNL     1      -2.149  -2.555   1.455  1.00  0.00     0.144 A 
BRANCH  14  19
ATOM     19  C   UNL     1      -4.487   0.452  -0.255  1.00  0.00     0.006 A 
ATOM     20  C   UNL     1      -5.965   2.550  -1.494  1.00  0.00    -0.048 A 
ATOM     21  C   UNL     1      -4.602   2.700  -1.212  1.00  0.00     0.004 A 
ATOM     22  C   UNL     1      -6.601   1.342  -1.160  1.00  0.00    -0.048 A 
ATOM     23  C   UNL     1      -3.879   1.668  -0.607  1.00  0.00     0.011 A 
ATOM     24  C   UNL     1      -5.855   0.312  -0.553  1.00  0.00     0.014 A 
ATOM     25  C   UNL     1      -6.714   3.682  -2.143  1.00  0.00     0.044 C 
ATOM     26  C   UNL     1      -8.062   1.119  -1.445  1.00  0.00     0.044 C 
ENDBRANCH  14  19
BRANCH  16  27
ATOM     27  O   UNL     1      -5.423  -1.470   1.862  1.00  0.00    -0.492 OA
ATOM     28  H   UNL     1      -5.357  -2.190   2.515  1.00  0.00     0.295 HD
ENDBRANCH  16  27
ENDBRANCH   7  13
ENDBRANCH   5   6
ENDBRANCH   1   5
BRANCH   2  29
ATOM     29  C   UNL     1       5.937   0.636   0.392  1.00  0.00     0.141 C 
ATOM     30  C   UNL     1       7.069   0.991  -0.569  1.00  0.00     0.035 C 
BRANCH  29  31
ATOM     31  N   UNL     1       6.474   0.614   1.769  1.00  0.00    -0.298 NA
ATOM     32  H   UNL     1       6.995  -0.264   1.886  1.00  0.00     0.123 HD
BRANCH  31  33
ATOM     33  C   UNL     1       5.393   0.643   2.788  1.00  0.00     0.198 C 
BRANCH  33  34
ATOM     34  C   UNL     1       5.854   0.509   4.253  1.00  0.00     0.401 C 
ATOM     35  F   UNL     1       4.787   0.478   5.085  1.00  0.00    -0.170 F 
ATOM     36  F   UNL     1       6.634   1.546   4.632  1.00  0.00    -0.170 F 
ATOM     37  F   UNL     1       6.554  -0.632   4.446  1.00  0.00    -0.170 F 
ENDBRANCH  33  34
ENDBRANCH  31  33
ENDBRANCH  29  31
ENDBRANCH   2  29
TORSDOF 9
