MODEL        9USER    Run = 9USERUSER    Estimated Free Energy of Binding    =  -8.81 kcal/mol  [=(1)+(2)+(3)-(4)]USERUSER    (1) Final Intermolecular Energy     = -11.50 kcal/molUSER        vdW + Hbond + desolv Energy     = -11.27 kcal/molUSER        Electrostatic Energy            =  -0.22 kcal/molUSER        Moving Ligand-Fixed Receptor    = -11.50 kcal/molUSER        Moving Ligand-Moving Receptor   =  +0.00 kcal/molUSER    (2) Final Total Internal Energy     =  -2.09 kcal/molUSER    (3) Torsional Free Energy           =  +2.68 kcal/molUSER    (4) Unbound System's Energy         =  -2.09 kcal/molUSERUSERREMARK SMILES Cc1ccc(-c2nc(-c3ccc(CNC(=O)[C@H](C)NCC(F)(F)F)cc3F)cnc2O)cc1CREMARK SMILES IDX 14 1 15 2 16 3 13 5 12 6 9 7 10 8 26 9 11 10 25 11 27 12REMARK SMILES IDX 8 13 6 14 7 15 30 16 29 17 28 18 5 19 2 20 3 21 33 22 4 23REMARK SMILES IDX 32 24 1 25 34 26 31 27 17 29 18 30 19 31 20 33 21 34 22 35REMARK SMILES IDX 23 36 24 37REMARK H PARENT 14 4 31 28 19 32USER                              x       y       z     vdW  Elec       q    TypeUSER                           _______ _______ _______ _____ _____    ______ ____ROOTATOM      1  N   UNL     1      38.769  48.865  14.582 -0.18 +0.20    -0.351 N  ATOM      2  C   UNL     1      39.958  48.344  15.047 -0.44 -0.07    +0.237 C  ATOM      3  O   UNL     1      40.422  47.275  14.657 -0.33 +0.03    -0.273 OA ATOM      4  H   UNL     1      38.365  49.662  15.056 -0.41 -0.15    +0.163 HD ENDROOTBRANCH   1   5ATOM      5  C   UNL     1      37.918  48.123  13.682 -0.44 -0.05    +0.151 C  BRANCH   5   6ATOM      6  C   UNL     1      37.232  46.997  14.410 -0.43 +0.01    -0.026 A  ATOM      7  C   UNL     1      35.871  44.903  15.787 -0.32 -0.02    +0.038 A  ATOM      8  C   UNL     1      36.283  44.761  14.447 -0.33 -0.01    +0.014 A  ATOM      9  C   UNL     1      36.152  46.130  16.403 -0.27 -0.09    +0.132 A  ATOM     10  C   UNL     1      36.951  45.788  13.768 -0.45 -0.00    +0.006 A  ATOM     11  C   UNL     1      36.818  47.161  15.737 -0.36 -0.04    +0.045 A  ATOM     12  F   UNL     1      35.762  46.363  17.666 -0.10 +0.14    -0.206 F  BRANCH   7  13ATOM     13  C   UNL     1      35.167  43.804  16.474 -0.30 -0.04    +0.092 A  ATOM     14  C   UNL     1      33.127  42.727  16.861 -0.24 -0.06    +0.133 A  ATOM     15  N   UNL     1      33.823  43.737  16.261 -0.18 +0.11    -0.240 NA ATOM     16  C   UNL     1      33.802  41.811  17.669 -0.24 -0.09    +0.238 A  ATOM     17  N   UNL     1      35.129  41.840  17.897 -0.40 +0.07    -0.218 NA ATOM     18  C   UNL     1      35.790  42.852  17.280 -0.24 -0.05    +0.144 A  BRANCH  14  19ATOM     19  C   UNL     1      31.675  42.718  16.590 -0.31 -0.00    +0.006 A  ATOM     20  C   UNL     1      28.867  42.659  16.102 -0.23 +0.02    -0.048 A  ATOM     21  C   UNL     1      29.539  41.525  16.573 -0.32 -0.00    +0.004 A  ATOM     22  C   UNL     1      29.598  43.838  15.873 -0.25 +0.03    -0.048 A  ATOM     23  C   UNL     1      30.916  41.558  16.815 -0.30 -0.00    +0.011 A  ATOM     24  C   UNL     1      30.984  43.853  16.125 -0.32 -0.01    +0.014 A  ATOM     25  C   UNL     1      27.386  42.589  15.849 -0.26 -0.02    +0.044 C  ATOM     26  C   UNL     1      28.930  45.091  15.373 -0.23 -0.02    +0.044 C  ENDBRANCH  14  19BRANCH  16  27ATOM     27  O   UNL     1      33.196  40.801  18.340 -0.14 +0.08    -0.492 OA ATOM     28  H   UNL     1      33.669  40.040  17.957 -0.12 -0.11    +0.295 HD ENDBRANCH  16  27ENDBRANCH   7  13ENDBRANCH   5   6ENDBRANCH   1   5BRANCH   2  29ATOM     29  C   UNL     1      40.664  49.223  16.104 -0.53 -0.03    +0.141 C  ATOM     30  C   UNL     1      41.394  50.366  15.402 -0.71 -0.01    +0.035 C  BRANCH  29  31ATOM     31  N   UNL     1      41.648  48.435  16.875 -0.67 -0.01    -0.298 NA ATOM     32  H   UNL     1      42.015  47.703  16.255 -0.29 -0.02    +0.123 HD BRANCH  31  33ATOM     33  C   UNL     1      41.029  47.770  18.051 -0.28 -0.02    +0.198 C  BRANCH  33  34ATOM     34  C   UNL     1      40.462  46.359  17.798 -0.26 -0.04    +0.401 C  ATOM     35  F   UNL     1      40.276  45.706  18.968 -0.14 +0.00    -0.170 F  ATOM     36  F   UNL     1      41.296  45.610  17.042 -0.13 -0.00    -0.170 F  ATOM     37  F   UNL     1      39.267  46.416  17.168 -0.14 +0.04    -0.170 F  ENDBRANCH  33  34ENDBRANCH  31  33ENDBRANCH  29  31ENDBRANCH   2  29TORSDOF 9TERENDMDL