MODEL        3USER    Run = 3USERUSER    Estimated Free Energy of Binding    = -10.44 kcal/mol  [=(1)+(2)+(3)-(4)]USERUSER    (1) Final Intermolecular Energy     = -12.53 kcal/molUSER        vdW + Hbond + desolv Energy     = -12.40 kcal/molUSER        Electrostatic Energy            =  -0.13 kcal/molUSER        Moving Ligand-Fixed Receptor    = -12.53 kcal/molUSER        Moving Ligand-Moving Receptor   =  +0.00 kcal/molUSER    (2) Final Total Internal Energy     =  -2.19 kcal/molUSER    (3) Torsional Free Energy           =  +2.09 kcal/molUSER    (4) Unbound System's Energy         =  -2.19 kcal/molUSERUSERREMARK SMILES Cc1ccc(-c2nc(-c3ccc(CNC(=O)[C@H](C)N4CCN(C)CC4)cc3F)cnc2O)cc1CREMARK SMILES IDX 13 1 12 2 9 3 10 4 27 5 11 6 26 7 28 8 8 9 6 10 7 11 31 12REMARK SMILES IDX 30 13 29 14 5 15 2 16 3 17 34 18 4 19 33 20 1 21 35 22 32 23REMARK SMILES IDX 14 25 15 26 16 28 17 29 18 30 19 31 20 32 25 33 21 34 24 35REMARK SMILES IDX 22 36 23 37REMARK H PARENT 32 24 14 27USER                              x       y       z     vdW  Elec       q    TypeUSER                           _______ _______ _______ _____ _____    ______ ____ROOTATOM      1  C   UNL     1      36.548  43.041  24.704 -0.31 +0.01    +0.151 C  ENDROOTBRANCH   1   2ATOM      2  C   UNL     1      37.584  43.723  23.848 -0.32 -0.00    -0.026 A  ATOM      3  C   UNL     1      39.591  44.984  22.256 -0.26 +0.00    +0.038 A  ATOM      4  C   UNL     1      39.278  43.619  22.107 -0.27 +0.00    +0.014 A  ATOM      5  C   UNL     1      38.878  45.684  23.243 -0.24 +0.01    +0.132 A  ATOM      6  C   UNL     1      38.296  42.998  22.888 -0.33 +0.00    +0.006 A  ATOM      7  C   UNL     1      37.893  45.074  24.027 -0.27 +0.01    +0.045 A  ATOM      8  F   UNL     1      39.134  46.979  23.484 -0.11 -0.03    -0.206 F  BRANCH   3   9ATOM      9  C   UNL     1      40.626  45.612  21.410 -0.25 +0.01    +0.092 A  ATOM     10  C   UNL     1      41.129  46.597  19.344 -0.29 +0.00    +0.133 A  ATOM     11  N   UNL     1      40.223  45.986  20.164 -0.19 -0.01    -0.240 NA ATOM     12  C   UNL     1      42.431  46.805  19.800 -0.29 +0.04    +0.238 A  ATOM     13  N   UNL     1      42.868  46.453  21.025 -0.24 -0.07    -0.218 NA ATOM     14  C   UNL     1      41.936  45.860  21.813 -0.20 +0.02    +0.144 A  BRANCH  10  15ATOM     15  C   UNL     1      40.610  46.982  18.012 -0.50 -0.00    +0.006 A  ATOM     16  C   UNL     1      39.546  47.703  15.466 -0.49 +0.01    -0.048 A  ATOM     17  C   UNL     1      39.045  46.601  16.168 -0.43 -0.00    +0.004 A  ATOM     18  C   UNL     1      40.593  48.453  16.033 -0.55 +0.01    -0.048 A  ATOM     19  C   UNL     1      39.568  46.252  17.417 -0.45 -0.00    +0.011 A  ATOM     20  C   UNL     1      41.099  48.089  17.297 -0.50 -0.00    +0.014 A  ATOM     21  C   UNL     1      38.959  48.055  14.128 -0.50 -0.01    +0.044 C  ATOM     22  C   UNL     1      41.167  49.655  15.331 -0.72 -0.01    +0.044 C  ENDBRANCH  10  15BRANCH  12  23ATOM     23  O   UNL     1      43.415  47.366  19.057 -0.29 -0.12    -0.492 OA ATOM     24  H   UNL     1      43.475  48.238  19.489 -0.41 -0.03    +0.295 HD ENDBRANCH  12  23ENDBRANCH   3   9ENDBRANCH   1   2BRANCH   1  25ATOM     25  N   UNL     1      36.174  43.880  25.819 -0.17 +0.02    -0.351 N  ATOM     26  C   UNL     1      36.127  43.381  27.112 -0.34 -0.05    +0.237 C  ATOM     27  H   UNL     1      36.168  44.879  25.677 -0.14 -0.01    +0.163 HD ATOM     28  O   UNL     1      36.304  42.189  27.358 -0.31 +0.08    -0.273 OA BRANCH  26  29ATOM     29  C   UNL     1      35.864  44.476  28.184 -0.44 -0.04    +0.143 C  ATOM     30  C   UNL     1      34.417  44.368  28.676 -0.68 -0.01    +0.035 C  BRANCH  29  31ATOM     31  N   UNL     1      36.262  45.808  27.685 -0.15 +0.09    -0.290 NA ATOM     32  C   UNL     1      35.850  46.950  28.511 -0.35 -0.03    +0.101 C  ATOM     33  C   UNL     1      37.694  45.901  27.351 -0.28 -0.01    +0.101 C  ATOM     34  C   UNL     1      36.080  48.307  27.790 -0.34 -0.02    +0.099 C  ATOM     35  C   UNL     1      38.234  47.355  27.246 -0.23 -0.01    +0.099 C  ATOM     36  N   UNL     1      37.242  48.378  26.870 -0.16 +0.02    -0.304 NA ATOM     37  C   UNL     1      36.810  48.195  25.482 -0.42 +0.00    +0.105 C  ENDBRANCH  29  31ENDBRANCH  26  29ENDBRANCH   1  25TORSDOF 7TERENDMDL