MODEL        5USER    Run = 5USERUSER    Estimated Free Energy of Binding    =  -7.55 kcal/mol  [=(1)+(2)+(3)-(4)]USERUSER    (1) Final Intermolecular Energy     = -12.02 kcal/molUSER        vdW + Hbond + desolv Energy     = -12.68 kcal/molUSER        Electrostatic Energy            =  -0.40 kcal/molUSER        Moving Ligand-Fixed Receptor    = -13.07 kcal/molUSER        Moving Ligand-Moving Receptor   =  +1.05 kcal/molUSER    (2) Final Total Internal Energy     =  -4.22 kcal/molUSER    (3) Torsional Free Energy           =  +4.47 kcal/molUSER    (4) Unbound System's Energy         =  -4.22 kcal/molUSERUSERREMARK SMILES COc1ccc(O)c(C(=O)c2ccc(C(=O)O[C@@H]3C[C@H](C)CNC[C@@H]3NC(=O)c3cccc(F)n3)cc2)c1FREMARK SMILES IDX 17 1 15 2 16 3 14 4 11 5 12 6 37 7 13 8 36 9 9 10 10 11 8 12REMARK SMILES IDX 3 13 4 14 38 15 5 16 6 17 39 18 2 19 1 20 7 21 18 23 25 25REMARK SMILES IDX 24 26 23 27 22 29 20 30 21 31 19 32 26 34 27 35 28 37 29 38REMARK SMILES IDX 30 39 35 40 31 41 33 42 32 43 34 44REMARK H PARENT 7 22 23 28 26 36REMARK Flexibility Score:   99.900USER                              x       y       z     vdW  Elec       q    TypeUSER                           _______ _______ _______ _____ _____    ______ ____ROOTATOM      1  O   UNL     1      28.506  44.914  16.061 -0.08 +0.12    -0.457 OA ENDROOTBRANCH   1   2ATOM      2  C   UNL     1      27.350  44.495  15.490 -0.06 -0.16    +0.338 C  ATOM      3  O   UNL     1      26.802  45.002  14.524 -0.20 +0.15    -0.246 OA BRANCH   2   4ATOM      4  C   UNL     1      26.816  43.306  16.207 -0.22 -0.02    +0.060 A  ATOM      5  C   UNL     1      25.896  41.074  17.634 -0.24 -0.00    +0.023 A  ATOM      6  C   UNL     1      25.398  41.344  16.354 -0.23 -0.00    +0.013 A  ATOM      7  C   UNL     1      26.882  41.898  18.188 -0.21 -0.00    +0.013 A  ATOM      8  C   UNL     1      25.849  42.461  15.645 -0.30 -0.00    +0.016 A  ATOM      9  C   UNL     1      27.336  43.012  17.476 -0.22 -0.00    +0.016 A  BRANCH   5  10ATOM     10  C   UNL     1      25.409  39.866  18.340 -0.24 -0.02    +0.199 C  ATOM     11  O   UNL     1      25.437  38.783  17.750 -0.67 -0.02    -0.288 OA BRANCH  10  12ATOM     12  C   UNL     1      24.937  39.882  19.742 -0.24 -0.03    +0.104 A  ATOM     13  C   UNL     1      23.833  40.985  21.619 -0.39 -0.03    +0.155 A  ATOM     14  C   UNL     1      24.067  39.861  22.415 -0.30 -0.02    +0.053 A  ATOM     15  C   UNL     1      24.266  40.980  20.283 -0.29 -0.04    +0.179 A  ATOM     16  C   UNL     1      24.708  38.743  21.874 -0.26 -0.04    +0.051 A  ATOM     17  C   UNL     1      25.126  38.750  20.545 -0.22 -0.09    +0.130 A  ATOM     18  F   UNL     1      23.999  42.051  19.519 -0.08 +0.05    -0.202 F  BRANCH  13  19ATOM     19  O   UNL     1      23.199  42.127  22.027 -0.73 +0.04    -0.494 OA ATOM     20  C   UNL     1      23.907  42.985  22.913 -0.54 -0.09    +0.278 C  ENDBRANCH  13  19BRANCH  17  21ATOM     21  O   UNL     1      25.714  37.601  20.087 -0.02 +0.54    -0.507 OA ATOM     22  H   UNL     1      25.175  37.267  19.334 -0.40 -0.47    +0.293 HD ENDBRANCH  17  21ENDBRANCH  10  12ENDBRANCH   5  10ENDBRANCH   2   4ENDBRANCH   1   2BRANCH   1  23ATOM     23  C   UNL     1      29.730  44.370  15.495 -0.22 -0.12    +0.200 CG0ATOM     24  G   UNL     1      30.645  43.975  16.661 +0.00 +0.00    +0.000 G0 BRANCH  23  25ATOM     25  C   UNL     1      30.294  45.354  14.438 -0.37 -0.11    +0.137 C  BRANCH  25  26ATOM     26  C   UNL     1      31.358  46.337  14.997 -0.41 -0.08    +0.109 C  BRANCH  26  27ATOM     27  N   UNL     1      32.640  45.821  15.511 -0.08 +0.33    -0.314 NA ATOM     28  H   UNL     1      32.686  46.036  16.509 -0.24 -0.14    +0.122 HD BRANCH  27  29ATOM     29  C   UNL     1      32.835  44.391  15.311 -0.22 -0.05    +0.084 C  BRANCH  29  30ATOM     30  C   UNL     1      32.096  43.547  16.366 -0.38 -0.00    +0.003 C  ATOM     31  C   UNL     1      32.935  43.396  17.634 -0.37 -0.00    +0.009 C  BRANCH  30  32ATOM     32  C   UNL     1      30.645  43.975  16.660 -0.31 -0.01    +0.052 CG0ATOM     33  G   UNL     1      29.732  44.352  15.486 +0.00 +0.00    +0.000 G0 ENDBRANCH  30  32ENDBRANCH  29  30ENDBRANCH  27  29ENDBRANCH  26  27ENDBRANCH  25  26BRANCH  25  34ATOM     34  N   UNL     1      29.211  46.020  13.708 -0.04 +0.32    -0.343 N  ATOM     35  C   UNL     1      29.385  46.709  12.530 -0.39 -0.17    +0.270 C  ATOM     36  H   UNL     1      28.262  45.700  13.877 -0.28 -0.19    +0.164 HD ATOM     37  O   UNL     1      30.473  47.010  12.053 -1.10 +0.10    -0.268 OA BRANCH  35  38ATOM     38  C   UNL     1      28.097  47.050  11.841 -0.39 -0.07    +0.131 A  ATOM     39  C   UNL     1      28.037  48.136  10.976 -0.34 -0.02    +0.034 A  ATOM     40  N   UNL     1      27.044  46.231  12.119 -0.44 +0.13    -0.215 NA ATOM     41  C   UNL     1      26.821  48.413  10.358 -0.41 -0.00    +0.007 A  ATOM     42  C   UNL     1      25.887  46.535  11.499 -0.22 -0.05    +0.213 A  ATOM     43  C   UNL     1      25.724  47.598  10.626 -0.31 -0.04    +0.060 A  ATOM     44  F   UNL     1      24.832  45.746  11.750 -0.01 -0.06    -0.185 F  ENDBRANCH  35  38ENDBRANCH  25  34ENDBRANCH  23  25ENDBRANCH   1  23TORSDOF 9TERENDMDL