MODEL        10USER    Run = 10USERUSER    Estimated Free Energy of Binding    =  -7.33 kcal/mol  [=(1)+(2)+(3)-(4)]USERUSER    (1) Final Intermolecular Energy     = -11.80 kcal/molUSER        vdW + Hbond + desolv Energy     = -11.64 kcal/molUSER        Electrostatic Energy            =  -0.50 kcal/molUSER        Moving Ligand-Fixed Receptor    = -12.15 kcal/molUSER        Moving Ligand-Moving Receptor   =  +0.35 kcal/molUSER    (2) Final Total Internal Energy     =  -2.97 kcal/molUSER    (3) Torsional Free Energy           =  +4.47 kcal/molUSER    (4) Unbound System's Energy         =  -2.97 kcal/molUSERUSERREMARK SMILES COc1ccc(O)c(C(=O)c2ccc(C(=O)O[C@@H]3CCCNC[C@@H]3NC(=O)c3cnoc3)cc2)c1FREMARK SMILES IDX 17 1 15 2 16 3 14 4 11 5 12 6 34 7 13 8 33 9 9 10 10 11 8 12REMARK SMILES IDX 3 13 4 14 35 15 5 16 6 17 36 18 2 19 1 20 7 21 18 23 24 25REMARK SMILES IDX 23 26 22 27 21 29 20 30 19 31 25 33 26 34 27 36 28 37 29 38REMARK SMILES IDX 32 39 30 40 31 41REMARK H PARENT 7 22 22 28 25 35REMARK Flexibility Score:   99.900USER                              x       y       z     vdW  Elec       q    TypeUSER                           _______ _______ _______ _____ _____    ______ ____ROOTATOM      1  O   UNL     1      38.053  44.675  15.278 -0.03 +0.13    -0.457 OA ENDROOTBRANCH   1   2ATOM      2  C   UNL     1      37.817  44.650  16.614 -0.13 -0.09    +0.338 C  ATOM      3  O   UNL     1      36.836  44.161  17.154 -0.22 +0.07    -0.246 OA BRANCH   2   4ATOM      4  C   UNL     1      38.952  45.258  17.352 -0.30 -0.01    +0.060 A  ATOM      5  C   UNL     1      41.132  46.327  18.759 -0.48 +0.00    +0.023 A  ATOM      6  C   UNL     1      40.898  44.945  18.764 -0.43 +0.00    +0.013 A  ATOM      7  C   UNL     1      40.248  47.177  18.082 -0.33 -0.00    +0.013 A  ATOM      8  C   UNL     1      39.814  44.413  18.061 -0.10 -0.00    +0.016 A  ATOM      9  C   UNL     1      39.168  46.642  17.373 -0.42 -0.00    +0.016 A  BRANCH   5  10ATOM     10  C   UNL     1      42.279  46.848  19.542 -0.40 +0.03    +0.199 C  ATOM     11  O   UNL     1      43.184  47.439  18.951 -0.46 -0.05    -0.288 OA BRANCH  10  12ATOM     12  C   UNL     1      42.428  46.649  21.001 -0.30 +0.02    +0.104 A  ATOM     13  C   UNL     1      41.512  46.093  23.193 -0.12 +0.02    +0.155 A  ATOM     14  C   UNL     1      42.778  46.259  23.760 -0.11 +0.01    +0.053 A  ATOM     15  C   UNL     1      41.348  46.301  21.815 -0.15 +0.02    +0.179 A  ATOM     16  C   UNL     1      43.858  46.644  22.962 -0.20 +0.02    +0.051 A  ATOM     17  C   UNL     1      43.679  46.851  21.596 -0.27 +0.06    +0.130 A  ATOM     18  F   UNL     1      40.118  46.181  21.288 -0.05 -0.01    -0.202 F  BRANCH  13  19ATOM     19  O   UNL     1      40.379  45.734  23.872 +0.01 -0.03    -0.494 OA ATOM     20  C   UNL     1      40.535  45.283  25.212 -0.05 +0.01    +0.278 C  ENDBRANCH  13  19BRANCH  17  21ATOM     21  O   UNL     1      44.783  47.259  20.894 -0.50 -0.56    -0.507 OA ATOM     22  H   UNL     1      44.501  47.982  20.286 -0.34 +0.07    +0.293 HD ENDBRANCH  17  21ENDBRANCH  10  12ENDBRANCH   5  10ENDBRANCH   2   4ENDBRANCH   1   2BRANCH   1  23ATOM     23  C   UNL     1      37.000  45.247  14.464 -0.32 -0.08    +0.200 CG0ATOM     24  G   UNL     1      37.253  44.740  13.041 +0.00 +0.00    +0.000 G0 BRANCH  23  25ATOM     25  C   UNL     1      36.970  46.787  14.630 -0.38 -0.08    +0.137 C  BRANCH  25  26ATOM     26  C   UNL     1      36.187  47.444  13.477 -0.53 -0.07    +0.109 C  BRANCH  26  27ATOM     27  N   UNL     1      36.948  47.584  12.225 -0.93 +0.09    -0.315 NA ATOM     28  H   UNL     1      36.683  48.480  11.808 -0.21 -0.03    +0.122 HD BRANCH  27  29ATOM     29  C   UNL     1      36.649  46.531  11.252 -0.32 -0.03    +0.081 C  BRANCH  29  30ATOM     30  C   UNL     1      36.314  45.206  11.926 -0.45 -0.01    +0.019 C  BRANCH  30  31ATOM     31  C   UNL     1      37.249  44.739  13.041 -0.43 -0.02    +0.049 CG0ATOM     32  G   UNL     1      36.998  45.247  14.464 +0.00 +0.00    +0.000 G0 ENDBRANCH  30  31ENDBRANCH  29  30ENDBRANCH  27  29ENDBRANCH  26  27ENDBRANCH  25  26BRANCH  25  33ATOM     33  N   UNL     1      38.307  47.383  14.712 -0.19 +0.14    -0.344 N  ATOM     34  C   UNL     1      38.523  48.732  14.853 -0.29 -0.15    +0.256 C  ATOM     35  H   UNL     1      39.063  46.718  14.805 +0.12 -0.04    +0.164 HD ATOM     36  O   UNL     1      37.620  49.562  14.831 -0.20 +0.25    -0.269 OA BRANCH  34  37ATOM     37  C   UNL     1      39.900  49.126  15.043 -0.34 -0.04    +0.099 A  ATOM     38  C   UNL     1      41.004  48.782  14.231 -0.25 -0.03    +0.171 A  ATOM     39  C   UNL     1      40.469  49.902  16.026 -0.16 -0.09    +0.244 A  ATOM     40  N   UNL     1      42.148  49.310  14.673 -0.50 -0.00    -0.088 NA ATOM     41  O   UNL     1      41.804  50.017  15.813 -0.89 -0.01    -0.364 OA ENDBRANCH  34  37ENDBRANCH  25  33ENDBRANCH  23  25ENDBRANCH   1  23TORSDOF 9TERENDMDL