MODEL        2USER    Run = 2USERUSER    Estimated Free Energy of Binding    =  -7.89 kcal/mol  [=(1)+(2)+(3)-(4)]USERUSER    (1) Final Intermolecular Energy     = -12.36 kcal/molUSER        vdW + Hbond + desolv Energy     = -12.45 kcal/molUSER        Electrostatic Energy            =  -0.21 kcal/molUSER        Moving Ligand-Fixed Receptor    = -12.66 kcal/molUSER        Moving Ligand-Moving Receptor   =  +0.30 kcal/molUSER    (2) Final Total Internal Energy     =  -2.74 kcal/molUSER    (3) Torsional Free Energy           =  +4.47 kcal/molUSER    (4) Unbound System's Energy         =  -2.74 kcal/molUSERUSERREMARK SMILES COc1ccc(O)c(C(=O)c2ccc(C(=O)N[C@@H]3CCCN(C)C[C@H]3NC(=O)c3ccnc(Cl)c3)cc2)c1OCREMARK SMILES IDX 15 1 16 2 17 3 14 5 11 6 12 7 37 8 13 9 36 10 9 11 10 12REMARK SMILES IDX 8 13 3 14 4 15 38 16 5 17 6 18 2 19 1 20 39 21 40 22 7 23REMARK SMILES IDX 18 25 19 26 25 28 24 29 22 30 23 31 21 32 20 33 26 35 27 36REMARK SMILES IDX 28 38 29 39 30 40 35 41 31 42 33 43 32 44 34 45REMARK H PARENT 17 4 7 24 26 37REMARK Flexibility Score:   88.900USER                              x       y       z     vdW  Elec       q    TypeUSER                           _______ _______ _______ _____ _____    ______ ____ROOTATOM      1  C   UNL     1      37.814  45.376  18.366 -0.24 -0.05    +0.251 C  ATOM      2  O   UNL     1      37.378  46.164  17.534 -0.26 +0.10    -0.269 OA ATOM      3  N   UNL     1      37.139  44.247  18.781 -0.12 +0.05    -0.347 N  ATOM      4  H   UNL     1      37.471  43.759  19.603 +0.11 -0.01    +0.164 HD ENDROOTBRANCH   1   5ATOM      5  C   UNL     1      39.127  45.630  19.025 -0.38 -0.00    +0.039 A  ATOM      6  C   UNL     1      41.608  46.187  20.200 -0.38 +0.00    +0.023 A  ATOM      7  C   UNL     1      41.376  46.538  18.864 -0.49 +0.00    +0.013 A  ATOM      8  C   UNL     1      40.609  45.557  20.943 -0.33 +0.00    +0.013 A  ATOM      9  C   UNL     1      40.137  46.254  18.281 -0.46 -0.00    +0.014 A  ATOM     10  C   UNL     1      39.375  45.263  20.355 -0.36 +0.00    +0.014 A  BRANCH   6  11ATOM     11  C   UNL     1      42.893  46.504  20.860 -0.28 +0.06    +0.200 C  ATOM     12  O   UNL     1      43.856  46.833  20.168 -0.26 -0.21    -0.288 OA BRANCH  11  13ATOM     13  C   UNL     1      43.086  46.341  22.321 -0.21 +0.03    +0.110 A  ATOM     14  C   UNL     1      43.311  44.986  24.331 -0.03 +0.02    +0.161 A  ATOM     15  C   UNL     1      43.554  46.156  25.064 -0.04 +0.01    +0.054 A  ATOM     16  C   UNL     1      43.099  45.075  22.941 -0.10 +0.03    +0.175 A  ATOM     17  C   UNL     1      43.526  47.407  24.447 -0.15 +0.01    +0.051 A  ATOM     18  C   UNL     1      43.267  47.498  23.088 -0.23 +0.03    +0.130 A  BRANCH  14  19ATOM     19  O   UNL     1      43.253  43.739  24.901 +0.01 -0.01    -0.493 OA ATOM     20  C   UNL     1      44.395  43.290  25.624 -0.02 -0.00    +0.278 C  ENDBRANCH  14  19BRANCH  16  21ATOM     21  O   UNL     1      42.780  44.002  22.143 -0.09 -0.08    -0.492 OA ATOM     22  C   UNL     1      43.690  42.905  22.177 -0.19 +0.03    +0.278 C  ENDBRANCH  16  21BRANCH  18  23ATOM     23  O   UNL     1      43.208  48.763  22.561 -0.59 -0.11    -0.507 OA ATOM     24  H   UNL     1      43.442  48.700  21.607 -0.38 -0.05    +0.293 HD ENDBRANCH  18  23ENDBRANCH  11  13ENDBRANCH   6  11ENDBRANCH   1   5BRANCH   3  25ATOM     25  C   UNL     1      35.792  43.907  18.298 -0.31 -0.03    +0.106 C  BRANCH  25  26ATOM     26  C   UNL     1      35.043  43.127  19.386 -0.46 -0.00    +0.028 CG0ATOM     27  G   UNL     1      33.525  43.306  19.302 +0.00 +0.00    +0.000 G0 ENDBRANCH  25  26BRANCH  25  28ATOM     28  C   UNL     1      35.910  43.193  16.926 -0.35 -0.04    +0.118 C  BRANCH  28  29ATOM     29  C   UNL     1      34.618  42.551  16.381 -0.39 -0.05    +0.111 C  BRANCH  29  30ATOM     30  N   UNL     1      33.403  43.298  16.775 -0.13 +0.13    -0.304 NA ATOM     31  C   UNL     1      32.388  43.175  15.719 -0.28 -0.06    +0.105 C  BRANCH  30  32ATOM     32  C   UNL     1      32.854  42.764  18.037 -0.34 -0.02    +0.084 C  BRANCH  32  33ATOM     33  C   UNL     1      33.525  43.306  19.300 -0.46 -0.00    +0.018 CG0ATOM     34  G   UNL     1      35.043  43.130  19.384 +0.00 +0.00    +0.000 G0 ENDBRANCH  32  33ENDBRANCH  30  32ENDBRANCH  29  30ENDBRANCH  28  29BRANCH  28  35ATOM     35  N   UNL     1      36.460  44.133  15.936 -0.15 +0.13    -0.346 N  ATOM     36  C   UNL     1      35.649  44.996  15.232 -0.23 -0.13    +0.251 C  ATOM     37  H   UNL     1      37.412  44.427  16.128 +0.10 -0.05    +0.164 HD ATOM     38  O   UNL     1      34.425  44.955  15.263 -0.22 +0.18    -0.269 OA BRANCH  36  39ATOM     39  C   UNL     1      36.342  46.056  14.456 -0.38 -0.03    +0.044 A  ATOM     40  C   UNL     1      35.804  46.584  13.280 -0.52 -0.02    +0.034 A  ATOM     41  C   UNL     1      37.565  46.528  14.933 -0.37 -0.02    +0.054 A  ATOM     42  C   UNL     1      36.537  47.546  12.606 -0.58 -0.05    +0.113 A  ATOM     43  C   UNL     1      38.212  47.485  14.178 -0.40 -0.05    +0.129 A  ATOM     44  N   UNL     1      37.737  47.998  13.020 -0.79 +0.04    -0.245 NA ATOM     45  Cl  UNL     1      39.742  48.093  14.655 -0.74 +0.02    -0.062 Cl ENDBRANCH  36  39ENDBRANCH  28  35ENDBRANCH  25  28ENDBRANCH   3  25TORSDOF 9TERENDMDL