REMARK SMILES COc1ccc(O)c(C(=O)c2ccc(C(=O)N[C@@H]3CCCN(C)C[C@H]3NC(=O)c3ccnc(Cl)c3)cc2)c1OC
REMARK SMILES IDX 15 1 16 2 17 3 14 5 11 6 12 7 37 8 13 9 36 10 9 11 10 12
REMARK SMILES IDX 8 13 3 14 4 15 38 16 5 17 6 18 2 19 1 20 39 21 40 22 7 23
REMARK SMILES IDX 18 25 19 26 25 28 24 29 22 30 23 31 21 32 20 33 26 35 27 36
REMARK SMILES IDX 28 38 29 39 30 40 35 41 31 42 33 43 32 44 34 45
REMARK H PARENT 17 4 7 24 26 37
REMARK Flexibility Score:   88.900
ROOT
ATOM      1  C   UNL     1      -0.372  -1.302   0.010  1.00  0.00     0.251 C 
ATOM      2  O   UNL     1      -0.520  -1.759   1.138  1.00  0.00    -0.269 OA
ATOM      3  N   UNL     1      -1.409  -1.093  -0.876  1.00  0.00    -0.347 N 
ATOM      4  H   UNL     1      -1.188  -0.901  -1.844  1.00  0.00     0.164 HD
ENDROOT
BRANCH   1   5
ATOM      5  C   UNL     1       0.992  -0.975  -0.495  1.00  0.00     0.039 A 
ATOM      6  C   UNL     1       3.585  -0.457  -1.418  1.00  0.00     0.023 A 
ATOM      7  C   UNL     1       3.384  -1.394  -0.396  1.00  0.00     0.013 A 
ATOM      8  C   UNL     1       2.498   0.221  -1.972  1.00  0.00     0.013 A 
ATOM      9  C   UNL     1       2.088  -1.646   0.064  1.00  0.00     0.014 A 
ATOM     10  C   UNL     1       1.204  -0.024  -1.503  1.00  0.00     0.014 A 
BRANCH   6  11
ATOM     11  C   UNL     1       4.938  -0.191  -1.954  1.00  0.00     0.200 C 
ATOM     12  O   UNL     1       5.098  -0.137  -3.173  1.00  0.00    -0.288 OA
BRANCH  11  13
ATOM     13  C   UNL     1       6.125  -0.088  -1.072  1.00  0.00     0.110 A 
ATOM     14  C   UNL     1       7.255   0.664   0.949  1.00  0.00     0.161 A 
ATOM     15  C   UNL     1       8.395  -0.046   0.548  1.00  0.00     0.054 A 
ATOM     16  C   UNL     1       6.099   0.624   0.144  1.00  0.00     0.175 A 
ATOM     17  C   UNL     1       8.419  -0.738  -0.664  1.00  0.00     0.051 A 
ATOM     18  C   UNL     1       7.298  -0.735  -1.480  1.00  0.00     0.130 A 
BRANCH  14  19
ATOM     19  O   UNL     1       7.203   1.421   2.092  1.00  0.00    -0.493 OA
ATOM     20  C   UNL     1       8.438   1.752   2.721  1.00  0.00     0.278 C 
ENDBRANCH  14  19
BRANCH  16  21
ATOM     21  O   UNL     1       4.956   1.342   0.406  1.00  0.00    -0.492 OA
ATOM     22  C   UNL     1       4.488   1.302   1.752  1.00  0.00     0.278 C 
ENDBRANCH  16  21
BRANCH  18  23
ATOM     23  O   UNL     1       7.412  -1.395  -2.676  1.00  0.00    -0.507 OA
ATOM     24  H   UNL     1       6.661  -1.112  -3.246  1.00  0.00     0.293 HD
ENDBRANCH  18  23
ENDBRANCH  11  13
ENDBRANCH   6  11
ENDBRANCH   1   5
BRANCH   3  25
ATOM     25  C   UNL     1      -2.801  -1.454  -0.565  1.00  0.00     0.106 C 
BRANCH  25  26
ATOM     26  C   UNL     1      -3.079  -2.880  -1.059  1.00  0.00     0.028 CG0
ATOM     27  G   UNL     1      -4.261  -3.534  -0.339  1.00  0.00     0.000 G0
ENDBRANCH  25  26
BRANCH  25  28
ATOM     28  C   UNL     1      -3.746  -0.358  -1.123  1.00  0.00     0.118 C 
BRANCH  28  29
ATOM     29  C   UNL     1      -5.127  -0.838  -1.614  1.00  0.00     0.111 C 
BRANCH  29  30
ATOM     30  N   UNL     1      -5.866  -1.596  -0.580  1.00  0.00    -0.304 NA
ATOM     31  C   UNL     1      -7.303  -1.305  -0.693  1.00  0.00     0.105 C 
BRANCH  30  32
ATOM     32  C   UNL     1      -5.652  -3.046  -0.749  1.00  0.00     0.084 C 
BRANCH  32  33
ATOM     33  C   UNL     1      -4.261  -3.534  -0.339  1.00  0.00     0.018 CG0
ATOM     34  G   UNL     1      -3.079  -2.880  -1.059  1.00  0.00     0.000 G0
ENDBRANCH  32  33
ENDBRANCH  30  32
ENDBRANCH  29  30
ENDBRANCH  28  29
BRANCH  28  35
ATOM     35  N   UNL     1      -3.913   0.699  -0.112  1.00  0.00    -0.346 N 
ATOM     36  C   UNL     1      -4.141   2.010  -0.469  1.00  0.00     0.251 C 
ATOM     37  H   UNL     1      -4.299   0.373   0.768  1.00  0.00     0.164 HD
ATOM     38  O   UNL     1      -4.081   2.420  -1.622  1.00  0.00    -0.269 OA
BRANCH  36  39
ATOM     39  C   UNL     1      -4.539   2.926   0.630  1.00  0.00     0.044 A 
ATOM     40  C   UNL     1      -4.161   2.700   1.956  1.00  0.00     0.034 A 
ATOM     41  C   UNL     1      -5.312   4.042   0.309  1.00  0.00     0.054 A 
ATOM     42  C   UNL     1      -4.607   3.590   2.918  1.00  0.00     0.113 A 
ATOM     43  C   UNL     1      -5.705   4.860   1.349  1.00  0.00     0.129 A 
ATOM     44  N   UNL     1      -5.384   4.657   2.647  1.00  0.00    -0.245 NA
ATOM     45  Cl  UNL     1      -6.696   6.229   1.063  1.00  0.00    -0.062 Cl
ENDBRANCH  36  39
ENDBRANCH  28  35
ENDBRANCH  25  28
ENDBRANCH   3  25
TORSDOF 9
