MODEL        7USER    Run = 7USERUSER    Estimated Free Energy of Binding    =  -7.15 kcal/mol  [=(1)+(2)+(3)-(4)]USERUSER    (1) Final Intermolecular Energy     = -11.33 kcal/molUSER        vdW + Hbond + desolv Energy     = -12.06 kcal/molUSER        Electrostatic Energy            =  -0.22 kcal/molUSER        Moving Ligand-Fixed Receptor    = -12.27 kcal/molUSER        Moving Ligand-Moving Receptor   =  +0.94 kcal/molUSER    (2) Final Total Internal Energy     =  -2.16 kcal/molUSER    (3) Torsional Free Energy           =  +4.18 kcal/molUSER    (4) Unbound System's Energy         =  -2.16 kcal/molUSERUSERREMARK SMILES COc1ccc(O)c(C(=O)c2ccc(C(=O)N[C@@H]3CC[C@H](F)N(C)C[C@H]3NC(=O)c3ccnc(Cl)c3)cc2)c1ClREMARK SMILES IDX 15 1 16 2 17 3 14 5 11 6 12 7 38 8 13 9 37 10 9 11 10 12REMARK SMILES IDX 8 13 3 14 4 15 39 16 5 17 6 18 40 19 2 20 1 21 7 22 18 24REMARK SMILES IDX 19 25 26 27 25 28 23 29 24 30 21 31 22 32 20 33 27 35 28 36REMARK SMILES IDX 29 38 30 39 31 40 36 41 32 42 34 43 33 44 35 45REMARK H PARENT 17 4 7 23 27 37REMARK Flexibility Score:   88.900USER                              x       y       z     vdW  Elec       q    TypeUSER                           _______ _______ _______ _____ _____    ______ ____ROOTATOM      1  C   UNL     1      37.820  43.835  23.821 -0.22 +0.02    +0.251 C  ATOM      2  O   UNL     1      36.648  44.139  24.022 -0.21 -0.05    -0.269 OA ATOM      3  N   UNL     1      38.636  43.324  24.805 -0.06 -0.01    -0.347 N  ATOM      4  H   UNL     1      39.621  43.157  24.626 +0.08 +0.01    +0.164 HD ENDROOTBRANCH   1   5ATOM      5  C   UNL     1      38.417  44.031  22.468 -0.30 +0.00    +0.039 A  ATOM      6  C   UNL     1      39.670  44.423  19.982 -0.32 +0.00    +0.023 A  ATOM      7  C   UNL     1      38.279  44.519  20.094 -0.35 -0.00    +0.013 A  ATOM      8  C   UNL     1      40.437  44.112  21.109 -0.28 +0.00    +0.013 A  ATOM      9  C   UNL     1      37.654  44.333  21.332 -0.37 +0.00    +0.014 A  ATOM     10  C   UNL     1      39.811  43.927  22.346 -0.25 +0.00    +0.014 A  BRANCH   6  11ATOM     11  C   UNL     1      40.286  44.615  18.646 -0.33 -0.00    +0.198 C  ATOM     12  O   UNL     1      41.127  43.809  18.245 -0.05 -0.02    -0.288 OA BRANCH  11  13ATOM     13  C   UNL     1      40.023  45.806  17.810 -0.39 -0.01    +0.087 A  ATOM     14  C   UNL     1      38.661  47.166  16.313 -0.33 -0.06    +0.138 A  ATOM     15  C   UNL     1      39.633  48.172  16.360 -0.42 -0.02    +0.052 A  ATOM     16  C   UNL     1      38.864  45.969  17.036 -0.34 -0.02    +0.097 A  ATOM     17  C   UNL     1      40.808  47.986  17.090 -0.47 -0.01    +0.051 A  ATOM     18  C   UNL     1      41.007  46.804  17.793 -0.42 -0.01    +0.128 A  ATOM     19  Cl  UNL     1      37.696  44.690  16.883 -0.46 +0.02    -0.079 Cl BRANCH  14  20ATOM     20  O   UNL     1      37.492  47.263  15.600 -0.10 +0.31    -0.495 OA ATOM     21  C   UNL     1      37.281  48.436  14.824 -0.36 -0.22    +0.278 C  ENDBRANCH  14  20BRANCH  18  22ATOM     22  O   UNL     1      42.202  46.681  18.451 -0.20 -0.01    -0.507 OA ATOM     23  H   UNL     1      42.916  46.629  17.774 -0.35 -0.08    +0.293 HD ENDBRANCH  18  22ENDBRANCH  11  13ENDBRANCH   6  11ENDBRANCH   1   5BRANCH   3  24ATOM     24  C   UNL     1      38.170  43.106  26.184 -0.24 -0.01    +0.106 C  BRANCH  24  25ATOM     25  C   UNL     1      37.481  41.734  26.267 -0.42 -0.00    +0.031 CG0ATOM     26  G   UNL     1      36.907  41.333  27.617 +0.00 +0.00    +0.000 G0 ENDBRANCH  24  25BRANCH  24  27ATOM     27  C   UNL     1      37.312  44.315  26.677 -0.30 -0.01    +0.119 C  BRANCH  27  28ATOM     28  C   UNL     1      36.567  44.085  28.022 -0.40 -0.03    +0.114 C  BRANCH  28  29ATOM     29  N   UNL     1      35.322  43.334  27.840 -0.33 +0.08    -0.275 NA ATOM     30  C   UNL     1      34.681  43.645  26.564 -0.01 -0.01    +0.108 C  BRANCH  29  31ATOM     31  C   UNL     1      35.519  41.882  27.972 -0.27 -0.10    +0.237 C  ATOM     32  F   UNL     1      34.648  41.249  27.132 -0.17 +0.09    -0.230 F  BRANCH  31  33ATOM     33  C   UNL     1      36.908  41.338  27.626 -0.55 -0.02    +0.056 CG0ATOM     34  G   UNL     1      37.474  41.736  26.271 +0.00 +0.00    +0.000 G0 ENDBRANCH  31  33ENDBRANCH  29  31ENDBRANCH  28  29ENDBRANCH  27  28BRANCH  27  35ATOM     35  N   UNL     1      38.179  45.504  26.806 -0.10 +0.02    -0.346 N  ATOM     36  C   UNL     1      38.082  46.572  25.946 -0.22 +0.00    +0.251 C  ATOM     37  H   UNL     1      38.991  45.400  27.401 +0.05 -0.01    +0.164 HD ATOM     38  O   UNL     1      37.182  46.700  25.121 -0.84 -0.06    -0.269 OA BRANCH  36  39ATOM     39  C   UNL     1      39.144  47.600  26.038 -0.23 +0.00    +0.044 A  ATOM     40  C   UNL     1      40.002  47.864  24.969 -0.26 +0.00    +0.034 A  ATOM     41  C   UNL     1      39.239  48.342  27.212 -0.21 +0.00    +0.054 A  ATOM     42  C   UNL     1      40.951  48.856  25.139 -0.26 +0.02    +0.113 A  ATOM     43  C   UNL     1      40.226  49.303  27.272 -0.22 +0.02    +0.129 A  ATOM     44  N   UNL     1      41.089  49.574  26.272 -0.19 -0.04    -0.245 NA ATOM     45  Cl  UNL     1      40.442  50.257  28.679 -0.33 -0.02    -0.062 Cl ENDBRANCH  36  39ENDBRANCH  27  35ENDBRANCH  24  27ENDBRANCH   3  24TORSDOF 8TERENDMDL