REMARK SMILES COc1ccc(O)c(C(=O)c2ccc(C(=O)N[C@@H]3CC[C@H](F)N(C)C[C@H]3NC(=O)c3ccnc(Cl)c3)cc2)c1Cl
REMARK SMILES IDX 15 1 16 2 17 3 14 5 11 6 12 7 38 8 13 9 37 10 9 11 10 12
REMARK SMILES IDX 8 13 3 14 4 15 39 16 5 17 6 18 40 19 2 20 1 21 7 22 18 24
REMARK SMILES IDX 19 25 26 27 25 28 23 29 24 30 21 31 22 32 20 33 27 35 28 36
REMARK SMILES IDX 29 38 30 39 31 40 36 41 32 42 34 43 33 44 35 45
REMARK H PARENT 17 4 7 23 27 37
REMARK Flexibility Score:   88.900
ROOT
ATOM      1  C   UNL     1      -0.455  -1.210  -0.751  1.00  0.00     0.251 C 
ATOM      2  O   UNL     1      -0.129  -2.376  -0.553  1.00  0.00    -0.269 OA
ATOM      3  N   UNL     1      -1.769  -0.801  -0.801  1.00  0.00    -0.347 N 
ATOM      4  H   UNL     1      -2.005   0.155  -1.045  1.00  0.00     0.164 HD
ENDROOT
BRANCH   1   5
ATOM      5  C   UNL     1       0.595  -0.171  -0.965  1.00  0.00     0.039 A 
ATOM      6  C   UNL     1       2.672   1.682  -1.354  1.00  0.00     0.023 A 
ATOM      7  C   UNL     1       1.393   2.121  -0.996  1.00  0.00     0.013 A 
ATOM      8  C   UNL     1       2.912   0.317  -1.538  1.00  0.00     0.013 A 
ATOM      9  C   UNL     1       0.360   1.199  -0.793  1.00  0.00     0.014 A 
ATOM     10  C   UNL     1       1.878  -0.603  -1.334  1.00  0.00     0.014 A 
BRANCH   6  11
ATOM     11  C   UNL     1       3.732   2.697  -1.572  1.00  0.00     0.198 C 
ATOM     12  O   UNL     1       3.431   3.799  -2.033  1.00  0.00    -0.288 OA
BRANCH  11  13
ATOM     13  C   UNL     1       5.168   2.406  -1.370  1.00  0.00     0.087 A 
ATOM     14  C   UNL     1       7.061   1.519  -0.115  1.00  0.00     0.138 A 
ATOM     15  C   UNL     1       7.904   1.829  -1.189  1.00  0.00     0.052 A 
ATOM     16  C   UNL     1       5.684   1.821  -0.204  1.00  0.00     0.097 A 
ATOM     17  C   UNL     1       7.397   2.457  -2.327  1.00  0.00     0.051 A 
ATOM     18  C   UNL     1       6.043   2.759  -2.406  1.00  0.00     0.128 A 
ATOM     19  Cl  UNL     1       4.671   1.525   1.179  1.00  0.00    -0.079 Cl
BRANCH  14  20
ATOM     20  O   UNL     1       7.488   0.924   1.046  1.00  0.00    -0.495 OA
ATOM     21  C   UNL     1       8.880   0.676   1.195  1.00  0.00     0.278 C 
ENDBRANCH  14  20
BRANCH  18  22
ATOM     22  O   UNL     1       5.630   3.412  -3.538  1.00  0.00    -0.507 OA
ATOM     23  H   UNL     1       4.761   3.832  -3.344  1.00  0.00     0.293 HD
ENDBRANCH  18  22
ENDBRANCH  11  13
ENDBRANCH   6  11
ENDBRANCH   1   5
BRANCH   3  24
ATOM     24  C   UNL     1      -2.893  -1.735  -0.628  1.00  0.00     0.106 C 
BRANCH  24  25
ATOM     25  C   UNL     1      -3.103  -2.511  -1.938  1.00  0.00     0.031 CG0
ATOM     26  G   UNL     1      -4.410  -3.276  -2.084  1.00  0.00     0.000 G0
ENDBRANCH  24  25
BRANCH  24  27
ATOM     27  C   UNL     1      -4.154  -0.992  -0.082  1.00  0.00     0.119 C 
BRANCH  27  28
ATOM     28  C   UNL     1      -5.387  -1.901   0.185  1.00  0.00     0.114 C 
BRANCH  28  29
ATOM     29  N   UNL     1      -5.003  -3.298   0.404  1.00  0.00    -0.275 NA
ATOM     30  C   UNL     1      -5.917  -3.976   1.321  1.00  0.00     0.108 C 
BRANCH  29  31
ATOM     31  C   UNL     1      -4.888  -4.052  -0.854  1.00  0.00     0.237 C 
ATOM     32  F   UNL     1      -6.120  -4.545  -1.177  1.00  0.00    -0.230 F 
BRANCH  31  33
ATOM     33  C   UNL     1      -4.410  -3.276  -2.084  1.00  0.00     0.056 CG0
ATOM     34  G   UNL     1      -3.103  -2.511  -1.938  1.00  0.00     0.000 G0
ENDBRANCH  31  33
ENDBRANCH  29  31
ENDBRANCH  28  29
ENDBRANCH  27  28
BRANCH  27  35
ATOM     35  N   UNL     1      -3.798  -0.287   1.166  1.00  0.00    -0.346 N 
ATOM     36  C   UNL     1      -3.242   0.971   1.158  1.00  0.00     0.251 C 
ATOM     37  H   UNL     1      -3.767  -0.853   2.004  1.00  0.00     0.164 HD
ATOM     38  O   UNL     1      -3.147   1.665   0.150  1.00  0.00    -0.269 OA
BRANCH  36  39
ATOM     39  C   UNL     1      -2.729   1.480   2.450  1.00  0.00     0.044 A 
ATOM     40  C   UNL     1      -2.100   0.640   3.370  1.00  0.00     0.034 A 
ATOM     41  C   UNL     1      -2.845   2.843   2.712  1.00  0.00     0.054 A 
ATOM     42  C   UNL     1      -1.634   1.207   4.543  1.00  0.00     0.113 A 
ATOM     43  C   UNL     1      -2.349   3.298   3.915  1.00  0.00     0.129 A 
ATOM     44  N   UNL     1      -1.755   2.517   4.840  1.00  0.00    -0.245 NA
ATOM     45  Cl  UNL     1      -2.459   4.954   4.343  1.00  0.00    -0.062 Cl
ENDBRANCH  36  39
ENDBRANCH  27  35
ENDBRANCH  24  27
ENDBRANCH   3  24
TORSDOF 8
