MODEL        1USER    Run = 1USERUSER    Estimated Free Energy of Binding    =  -8.38 kcal/mol  [=(1)+(2)+(3)-(4)]USERUSER    (1) Final Intermolecular Energy     = -12.56 kcal/molUSER        vdW + Hbond + desolv Energy     = -12.60 kcal/molUSER        Electrostatic Energy            =  -0.24 kcal/molUSER        Moving Ligand-Fixed Receptor    = -12.84 kcal/molUSER        Moving Ligand-Moving Receptor   =  +0.28 kcal/molUSER    (2) Final Total Internal Energy     =  -3.66 kcal/molUSER    (3) Torsional Free Energy           =  +4.18 kcal/molUSER    (4) Unbound System's Energy         =  -3.66 kcal/molUSERUSERREMARK SMILES COc1ccc(O)c(C(=O)c2ccc(C(=O)N[C@@H]3CCCN(C)C[C@H]3NC(=O)c3ccnc(Cl)c3)cc2)c1CREMARK SMILES IDX 15 1 16 2 17 3 14 5 11 6 12 7 37 8 13 9 36 10 9 11 10 12REMARK SMILES IDX 8 13 3 14 4 15 38 16 5 17 6 18 39 19 2 20 1 21 7 22 18 24REMARK SMILES IDX 19 25 25 27 24 28 22 29 23 30 21 31 20 32 26 34 27 35 28 37REMARK SMILES IDX 29 38 30 39 35 40 31 41 33 42 32 43 34 44REMARK H PARENT 17 4 7 23 26 36REMARK Flexibility Score:   88.900USER                              x       y       z     vdW  Elec       q    TypeUSER                           _______ _______ _______ _____ _____    ______ ____ROOTATOM      1  C   UNL     1      39.647  43.746  23.611 -0.14 +0.01    +0.251 C  ATOM      2  O   UNL     1      40.501  43.459  24.446 -0.11 -0.00    -0.269 OA ATOM      3  N   UNL     1      38.298  43.546  23.817 -0.09 -0.02    -0.347 N  ATOM      4  H   UNL     1      37.636  43.795  23.093 +0.09 +0.01    +0.164 HD ENDROOTBRANCH   1   5ATOM      5  C   UNL     1      40.048  44.340  22.310 -0.23 +0.00    +0.039 A  ATOM      6  C   UNL     1      40.916  45.453  19.890 -0.39 +0.00    +0.023 A  ATOM      7  C   UNL     1      39.678  45.822  20.432 -0.26 +0.00    +0.013 A  ATOM      8  C   UNL     1      41.712  44.513  20.553 -0.30 +0.00    +0.013 A  ATOM      9  C   UNL     1      39.245  45.274  21.644 -0.33 +0.00    +0.014 A  ATOM     10  C   UNL     1      41.283  43.968  21.767 -0.30 +0.00    +0.014 A  BRANCH   6  11ATOM     11  C   UNL     1      41.326  46.056  18.596 -0.41 +0.00    +0.197 C  ATOM     12  O   UNL     1      42.518  46.273  18.375 -0.29 -0.02    -0.288 OA BRANCH  11  13ATOM     13  C   UNL     1      40.337  46.512  17.591 -0.44 -0.01    +0.071 A  ATOM     14  C   UNL     1      38.207  46.402  16.430 -0.31 -0.05    +0.122 A  ATOM     15  C   UNL     1      38.490  47.628  15.817 -0.42 -0.02    +0.050 A  ATOM     16  C   UNL     1      39.147  45.811  17.304 -0.41 -0.00    +0.006 A  ATOM     17  C   UNL     1      39.706  48.272  16.048 -0.49 -0.02    +0.051 A  ATOM     18  C   UNL     1      40.627  47.710  16.918 -0.44 -0.02    +0.127 A  ATOM     19  C   UNL     1      38.850  44.457  17.897 -0.31 -0.01    +0.049 C  BRANCH  14  20ATOM     20  O   UNL     1      37.042  45.701  16.249 -0.05 +0.23    -0.496 OA ATOM     21  C   UNL     1      35.945  46.382  15.655 -0.22 -0.24    +0.278 C  ENDBRANCH  14  20BRANCH  18  22ATOM     22  O   UNL     1      41.810  48.382  17.078 -0.56 -0.02    -0.507 OA ATOM     23  H   UNL     1      42.514  47.711  17.228 -0.37 -0.05    +0.293 HD ENDBRANCH  18  22ENDBRANCH  11  13ENDBRANCH   6  11ENDBRANCH   1   5BRANCH   3  24ATOM     24  C   UNL     1      37.772  43.019  25.089 -0.29 +0.00    +0.106 C  BRANCH  24  25ATOM     25  C   UNL     1      36.556  42.124  24.817 -0.46 -0.00    +0.028 CG0ATOM     26  G   UNL     1      35.680  41.802  26.039 +0.00 +0.00    +0.000 G0 ENDBRANCH  24  25BRANCH  24  27ATOM     27  C   UNL     1      37.480  44.181  26.085 -0.27 -0.01    +0.118 C  BRANCH  27  28ATOM     28  C   UNL     1      37.158  43.711  27.528 -0.36 -0.02    +0.111 C  BRANCH  28  29ATOM     29  N   UNL     1      37.344  42.300  27.887 -0.18 +0.08    -0.304 NA ATOM     30  C   UNL     1      38.728  41.861  27.726 -0.37 -0.01    +0.105 C  BRANCH  29  31ATOM     31  C   UNL     1      36.408  41.340  27.308 -0.57 -0.03    +0.084 C  BRANCH  31  32ATOM     32  C   UNL     1      35.679  41.803  26.042 -0.48 -0.00    +0.018 CG0ATOM     33  G   UNL     1      36.554  42.124  24.819 +0.00 +0.00    +0.000 G0 ENDBRANCH  31  32ENDBRANCH  29  31ENDBRANCH  28  29ENDBRANCH  27  28BRANCH  27  34ATOM     34  N   UNL     1      38.554  45.182  26.027 -0.06 +0.00    -0.346 N  ATOM     35  C   UNL     1      38.324  46.463  25.577 -0.20 +0.01    +0.251 C  ATOM     36  H   UNL     1      39.487  44.798  25.885 +0.06 +0.00    +0.164 HD ATOM     37  O   UNL     1      37.206  46.900  25.331 -0.83 -0.04    -0.269 OA BRANCH  35  38ATOM     38  C   UNL     1      39.521  47.318  25.347 -0.22 +0.00    +0.044 A  ATOM     39  C   UNL     1      39.843  48.398  26.170 -0.24 +0.00    +0.034 A  ATOM     40  C   UNL     1      40.333  47.025  24.251 -0.21 +0.00    +0.054 A  ATOM     41  C   UNL     1      40.979  49.130  25.870 -0.23 +0.02    +0.113 A  ATOM     42  C   UNL     1      41.440  47.820  24.043 -0.23 +0.02    +0.129 A  ATOM     43  N   UNL     1      41.788  48.863  24.824 -0.27 -0.04    -0.245 NA ATOM     44  Cl  UNL     1      42.500  47.530  22.728 -0.42 -0.01    -0.062 Cl ENDBRANCH  35  38ENDBRANCH  27  34ENDBRANCH  24  27ENDBRANCH   3  24TORSDOF 8TERENDMDL