
     RDKit          3D

 41 43  0  0  0  0  0  0  0  0999 V2000
   -4.0574    2.9928    0.9562 C   0  0  0  0  0  0  0  0  0  0  0  0
   -3.8831    1.6591    0.3735 N   0  0  0  0  0  0  0  0  0  0  0  0
   -5.0294    0.8984    0.2631 C   0  0  0  0  0  0  0  0  0  0  0  0
   -5.2970   -0.3446    0.6758 C   0  0  0  0  0  0  0  0  0  0  0  0
   -4.6774   -1.3555    1.2927 N   0  0  0  0  0  0  0  0  0  0  0  0
   -3.3588   -1.6071    1.2573 C   0  0  0  0  0  0  0  0  0  0  0  0
   -2.1857   -1.3491    0.6523 C   0  0  0  0  0  0  0  0  0  0  0  0
   -1.6677   -0.5418   -0.2860 C   0  0  0  0  0  0  0  0  0  0  0  0
   -0.3323   -1.0211   -0.7707 C   0  0  0  0  0  0  0  0  0  0  0  0
   -0.2533   -1.9571   -1.8091 C   0  0  0  0  0  0  0  0  0  0  0  0
    0.9886   -2.3889   -2.2683 C   0  0  0  0  0  0  0  0  0  0  0  0
    2.1600   -1.8872   -1.6931 C   0  0  0  0  0  0  0  0  0  0  0  0
    2.1161   -0.9507   -0.6446 C   0  0  0  0  0  0  0  0  0  0  0  0
    3.3533   -0.4196   -0.0421 C   0  0  0  0  0  0  0  0  0  0  0  0
    3.5181    0.9625    0.1752 C   0  0  0  0  0  0  0  0  0  0  0  0
    4.6876    1.4796    0.7448 C   0  0  0  0  0  0  0  0  0  0  0  0
    5.7138    0.6131    1.1036 C   0  0  0  0  0  0  0  0  0  0  0  0
    6.8675    1.0885    1.6595 O   0  0  0  0  0  0  0  0  0  0  0  0
    5.5703   -0.7554    0.8962 C   0  0  0  0  0  0  0  0  0  0  0  0
    6.5546   -1.5999    1.2390 F   0  0  0  0  0  0  0  0  0  0  0  0
    4.4051   -1.2713    0.3327 C   0  0  0  0  0  0  0  0  0  0  0  0
    0.8523   -0.5315   -0.1932 C   0  0  0  0  0  0  0  0  0  0  0  0
   -2.0173    0.6000   -0.8954 C   0  0  0  0  0  0  0  0  0  0  0  0
   -2.9447    1.5200   -0.6268 C   0  0  0  0  0  0  0  0  0  0  0  0
   -3.0858    3.4308    1.2126 H   0  0  0  0  0  0  0  0  0  0  0  0
   -4.6433    2.9387    1.8811 H   0  0  0  0  0  0  0  0  0  0  0  0
   -4.5686    3.6662    0.2582 H   0  0  0  0  0  0  0  0  0  0  0  0
   -5.8554    1.4796   -0.1407 H   0  0  0  0  0  0  0  0  0  0  0  0
   -6.3614   -0.5454    0.5227 H   0  0  0  0  0  0  0  0  0  0  0  0
   -3.1636   -2.4257    1.9642 H   0  0  0  0  0  0  0  0  0  0  0  0
   -1.4522   -2.0866    1.0054 H   0  0  0  0  0  0  0  0  0  0  0  0
   -1.1687   -2.3476   -2.2498 H   0  0  0  0  0  0  0  0  0  0  0  0
    1.0424   -3.1153   -3.0740 H   0  0  0  0  0  0  0  0  0  0  0  0
    3.1162   -2.2309   -2.0811 H   0  0  0  0  0  0  0  0  0  0  0  0
    2.7252    1.6534   -0.1100 H   0  0  0  0  0  0  0  0  0  0  0  0
    4.7719    2.5512    0.8939 H   0  0  0  0  0  0  0  0  0  0  0  0
    6.7768    2.0452    1.7942 H   0  0  0  0  0  0  0  0  0  0  0  0
    4.3240   -2.3471    0.2051 H   0  0  0  0  0  0  0  0  0  0  0  0
    0.7675    0.1765    0.6300 H   0  0  0  0  0  0  0  0  0  0  0  0
   -1.3754    0.9128   -1.7221 H   0  0  0  0  0  0  0  0  0  0  0  0
   -2.9330    2.4112   -1.2516 H   0  0  0  0  0  0  0  0  0  0  0  0
  1  2  1  0
  2  3  1  0
  3  4  2  0
  4  5  1  0
  5  6  2  0
  6  7  1  0
  7  8  2  0
  8  9  1  0
  9 10  2  0
 10 11  1  0
 11 12  2  0
 12 13  1  0
 13 14  1  0
 14 15  2  0
 15 16  1  0
 16 17  2  0
 17 18  1  0
 17 19  1  0
 19 20  1  0
 19 21  2  0
 13 22  2  0
  8 23  1  0
 23 24  2  0
 24  2  1  0
 22  9  1  0
 21 14  1  0
  1 25  1  0
  1 26  1  0
  1 27  1  0
  3 28  1  0
  4 29  1  0
  6 30  1  0
  7 31  1  0
 10 32  1  0
 11 33  1  0
 12 34  1  0
 15 35  1  0
 16 36  1  0
 18 37  1  0
 21 38  1  0
 22 39  1  0
 23 40  1  0
 24 41  1  0
M  END
$$$$
