
     RDKit          3D

 44 46  0  0  0  0  0  0  0  0999 V2000
    5.1512   -1.4495   -2.9054 C   0  0  0  0  0  0  0  0  0  0  0  0
    4.0097   -0.9316   -2.2336 O   0  0  0  0  0  0  0  0  0  0  0  0
    4.2313   -0.1360   -1.1414 C   0  0  0  0  0  0  0  0  0  0  0  0
    5.4842    0.1825   -0.6132 C   0  0  0  0  0  0  0  0  0  0  0  0
    5.5819    1.0234    0.4986 C   0  0  0  0  0  0  0  0  0  0  0  0
    4.4307    1.5369    1.0903 C   0  0  0  0  0  0  0  0  0  0  0  0
    4.6171    2.3778    2.1547 O   0  0  0  0  0  0  0  0  0  0  0  0
    3.1642    1.1962    0.6012 C   0  0  0  0  0  0  0  0  0  0  0  0
    1.9588    1.7377    1.2659 C   0  0  0  0  0  0  0  0  0  0  0  0
    2.0518    2.8291    1.8298 O   0  0  0  0  0  0  0  0  0  0  0  0
    0.6699    1.0082    1.3248 C   0  0  0  0  0  0  0  0  0  0  0  0
    0.6202   -0.3796    1.5125 C   0  0  0  0  0  0  0  0  0  0  0  0
   -0.6155   -1.0273    1.5855 C   0  0  0  0  0  0  0  0  0  0  0  0
   -1.7963   -0.2870    1.4714 C   0  0  0  0  0  0  0  0  0  0  0  0
   -3.0897   -0.9941    1.5704 C   0  0  0  0  0  0  0  0  0  0  0  0
   -3.3370   -1.6095    2.6030 O   0  0  0  0  0  0  0  0  0  0  0  0
   -3.9414   -0.9551    0.4839 N   0  0  0  0  0  0  0  0  0  0  0  0
   -3.6530   -0.4378   -0.8491 C   0  0  0  0  0  0  0  0  0  0  0  0
   -4.9390   -0.6567   -1.6381 C   0  0  0  0  0  0  0  0  0  0  0  0
   -5.5563   -1.8767   -0.9648 C   0  0  0  0  0  0  0  0  0  0  0  0
   -4.9420   -3.0613   -1.4748 O   0  0  0  0  0  0  0  0  0  0  0  0
   -5.2152   -1.6658    0.5114 C   0  0  0  0  0  0  0  0  0  0  0  0
   -1.7526    1.1036    1.3343 C   0  0  0  0  0  0  0  0  0  0  0  0
   -0.5173    1.7506    1.2603 C   0  0  0  0  0  0  0  0  0  0  0  0
    3.0799    0.3825   -0.5302 C   0  0  0  0  0  0  0  0  0  0  0  0
    1.8827    0.1014   -1.0708 F   0  0  0  0  0  0  0  0  0  0  0  0
    4.7987   -2.0431   -3.7544 H   0  0  0  0  0  0  0  0  0  0  0  0
    5.7772   -0.6424   -3.3001 H   0  0  0  0  0  0  0  0  0  0  0  0
    5.7260   -2.1129   -2.2509 H   0  0  0  0  0  0  0  0  0  0  0  0
    6.4050   -0.1945   -1.0470 H   0  0  0  0  0  0  0  0  0  0  0  0
    6.5581    1.2876    0.8996 H   0  0  0  0  0  0  0  0  0  0  0  0
    3.7608    2.8290    2.3375 H   0  0  0  0  0  0  0  0  0  0  0  0
    1.5282   -0.9675    1.6179 H   0  0  0  0  0  0  0  0  0  0  0  0
   -0.6598   -2.1033    1.7402 H   0  0  0  0  0  0  0  0  0  0  0  0
   -3.3753    0.6180   -0.8144 H   0  0  0  0  0  0  0  0  0  0  0  0
   -2.8196   -1.0140   -1.2659 H   0  0  0  0  0  0  0  0  0  0  0  0
   -4.7368   -0.7980   -2.7037 H   0  0  0  0  0  0  0  0  0  0  0  0
   -5.5987    0.2101   -1.5125 H   0  0  0  0  0  0  0  0  0  0  0  0
   -6.6325   -1.9572   -1.1391 H   0  0  0  0  0  0  0  0  0  0  0  0
   -4.0895   -3.1750   -1.0165 H   0  0  0  0  0  0  0  0  0  0  0  0
   -5.9412   -1.0063    0.9988 H   0  0  0  0  0  0  0  0  0  0  0  0
   -5.1271   -2.6015    1.0716 H   0  0  0  0  0  0  0  0  0  0  0  0
   -2.6713    1.6835    1.3021 H   0  0  0  0  0  0  0  0  0  0  0  0
   -0.4807    2.8338    1.1603 H   0  0  0  0  0  0  0  0  0  0  0  0
  1  2  1  0
  2  3  1  0
  3  4  2  0
  4  5  1  0
  5  6  2  0
  6  7  1  0
  6  8  1  0
  8  9  1  0
  9 10  2  0
  9 11  1  0
 11 12  2  0
 12 13  1  0
 13 14  2  0
 14 15  1  0
 15 16  2  0
 15 17  1  0
 17 18  1  0
 18 19  1  0
 19 20  1  0
 20 21  1  0
 20 22  1  0
 14 23  1  0
 23 24  2  0
  8 25  2  0
 25 26  1  0
 25  3  1  0
 24 11  1  0
 22 17  1  0
  1 27  1  0
  1 28  1  0
  1 29  1  0
  4 30  1  0
  5 31  1  0
  7 32  1  0
 12 33  1  0
 13 34  1  0
 18 35  1  0
 18 36  1  0
 19 37  1  0
 19 38  1  0
 20 39  1  0
 21 40  1  0
 22 41  1  0
 22 42  1  0
 23 43  1  0
 24 44  1  0
M  END
$$$$
