
     RDKit          3D

 45 48  0  0  0  0  0  0  0  0999 V2000
    4.8079   -2.9702   -1.4966 N   0  0  0  0  0  0  0  0  0  0  0  0
    3.5882   -3.2228   -0.8467 C   0  0  0  0  0  0  0  0  0  0  0  0
    3.4412   -4.4690   -0.3547 N   0  0  0  0  0  0  0  0  0  0  0  0
    2.2977   -4.7687    0.2898 C   0  0  0  0  0  0  0  0  0  0  0  0
    1.2682   -3.8669    0.4831 C   0  0  0  0  0  0  0  0  0  0  0  0
    1.4041   -2.5606   -0.0059 C   0  0  0  0  0  0  0  0  0  0  0  0
    0.2784   -1.6255    0.1531 C   0  0  0  0  0  0  0  0  0  0  0  0
   -0.1487   -1.2225    1.4268 C   0  0  0  0  0  0  0  0  0  0  0  0
   -1.2087   -0.3210    1.5770 C   0  0  0  0  0  0  0  0  0  0  0  0
   -1.8813    0.1991    0.4611 C   0  0  0  0  0  0  0  0  0  0  0  0
   -2.9908    1.1525    0.6198 C   0  0  0  0  0  0  0  0  0  0  0  0
   -2.8248    2.3363    1.3622 C   0  0  0  0  0  0  0  0  0  0  0  0
   -3.8745    3.2464    1.5164 C   0  0  0  0  0  0  0  0  0  0  0  0
   -5.1040    2.9812    0.9285 C   0  0  0  0  0  0  0  0  0  0  0  0
   -6.1001    3.9004    1.1074 O   0  0  0  0  0  0  0  0  0  0  0  0
   -5.2927    1.8150    0.1874 C   0  0  0  0  0  0  0  0  0  0  0  0
   -6.8193    1.4822   -0.5423 Cl  0  0  0  0  0  0  0  0  0  0  0  0
   -4.2444    0.9063    0.0326 C   0  0  0  0  0  0  0  0  0  0  0  0
   -1.4618   -0.2175   -0.8107 C   0  0  0  0  0  0  0  0  0  0  0  0
   -0.3991   -1.1153   -0.9631 C   0  0  0  0  0  0  0  0  0  0  0  0
    2.6079   -2.2328   -0.6663 C   0  0  0  0  0  0  0  0  0  0  0  0
    2.8781   -0.8783   -1.2057 C   0  0  0  0  0  0  0  0  0  0  0  0
    3.2878   -0.7558   -2.3563 O   0  0  0  0  0  0  0  0  0  0  0  0
    2.7006    0.1732   -0.3271 N   0  0  0  0  0  0  0  0  0  0  0  0
    2.8973    1.5342   -0.7120 C   0  0  0  0  0  0  0  0  0  0  0  0
    1.7185    2.4440   -0.9179 C   0  0  0  0  0  0  0  0  0  0  0  0
    2.6254    2.6506    0.2590 C   0  0  0  0  0  0  0  0  0  0  0  0
    5.3405   -2.2820   -0.9734 H   0  0  0  0  0  0  0  0  0  0  0  0
    4.5988   -2.5251   -2.3950 H   0  0  0  0  0  0  0  0  0  0  0  0
    2.2260   -5.7911    0.6508 H   0  0  0  0  0  0  0  0  0  0  0  0
    0.3628   -4.1890    0.9897 H   0  0  0  0  0  0  0  0  0  0  0  0
    0.3440   -1.6037    2.3197 H   0  0  0  0  0  0  0  0  0  0  0  0
   -1.5157   -0.0346    2.5816 H   0  0  0  0  0  0  0  0  0  0  0  0
   -1.8636    2.5658    1.8192 H   0  0  0  0  0  0  0  0  0  0  0  0
   -3.7301    4.1581    2.0896 H   0  0  0  0  0  0  0  0  0  0  0  0
   -6.8861    3.5691    0.6340 H   0  0  0  0  0  0  0  0  0  0  0  0
   -4.4063   -0.0050   -0.5392 H   0  0  0  0  0  0  0  0  0  0  0  0
   -1.9500    0.1687   -1.7040 H   0  0  0  0  0  0  0  0  0  0  0  0
   -0.1018   -1.4071   -1.9699 H   0  0  0  0  0  0  0  0  0  0  0  0
    2.3609   -0.0128    0.6087 H   0  0  0  0  0  0  0  0  0  0  0  0
    3.7442    1.6731   -1.3821 H   0  0  0  0  0  0  0  0  0  0  0  0
    0.7253    2.0527   -0.7345 H   0  0  0  0  0  0  0  0  0  0  0  0
    1.7702    3.1524   -1.7366 H   0  0  0  0  0  0  0  0  0  0  0  0
    3.2908    3.5063    0.2417 H   0  0  0  0  0  0  0  0  0  0  0  0
    2.2390    2.4096    1.2416 H   0  0  0  0  0  0  0  0  0  0  0  0
  1  2  1  0
  2  3  2  0
  3  4  1  0
  4  5  2  0
  5  6  1  0
  6  7  1  0
  7  8  2  0
  8  9  1  0
  9 10  2  0
 10 11  1  0
 11 12  2  0
 12 13  1  0
 13 14  2  0
 14 15  1  0
 14 16  1  0
 16 17  1  0
 16 18  2  0
 10 19  1  0
 19 20  2  0
  6 21  2  0
 21 22  1  0
 22 23  2  0
 22 24  1  0
 24 25  1  0
 25 26  1  0
 26 27  1  0
 21  2  1  0
 27 25  1  0
 20  7  1  0
 18 11  1  0
  1 28  1  0
  1 29  1  0
  4 30  1  0
  5 31  1  0
  8 32  1  0
  9 33  1  0
 12 34  1  0
 13 35  1  0
 15 36  1  0
 18 37  1  0
 19 38  1  0
 20 39  1  0
 24 40  1  0
 25 41  1  0
 26 42  1  0
 26 43  1  0
 27 44  1  0
 27 45  1  0
M  END
$$$$
