
     RDKit          3D

 49 51  0  0  0  0  0  0  0  0999 V2000
   -5.3715   -3.2899    0.8999 C   0  0  0  0  0  0  0  0  0  0  0  0
   -4.3673   -2.3720    0.4856 O   0  0  0  0  0  0  0  0  0  0  0  0
   -4.7827   -1.1447    0.0427 C   0  0  0  0  0  0  0  0  0  0  0  0
   -6.1070   -0.7024    0.0101 C   0  0  0  0  0  0  0  0  0  0  0  0
   -6.4077    0.5703   -0.4820 C   0  0  0  0  0  0  0  0  0  0  0  0
   -5.3877    1.4054   -0.9307 C   0  0  0  0  0  0  0  0  0  0  0  0
   -5.7727    2.6228   -1.4257 O   0  0  0  0  0  0  0  0  0  0  0  0
   -4.0503    0.9964   -0.8685 C   0  0  0  0  0  0  0  0  0  0  0  0
   -2.9875    1.9162   -1.3305 C   0  0  0  0  0  0  0  0  0  0  0  0
   -3.2737    2.7364   -2.2042 O   0  0  0  0  0  0  0  0  0  0  0  0
   -1.6208    1.9294   -0.7577 C   0  0  0  0  0  0  0  0  0  0  0  0
   -0.5434    2.1914   -1.6153 C   0  0  0  0  0  0  0  0  0  0  0  0
    0.7586    2.2361   -1.1128 C   0  0  0  0  0  0  0  0  0  0  0  0
    0.9753    2.0237    0.2514 C   0  0  0  0  0  0  0  0  0  0  0  0
    2.6227    2.0879    0.9074 S   0  0  0  0  0  0  0  0  0  0  0  0
    3.5213    2.5725   -0.1155 O   0  0  0  0  0  0  0  0  0  0  0  0
    2.5511    2.7028    2.2141 O   0  0  0  0  0  0  0  0  0  0  0  0
    2.9521    0.4648    1.1726 N   0  0  0  0  0  0  0  0  0  0  0  0
    3.4301   -0.3573    0.0468 C   0  0  2  0  0  0  0  0  0  0  0  0
    3.2773   -1.8377    0.4022 C   0  0  0  0  0  0  0  0  0  0  0  0
    4.6912   -2.2998    0.7136 C   0  0  0  0  0  0  0  0  0  0  0  0
    5.4813   -1.5312   -0.2451 N   0  0  0  0  0  0  0  0  0  0  0  0
    6.9082   -1.5745    0.0388 C   0  0  0  0  0  0  0  0  0  0  0  0
    4.9394   -0.1669   -0.1923 C   0  0  0  0  0  0  0  0  0  0  0  0
   -0.0974    1.7972    1.1203 C   0  0  0  0  0  0  0  0  0  0  0  0
   -1.3989    1.7544    0.6148 C   0  0  0  0  0  0  0  0  0  0  0  0
   -3.7649   -0.2894   -0.4053 C   0  0  0  0  0  0  0  0  0  0  0  0
   -2.4997   -0.7406   -0.4046 F   0  0  0  0  0  0  0  0  0  0  0  0
   -4.8740   -4.2182    1.1967 H   0  0  0  0  0  0  0  0  0  0  0  0
   -5.9160   -2.9106    1.7708 H   0  0  0  0  0  0  0  0  0  0  0  0
   -6.0548   -3.5261    0.0774 H   0  0  0  0  0  0  0  0  0  0  0  0
   -6.9304   -1.3237    0.3479 H   0  0  0  0  0  0  0  0  0  0  0  0
   -7.4405    0.9092   -0.5255 H   0  0  0  0  0  0  0  0  0  0  0  0
   -5.0013    3.0157   -1.8958 H   0  0  0  0  0  0  0  0  0  0  0  0
   -0.7177    2.3629   -2.6762 H   0  0  0  0  0  0  0  0  0  0  0  0
    1.5886    2.4390   -1.7863 H   0  0  0  0  0  0  0  0  0  0  0  0
    3.3239    0.2825    2.1038 H   0  0  0  0  0  0  0  0  0  0  0  0
    2.8456   -0.1422   -0.8545 H   0  0  0  0  0  0  0  0  0  0  0  0
    2.8985   -2.3833   -0.4718 H   0  0  0  0  0  0  0  0  0  0  0  0
    2.5916   -2.0249    1.2351 H   0  0  0  0  0  0  0  0  0  0  0  0
    4.8020   -3.3789    0.5692 H   0  0  0  0  0  0  0  0  0  0  0  0
    4.9509   -2.0518    1.7507 H   0  0  0  0  0  0  0  0  0  0  0  0
    7.2782   -2.6034   -0.0263 H   0  0  0  0  0  0  0  0  0  0  0  0
    7.1487   -1.1863    1.0351 H   0  0  0  0  0  0  0  0  0  0  0  0
    7.4624   -0.9878   -0.7019 H   0  0  0  0  0  0  0  0  0  0  0  0
    5.3946    0.4174    0.6180 H   0  0  0  0  0  0  0  0  0  0  0  0
    5.1246    0.3560   -1.1365 H   0  0  0  0  0  0  0  0  0  0  0  0
    0.0749    1.6589    2.1858 H   0  0  0  0  0  0  0  0  0  0  0  0
   -2.2250    1.5942    1.3028 H   0  0  0  0  0  0  0  0  0  0  0  0
  1  2  1  0
  2  3  1  0
  3  4  2  0
  4  5  1  0
  5  6  2  0
  6  7  1  0
  6  8  1  0
  8  9  1  0
  9 10  2  0
  9 11  1  0
 11 12  2  0
 12 13  1  0
 13 14  2  0
 14 15  1  0
 15 16  2  0
 15 17  2  0
 15 18  1  0
 18 19  1  0
 19 20  1  0
 20 21  1  0
 21 22  1  0
 22 23  1  0
 22 24  1  0
 14 25  1  0
 25 26  2  0
  8 27  2  0
 27 28  1  0
 27  3  1  0
 26 11  1  0
 24 19  1  0
  1 29  1  0
  1 30  1  0
  1 31  1  0
  4 32  1  0
  5 33  1  0
  7 34  1  0
 12 35  1  0
 13 36  1  0
 18 37  1  0
 19 38  1  6
 20 39  1  0
 20 40  1  0
 21 41  1  0
 21 42  1  0
 23 43  1  0
 23 44  1  0
 23 45  1  0
 24 46  1  0
 24 47  1  0
 25 48  1  0
 26 49  1  0
M  END
$$$$
