
     RDKit          3D

 37 39  0  0  0  0  0  0  0  0999 V2000
   -2.3553   -1.8523    0.6413 N   0  0  0  0  0  0  0  0  0  0  0  0
   -3.1237   -1.3516   -0.3718 C   0  0  0  0  0  0  0  0  0  0  0  0
   -3.6406   -2.0952   -1.1979 O   0  0  0  0  0  0  0  0  0  0  0  0
   -3.3594    0.1119   -0.4031 C   0  0  0  0  0  0  0  0  0  0  0  0
   -2.3218    1.0584   -0.2589 C   0  0  0  0  0  0  0  0  0  0  0  0
   -0.8980    0.7061   -0.1296 C   0  0  0  0  0  0  0  0  0  0  0  0
   -0.1740    1.0468    1.0225 C   0  0  0  0  0  0  0  0  0  0  0  0
    1.1788    0.7091    1.1479 C   0  0  0  0  0  0  0  0  0  0  0  0
    1.8539    0.0250    0.1256 C   0  0  0  0  0  0  0  0  0  0  0  0
    3.2766   -0.3310    0.2586 C   0  0  0  0  0  0  0  0  0  0  0  0
    3.7192   -1.6488    0.0375 C   0  0  0  0  0  0  0  0  0  0  0  0
    5.0697   -1.9922    0.1636 C   0  0  0  0  0  0  0  0  0  0  0  0
    6.0023   -1.0201    0.5133 C   0  0  0  0  0  0  0  0  0  0  0  0
    5.5763    0.2831    0.7327 C   0  0  0  0  0  0  0  0  0  0  0  0
    6.4721    1.2211    1.0675 F   0  0  0  0  0  0  0  0  0  0  0  0
    4.2344    0.6332    0.6099 C   0  0  0  0  0  0  0  0  0  0  0  0
    1.1289   -0.3059   -1.0290 C   0  0  0  0  0  0  0  0  0  0  0  0
   -0.2238    0.0311   -1.1567 C   0  0  0  0  0  0  0  0  0  0  0  0
   -2.6731    2.4157   -0.2897 C   0  0  0  0  0  0  0  0  0  0  0  0
   -3.9976    2.7664   -0.4707 C   0  0  0  0  0  0  0  0  0  0  0  0
   -4.9907    1.8719   -0.6279 N   0  0  0  0  0  0  0  0  0  0  0  0
   -4.6753    0.5612   -0.6153 C   0  0  0  0  0  0  0  0  0  0  0  0
   -5.7611   -0.3191   -0.7626 N   0  0  0  0  0  0  0  0  0  0  0  0
   -1.8579   -1.2741    1.3045 H   0  0  0  0  0  0  0  0  0  0  0  0
   -2.1511   -2.8432    0.6293 H   0  0  0  0  0  0  0  0  0  0  0  0
   -0.6593    1.5750    1.8415 H   0  0  0  0  0  0  0  0  0  0  0  0
    1.7028    0.9790    2.0634 H   0  0  0  0  0  0  0  0  0  0  0  0
    3.0052   -2.4274   -0.2268 H   0  0  0  0  0  0  0  0  0  0  0  0
    5.3889   -3.0169   -0.0095 H   0  0  0  0  0  0  0  0  0  0  0  0
    7.0539   -1.2676    0.6153 H   0  0  0  0  0  0  0  0  0  0  0  0
    3.9511    1.6682    0.7790 H   0  0  0  0  0  0  0  0  0  0  0  0
    1.6177   -0.8214   -1.8542 H   0  0  0  0  0  0  0  0  0  0  0  0
   -0.7456   -0.2384   -2.0742 H   0  0  0  0  0  0  0  0  0  0  0  0
   -1.9221    3.1952   -0.1974 H   0  0  0  0  0  0  0  0  0  0  0  0
   -4.3048    3.8080   -0.5044 H   0  0  0  0  0  0  0  0  0  0  0  0
   -5.8889   -0.8463    0.0960 H   0  0  0  0  0  0  0  0  0  0  0  0
   -5.5077   -1.0148   -1.4701 H   0  0  0  0  0  0  0  0  0  0  0  0
  1  2  1  0
  2  3  2  0
  2  4  1  0
  4  5  2  0
  5  6  1  0
  6  7  2  0
  7  8  1  0
  8  9  2  0
  9 10  1  0
 10 11  2  0
 11 12  1  0
 12 13  2  0
 13 14  1  0
 14 15  1  0
 14 16  2  0
  9 17  1  0
 17 18  2  0
  5 19  1  0
 19 20  2  0
 20 21  1  0
 21 22  2  0
 22 23  1  0
 22  4  1  0
 18  6  1  0
 16 10  1  0
  1 24  1  0
  1 25  1  0
  7 26  1  0
  8 27  1  0
 11 28  1  0
 12 29  1  0
 13 30  1  0
 16 31  1  0
 17 32  1  0
 18 33  1  0
 19 34  1  0
 20 35  1  0
 23 36  1  0
 23 37  1  0
M  END
$$$$
