
     RDKit          3D

 44 46  0  0  0  0  0  0  0  0999 V2000
   -6.6768    1.4402   -2.7188 C   0  0  0  0  0  0  0  0  0  0  0  0
   -6.5414    0.3336   -1.8370 O   0  0  0  0  0  0  0  0  0  0  0  0
   -5.3534    0.2076   -1.1647 C   0  0  0  0  0  0  0  0  0  0  0  0
   -4.3435    1.1714   -1.1570 C   0  0  0  0  0  0  0  0  0  0  0  0
   -3.1629    0.9576   -0.4333 C   0  0  0  0  0  0  0  0  0  0  0  0
   -2.9544   -0.2199    0.3026 C   0  0  0  0  0  0  0  0  0  0  0  0
   -1.7057   -0.4318    1.0581 C   0  0  0  0  0  0  0  0  0  0  0  0
   -1.7239   -0.8888    2.3880 C   0  0  0  0  0  0  0  0  0  0  0  0
   -0.5400   -1.0712    3.1096 C   0  0  0  0  0  0  0  0  0  0  0  0
    0.6892   -0.7977    2.5138 C   0  0  0  0  0  0  0  0  0  0  0  0
    0.7420   -0.3435    1.1905 C   0  0  0  0  0  0  0  0  0  0  0  0
    2.0545   -0.0341    0.5357 C   0  0  0  0  0  0  0  0  0  0  0  0
    2.3698    1.2664    0.6341 C   0  0  0  0  0  0  0  0  0  0  0  0
    3.1947    2.1719    0.0792 C   0  0  0  0  0  0  0  0  0  0  0  0
    4.0908    2.4194   -0.8891 N   0  0  0  0  0  0  0  0  0  0  0  0
    4.7094    1.4994   -1.6352 C   0  0  0  0  0  0  0  0  0  0  0  0
    5.0996    0.2240   -1.5443 C   0  0  0  0  0  0  0  0  0  0  0  0
    5.0044   -0.6814   -0.5063 N   0  0  0  0  0  0  0  0  0  0  0  0
    6.2518   -1.3593   -0.1374 C   0  0  0  0  0  0  0  0  0  0  0  0
    3.8380   -1.4122   -0.4215 C   0  0  0  0  0  0  0  0  0  0  0  0
    2.6086   -1.1388    0.0170 C   0  0  0  0  0  0  0  0  0  0  0  0
   -0.4547   -0.1682    0.4743 C   0  0  0  0  0  0  0  0  0  0  0  0
   -3.9750   -1.1820    0.2912 C   0  0  0  0  0  0  0  0  0  0  0  0
   -5.1579   -0.9703   -0.4281 C   0  0  0  0  0  0  0  0  0  0  0  0
   -6.3637   -2.2126   -0.3811 Cl  0  0  0  0  0  0  0  0  0  0  0  0
   -7.6397    1.3441   -3.2294 H   0  0  0  0  0  0  0  0  0  0  0  0
   -6.6875    2.3846   -2.1652 H   0  0  0  0  0  0  0  0  0  0  0  0
   -5.8935    1.4372   -3.4838 H   0  0  0  0  0  0  0  0  0  0  0  0
   -4.4352    2.1077   -1.6976 H   0  0  0  0  0  0  0  0  0  0  0  0
   -2.3976    1.7345   -0.4429 H   0  0  0  0  0  0  0  0  0  0  0  0
   -2.6707   -1.0879    2.8851 H   0  0  0  0  0  0  0  0  0  0  0  0
   -0.5761   -1.4146    4.1395 H   0  0  0  0  0  0  0  0  0  0  0  0
    1.6118   -0.9250    3.0757 H   0  0  0  0  0  0  0  0  0  0  0  0
    1.7112    1.7940    1.3371 H   0  0  0  0  0  0  0  0  0  0  0  0
    2.9816    3.1272    0.5793 H   0  0  0  0  0  0  0  0  0  0  0  0
    5.0836    1.9158   -2.5751 H   0  0  0  0  0  0  0  0  0  0  0  0
    5.6850   -0.1777   -2.3687 H   0  0  0  0  0  0  0  0  0  0  0  0
    6.1389   -1.8795    0.8211 H   0  0  0  0  0  0  0  0  0  0  0  0
    6.5434   -2.0928   -0.8988 H   0  0  0  0  0  0  0  0  0  0  0  0
    7.0668   -0.6355   -0.0196 H   0  0  0  0  0  0  0  0  0  0  0  0
    4.0279   -2.4469   -0.7002 H   0  0  0  0  0  0  0  0  0  0  0  0
    1.9823   -2.0337    0.0284 H   0  0  0  0  0  0  0  0  0  0  0  0
   -0.3879    0.1832   -0.5553 H   0  0  0  0  0  0  0  0  0  0  0  0
   -3.8438   -2.1144    0.8358 H   0  0  0  0  0  0  0  0  0  0  0  0
  1  2  1  0
  2  3  1  0
  3  4  2  0
  4  5  1  0
  5  6  2  0
  6  7  1  0
  7  8  2  0
  8  9  1  0
  9 10  2  0
 10 11  1  0
 11 12  1  0
 12 13  2  0
 13 14  1  0
 14 15  2  0
 15 16  1  0
 16 17  2  0
 17 18  1  0
 18 19  1  0
 18 20  1  0
 20 21  2  0
 11 22  2  0
  6 23  1  0
 23 24  2  0
 24 25  1  0
 24  3  1  0
 22  7  1  0
 21 12  1  0
  1 26  1  0
  1 27  1  0
  1 28  1  0
  4 29  1  0
  5 30  1  0
  8 31  1  0
  9 32  1  0
 10 33  1  0
 13 34  1  0
 14 35  1  0
 16 36  1  0
 17 37  1  0
 19 38  1  0
 19 39  1  0
 19 40  1  0
 20 41  1  0
 21 42  1  0
 22 43  1  0
 23 44  1  0
M  END
$$$$
