
     RDKit          3D

 51 53  0  0  0  0  0  0  0  0999 V2000
   -6.3413   -1.9536   -0.2089 C   0  0  0  0  0  0  0  0  0  0  0  0
   -6.6523   -0.4747   -0.0039 C   0  0  0  0  0  0  0  0  0  0  0  0
   -5.4475    0.3554   -0.0630 N   0  0  0  0  0  0  0  0  0  0  0  0
   -5.7351    1.7549    0.2691 C   0  0  0  0  0  0  0  0  0  0  0  0
   -4.5429    2.5333   -0.2831 C   0  0  0  0  0  0  0  0  0  0  0  0
   -3.8483    1.5765   -1.2553 C   0  0  1  0  0  0  0  0  0  0  0  0
   -2.5800    1.1085   -0.7013 N   0  0  0  0  0  0  0  0  0  0  0  0
   -1.5827    0.6245   -1.5197 C   0  0  0  0  0  0  0  0  0  0  0  0
   -1.6151    0.7220   -2.7426 O   0  0  0  0  0  0  0  0  0  0  0  0
   -0.4111   -0.0160   -0.8572 C   0  0  0  0  0  0  0  0  0  0  0  0
    0.8088   -0.0223   -1.5496 C   0  0  0  0  0  0  0  0  0  0  0  0
    1.9480   -0.5978   -0.9792 C   0  0  0  0  0  0  0  0  0  0  0  0
    1.8760   -1.1643    0.2975 C   0  0  0  0  0  0  0  0  0  0  0  0
    3.0525   -1.8034    0.9339 C   0  0  0  0  0  0  0  0  0  0  0  0
    2.8905   -2.8386    1.5843 O   0  0  0  0  0  0  0  0  0  0  0  0
    4.4324   -1.2922    0.7810 C   0  0  0  0  0  0  0  0  0  0  0  0
    5.5047   -2.1928    0.7921 C   0  0  0  0  0  0  0  0  0  0  0  0
    5.3429   -3.5414    0.9736 O   0  0  0  0  0  0  0  0  0  0  0  0
    6.8114   -1.7433    0.6198 C   0  0  0  0  0  0  0  0  0  0  0  0
    7.0689   -0.3783    0.4633 C   0  0  0  0  0  0  0  0  0  0  0  0
    6.0169    0.5399    0.4935 C   0  0  0  0  0  0  0  0  0  0  0  0
    6.1450    1.8973    0.3716 O   0  0  0  0  0  0  0  0  0  0  0  0
    7.4596    2.4187    0.2226 C   0  0  0  0  0  0  0  0  0  0  0  0
    4.7052    0.0717    0.6614 C   0  0  0  0  0  0  0  0  0  0  0  0
    3.7070    0.9674    0.7321 F   0  0  0  0  0  0  0  0  0  0  0  0
    0.6508   -1.1988    0.9745 C   0  0  0  0  0  0  0  0  0  0  0  0
   -0.4899   -0.6254    0.4017 C   0  0  0  0  0  0  0  0  0  0  0  0
   -4.8430    0.4191   -1.4061 C   0  0  0  0  0  0  0  0  0  0  0  0
   -5.5695   -2.2968    0.4886 H   0  0  0  0  0  0  0  0  0  0  0  0
   -7.2398   -2.5511   -0.0321 H   0  0  0  0  0  0  0  0  0  0  0  0
   -6.0004   -2.1591   -1.2303 H   0  0  0  0  0  0  0  0  0  0  0  0
   -7.4022   -0.1502   -0.7389 H   0  0  0  0  0  0  0  0  0  0  0  0
   -7.1097   -0.3672    0.9897 H   0  0  0  0  0  0  0  0  0  0  0  0
   -6.6546    2.1065   -0.2191 H   0  0  0  0  0  0  0  0  0  0  0  0
   -5.8433    1.9001    1.3502 H   0  0  0  0  0  0  0  0  0  0  0  0
   -4.8947    3.4280   -0.8087 H   0  0  0  0  0  0  0  0  0  0  0  0
   -3.8746    2.8610    0.5230 H   0  0  0  0  0  0  0  0  0  0  0  0
   -3.6566    2.0598   -2.2202 H   0  0  0  0  0  0  0  0  0  0  0  0
   -2.5859    0.8809    0.2803 H   0  0  0  0  0  0  0  0  0  0  0  0
    0.8746    0.4262   -2.5402 H   0  0  0  0  0  0  0  0  0  0  0  0
    2.8737   -0.5987   -1.5477 H   0  0  0  0  0  0  0  0  0  0  0  0
    4.4280   -3.6899    1.3066 H   0  0  0  0  0  0  0  0  0  0  0  0
    7.6318   -2.4580    0.6171 H   0  0  0  0  0  0  0  0  0  0  0  0
    8.1011   -0.0680    0.3343 H   0  0  0  0  0  0  0  0  0  0  0  0
    7.3812    3.5082    0.1509 H   0  0  0  0  0  0  0  0  0  0  0  0
    8.0778    2.1854    1.0965 H   0  0  0  0  0  0  0  0  0  0  0  0
    7.9250    2.0566   -0.7001 H   0  0  0  0  0  0  0  0  0  0  0  0
    0.5797   -1.6775    1.9497 H   0  0  0  0  0  0  0  0  0  0  0  0
   -1.4278   -0.6925    0.9448 H   0  0  0  0  0  0  0  0  0  0  0  0
   -5.5956    0.6685   -2.1676 H   0  0  0  0  0  0  0  0  0  0  0  0
   -4.3494   -0.5185   -1.6870 H   0  0  0  0  0  0  0  0  0  0  0  0
  1  2  1  0
  2  3  1  0
  3  4  1  0
  4  5  1  0
  5  6  1  0
  6  7  1  0
  7  8  1  0
  8  9  2  0
  8 10  1  0
 10 11  2  0
 11 12  1  0
 12 13  2  0
 13 14  1  0
 14 15  2  0
 14 16  1  0
 16 17  2  0
 17 18  1  0
 17 19  1  0
 19 20  2  0
 20 21  1  0
 21 22  1  0
 22 23  1  0
 21 24  2  0
 24 25  1  0
 13 26  1  0
 26 27  2  0
  6 28  1  0
 28  3  1  0
 27 10  1  0
 24 16  1  0
  1 29  1  0
  1 30  1  0
  1 31  1  0
  2 32  1  0
  2 33  1  0
  4 34  1  0
  4 35  1  0
  5 36  1  0
  5 37  1  0
  6 38  1  6
  7 39  1  0
 11 40  1  0
 12 41  1  0
 18 42  1  0
 19 43  1  0
 20 44  1  0
 23 45  1  0
 23 46  1  0
 23 47  1  0
 26 48  1  0
 27 49  1  0
 28 50  1  0
 28 51  1  0
M  END
$$$$
