REMARK SMILES O=C(c1ccc(-c2nc3ccccc3[nH]2)c(F)c1)N1CCC(n2c(O)nc3ccccc32)CC1
REMARK SMILES IDX 1 1 2 2 19 3 20 4 21 5 22 6 33 7 34 8 3 9 4 10 18 11 5 12
REMARK SMILES IDX 16 13 6 14 17 15 7 16 8 17 15 18 9 19 14 20 10 21 13 22
REMARK SMILES IDX 11 23 12 24 23 26 24 27 32 28 26 29 31 30 27 31 30 32 28 33
REMARK SMILES IDX 29 34 25 35
REMARK H PARENT 15 25 25 36
ROOT
ATOM      1  O   UNL     1       0.218  -3.387   0.000  1.00  0.00    -0.269 OA
ATOM      2  C   UNL     1       0.116  -2.169   0.128  1.00  0.00     0.253 C 
ATOM      3  N   UNL     1       1.206  -1.321   0.337  1.00  0.00    -0.338 N 
ATOM      4  C   UNL     1       1.159   0.121   0.085  1.00  0.00     0.122 C 
ATOM      5  C   UNL     1       2.526   0.704  -0.253  1.00  0.00     0.047 C 
ATOM      6  C   UNL     1       3.523   0.377   0.864  1.00  0.00     0.096 C 
ATOM      7  C   UNL     1       3.477  -1.095   1.312  1.00  0.00     0.047 C 
ATOM      8  C   UNL     1       2.520  -1.941   0.480  1.00  0.00     0.122 C 
ENDROOT
BRANCH   2   9
ATOM      9  C   UNL     1      -1.243  -1.589   0.044  1.00  0.00     0.042 A 
ATOM     10  C   UNL     1      -1.742  -0.769   1.061  1.00  0.00     0.015 A 
ATOM     11  C   UNL     1      -2.051  -1.933  -1.041  1.00  0.00     0.053 A 
ATOM     12  C   UNL     1      -3.040  -0.257   0.965  1.00  0.00     0.016 A 
ATOM     13  C   UNL     1      -3.342  -1.418  -1.122  1.00  0.00     0.134 A 
ATOM     14  C   UNL     1      -3.859  -0.570  -0.132  1.00  0.00     0.053 A 
ATOM     15  F   UNL     1      -4.091  -1.756  -2.184  1.00  0.00    -0.206 F 
BRANCH  14  16
ATOM     16  C   UNL     1      -5.213  -0.014  -0.202  1.00  0.00     0.141 A 
ATOM     17  N   UNL     1      -5.750   0.829   0.663  1.00  0.00    -0.228 NA
ATOM     18  N   UNL     1      -6.118  -0.303  -1.200  1.00  0.00    -0.338 N 
ATOM     19  C   UNL     1      -7.022   1.082   0.211  1.00  0.00     0.089 A 
ATOM     20  C   UNL     1      -7.279   0.382  -0.960  1.00  0.00     0.066 A 
ATOM     21  C   UNL     1      -8.022   1.903   0.752  1.00  0.00     0.030 A 
ATOM     22  C   UNL     1      -8.495   0.448  -1.644  1.00  0.00     0.028 A 
ATOM     23  C   UNL     1      -9.252   1.989   0.087  1.00  0.00     0.002 A 
ATOM     24  C   UNL     1      -9.481   1.272  -1.090  1.00  0.00     0.002 A 
ATOM     25  H   UNL     1      -5.943  -0.925  -1.977  1.00  0.00     0.168 HD
ENDBRANCH  14  16
ENDBRANCH   2   9
BRANCH   6  26
ATOM     26  N   UNL     1       4.869   0.844   0.556  1.00  0.00    -0.291 N 
ATOM     27  C   UNL     1       5.520   1.846   1.223  1.00  0.00     0.295 A 
ATOM     28  C   UNL     1       5.725   0.400  -0.431  1.00  0.00     0.072 A 
ATOM     29  N   UNL     1       6.715   2.086   0.762  1.00  0.00    -0.195 NA
ATOM     30  C   UNL     1       5.639  -0.585  -1.423  1.00  0.00     0.029 A 
ATOM     31  C   UNL     1       6.865   1.194  -0.271  1.00  0.00     0.092 A 
ATOM     32  C   UNL     1       6.746  -0.753  -2.263  1.00  0.00     0.002 A 
ATOM     33  C   UNL     1       7.964   1.009  -1.124  1.00  0.00     0.031 A 
ATOM     34  C   UNL     1       7.891   0.029  -2.119  1.00  0.00     0.002 A 
BRANCH  27  35
ATOM     35  O   UNL     1       5.018   2.524   2.235  1.00  0.00    -0.480 OA
ATOM     36  H   UNL     1       5.753   3.130   2.440  1.00  0.00     0.296 HD
ENDBRANCH  27  35
ENDBRANCH   6  26
TORSDOF 4
