REMARK SMILES O=C(c1ccc(-c2ncnc3[nH]ccc23)cc1)N1CCC(n2c(O)nc3cc(F)ccc32)CC1
REMARK SMILES IDX 1 1 2 2 18 3 19 4 20 5 21 6 33 7 34 8 3 9 4 10 17 11 5 12
REMARK SMILES IDX 16 13 6 14 7 15 8 16 15 17 9 18 14 19 11 20 10 21 13 22
REMARK SMILES IDX 12 23 22 25 23 26 32 27 25 28 31 29 26 30 30 31 27 32 28 33
REMARK SMILES IDX 29 34 24 35
REMARK H PARENT 12 24 24 36
ROOT
ATOM      1  O   UNL     1      -0.755  -2.583  -2.124  1.00  0.00    -0.269 OA
ATOM      2  C   UNL     1      -0.633  -1.459  -1.646  1.00  0.00     0.253 C 
ATOM      3  N   UNL     1       0.562  -0.737  -1.642  1.00  0.00    -0.338 N 
ATOM      4  C   UNL     1       0.774   0.469  -0.840  1.00  0.00     0.122 C 
ATOM      5  C   UNL     1       2.229   0.923  -0.821  1.00  0.00     0.047 C 
ATOM      6  C   UNL     1       3.165  -0.247  -0.476  1.00  0.00     0.096 C 
ATOM      7  C   UNL     1       2.844  -1.539  -1.256  1.00  0.00     0.047 C 
ATOM      8  C   UNL     1       1.738  -1.324  -2.281  1.00  0.00     0.122 C 
ENDROOT
BRANCH   2   9
ATOM      9  C   UNL     1      -1.825  -0.856  -1.013  1.00  0.00     0.040 A 
ATOM     10  C   UNL     1      -2.404  -1.498   0.082  1.00  0.00     0.014 A 
ATOM     11  C   UNL     1      -2.394   0.309  -1.529  1.00  0.00     0.014 A 
ATOM     12  C   UNL     1      -3.539  -0.949   0.687  1.00  0.00     0.011 A 
ATOM     13  C   UNL     1      -3.528   0.852  -0.917  1.00  0.00     0.011 A 
ATOM     14  C   UNL     1      -4.126   0.232   0.197  1.00  0.00     0.001 A 
BRANCH  14  15
ATOM     15  C   UNL     1      -5.311   0.827   0.821  1.00  0.00     0.083 A 
ATOM     16  N   UNL     1      -5.301   2.171   1.036  1.00  0.00    -0.236 NA
ATOM     17  C   UNL     1      -6.448   0.090   1.184  1.00  0.00     0.045 A 
ATOM     18  C   UNL     1      -6.378   2.731   1.619  1.00  0.00     0.224 A 
ATOM     19  C   UNL     1      -6.898  -1.261   1.105  1.00  0.00     0.032 A 
ATOM     20  C   UNL     1      -7.479   0.810   1.772  1.00  0.00     0.141 A 
ATOM     21  N   UNL     1      -7.507   2.127   2.024  1.00  0.00    -0.219 NA
ATOM     22  C   UNL     1      -8.161  -1.320   1.658  1.00  0.00     0.085 A 
ATOM     23  N   UNL     1      -8.499  -0.054   2.061  1.00  0.00    -0.346 N 
ATOM     24  H   UNL     1      -9.367   0.227   2.494  1.00  0.00     0.167 HD
ENDBRANCH  14  15
ENDBRANCH   2   9
BRANCH   6  25
ATOM     25  N   UNL     1       4.566   0.145  -0.585  1.00  0.00    -0.291 N 
ATOM     26  C   UNL     1       5.235   0.439  -1.740  1.00  0.00     0.295 A 
ATOM     27  C   UNL     1       5.462   0.307   0.451  1.00  0.00     0.072 A 
ATOM     28  N   UNL     1       6.480   0.773  -1.546  1.00  0.00    -0.195 NA
ATOM     29  C   UNL     1       5.368   0.160   1.842  1.00  0.00     0.032 A 
ATOM     30  C   UNL     1       6.646   0.698  -0.184  1.00  0.00     0.095 A 
ATOM     31  C   UNL     1       6.522   0.421   2.587  1.00  0.00     0.041 A 
ATOM     32  C   UNL     1       7.792   0.955   0.580  1.00  0.00     0.070 A 
ATOM     33  C   UNL     1       7.704   0.809   1.962  1.00  0.00     0.125 A 
ATOM     34  F   UNL     1       8.787   1.050   2.713  1.00  0.00    -0.207 F 
BRANCH  26  35
ATOM     35  O   UNL     1       4.706   0.395  -2.945  1.00  0.00    -0.480 OA
ATOM     36  H   UNL     1       5.466   0.655  -3.498  1.00  0.00     0.296 HD
ENDBRANCH  26  35
ENDBRANCH   6  25
TORSDOF 4
