MODEL        7USER    Run = 7USERUSER    Estimated Free Energy of Binding    = -11.36 kcal/mol  [=(1)+(2)+(3)-(4)]USERUSER    (1) Final Intermolecular Energy     = -12.55 kcal/molUSER        vdW + Hbond + desolv Energy     = -12.25 kcal/molUSER        Electrostatic Energy            =  -0.30 kcal/molUSER        Moving Ligand-Fixed Receptor    = -12.55 kcal/molUSER        Moving Ligand-Moving Receptor   =  +0.00 kcal/molUSER    (2) Final Total Internal Energy     =  -0.68 kcal/molUSER    (3) Torsional Free Energy           =  +1.19 kcal/molUSER    (4) Unbound System's Energy         =  -0.68 kcal/molUSERUSERREMARK SMILES O=C(c1ccc(-c2nc3ccccc3[nH]2)cc1F)N1CCC(n2c(O)nc3ccccc32)CC1REMARK SMILES IDX 1 1 2 2 19 3 20 4 21 5 22 6 33 7 34 8 3 9 4 10 17 11 5 12REMARK SMILES IDX 16 13 6 14 18 15 7 16 8 17 15 18 9 19 14 20 10 21 13 22REMARK SMILES IDX 11 23 12 24 23 26 24 27 32 28 26 29 31 30 27 31 30 32 28 33REMARK SMILES IDX 29 34 25 35REMARK H PARENT 15 25 25 36USER                              x       y       z     vdW  Elec       q    TypeUSER                           _______ _______ _______ _____ _____    ______ ____ROOTATOM      1  O   UNL     1      41.283  45.115  19.475 -0.28 -0.03    -0.269 OA ATOM      2  C   UNL     1      40.056  45.123  19.444 -0.31 -0.00    +0.256 C  ATOM      3  N   UNL     1      39.298  45.511  18.340 -0.20 +0.04    -0.338 N  ATOM      4  C   UNL     1      37.840  45.623  18.353 -0.27 -0.02    +0.122 C  ATOM      5  C   UNL     1      37.264  46.041  17.006 -0.39 -0.02    +0.047 C  ATOM      6  C   UNL     1      37.966  47.301  16.478 -0.31 -0.05    +0.096 C  ATOM      7  C   UNL     1      39.500  47.253  16.624 -0.51 -0.01    +0.047 C  ATOM      8  C   UNL     1      39.989  45.895  17.112 -0.39 -0.02    +0.122 C  ENDROOTBRANCH   2   9ATOM      9  C   UNL     1      39.356  44.748  20.681 -0.31 +0.00    +0.075 A  ATOM     10  C   UNL     1      38.407  43.728  20.646 -0.16 -0.00    +0.017 A  ATOM     11  C   UNL     1      39.596  45.439  21.864 -0.24 +0.01    +0.136 A  ATOM     12  C   UNL     1      37.725  43.388  21.819 -0.37 +0.00    +0.013 A  ATOM     13  C   UNL     1      38.913  45.104  23.034 -0.27 +0.00    +0.052 A  ATOM     14  C   UNL     1      37.966  44.071  23.024 -0.32 +0.00    +0.020 A  ATOM     15  F   UNL     1      40.501  46.428  21.910 -0.03 -0.02    -0.206 F  BRANCH  14  16ATOM     16  C   UNL     1      37.226  43.675  24.227 -0.26 +0.01    +0.138 A  ATOM     17  N   UNL     1      36.826  44.492  25.186 -0.28 -0.01    -0.229 NA ATOM     18  N   UNL     1      36.863  42.382  24.532 -0.20 -0.00    -0.338 N  ATOM     19  C   UNL     1      36.184  43.711  26.114 -0.33 -0.01    +0.089 A  ATOM     20  C   UNL     1      36.193  42.378  25.728 -0.37 -0.01    +0.066 A  ATOM     21  C   UNL     1      35.567  44.071  27.320 -0.42 -0.01    +0.030 A  ATOM     22  C   UNL     1      35.617  41.354  26.483 -0.51 -0.01    +0.028 A  ATOM     23  C   UNL     1      34.978  43.066  28.099 -0.54 -0.00    +0.002 A  ATOM     24  C   UNL     1      35.005  41.732  27.684 -0.60 -0.00    +0.002 A  ATOM     25  H   UNL     1      37.075  41.565  23.981 +0.09 +0.00    +0.168 HD ENDBRANCH  14  16ENDBRANCH   2   9BRANCH   6  26ATOM     26  N   UNL     1      37.535  47.617  15.120 -0.24 +0.18    -0.291 N  ATOM     27  C   UNL     1      37.237  48.859  14.634 -0.25 -0.24    +0.295 A  ATOM     28  C   UNL     1      37.372  46.729  14.078 -0.40 -0.03    +0.072 A  ATOM     29  N   UNL     1      36.891  48.854  13.377 -0.61 +0.09    -0.195 NA ATOM     30  C   UNL     1      37.530  45.342  13.955 -0.39 -0.01    +0.029 A  ATOM     31  C   UNL     1      36.969  47.533  13.009 -0.54 -0.04    +0.092 A  ATOM     32  C   UNL     1      37.264  44.776  12.702 -0.42 -0.00    +0.002 A  ATOM     33  C   UNL     1      36.708  46.944  11.762 -0.62 -0.01    +0.031 A  ATOM     34  C   UNL     1      36.859  45.560  11.622 -0.51 -0.00    +0.002 A  BRANCH  27  35ATOM     35  O   UNL     1      37.280  49.970  15.340 -0.35 +0.53    -0.480 OA ATOM     36  H   UNL     1      36.349  50.056  15.617 -0.14 -0.62    +0.296 HD ENDBRANCH  27  35ENDBRANCH   6  26TORSDOF 4TERENDMDL