MODEL        4USER    Run = 4USERUSER    Estimated Free Energy of Binding    = -10.58 kcal/mol  [=(1)+(2)+(3)-(4)]USERUSER    (1) Final Intermolecular Energy     = -11.78 kcal/molUSER        vdW + Hbond + desolv Energy     = -11.69 kcal/molUSER        Electrostatic Energy            =  -0.09 kcal/molUSER        Moving Ligand-Fixed Receptor    = -11.78 kcal/molUSER        Moving Ligand-Moving Receptor   =  +0.00 kcal/molUSER    (2) Final Total Internal Energy     =  -0.69 kcal/molUSER    (3) Torsional Free Energy           =  +1.19 kcal/molUSER    (4) Unbound System's Energy         =  -0.69 kcal/molUSERUSERREMARK SMILES O=C(c1ccc(-c2ncnc3[nH]ccc23)cc1)N1CCC(n2c(O)nc3cc(F)ccc32)CC1REMARK SMILES IDX 1 1 2 2 18 3 19 4 20 5 21 6 33 7 34 8 3 9 4 10 17 11 5 12REMARK SMILES IDX 16 13 6 14 7 15 8 16 15 17 9 18 14 19 11 20 10 21 13 22REMARK SMILES IDX 12 23 22 25 23 26 32 27 25 28 31 29 26 30 30 31 27 32 28 33REMARK SMILES IDX 29 34 24 35REMARK H PARENT 12 24 24 36USER                              x       y       z     vdW  Elec       q    TypeUSER                           _______ _______ _______ _____ _____    ______ ____ROOTATOM      1  O   UNL     1      41.624  43.485  21.095 -0.28 -0.02    -0.269 OA ATOM      2  C   UNL     1      40.525  44.026  21.019 -0.17 +0.01    +0.253 C  ATOM      3  N   UNL     1      40.014  44.598  19.852 -0.16 -0.00    -0.338 N  ATOM      4  C   UNL     1      38.841  45.473  19.829 -0.32 -0.00    +0.122 C  ATOM      5  C   UNL     1      38.638  46.160  18.483 -0.21 -0.01    +0.047 C  ATOM      6  C   UNL     1      39.940  46.823  18.003 -0.41 -0.01    +0.096 C  ATOM      7  C   UNL     1      41.179  45.915  18.147 -0.51 -0.00    +0.047 C  ATOM      8  C   UNL     1      40.807  44.518  18.627 -0.36 +0.00    +0.122 C  ENDROOTBRANCH   2   9ATOM      9  C   UNL     1      39.714  44.094  22.253 -0.24 +0.00    +0.040 A  ATOM     10  C   UNL     1      40.194  44.832  23.335 -0.18 +0.00    +0.014 A  ATOM     11  C   UNL     1      38.511  43.394  22.355 -0.30 +0.00    +0.014 A  ATOM     12  C   UNL     1      39.447  44.899  24.515 -0.16 +0.00    +0.011 A  ATOM     13  C   UNL     1      37.769  43.468  23.538 -0.33 +0.00    +0.011 A  ATOM     14  C   UNL     1      38.224  44.215  24.642 -0.25 +0.00    +0.001 A  BRANCH  14  15ATOM     15  C   UNL     1      37.422  44.278  25.867 -0.25 -0.00    +0.083 A  ATOM     16  N   UNL     1      37.277  45.493  26.462 -0.22 +0.02    -0.236 NA ATOM     17  C   UNL     1      36.789  43.163  26.437 -0.34 -0.01    +0.045 A  ATOM     18  C   UNL     1      36.553  45.566  27.595 -0.21 -0.05    +0.224 A  ATOM     19  C   UNL     1      36.633  41.776  26.145 -0.41 -0.01    +0.032 A  ATOM     20  C   UNL     1      36.075  43.398  27.604 -0.36 -0.04    +0.141 A  ATOM     21  N   UNL     1      35.921  44.570  28.238 -0.35 +0.06    -0.219 NA ATOM     22  C   UNL     1      35.857  41.218  27.141 -0.53 -0.03    +0.085 A  ATOM     23  N   UNL     1      35.528  42.216  28.021 -0.19 +0.15    -0.346 N  ATOM     24  H   UNL     1      34.959  42.123  28.850 -0.33 -0.11    +0.167 HD ENDBRANCH  14  15ENDBRANCH   2   9BRANCH   6  25ATOM     25  N   UNL     1      39.792  47.368  16.658 -0.28 +0.07    -0.291 N  ATOM     26  C   UNL     1      40.609  48.290  16.066 -0.32 -0.06    +0.295 A  ATOM     27  C   UNL     1      38.819  47.043  15.737 -0.40 -0.03    +0.072 A  ATOM     28  N   UNL     1      40.252  48.593  14.850 -0.40 +0.05    -0.195 NA ATOM     29  C   UNL     1      37.723  46.169  15.756 -0.36 -0.01    +0.032 A  ATOM     30  C   UNL     1      39.135  47.826  14.621 -0.44 -0.03    +0.095 A  ATOM     31  C   UNL     1      36.941  46.106  14.599 -0.37 -0.02    +0.041 A  ATOM     32  C   UNL     1      38.338  47.749  13.470 -0.37 -0.02    +0.070 A  ATOM     33  C   UNL     1      37.248  46.883  13.485 -0.42 -0.05    +0.125 A  ATOM     34  F   UNL     1      36.473  46.793  12.396 -0.20 +0.09    -0.207 F  BRANCH  26  35ATOM     35  O   UNL     1      41.658  48.842  16.641 -0.75 -0.05    -0.480 OA ATOM     36  H   UNL     1      42.227  48.064  16.788 -0.28 +0.00    +0.296 HD ENDBRANCH  26  35ENDBRANCH   6  25TORSDOF 4TERENDMDL