MODEL        6USER    Run = 6USERUSER    Estimated Free Energy of Binding    = -11.23 kcal/mol  [=(1)+(2)+(3)-(4)]USERUSER    (1) Final Intermolecular Energy     = -12.43 kcal/molUSER        vdW + Hbond + desolv Energy     = -12.16 kcal/molUSER        Electrostatic Energy            =  -0.27 kcal/molUSER        Moving Ligand-Fixed Receptor    = -12.43 kcal/molUSER        Moving Ligand-Moving Receptor   =  +0.00 kcal/molUSER    (2) Final Total Internal Energy     =  -0.70 kcal/molUSER    (3) Torsional Free Energy           =  +1.19 kcal/molUSER    (4) Unbound System's Energy         =  -0.70 kcal/molUSERUSERREMARK SMILES O=C(c1ccc(-c2nc3ccccc3[nH]2)c(F)c1)N1CCC(n2c(O)nc3ccccc32)CC1REMARK SMILES IDX 1 1 2 2 19 3 20 4 21 5 22 6 33 7 34 8 3 9 4 10 18 11 5 12REMARK SMILES IDX 16 13 6 14 17 15 7 16 8 17 15 18 9 19 14 20 10 21 13 22REMARK SMILES IDX 11 23 12 24 23 26 24 27 32 28 26 29 31 30 27 31 30 32 28 33REMARK SMILES IDX 29 34 25 35REMARK H PARENT 15 25 25 36USER                              x       y       z     vdW  Elec       q    TypeUSER                           _______ _______ _______ _____ _____    ______ ____ROOTATOM      1  O   UNL     1      41.153  45.027  19.434 -0.28 -0.02    -0.269 OA ATOM      2  C   UNL     1      39.942  45.232  19.487 -0.31 -0.00    +0.253 C  ATOM      3  N   UNL     1      39.221  45.865  18.471 -0.21 +0.04    -0.338 N  ATOM      4  C   UNL     1      37.768  45.752  18.331 -0.21 -0.03    +0.122 C  ATOM      5  C   UNL     1      37.300  45.934  16.891 -0.39 -0.02    +0.047 C  ATOM      6  C   UNL     1      37.799  47.277  16.347 -0.32 -0.06    +0.096 C  ATOM      7  C   UNL     1      39.287  47.541  16.643 -0.47 -0.02    +0.047 C  ATOM      8  C   UNL     1      39.976  46.366  17.326 -0.45 -0.02    +0.122 C  ENDROOTBRANCH   2   9ATOM      9  C   UNL     1      39.227  44.768  20.697 -0.33 +0.00    +0.042 A  ATOM     10  C   UNL     1      38.260  43.760  20.622 -0.22 -0.00    +0.015 A  ATOM     11  C   UNL     1      39.484  45.406  21.911 -0.29 +0.00    +0.053 A  ATOM     12  C   UNL     1      37.583  43.361  21.779 -0.38 +0.00    +0.016 A  ATOM     13  C   UNL     1      38.800  45.000  23.054 -0.23 +0.01    +0.134 A  ATOM     14  C   UNL     1      37.847  43.972  23.015 -0.31 +0.00    +0.053 A  ATOM     15  F   UNL     1      39.078  45.623  24.211 -0.04 -0.01    -0.206 F  BRANCH  14  16ATOM     16  C   UNL     1      37.121  43.528  24.208 -0.26 +0.01    +0.141 A  ATOM     17  N   UNL     1      36.900  42.273  24.558 -0.28 -0.00    -0.228 NA ATOM     18  N   UNL     1      36.565  44.379  25.138 -0.14 -0.02    -0.338 N  ATOM     19  C   UNL     1      36.189  42.322  25.732 -0.35 -0.01    +0.089 A  ATOM     20  C   UNL     1      35.965  43.636  26.119 -0.34 -0.01    +0.066 A  ATOM     21  C   UNL     1      35.696  41.279  26.529 -0.47 -0.01    +0.030 A  ATOM     22  C   UNL     1      35.265  43.988  27.276 -0.43 -0.01    +0.028 A  ATOM     23  C   UNL     1      34.991  41.602  27.696 -0.61 -0.00    +0.002 A  ATOM     24  C   UNL     1      34.781  42.935  28.059 -0.55 -0.00    +0.002 A  ATOM     25  H   UNL     1      36.598  45.388  25.091 -0.01 +0.02    +0.168 HD ENDBRANCH  14  16ENDBRANCH   2   9BRANCH   6  26ATOM     26  N   UNL     1      37.447  47.469  14.946 -0.23 +0.18    -0.291 N  ATOM     27  C   UNL     1      37.164  48.678  14.370 -0.26 -0.21    +0.295 A  ATOM     28  C   UNL     1      37.323  46.517  13.955 -0.40 -0.03    +0.072 A  ATOM     29  N   UNL     1      36.874  48.595  13.103 -0.77 +0.07    -0.195 NA ATOM     30  C   UNL     1      37.479  45.126  13.918 -0.38 -0.01    +0.029 A  ATOM     31  C   UNL     1      36.968  47.254  12.821 -0.56 -0.03    +0.092 A  ATOM     32  C   UNL     1      37.265  44.485  12.692 -0.32 -0.00    +0.002 A  ATOM     33  C   UNL     1      36.758  46.592  11.602 -0.63 -0.01    +0.031 A  ATOM     34  C   UNL     1      36.911  45.203  11.550 -0.44 -0.00    +0.002 A  BRANCH  27  35ATOM     35  O   UNL     1      37.173  49.833  15.005 -0.22 +0.52    -0.480 OA ATOM     36  H   UNL     1      36.293  49.825  15.424 -0.08 -0.60    +0.296 HD ENDBRANCH  27  35ENDBRANCH   6  26TORSDOF 4TERENDMDL