MODEL        10USER    Run = 10USERUSER    Estimated Free Energy of Binding    =  -8.23 kcal/mol  [=(1)+(2)+(3)-(4)]USERUSER    (1) Final Intermolecular Energy     = -12.40 kcal/molUSER        vdW + Hbond + desolv Energy     = -11.86 kcal/molUSER        Electrostatic Energy            =  -0.90 kcal/molUSER        Moving Ligand-Fixed Receptor    = -12.76 kcal/molUSER        Moving Ligand-Moving Receptor   =  +0.36 kcal/molUSER    (2) Final Total Internal Energy     =  -1.79 kcal/molUSER    (3) Torsional Free Energy           =  +4.18 kcal/molUSER    (4) Unbound System's Energy         =  -1.79 kcal/molUSERUSERREMARK SMILES COc1ccc(O)c(C(=O)c2ccc(C(=O)N[C@@H]3CCCNC[C@H]3NC(=O)c3ccncc3)cc2)c1FREMARK SMILES IDX 15 1 16 2 17 3 14 5 11 6 12 7 35 8 13 9 34 10 9 11 10 12REMARK SMILES IDX 8 13 3 14 4 15 36 16 5 17 6 18 37 19 2 20 1 21 7 22 18 24REMARK SMILES IDX 19 25 24 27 23 28 22 29 21 31 20 32 25 34 26 35 27 37 28 38REMARK SMILES IDX 29 39 33 40 30 41 32 42 31 43REMARK H PARENT 17 4 7 23 22 30 25 36REMARK Flexibility Score:   88.900USER                              x       y       z     vdW  Elec       q    TypeUSER                           _______ _______ _______ _____ _____    ______ ____ROOTATOM      1  C   UNL     1      31.447  43.424  16.927 -0.19 -0.08    +0.251 C  ATOM      2  O   UNL     1      31.617  43.976  18.008 -0.22 +0.04    -0.269 OA ATOM      3  N   UNL     1      32.484  42.982  16.131 -0.12 +0.18    -0.347 N  ATOM      4  H   UNL     1      32.273  42.730  15.175 -0.22 -0.11    +0.164 HD ENDROOTBRANCH   1   5ATOM      5  C   UNL     1      30.074  43.265  16.372 -0.26 -0.01    +0.039 A  ATOM      6  C   UNL     1      27.463  42.873  15.428 -0.16 -0.02    +0.023 A  ATOM      7  C   UNL     1      28.191  41.795  15.943 -0.27 -0.01    +0.013 A  ATOM      8  C   UNL     1      28.041  44.147  15.384 -0.15 -0.01    +0.013 A  ATOM      9  C   UNL     1      29.496  41.989  16.402 -0.29 -0.00    +0.014 A  ATOM     10  C   UNL     1      29.350  44.341  15.845 -0.29 -0.01    +0.014 A  BRANCH   6  11ATOM     11  C   UNL     1      26.059  42.634  15.030 -0.22 -0.10    +0.199 C  ATOM     12  O   UNL     1      25.564  41.534  15.282 -0.25 +0.07    -0.288 OA BRANCH  11  13ATOM     13  C   UNL     1      25.193  43.651  14.388 -0.27 -0.03    +0.104 A  ATOM     14  C   UNL     1      24.037  45.801  14.392 -0.18 +0.03    +0.155 A  ATOM     15  C   UNL     1      23.553  45.545  13.106 -0.19 +0.00    +0.053 A  ATOM     16  C   UNL     1      24.858  44.849  15.021 -0.21 +0.01    +0.179 A  ATOM     17  C   UNL     1      23.904  44.362  12.451 -0.15 +0.02    +0.051 A  ATOM     18  C   UNL     1      24.728  43.433  13.082 -0.24 +0.01    +0.130 A  ATOM     19  F   UNL     1      25.344  45.127  16.241 -0.13 -0.05    -0.202 F  BRANCH  14  20ATOM     20  O   UNL     1      23.776  46.927  15.126 -0.69 -0.26    -0.494 OA ATOM     21  C   UNL     1      23.009  47.949  14.497 -0.29 +0.04    +0.278 C  ENDBRANCH  14  20BRANCH  18  22ATOM     22  O   UNL     1      25.044  42.317  12.352 +0.08 -0.12    -0.507 OA ATOM     23  H   UNL     1      25.681  41.786  12.887 -0.33 -0.27    +0.293 HD ENDBRANCH  18  22ENDBRANCH  11  13ENDBRANCH   6  11ENDBRANCH   1   5BRANCH   3  24ATOM     24  C   UNL     1      33.875  43.334  16.442 -0.34 -0.05    +0.106 C  BRANCH  24  25ATOM     25  C   UNL     1      34.481  42.278  17.376 -0.46 -0.01    +0.028 CG0ATOM     26  G   UNL     1      33.766  42.092  18.725 +0.00 +0.00    +0.000 G0 ENDBRANCH  24  25BRANCH  24  27ATOM     27  C   UNL     1      33.956  44.785  16.994 -0.29 -0.07    +0.118 C  BRANCH  27  28ATOM     28  C   UNL     1      34.723  44.934  18.329 -0.36 -0.04    +0.108 C  BRANCH  28  29ATOM     29  N   UNL     1      34.045  44.474  19.545 -0.20 +0.07    -0.315 NA ATOM     30  H   UNL     1      34.356  45.022  20.344 -0.13 -0.05    +0.122 HD BRANCH  29  31ATOM     31  C   UNL     1      34.159  43.052  19.849 -0.38 +0.00    +0.081 C  BRANCH  31  32ATOM     32  C   UNL     1      33.765  42.097  18.725 -0.45 -0.00    +0.017 CG0ATOM     33  G   UNL     1      34.479  42.279  17.375 +0.00 +0.00    +0.000 G0 ENDBRANCH  31  32ENDBRANCH  29  31ENDBRANCH  28  29ENDBRANCH  27  28BRANCH  27  34ATOM     34  N   UNL     1      34.501  45.686  15.970 -0.10 +0.33    -0.346 N  ATOM     35  C   UNL     1      35.785  45.543  15.495 -0.24 -0.16    +0.251 C  ATOM     36  H   UNL     1      33.840  46.222  15.431 -0.17 -0.25    +0.164 HD ATOM     37  O   UNL     1      36.588  44.734  15.941 -0.21 +0.11    -0.269 OA BRANCH  35  38ATOM     38  C   UNL     1      36.168  46.418  14.360 -0.40 -0.03    +0.042 A  ATOM     39  C   UNL     1      36.860  47.597  14.638 -0.44 -0.02    +0.034 A  ATOM     40  C   UNL     1      35.832  46.108  13.041 -0.49 -0.02    +0.034 A  ATOM     41  C   UNL     1      37.211  48.409  13.577 -0.44 -0.05    +0.112 A  ATOM     42  C   UNL     1      36.228  46.988  12.050 -0.59 -0.06    +0.112 A  ATOM     43  N   UNL     1      36.914  48.129  12.290 -0.95 +0.06    -0.265 NA ENDBRANCH  35  38ENDBRANCH  27  34ENDBRANCH  24  27ENDBRANCH   3  24TORSDOF 8TERENDMDL