MODEL        2USER    Run = 2USERUSER    Estimated Free Energy of Binding    =  -7.23 kcal/mol  [=(1)+(2)+(3)-(4)]USERUSER    (1) Final Intermolecular Energy     = -11.70 kcal/molUSER        vdW + Hbond + desolv Energy     = -11.46 kcal/molUSER        Electrostatic Energy            =  -0.36 kcal/molUSER        Moving Ligand-Fixed Receptor    = -11.82 kcal/molUSER        Moving Ligand-Moving Receptor   =  +0.12 kcal/molUSER    (2) Final Total Internal Energy     =  -2.91 kcal/molUSER    (3) Torsional Free Energy           =  +4.47 kcal/molUSER    (4) Unbound System's Energy         =  -2.91 kcal/molUSERUSERREMARK SMILES COc1ccc(O)c(C(=O)c2ccc(C(=O)O[C@@H]3CCCNC[C@H]3NC(=O)c3ccncc3)cc2)c1FREMARK SMILES IDX 17 1 15 2 16 3 14 4 11 5 12 6 35 7 13 8 34 9 9 10 10 11 8 12REMARK SMILES IDX 3 13 4 14 36 15 5 16 6 17 37 18 2 19 1 20 7 21 18 23 24 25REMARK SMILES IDX 23 26 22 27 21 29 20 30 19 31 25 33 26 34 27 36 28 37 29 38REMARK SMILES IDX 33 39 30 40 32 41 31 42REMARK H PARENT 7 22 22 28 25 35REMARK Flexibility Score:   99.900USER                              x       y       z     vdW  Elec       q    TypeUSER                           _______ _______ _______ _____ _____    ______ ____ROOTATOM      1  O   UNL     1      37.567  45.401  24.382 -0.43 -0.08    -0.457 OA ENDROOTBRANCH   1   2ATOM      2  C   UNL     1      38.846  45.809  24.180 -0.15 +0.03    +0.338 C  ATOM      3  O   UNL     1      39.621  46.236  25.024 -0.10 -0.01    -0.246 OA BRANCH   2   4ATOM      4  C   UNL     1      39.211  45.619  22.755 -0.28 +0.00    +0.060 A  ATOM      5  C   UNL     1      39.966  45.303  20.069 -0.37 +0.00    +0.023 A  ATOM      6  C   UNL     1      38.686  44.918  20.490 -0.35 +0.00    +0.013 A  ATOM      7  C   UNL     1      40.863  45.851  20.998 -0.31 +0.00    +0.013 A  ATOM      8  C   UNL     1      38.310  45.076  21.829 -0.33 +0.00    +0.016 A  ATOM      9  C   UNL     1      40.484  46.017  22.333 -0.24 +0.00    +0.016 A  BRANCH   5  10ATOM     10  C   UNL     1      40.426  45.132  18.664 -0.37 -0.00    +0.199 C  ATOM     11  O   UNL     1      41.080  44.150  18.329 -0.26 -0.02    -0.288 OA BRANCH  10  12ATOM     12  C   UNL     1      40.110  46.141  17.646 -0.40 -0.01    +0.104 A  ATOM     13  C   UNL     1      40.685  48.225  16.548 -0.42 -0.03    +0.155 A  ATOM     14  C   UNL     1      39.527  48.117  15.768 -0.49 -0.02    +0.053 A  ATOM     15  C   UNL     1      40.963  47.230  17.493 -0.37 -0.02    +0.179 A  ATOM     16  C   UNL     1      38.676  47.013  15.911 -0.40 -0.02    +0.051 A  ATOM     17  C   UNL     1      38.974  46.022  16.845 -0.32 -0.03    +0.130 A  ATOM     18  F   UNL     1      42.087  47.307  18.223 -0.20 +0.01    -0.202 F  BRANCH  13  19ATOM     19  O   UNL     1      41.612  49.230  16.458 -0.83 -0.06    -0.494 OA ATOM     20  C   UNL     1      41.344  50.287  15.545 -0.46 -0.06    +0.278 C  ENDBRANCH  13  19BRANCH  17  21ATOM     21  O   UNL     1      38.162  44.932  16.974 -0.06 +0.12    -0.507 OA ATOM     22  H   UNL     1      37.372  45.037  16.420 +0.20 -0.10    +0.293 HD ENDBRANCH  17  21ENDBRANCH  10  12ENDBRANCH   5  10ENDBRANCH   2   4ENDBRANCH   1   2BRANCH   1  23ATOM     23  C   UNL     1      37.369  44.341  25.354 -0.25 +0.00    +0.200 CG0ATOM     24  G   UNL     1      36.622  43.213  24.643 +0.00 +0.00    +0.000 G0 BRANCH  23  25ATOM     25  C   UNL     1      36.606  44.955  26.546 -0.27 -0.02    +0.137 C  BRANCH  25  26ATOM     26  C   UNL     1      36.735  44.167  27.865 -0.40 -0.02    +0.109 C  BRANCH  26  27ATOM     27  N   UNL     1      37.185  42.783  27.699 -0.17 +0.07    -0.315 NA ATOM     28  H   UNL     1      37.283  42.367  28.625 -0.38 -0.06    +0.122 HD BRANCH  27  29ATOM     29  C   UNL     1      36.320  41.920  26.889 -0.51 -0.02    +0.081 C  BRANCH  29  30ATOM     30  C   UNL     1      36.564  41.867  25.376 -0.44 -0.00    +0.019 C  BRANCH  30  31ATOM     31  C   UNL     1      36.621  43.213  24.643 -0.36 +0.00    +0.049 CG0ATOM     32  G   UNL     1      37.368  44.341  25.354 +0.00 +0.00    +0.000 G0 ENDBRANCH  30  31ENDBRANCH  29  30ENDBRANCH  27  29ENDBRANCH  26  27ENDBRANCH  25  26BRANCH  25  33ATOM     33  N   UNL     1      37.051  46.342  26.739 -0.16 +0.05    -0.344 N  ATOM     34  C   UNL     1      36.628  47.108  27.798 -0.23 -0.06    +0.251 C  ATOM     35  H   UNL     1      37.900  46.602  26.257 +0.08 -0.00    +0.164 HD ATOM     36  O   UNL     1      35.819  46.730  28.635 -0.32 +0.07    -0.269 OA BRANCH  34  37ATOM     37  C   UNL     1      37.225  48.460  27.896 -0.22 -0.01    +0.042 A  ATOM     38  C   UNL     1      38.585  48.611  27.633 -0.19 -0.00    +0.034 A  ATOM     39  C   UNL     1      36.463  49.562  28.282 -0.24 -0.00    +0.034 A  ATOM     40  C   UNL     1      39.127  49.878  27.743 -0.18 +0.02    +0.112 A  ATOM     41  C   UNL     1      37.103  50.785  28.368 -0.15 +0.02    +0.112 A  ATOM     42  N   UNL     1      38.415  50.968  28.101 -0.13 -0.12    -0.265 NA ENDBRANCH  34  37ENDBRANCH  25  33ENDBRANCH  23  25ENDBRANCH   1  23TORSDOF 9TERENDMDL