MODEL        2USER    Run = 2USERUSER    Estimated Free Energy of Binding    = -13.58 kcal/mol  [=(1)+(2)+(3)-(4)]USERUSER    (1) Final Intermolecular Energy     = -15.37 kcal/molUSER        vdW + Hbond + desolv Energy     = -15.24 kcal/molUSER        Electrostatic Energy            =  -0.14 kcal/molUSER        Moving Ligand-Fixed Receptor    = -15.37 kcal/molUSER        Moving Ligand-Moving Receptor   =  +0.00 kcal/molUSER    (2) Final Total Internal Energy     =  -2.59 kcal/molUSER    (3) Torsional Free Energy           =  +1.79 kcal/molUSER    (4) Unbound System's Energy         =  -2.59 kcal/molUSERUSERREMARK SMILES Oc1nc2ccccc2n1C1CCN(Cc2ccc(-c3nc4ccccc4nc3-c3ccccc3)cc2)CC1REMARK SMILES IDX 11 1 12 2 13 3 14 4 38 5 39 6 10 7 2 8 3 9 4 10 9 11 5 12REMARK SMILES IDX 8 13 6 14 7 15 1 16 15 18 16 19 17 20 37 21 18 22 36 23REMARK SMILES IDX 19 24 20 25 21 26 29 27 22 28 28 29 23 30 27 31 24 32 26 33REMARK SMILES IDX 25 34 30 35 31 36 35 37 32 38 34 39 33 40REMARK H PARENT 1 17USER                              x       y       z     vdW  Elec       q    TypeUSER                           _______ _______ _______ _____ _____    ______ ____ROOTATOM      1  C   UNL     1      38.597  47.198  15.349 -0.45 -0.04    +0.095 C  ATOM      2  C   UNL     1      37.765  48.380  14.823 -0.58 -0.03    +0.041 C  ATOM      3  C   UNL     1      37.255  48.129  13.404 -0.55 -0.03    +0.087 C  ATOM      4  N   UNL     1      36.726  46.778  13.195 -0.32 +0.14    -0.299 NA ATOM      5  C   UNL     1      37.701  45.726  13.522 -0.42 -0.03    +0.087 C  ATOM      6  C   UNL     1      38.968  46.217  14.232 -0.42 -0.01    +0.041 C  ENDROOTBRANCH   1   7ATOM      7  N   UNL     1      39.746  47.628  16.132 -0.28 +0.08    -0.291 N  ATOM      8  C   UNL     1      40.510  48.740  15.912 -0.34 -0.07    +0.295 A  ATOM      9  N   UNL     1      41.474  48.887  16.776 -0.95 -0.01    -0.195 NA ATOM     10  C   UNL     1      41.335  47.815  17.625 -0.44 -0.01    +0.092 A  ATOM     11  C   UNL     1      40.257  47.007  17.254 -0.45 -0.01    +0.072 A  ATOM     12  C   UNL     1      42.099  47.470  18.751 -0.49 +0.00    +0.031 A  ATOM     13  C   UNL     1      39.900  45.856  17.969 -0.44 -0.00    +0.029 A  ATOM     14  C   UNL     1      41.757  46.322  19.476 -0.46 +0.00    +0.002 A  ATOM     15  C   UNL     1      40.676  45.531  19.089 -0.45 +0.00    +0.002 A  BRANCH   8  16ATOM     16  O   UNL     1      40.312  49.606  14.939 -0.20 +0.22    -0.480 OA ATOM     17  H   UNL     1      39.646  50.195  15.338 -0.20 -0.23    +0.296 HD ENDBRANCH   8  16ENDBRANCH   1   7BRANCH   4  18ATOM     18  C   UNL     1      35.427  46.535  13.846 -0.44 -0.09    +0.120 C  BRANCH  18  19ATOM     19  C   UNL     1      35.535  45.854  15.193 -0.34 +0.03    -0.034 A  ATOM     20  C   UNL     1      35.654  44.463  15.284 -0.31 -0.00    +0.006 A  ATOM     21  C   UNL     1      35.502  46.607  16.374 -0.26 -0.01    +0.006 A  ATOM     22  C   UNL     1      35.758  43.841  16.533 -0.36 -0.00    +0.011 A  ATOM     23  C   UNL     1      35.608  45.982  17.620 -0.36 -0.01    +0.011 A  ATOM     24  C   UNL     1      35.754  44.589  17.722 -0.32 -0.00    +0.002 A  BRANCH  24  25ATOM     25  C   UNL     1      35.884  43.917  19.025 -0.30 -0.02    +0.097 A  ATOM     26  N   UNL     1      37.034  44.227  19.691 -0.22 +0.02    -0.244 NA ATOM     27  C   UNL     1      34.950  43.018  19.566 -0.35 -0.01    +0.097 A  ATOM     28  C   UNL     1      37.255  43.611  20.866 -0.33 +0.00    +0.089 A  ATOM     29  N   UNL     1      35.189  42.389  20.753 -0.30 -0.02    -0.244 NA ATOM     30  C   UNL     1      38.419  43.886  21.575 -0.31 +0.00    +0.030 A  ATOM     31  C   UNL     1      36.330  42.687  21.398 -0.38 +0.00    +0.089 A  ATOM     32  C   UNL     1      38.690  43.268  22.796 -0.30 +0.00    +0.002 A  ATOM     33  C   UNL     1      36.608  42.075  22.614 -0.48 +0.00    +0.030 A  ATOM     34  C   UNL     1      37.779  42.358  23.318 -0.36 +0.00    +0.002 A  BRANCH  27  35ATOM     35  C   UNL     1      33.651  42.673  18.959 -0.39 -0.00    +0.002 A  ATOM     36  C   UNL     1      32.550  43.536  19.102 -0.40 -0.00    +0.010 A  ATOM     37  C   UNL     1      33.470  41.503  18.201 -0.39 -0.00    +0.010 A  ATOM     38  C   UNL     1      31.310  43.231  18.533 -0.26 -0.00    +0.001 A  ATOM     39  C   UNL     1      32.230  41.194  17.634 -0.36 -0.00    +0.001 A  ATOM     40  C   UNL     1      31.150  42.056  17.802 -0.29 -0.00    +0.000 A  ENDBRANCH  27  35ENDBRANCH  24  25ENDBRANCH  18  19ENDBRANCH   4  18TORSDOF 6TERENDMDL