MODEL        8USER    Run = 8USERUSER    Estimated Free Energy of Binding    = -11.83 kcal/mol  [=(1)+(2)+(3)-(4)]USERUSER    (1) Final Intermolecular Energy     = -13.62 kcal/molUSER        vdW + Hbond + desolv Energy     = -13.48 kcal/molUSER        Electrostatic Energy            =  -0.13 kcal/molUSER        Moving Ligand-Fixed Receptor    = -13.62 kcal/molUSER        Moving Ligand-Moving Receptor   =  +0.00 kcal/molUSER    (2) Final Total Internal Energy     =  -1.77 kcal/molUSER    (3) Torsional Free Energy           =  +1.79 kcal/molUSER    (4) Unbound System's Energy         =  -1.77 kcal/molUSERUSERREMARK SMILES Cn1ccc2ccc3c4[nH]c5c(CCCN[C@H]6CC[C@H](O)CC6)cccc5c4c4c(c3c21)C(=O)NC4=OREMARK SMILES IDX 15 1 14 2 13 3 12 4 2 5 3 6 32 7 4 8 31 9 5 10 30 11 8 12REMARK SMILES IDX 6 13 29 14 33 15 7 16 9 17 28 18 36 19 35 20 10 21 27 22REMARK SMILES IDX 11 23 26 24 25 25 24 26 1 27 34 28 37 29 16 32 17 34 23 35REMARK SMILES IDX 18 36 22 37 19 38 20 39 21 40REMARK H PARENT 35 30 10 31 16 33 21 41USER                              x       y       z     vdW  Elec       q    TypeUSER                           _______ _______ _______ _____ _____    ______ ____ROOTATOM      1  C   UNL     1      35.913  46.927  15.744 -0.24 -0.09    +0.081 C  ENDROOTBRANCH   1   2ATOM      2  C   UNL     1      36.447  47.191  14.333 -0.50 -0.01    +0.020 C  BRANCH   2   3ATOM      3  C   UNL     1      37.784  46.494  14.057 -0.48 -0.01    +0.039 C  BRANCH   3   4ATOM      4  C   UNL     1      38.888  46.877  15.012 -0.43 +0.01    -0.024 A  ATOM      5  N   UNL     1      38.131  43.563  22.991 -0.12 -0.02    -0.350 N  ATOM      6  C   UNL     1      37.365  42.528  23.476 -0.35 +0.01    +0.086 A  ATOM      7  C   UNL     1      38.052  43.619  21.604 -0.32 +0.00    +0.057 A  ATOM      8  C   UNL     1      36.612  42.044  22.441 -0.50 +0.00    +0.028 A  ATOM      9  C   UNL     1      38.748  44.374  20.587 -0.34 +0.00    +0.022 A  ATOM     10  C   UNL     1      36.976  42.772  21.278 -0.44 +0.00    +0.000 A  ATOM     11  C   UNL     1      39.960  45.075  20.692 -0.32 +0.00    +0.063 A  ATOM     12  C   UNL     1      38.124  44.397  19.301 -0.35 -0.00    +0.009 A  ATOM     13  C   UNL     1      36.467  42.755  19.970 -0.37 -0.00    +0.011 A  ATOM     14  C   UNL     1      40.458  45.879  19.660 -0.36 +0.00    +0.063 A  ATOM     15  C   UNL     1      41.026  45.048  21.709 -0.18 +0.02    +0.259 C  ATOM     16  C   UNL     1      37.006  43.602  19.006 -0.21 -0.00    +0.012 A  ATOM     17  C   UNL     1      38.655  45.233  18.270 -0.36 -0.01    +0.055 A  ATOM     18  C   UNL     1      39.812  46.007  18.428 -0.43 -0.00    +0.022 A  ATOM     19  C   UNL     1      41.735  46.440  20.100 -0.27 +0.03    +0.259 C  ATOM     20  N   UNL     1      41.932  45.998  21.365 -0.15 -0.05    -0.288 N  ATOM     21  N   UNL     1      38.212  45.465  16.986 -0.14 +0.09    -0.354 N  ATOM     22  C   UNL     1      40.028  46.725  17.203 -0.48 -0.00    +0.008 A  ATOM     23  C   UNL     1      39.008  46.367  16.321 -0.39 -0.01    +0.050 A  ATOM     24  C   UNL     1      40.993  47.651  16.753 -0.47 -0.00    +0.011 A  ATOM     25  C   UNL     1      40.907  48.176  15.461 -0.52 -0.00    +0.001 A  ATOM     26  C   UNL     1      39.875  47.794  14.610 -0.49 -0.00    +0.006 A  ATOM     27  C   UNL     1      38.678  44.555  23.892 -0.22 +0.01    +0.149 C  ATOM     28  O   UNL     1      41.152  44.259  22.622 -0.12 -0.02    -0.269 OA ATOM     29  O   UNL     1      42.511  47.115  19.457 -0.41 -0.04    -0.269 OA ATOM     30  H   UNL     1      42.825  46.082  21.825 +0.08 +0.05    +0.173 HD ATOM     31  H   UNL     1      37.388  45.047  16.583 +0.12 -0.06    +0.167 HD ENDBRANCH   3   4ENDBRANCH   2   3ENDBRANCH   1   2BRANCH   1  32ATOM     32  N   UNL     1      34.966  45.811  15.698 -0.14 +0.29    -0.314 NA ATOM     33  H   UNL     1      34.013  46.164  15.624 -0.14 -0.18    +0.122 HD BRANCH  32  34ATOM     34  C   UNL     1      35.082  44.919  16.861 -0.34 -0.03    +0.053 C  ATOM     35  C   UNL     1      34.806  45.634  18.201 -0.47 -0.01    +0.021 C  ATOM     36  C   UNL     1      34.113  43.742  16.623 -0.38 -0.01    +0.021 C  ATOM     37  C   UNL     1      33.351  45.497  18.645 -0.43 -0.01    +0.033 C  ATOM     38  C   UNL     1      33.734  43.067  17.935 -0.38 -0.01    +0.033 C  ATOM     39  C   UNL     1      32.969  44.026  18.852 -0.38 -0.02    +0.114 C  BRANCH  39  40ATOM     40  O   UNL     1      33.236  43.643  20.200 -0.81 -0.03    -0.393 OA ATOM     41  H   UNL     1      33.134  44.435  20.756 -0.24 -0.02    +0.210 HD ENDBRANCH  39  40ENDBRANCH  32  34ENDBRANCH   1  32TORSDOF 6TERENDMDL