MODEL        1USER    Run = 1USERUSER    Estimated Free Energy of Binding    = -12.76 kcal/mol  [=(1)+(2)+(3)-(4)]USERUSER    (1) Final Intermolecular Energy     = -15.15 kcal/molUSER        vdW + Hbond + desolv Energy     = -15.01 kcal/molUSER        Electrostatic Energy            =  -0.14 kcal/molUSER        Moving Ligand-Fixed Receptor    = -15.15 kcal/molUSER        Moving Ligand-Moving Receptor   =  +0.00 kcal/molUSER    (2) Final Total Internal Energy     =  -2.63 kcal/molUSER    (3) Torsional Free Energy           =  +2.39 kcal/molUSER    (4) Unbound System's Energy         =  -2.63 kcal/molUSERUSERREMARK SMILES N#Cc1cnc(-c2ccc(CNCc3ccc(-c4csnn4)cc3)cc2)c(-c2ccccc2)c1REMARK SMILES IDX 11 1 10 2 7 3 8 4 26 5 9 6 25 7 6 8 3 9 4 10 34 11 5 12REMARK SMILES IDX 27 13 2 14 1 15 28 16 29 17 33 18 30 19 32 20 31 21 12 22REMARK SMILES IDX 13 24 14 25 15 26 24 27 16 28 23 29 17 30 18 31 19 32 22 33REMARK SMILES IDX 20 34 21 35REMARK H PARENT 12 23USER                              x       y       z     vdW  Elec       q    TypeUSER                           _______ _______ _______ _____ _____    ______ ____ROOTATOM      1  C   UNL     1      36.159  43.221  20.415 -0.42 -0.00    +0.117 C  ENDROOTBRANCH   1   2ATOM      2  C   UNL     1      35.313  43.757  19.284 -0.36 +0.01    -0.034 A  ATOM      3  C   UNL     1      33.748  44.748  17.132 -0.32 -0.00    +0.001 A  ATOM      4  C   UNL     1      34.258  45.609  18.120 -0.44 -0.01    +0.011 A  ATOM      5  C   UNL     1      34.025  43.377  17.256 -0.33 -0.00    +0.011 A  ATOM      6  C   UNL     1      35.035  45.124  19.178 -0.32 -0.00    +0.006 A  ATOM      7  C   UNL     1      34.804  42.889  18.311 -0.37 -0.00    +0.006 A  BRANCH   3   8ATOM      8  C   UNL     1      32.932  45.286  16.024 -0.26 -0.06    +0.078 A  ATOM      9  C   UNL     1      31.163  46.196  14.101 -0.52 -0.05    +0.071 A  ATOM     10  C   UNL     1      30.746  45.713  15.326 -0.36 -0.06    +0.131 A  ATOM     11  C   UNL     1      32.533  46.230  13.847 -0.14 -0.03    +0.032 A  ATOM     12  N   UNL     1      31.591  45.269  16.283 -0.67 +0.10    -0.254 NA ATOM     13  C   UNL     1      33.457  45.777  14.810 -0.14 -0.01    +0.009 A  BRANCH   9  14ATOM     14  C   UNL     1      30.215  46.653  13.137 -0.55 -0.05    +0.101 C  ATOM     15  N   UNL     1      29.444  47.023  12.354 -0.76 +0.09    -0.192 NA ENDBRANCH   9  14BRANCH  13  16ATOM     16  C   UNL     1      34.896  45.874  14.512 -0.35 +0.01    -0.016 A  ATOM     17  C   UNL     1      35.787  44.875  14.940 -0.33 -0.00    +0.009 A  ATOM     18  C   UNL     1      35.415  46.955  13.780 -0.41 -0.01    +0.009 A  ATOM     19  C   UNL     1      37.153  44.959  14.656 -0.37 -0.00    +0.001 A  ATOM     20  C   UNL     1      36.780  47.041  13.497 -0.55 -0.00    +0.001 A  ATOM     21  C   UNL     1      37.648  46.044  13.936 -0.44 -0.00    +0.000 A  ENDBRANCH  13  16ENDBRANCH   3   8ENDBRANCH   1   2BRANCH   1  22ATOM     22  N   UNL     1      37.080  44.251  20.897 -0.21 -0.00    -0.309 NA ATOM     23  H   UNL     1      37.054  44.248  21.916 +0.06 +0.01    +0.123 HD BRANCH  22  24ATOM     24  C   UNL     1      38.455  44.012  20.457 -0.28 -0.00    +0.117 C  BRANCH  24  25ATOM     25  C   UNL     1      38.939  45.012  19.433 -0.37 +0.00    -0.034 A  ATOM     26  C   UNL     1      38.211  45.246  18.259 -0.38 -0.00    +0.006 A  ATOM     27  C   UNL     1      40.137  45.709  19.629 -0.40 -0.00    +0.006 A  ATOM     28  C   UNL     1      38.668  46.166  17.308 -0.40 -0.00    +0.011 A  ATOM     29  C   UNL     1      40.594  46.627  18.679 -0.44 -0.00    +0.011 A  ATOM     30  C   UNL     1      39.863  46.873  17.509 -0.47 -0.00    +0.003 A  BRANCH  30  31ATOM     31  C   UNL     1      40.366  47.840  16.537 -0.45 -0.02    +0.105 A  ATOM     32  C   UNL     1      39.851  48.019  15.264 -0.45 -0.03    +0.118 A  ATOM     33  N   UNL     1      41.423  48.691  16.853 -0.98 +0.00    -0.138 NA ATOM     34  S   UNL     1      40.758  49.267  14.512 -0.80 +0.01    -0.020 S  ATOM     35  N   UNL     1      41.730  49.496  15.850 -1.04 -0.01    -0.091 NA ENDBRANCH  30  31ENDBRANCH  24  25ENDBRANCH  22  24ENDBRANCH   1  22TORSDOF 8TERENDMDL