MODEL        7USER    Run = 7USERUSER    Estimated Free Energy of Binding    =  -7.63 kcal/mol  [=(1)+(2)+(3)-(4)]USERUSER    (1) Final Intermolecular Energy     = -12.10 kcal/molUSER        vdW + Hbond + desolv Energy     = -12.39 kcal/molUSER        Electrostatic Energy            =  -0.32 kcal/molUSER        Moving Ligand-Fixed Receptor    = -12.71 kcal/molUSER        Moving Ligand-Moving Receptor   =  +0.60 kcal/molUSER    (2) Final Total Internal Energy     =  -1.67 kcal/molUSER    (3) Torsional Free Energy           =  +4.47 kcal/molUSER    (4) Unbound System's Energy         =  -1.67 kcal/molUSERUSERREMARK SMILES COc1ccc(O)c(C(=O)c2ccc(NC[C@@H]3CCCNC[C@@H]3NC(=O)c3ccncc3)cc2)c1FREMARK SMILES IDX 16 1 15 2 14 4 11 5 12 6 34 7 13 8 33 9 9 10 10 11 8 12 3 13REMARK SMILES IDX 4 14 35 15 5 16 6 17 36 18 2 19 1 20 7 21 17 23 18 24 23 26REMARK SMILES IDX 22 27 21 28 20 30 19 31 24 33 25 34 26 36 27 37 28 38 32 39REMARK SMILES IDX 29 40 31 41 30 42REMARK H PARENT 15 3 7 22 21 29 24 35REMARK Flexibility Score:   99.900USER                              x       y       z     vdW  Elec       q    TypeUSER                           _______ _______ _______ _____ _____    ______ ____ROOTATOM      1  C   UNL     1      32.297  43.513  15.450 -0.29 -0.06    +0.118 C  ENDROOTBRANCH   1   2ATOM      2  N   UNL     1      31.013  43.982  15.979 -0.09 +0.17    -0.385 N  ATOM      3  H   UNL     1      31.110  44.709  16.681 +0.11 -0.03    +0.160 HD BRANCH   2   4ATOM      4  C   UNL     1      29.936  43.129  16.202 -0.27 -0.01    +0.034 A  ATOM      5  C   UNL     1      27.664  41.471  16.519 -0.24 -0.00    +0.023 A  ATOM      6  C   UNL     1      28.950  40.936  16.616 -0.32 -0.00    +0.014 A  ATOM      7  C   UNL     1      27.508  42.822  16.207 -0.23 -0.01    +0.014 A  ATOM      8  C   UNL     1      30.072  41.758  16.451 -0.32 -0.01    +0.026 A  ATOM      9  C   UNL     1      28.638  43.634  16.046 -0.24 -0.01    +0.026 A  BRANCH   5  10ATOM     10  C   UNL     1      26.505  40.558  16.667 -0.23 +0.01    +0.199 C  ATOM     11  O   UNL     1      26.069  39.976  15.672 -0.71 -0.04    -0.288 OA BRANCH  10  12ATOM     12  C   UNL     1      25.799  40.346  17.950 -0.22 -0.00    +0.104 A  ATOM     13  C   UNL     1      25.250  41.013  20.231 -0.27 -0.03    +0.155 A  ATOM     14  C   UNL     1      24.421  39.896  20.355 -0.32 -0.02    +0.053 A  ATOM     15  C   UNL     1      25.940  41.222  19.026 -0.16 -0.02    +0.179 A  ATOM     16  C   UNL     1      24.298  38.994  19.295 -0.33 -0.03    +0.051 A  ATOM     17  C   UNL     1      24.994  39.211  18.109 -0.29 -0.02    +0.130 A  ATOM     18  F   UNL     1      26.768  42.276  18.935 -0.04 +0.03    -0.202 F  BRANCH  13  19ATOM     19  O   UNL     1      25.464  41.953  21.203 -0.23 +0.11    -0.494 OA ATOM     20  C   UNL     1      24.342  42.356  21.979 -0.49 -0.07    +0.278 C  ENDBRANCH  13  19BRANCH  17  21ATOM     21  O   UNL     1      24.843  38.262  17.134 -0.58 +0.01    -0.507 OA ATOM     22  H   UNL     1      24.445  38.699  16.346 -0.09 -0.13    +0.293 HD ENDBRANCH  17  21ENDBRANCH  10  12ENDBRANCH   5  10ENDBRANCH   2   4ENDBRANCH   1   2BRANCH   1  23ATOM     23  C   UNL     1      33.164  42.842  16.544 -0.36 -0.02    +0.032 C  BRANCH  23  24ATOM     24  C   UNL     1      32.746  43.351  17.938 -0.38 -0.00    +0.009 CG0ATOM     25  G   UNL     1      33.017  42.465  19.154 +0.00 +0.00    +0.000 G0 ENDBRANCH  23  24BRANCH  23  26ATOM     26  C   UNL     1      34.666  42.991  16.206 -0.39 -0.04    +0.101 C  BRANCH  26  27ATOM     27  C   UNL     1      35.536  43.025  17.484 -0.35 -0.03    +0.106 C  BRANCH  27  28ATOM     28  N   UNL     1      35.317  41.912  18.417 -0.32 +0.07    -0.315 NA ATOM     29  H   UNL     1      34.838  41.171  17.901 -0.36 -0.05    +0.122 HD BRANCH  28  30ATOM     30  C   UNL     1      34.477  42.280  19.558 -0.39 -0.00    +0.081 C  BRANCH  30  31ATOM     31  C   UNL     1      33.019  42.463  19.154 -0.43 -0.00    +0.016 CG0ATOM     32  G   UNL     1      32.750  43.357  17.943 +0.00 +0.00    +0.000 G0 ENDBRANCH  30  31ENDBRANCH  28  30ENDBRANCH  27  28ENDBRANCH  26  27BRANCH  26  33ATOM     33  N   UNL     1      34.956  44.165  15.386 -0.05 +0.17    -0.348 N  ATOM     34  C   UNL     1      36.231  44.589  15.101 -0.25 -0.11    +0.251 C  ATOM     35  H   UNL     1      34.146  44.719  15.137 +0.11 -0.10    +0.164 HD ATOM     36  O   UNL     1      37.233  44.020  15.517 -0.23 +0.08    -0.269 OA BRANCH  34  37ATOM     37  C   UNL     1      36.361  45.813  14.265 -0.39 -0.02    +0.042 A  ATOM     38  C   UNL     1      36.741  46.999  14.894 -0.39 -0.02    +0.034 A  ATOM     39  C   UNL     1      36.146  45.805  12.887 -0.49 -0.02    +0.034 A  ATOM     40  C   UNL     1      36.867  48.137  14.119 -0.43 -0.07    +0.112 A  ATOM     41  C   UNL     1      36.300  46.997  12.202 -0.59 -0.05    +0.112 A  ATOM     42  N   UNL     1      36.649  48.161  12.787 -0.84 +0.10    -0.265 NA ENDBRANCH  34  37ENDBRANCH  26  33ENDBRANCH  23  26ENDBRANCH   1  23TORSDOF 9TERENDMDL