MODEL        10USER    Run = 10USERUSER    Estimated Free Energy of Binding    =  -7.02 kcal/mol  [=(1)+(2)+(3)-(4)]USERUSER    (1) Final Intermolecular Energy     = -11.49 kcal/molUSER        vdW + Hbond + desolv Energy     = -11.96 kcal/molUSER        Electrostatic Energy            =  -0.19 kcal/molUSER        Moving Ligand-Fixed Receptor    = -12.15 kcal/molUSER        Moving Ligand-Moving Receptor   =  +0.66 kcal/molUSER    (2) Final Total Internal Energy     =  -1.70 kcal/molUSER    (3) Torsional Free Energy           =  +4.47 kcal/molUSER    (4) Unbound System's Energy         =  -1.70 kcal/molUSERUSERREMARK SMILES COc1ccc(O)c(C(=O)c2ccc(CN[C@@H]3CCCNC[C@H]3NC(=O)c3ccncc3)cc2)c1FREMARK SMILES IDX 16 1 15 3 14 4 11 5 12 6 34 7 13 8 33 9 9 10 10 11 8 12 3 13REMARK SMILES IDX 4 14 35 15 5 16 6 17 36 18 2 19 1 20 7 21 17 23 18 24 23 26REMARK SMILES IDX 22 27 21 28 20 30 19 31 24 33 25 34 26 36 27 37 28 38 32 39REMARK SMILES IDX 29 40 31 41 30 42REMARK H PARENT 16 2 7 22 21 29 24 35REMARK Flexibility Score:   99.900USER                              x       y       z     vdW  Elec       q    TypeUSER                           _______ _______ _______ _____ _____    ______ ____ROOTATOM      1  N   UNL     1      38.317  46.127  23.904 -0.31 -0.05    -0.308 NA ATOM      2  H   UNL     1      37.761  46.349  23.075 +0.05 +0.03    +0.123 HD ENDROOTBRANCH   1   3ATOM      3  C   UNL     1      39.514  45.395  23.482 -0.22 +0.01    +0.117 C  BRANCH   3   4ATOM      4  C   UNL     1      39.840  45.561  22.018 -0.28 -0.00    -0.034 A  ATOM      5  C   UNL     1      40.427  45.872  19.285 -0.42 -0.00    +0.023 A  ATOM      6  C   UNL     1      39.143  45.487  19.686 -0.38 -0.00    +0.012 A  ATOM      7  C   UNL     1      41.422  46.075  20.248 -0.38 +0.00    +0.012 A  ATOM      8  C   UNL     1      38.853  45.341  21.045 -0.32 +0.00    +0.006 A  ATOM      9  C   UNL     1      41.128  45.927  21.606 -0.28 +0.00    +0.006 A  BRANCH   5  10ATOM     10  C   UNL     1      40.795  46.000  17.854 -0.40 -0.01    +0.199 C  ATOM     11  O   UNL     1      41.764  45.367  17.428 -0.22 -0.01    -0.288 OA BRANCH  10  12ATOM     12  C   UNL     1      40.022  46.805  16.885 -0.41 -0.02    +0.104 A  ATOM     13  C   UNL     1      38.027  47.201  15.539 -0.32 -0.08    +0.155 A  ATOM     14  C   UNL     1      38.604  48.368  15.034 -0.49 -0.03    +0.053 A  ATOM     15  C   UNL     1      38.743  46.432  16.469 -0.29 -0.05    +0.179 A  ATOM     16  C   UNL     1      39.869  48.771  15.471 -0.53 -0.02    +0.051 A  ATOM     17  C   UNL     1      40.563  48.002  16.401 -0.45 -0.02    +0.130 A  ATOM     18  F   UNL     1      38.163  45.332  16.977 -0.08 +0.05    -0.202 F  BRANCH  13  19ATOM     19  O   UNL     1      36.790  46.719  15.204 -0.07 +0.33    -0.494 OA ATOM     20  C   UNL     1      36.319  46.991  13.891 -0.34 -0.17    +0.278 C  ENDBRANCH  13  19BRANCH  17  21ATOM     21  O   UNL     1      41.780  48.485  16.804 -0.60 -0.04    -0.507 OA ATOM     22  H   UNL     1      42.334  47.716  17.072 -0.35 -0.05    +0.293 HD ENDBRANCH  17  21ENDBRANCH  10  12ENDBRANCH   5  10ENDBRANCH   3   4ENDBRANCH   1   3BRANCH   1  23ATOM     23  C   UNL     1      38.614  47.397  24.621 -0.36 +0.01    +0.077 C  BRANCH  23  24ATOM     24  C   UNL     1      39.875  47.995  23.985 -0.36 +0.00    +0.022 CG0ATOM     25  G   UNL     1      41.193  47.596  24.648 +0.00 +0.00    +0.000 G0 ENDBRANCH  23  24BRANCH  23  26ATOM     26  C   UNL     1      38.759  47.121  26.151 -0.24 +0.00    +0.113 C  BRANCH  26  27ATOM     27  C   UNL     1      39.382  48.326  26.898 -0.23 +0.01    +0.107 C  BRANCH  27  28ATOM     28  N   UNL     1      40.834  48.407  27.013 -0.14 -0.03    -0.315 NA ATOM     29  H   UNL     1      41.173  47.589  27.524 +0.02 +0.01    +0.122 HD BRANCH  28  30ATOM     30  C   UNL     1      41.603  48.532  25.783 -0.27 +0.01    +0.081 C  BRANCH  30  31ATOM     31  C   UNL     1      41.198  47.592  24.651 -0.26 +0.00    +0.017 CG0ATOM     32  G   UNL     1      39.881  47.994  23.987 +0.00 +0.00    +0.000 G0 ENDBRANCH  30  31ENDBRANCH  28  30ENDBRANCH  27  28ENDBRANCH  26  27BRANCH  26  33ATOM     33  N   UNL     1      37.435  46.814  26.725 -0.15 +0.04    -0.346 N  ATOM     34  C   UNL     1      37.228  45.695  27.502 -0.25 -0.04    +0.251 C  ATOM     35  H   UNL     1      36.704  47.500  26.603 +0.00 -0.03    +0.164 HD ATOM     36  O   UNL     1      38.084  44.840  27.690 -0.20 +0.03    -0.269 OA BRANCH  34  37ATOM     37  C   UNL     1      35.878  45.536  28.102 -0.26 -0.01    +0.042 A  ATOM     38  C   UNL     1      35.282  44.276  28.053 -0.52 -0.01    +0.034 A  ATOM     39  C   UNL     1      35.214  46.590  28.731 -0.24 -0.01    +0.034 A  ATOM     40  C   UNL     1      34.028  44.126  28.611 -0.47 -0.02    +0.112 A  ATOM     41  C   UNL     1      33.961  46.336  29.262 -0.28 -0.02    +0.112 A  ATOM     42  N   UNL     1      33.352  45.133  29.207 -0.67 +0.00    -0.265 NA ENDBRANCH  34  37ENDBRANCH  26  33ENDBRANCH  23  26ENDBRANCH   1  23TORSDOF 9TERENDMDL