MODEL        2USER    Run = 2USERUSER    Estimated Free Energy of Binding    = -12.23 kcal/mol  [=(1)+(2)+(3)-(4)]USERUSER    (1) Final Intermolecular Energy     = -14.02 kcal/molUSER        vdW + Hbond + desolv Energy     = -13.85 kcal/molUSER        Electrostatic Energy            =  -0.17 kcal/molUSER        Moving Ligand-Fixed Receptor    = -14.02 kcal/molUSER        Moving Ligand-Moving Receptor   =  +0.00 kcal/molUSER    (2) Final Total Internal Energy     =  -1.93 kcal/molUSER    (3) Torsional Free Energy           =  +1.79 kcal/molUSER    (4) Unbound System's Energy         =  -1.93 kcal/molUSERUSERREMARK SMILES Oc1nc2ccccc2n1C1CCN(Cc2ccc(-c3cc4ccccc4nc3-c3ccccc3)cc2)CC1REMARK SMILES IDX 11 1 12 2 13 3 14 4 38 5 39 6 10 7 2 8 3 9 4 10 9 11 5 12REMARK SMILES IDX 8 13 6 14 7 15 1 16 15 18 16 19 17 20 37 21 18 22 36 23REMARK SMILES IDX 19 24 20 25 21 26 29 27 22 28 28 29 23 30 27 31 24 32 26 33REMARK SMILES IDX 25 34 30 35 31 36 35 37 32 38 34 39 33 40REMARK H PARENT 1 17USER                              x       y       z     vdW  Elec       q    TypeUSER                           _______ _______ _______ _____ _____    ______ ____ROOTATOM      1  C   UNL     1      28.184  40.712  16.028 -0.34 -0.01    +0.095 C  ATOM      2  C   UNL     1      29.569  40.233  16.486 -0.42 -0.00    +0.041 C  ATOM      3  C   UNL     1      30.305  41.204  17.403 -0.30 -0.01    +0.087 C  ATOM      4  N   UNL     1      30.271  42.597  16.954 -0.10 +0.08    -0.299 NA ATOM      5  C   UNL     1      28.889  43.064  16.822 -0.24 -0.02    +0.087 C  ATOM      6  C   UNL     1      28.029  42.232  15.873 -0.27 -0.02    +0.041 C  ENDROOTBRANCH   1   7ATOM      7  N   UNL     1      27.069  40.058  16.709 -0.13 -0.07    -0.291 N  ATOM      8  C   UNL     1      26.004  39.494  16.046 -0.05 +0.10    +0.295 A  ATOM      9  N   UNL     1      25.103  38.987  16.838 -0.74 -0.01    -0.195 NA ATOM     10  C   UNL     1      25.592  39.217  18.095 -0.29 -0.00    +0.092 A  ATOM     11  C   UNL     1      26.829  39.878  18.056 -0.21 +0.01    +0.072 A  ATOM     12  C   UNL     1      25.015  38.877  19.330 -0.31 -0.02    +0.031 A  ATOM     13  C   UNL     1      27.513  40.199  19.235 -0.12 -0.00    +0.029 A  ATOM     14  C   UNL     1      25.691  39.200  20.508 -0.30 -0.00    +0.002 A  ATOM     15  C   UNL     1      26.921  39.849  20.457 -0.23 -0.00    +0.002 A  BRANCH   8  16ATOM     16  O   UNL     1      25.868  39.449  14.737 -0.78 -0.09    -0.480 OA ATOM     17  H   UNL     1      24.952  39.124  14.656 -0.15 -0.06    +0.296 HD ENDBRANCH   8  16ENDBRANCH   1   7BRANCH   4  18ATOM     18  C   UNL     1      31.092  42.814  15.751 -0.32 -0.06    +0.120 C  BRANCH  18  19ATOM     19  C   UNL     1      32.480  43.333  16.061 -0.31 +0.02    -0.034 A  ATOM     20  C   UNL     1      33.446  42.502  16.642 -0.29 -0.00    +0.006 A  ATOM     21  C   UNL     1      32.819  44.661  15.769 -0.34 -0.00    +0.006 A  ATOM     22  C   UNL     1      34.724  42.991  16.927 -0.39 -0.00    +0.009 A  ATOM     23  C   UNL     1      34.095  45.150  16.064 -0.31 -0.01    +0.009 A  ATOM     24  C   UNL     1      35.063  44.324  16.651 -0.31 +0.01    -0.016 A  BRANCH  24  25ATOM     25  C   UNL     1      36.408  44.838  16.950 -0.33 -0.00    +0.009 A  ATOM     26  C   UNL     1      36.940  44.654  18.235 -0.33 -0.00    +0.021 A  ATOM     27  C   UNL     1      37.228  45.482  16.009 -0.30 -0.03    +0.079 A  ATOM     28  C   UNL     1      38.234  45.087  18.547 -0.39 -0.00    +0.001 A  ATOM     29  N   UNL     1      38.495  45.896  16.296 -0.21 +0.07    -0.247 NA ATOM     30  C   UNL     1      38.787  44.910  19.828 -0.37 -0.00    +0.010 A  ATOM     31  C   UNL     1      38.983  45.707  17.532 -0.37 -0.01    +0.071 A  ATOM     32  C   UNL     1      40.081  45.347  20.104 -0.39 +0.00    +0.001 A  ATOM     33  C   UNL     1      40.270  46.132  17.831 -0.46 -0.00    +0.029 A  ATOM     34  C   UNL     1      40.826  45.960  19.102 -0.46 +0.00    +0.002 A  BRANCH  27  35ATOM     35  C   UNL     1      36.815  45.781  14.624 -0.40 -0.00    +0.001 A  ATOM     36  C   UNL     1      36.261  47.032  14.301 -0.44 -0.01    +0.010 A  ATOM     37  C   UNL     1      36.939  44.832  13.595 -0.42 -0.00    +0.010 A  ATOM     38  C   UNL     1      35.868  47.332  12.993 -0.60 -0.00    +0.001 A  ATOM     39  C   UNL     1      36.546  45.130  12.287 -0.53 -0.00    +0.001 A  ATOM     40  C   UNL     1      36.014  46.382  11.986 -0.64 -0.00    +0.000 A  ENDBRANCH  27  35ENDBRANCH  24  25ENDBRANCH  18  19ENDBRANCH   4  18TORSDOF 6TERENDMDL