MODEL        5USER    Run = 5USERUSER    Estimated Free Energy of Binding    =  -7.43 kcal/mol  [=(1)+(2)+(3)-(4)]USERUSER    (1) Final Intermolecular Energy     = -11.90 kcal/molUSER        vdW + Hbond + desolv Energy     = -12.53 kcal/molUSER        Electrostatic Energy            =  -0.08 kcal/molUSER        Moving Ligand-Fixed Receptor    = -12.62 kcal/molUSER        Moving Ligand-Moving Receptor   =  +0.72 kcal/molUSER    (2) Final Total Internal Energy     =  -2.99 kcal/molUSER    (3) Torsional Free Energy           =  +4.47 kcal/molUSER    (4) Unbound System's Energy         =  -2.99 kcal/molUSERUSERREMARK SMILES COc1ccc(O)c(C(=O)c2ccc(CO[C@@H]3CCCNC[C@@H]3NC(=O)c3ccncc3)cc2)c1FREMARK SMILES IDX 16 1 15 2 14 3 11 4 12 5 34 6 13 7 33 8 9 9 10 10 8 11 3 12REMARK SMILES IDX 4 13 35 14 5 15 6 16 36 17 2 18 1 19 7 20 17 22 18 23 23 25REMARK SMILES IDX 22 26 21 27 20 29 19 30 24 32 25 33 26 35 27 36 28 37 32 38REMARK SMILES IDX 29 39 31 40 30 41REMARK H PARENT 7 21 21 28 24 34REMARK Flexibility Score:   99.900USER                              x       y       z     vdW  Elec       q    TypeUSER                           _______ _______ _______ _____ _____    ______ ____ROOTATOM      1  O   UNL     1      36.063  45.097  15.857 -0.12 +0.19    -0.371 OA ENDROOTBRANCH   1   2ATOM      2  C   UNL     1      35.444  45.697  16.994 -0.27 -0.13    +0.196 C  BRANCH   2   3ATOM      3  C   UNL     1      35.889  44.947  18.223 -0.33 +0.01    -0.022 A  ATOM      4  C   UNL     1      36.741  43.534  20.497 -0.40 -0.00    +0.023 A  ATOM      5  C   UNL     1      37.659  44.283  19.754 -0.36 -0.00    +0.012 A  ATOM      6  C   UNL     1      35.393  43.518  20.122 -0.41 -0.00    +0.012 A  ATOM      7  C   UNL     1      37.233  44.979  18.621 -0.33 -0.00    +0.007 A  ATOM      8  C   UNL     1      34.970  44.216  18.988 -0.37 -0.00    +0.007 A  BRANCH   4   9ATOM      9  C   UNL     1      37.138  42.807  21.726 -0.36 +0.01    +0.199 C  ATOM     10  O   UNL     1      37.446  41.615  21.644 -0.34 -0.01    -0.288 OA BRANCH   9  11ATOM     11  C   UNL     1      37.128  43.421  23.071 -0.30 +0.01    +0.104 A  ATOM     12  C   UNL     1      37.566  45.288  24.576 -0.16 +0.02    +0.155 A  ATOM     13  C   UNL     1      37.067  44.540  25.646 -0.31 -0.00    +0.053 A  ATOM     14  C   UNL     1      37.598  44.715  23.296 -0.19 +0.02    +0.179 A  ATOM     15  C   UNL     1      36.625  43.231  25.437 -0.34 -0.00    +0.051 A  ATOM     16  C   UNL     1      36.669  42.673  24.162 -0.28 +0.01    +0.130 A  ATOM     17  F   UNL     1      38.113  45.431  22.283 -0.12 -0.02    -0.202 F  BRANCH  12  18ATOM     18  O   UNL     1      38.041  46.569  24.660 -0.51 -0.08    -0.494 OA ATOM     19  C   UNL     1      37.530  47.389  25.703 -0.25 +0.01    +0.278 C  ENDBRANCH  12  18BRANCH  16  20ATOM     20  O   UNL     1      36.245  41.376  24.051 -0.18 +0.04    -0.507 OA ATOM     21  H   UNL     1      36.649  40.995  23.237 +0.19 +0.00    +0.293 HD ENDBRANCH  16  20ENDBRANCH   9  11ENDBRANCH   4   9ENDBRANCH   2   3ENDBRANCH   1   2BRANCH   1  22ATOM     22  C   UNL     1      36.150  45.980  14.717 -0.35 -0.09    +0.142 C  BRANCH  22  23ATOM     23  C   UNL     1      36.664  45.091  13.576 -0.48 -0.01    +0.035 CG0ATOM     24  G   UNL     1      36.421  45.517  12.133 +0.00 +0.00    +0.000 G0 ENDBRANCH  22  23BRANCH  22  25ATOM     25  C   UNL     1      37.033  47.198  15.079 -0.40 -0.08    +0.125 C  BRANCH  25  26ATOM     26  C   UNL     1      37.318  48.067  13.829 -0.54 -0.05    +0.108 C  BRANCH  26  27ATOM     27  N   UNL     1      37.935  47.396  12.687 -0.78 +0.04    -0.315 NA ATOM     28  H   UNL     1      38.545  46.657  13.039 +0.08 -0.02    +0.122 HD BRANCH  27  29ATOM     29  C   UNL     1      36.990  46.865  11.715 -0.65 -0.03    +0.081 C  BRANCH  29  30ATOM     30  C   UNL     1      36.418  45.518  12.130 -0.63 -0.01    +0.018 CG0ATOM     31  G   UNL     1      36.663  45.100  13.575 +0.00 +0.00    +0.000 G0 ENDBRANCH  29  30ENDBRANCH  27  29ENDBRANCH  26  27ENDBRANCH  25  26BRANCH  25  32ATOM     32  N   UNL     1      38.238  46.781  15.811 -0.15 +0.14    -0.345 N  ATOM     33  C   UNL     1      39.205  47.695  16.179 -0.35 -0.09    +0.251 C  ATOM     34  H   UNL     1      38.095  46.010  16.451 +0.11 -0.06    +0.164 HD ATOM     35  O   UNL     1      39.192  48.871  15.842 -0.37 +0.14    -0.269 OA BRANCH  33  36ATOM     36  C   UNL     1      40.285  47.187  17.068 -0.48 -0.01    +0.042 A  ATOM     37  C   UNL     1      41.305  48.063  17.436 -0.47 -0.00    +0.034 A  ATOM     38  C   UNL     1      40.320  45.864  17.508 -0.43 -0.00    +0.034 A  ATOM     39  C   UNL     1      42.315  47.581  18.248 -0.29 -0.00    +0.112 A  ATOM     40  C   UNL     1      41.376  45.479  18.315 -0.36 +0.00    +0.112 A  ATOM     41  N   UNL     1      42.369  46.309  18.698 -0.27 -0.03    -0.265 NA ENDBRANCH  33  36ENDBRANCH  25  32ENDBRANCH  22  25ENDBRANCH   1  22TORSDOF 9TERENDMDL