
     RDKit          3D

 61 64  0  0  0  0  0  0  0  0999 V2000
   -3.4502    3.4365    0.9829 C   0  0  0  0  0  0  0  0  0  0  0  0
   -3.8602    2.6123   -0.2260 C   0  0  0  0  0  0  0  0  0  0  0  0
   -4.1498    1.2223    0.1347 N   0  0  0  0  0  0  0  0  0  0  0  0
   -5.5467    0.9085    0.4476 C   0  0  0  0  0  0  0  0  0  0  0  0
   -6.2929    0.3423   -0.7661 C   0  0  0  0  0  0  0  0  0  0  0  0
   -7.6617   -0.1248   -0.3991 C   0  0  0  0  0  0  0  0  0  0  0  0
   -8.8694    0.5386   -0.3746 C   0  0  0  0  0  0  0  0  0  0  0  0
   -9.1956    2.1527   -0.7681 Cl  0  0  0  0  0  0  0  0  0  0  0  0
   -9.8067   -0.4120    0.0599 C   0  0  0  0  0  0  0  0  0  0  0  0
   -9.2467   -1.5998    0.3031 N   0  0  0  0  0  0  0  0  0  0  0  0
   -7.9429   -1.4046    0.0172 N   0  0  0  0  0  0  0  0  0  0  0  0
   -7.0159   -2.5049    0.1647 C   0  0  0  0  0  0  0  0  0  0  0  0
   -3.2382    0.1724    0.2057 C   0  0  0  0  0  0  0  0  0  0  0  0
   -3.6121   -0.9799    0.4210 O   0  0  0  0  0  0  0  0  0  0  0  0
   -1.7939    0.4917    0.0185 C   0  0  0  0  0  0  0  0  0  0  0  0
   -0.7818   -0.3633    0.2220 C   0  0  0  0  0  0  0  0  0  0  0  0
   -0.8087   -1.7426    0.6590 C   0  0  0  0  0  0  0  0  0  0  0  0
    0.4660   -2.1619    0.7084 C   0  0  0  0  0  0  0  0  0  0  0  0
    1.3692   -1.0830    0.3181 C   0  0  0  0  0  0  0  0  0  0  0  0
    2.7136   -1.2864    0.3031 N   0  0  0  0  0  0  0  0  0  0  0  0
    3.7562   -0.4154    0.0186 C   0  0  0  0  0  0  0  0  0  0  0  0
    3.5409    0.8624   -0.3217 N   0  0  0  0  0  0  0  0  0  0  0  0
    4.6205    1.6261   -0.5741 C   0  0  0  0  0  0  0  0  0  0  0  0
    5.9184    1.1750   -0.5016 C   0  0  0  0  0  0  0  0  0  0  0  0
    7.0605    2.0744   -0.8075 C   0  0  0  0  0  0  0  0  0  0  0  0
    7.9456    1.5508   -1.6972 F   0  0  0  0  0  0  0  0  0  0  0  0
    6.6668    3.2622   -1.3535 F   0  0  0  0  0  0  0  0  0  0  0  0
    7.7786    2.4122    0.2980 F   0  0  0  0  0  0  0  0  0  0  0  0
    6.0538   -0.1464   -0.1317 C   0  0  0  0  0  0  0  0  0  0  0  0
    7.3455   -0.8287    0.0215 C   0  0  0  0  0  0  0  0  0  0  0  0
    8.2419   -0.4814    1.0453 C   0  0  0  0  0  0  0  0  0  0  0  0
    9.4672   -1.1390    1.1792 C   0  0  0  0  0  0  0  0  0  0  0  0
    9.8101   -2.1607    0.2979 C   0  0  0  0  0  0  0  0  0  0  0  0
    8.9290   -2.5299   -0.7140 C   0  0  0  0  0  0  0  0  0  0  0  0
    7.7042   -1.8711   -0.8487 C   0  0  0  0  0  0  0  0  0  0  0  0
    4.9844   -0.9419    0.1152 N   0  0  0  0  0  0  0  0  0  0  0  0
    0.6163   -0.0065    0.0273 C   0  0  0  0  0  0  0  0  0  0  0  0
   -3.2506    4.4714    0.6872 H   0  0  0  0  0  0  0  0  0  0  0  0
   -4.2432    3.4445    1.7383 H   0  0  0  0  0  0  0  0  0  0  0  0
   -2.5481    3.0349    1.4557 H   0  0  0  0  0  0  0  0  0  0  0  0
   -4.7542    3.0472   -0.6873 H   0  0  0  0  0  0  0  0  0  0  0  0
   -3.0807    2.6442   -0.9914 H   0  0  0  0  0  0  0  0  0  0  0  0
   -6.0424    1.8109    0.8246 H   0  0  0  0  0  0  0  0  0  0  0  0
   -5.5650    0.1858    1.2726 H   0  0  0  0  0  0  0  0  0  0  0  0
   -6.3613    1.1140   -1.5431 H   0  0  0  0  0  0  0  0  0  0  0  0
   -5.7248   -0.4779   -1.2201 H   0  0  0  0  0  0  0  0  0  0  0  0
  -10.8716   -0.2910    0.2118 H   0  0  0  0  0  0  0  0  0  0  0  0
   -7.5334   -3.3593    0.6095 H   0  0  0  0  0  0  0  0  0  0  0  0
   -6.6408   -2.7719   -0.8267 H   0  0  0  0  0  0  0  0  0  0  0  0
   -6.2001   -2.1909    0.8193 H   0  0  0  0  0  0  0  0  0  0  0  0
   -1.5406    1.4903   -0.3021 H   0  0  0  0  0  0  0  0  0  0  0  0
   -1.6821   -2.3267    0.9002 H   0  0  0  0  0  0  0  0  0  0  0  0
    0.7867   -3.1494    1.0017 H   0  0  0  0  0  0  0  0  0  0  0  0
    3.0617   -2.1962    0.5656 H   0  0  0  0  0  0  0  0  0  0  0  0
    4.3877    2.6528   -0.8503 H   0  0  0  0  0  0  0  0  0  0  0  0
    7.9899    0.2996    1.7597 H   0  0  0  0  0  0  0  0  0  0  0  0
   10.1499   -0.8578    1.9766 H   0  0  0  0  0  0  0  0  0  0  0  0
   10.7609   -2.6754    0.4058 H   0  0  0  0  0  0  0  0  0  0  0  0
    9.1913   -3.3354   -1.3950 H   0  0  0  0  0  0  0  0  0  0  0  0
    7.0222   -2.1788   -1.6389 H   0  0  0  0  0  0  0  0  0  0  0  0
    0.9736    0.9587   -0.2934 H   0  0  0  0  0  0  0  0  0  0  0  0
  1  2  1  0
  2  3  1  0
  3  4  1  0
  4  5  1  0
  5  6  1  0
  6  7  2  0
  7  8  1  0
  7  9  1  0
  9 10  2  0
 10 11  1  0
 11 12  1  0
  3 13  1  0
 13 14  2  0
 13 15  1  0
 15 16  2  3
 16 17  1  0
 17 18  2  0
 18 19  1  0
 19 20  1  0
 20 21  1  0
 21 22  2  0
 22 23  1  0
 23 24  2  0
 24 25  1  0
 25 26  1  0
 25 27  1  0
 25 28  1  0
 24 29  1  0
 29 30  1  0
 30 31  2  0
 31 32  1  0
 32 33  2  0
 33 34  1  0
 34 35  2  0
 29 36  2  0
 19 37  2  0
 11  6  1  0
 37 16  1  0
 36 21  1  0
 35 30  1  0
  1 38  1  0
  1 39  1  0
  1 40  1  0
  2 41  1  0
  2 42  1  0
  4 43  1  0
  4 44  1  0
  5 45  1  0
  5 46  1  0
  9 47  1  0
 12 48  1  0
 12 49  1  0
 12 50  1  0
 15 51  1  0
 17 52  1  0
 18 53  1  0
 20 54  1  0
 23 55  1  0
 31 56  1  0
 32 57  1  0
 33 58  1  0
 34 59  1  0
 35 60  1  0
 37 61  1  0
M  END
$$$$
