
     RDKit          3D

 47 49  0  0  0  0  0  0  0  0999 V2000
   -4.0331    3.2681   -1.2508 C   0  0  0  0  0  0  0  0  0  0  0  0
   -4.3120    2.0547   -0.5649 O   0  0  0  0  0  0  0  0  0  0  0  0
   -3.3225    1.0954   -0.4710 C   0  0  0  0  0  0  0  0  0  0  0  0
   -2.0918    1.2208   -1.0020 C   0  0  0  0  0  0  0  0  0  0  0  0
   -0.9833    0.4232   -1.0372 O   0  0  0  0  0  0  0  0  0  0  0  0
   -0.7641   -0.8121   -0.4760 C   0  0  0  0  0  0  0  0  0  0  0  0
    0.6412   -1.3065   -0.7531 C   0  0  0  0  0  0  0  0  0  0  0  0
    1.6844   -0.5515    0.0780 C   0  0  0  0  0  0  0  0  0  0  0  0
    3.1008   -1.0491   -0.2415 C   0  0  0  0  0  0  0  0  0  0  0  0
    4.1295   -0.4373    0.6120 N   0  0  0  0  0  0  0  0  0  0  0  0
    4.2055    1.0309    0.4382 C   0  0  0  0  0  0  0  0  0  0  0  0
    5.5857    1.5877    0.8191 C   0  0  0  0  0  0  0  0  0  0  0  0
    6.6323    1.0908   -0.0268 O   0  0  0  0  0  0  0  0  0  0  0  0
    6.3739   -0.2304   -0.5209 C   0  0  0  0  0  0  0  0  0  0  0  0
    5.4580   -1.0538    0.3980 C   0  0  0  0  0  0  0  0  0  0  0  0
   -1.6107   -1.5869    0.2200 C   0  0  0  0  0  0  0  0  0  0  0  0
   -3.0486   -1.2852    0.5964 C   0  0  0  0  0  0  0  0  0  0  0  0
   -4.0830   -1.8398    1.2505 C   0  0  0  0  0  0  0  0  0  0  0  0
   -4.4132   -2.8977    1.8904 O   0  0  0  0  0  0  0  0  0  0  0  0
   -3.3308   -3.8546    1.7160 O   0  0  0  0  0  0  0  0  0  0  0  0
   -4.8666   -0.6446    0.9695 C   0  0  0  0  0  0  0  0  0  0  0  0
   -6.0767   -0.4076    1.3119 O   0  0  0  0  0  0  0  0  0  0  0  0
   -6.5756    0.8565    0.9218 C   0  0  0  0  0  0  0  0  0  0  0  0
   -3.8026   -0.1330    0.3133 C   0  0  0  0  0  0  0  0  0  0  0  0
   -3.2217    3.8174   -0.7626 H   0  0  0  0  0  0  0  0  0  0  0  0
   -3.8040    3.0792   -2.3045 H   0  0  0  0  0  0  0  0  0  0  0  0
   -4.9318    3.8907   -1.2096 H   0  0  0  0  0  0  0  0  0  0  0  0
   -1.8035    2.1104   -1.5505 H   0  0  0  0  0  0  0  0  0  0  0  0
    0.7232   -2.3821   -0.5507 H   0  0  0  0  0  0  0  0  0  0  0  0
    0.8544   -1.1821   -1.8226 H   0  0  0  0  0  0  0  0  0  0  0  0
    1.6046    0.5225   -0.1282 H   0  0  0  0  0  0  0  0  0  0  0  0
    1.4755   -0.6927    1.1463 H   0  0  0  0  0  0  0  0  0  0  0  0
    3.3260   -0.8793   -1.3023 H   0  0  0  0  0  0  0  0  0  0  0  0
    3.1134   -2.1350   -0.0817 H   0  0  0  0  0  0  0  0  0  0  0  0
    3.4415    1.5078    1.0615 H   0  0  0  0  0  0  0  0  0  0  0  0
    4.0108    1.3007   -0.6082 H   0  0  0  0  0  0  0  0  0  0  0  0
    5.5875    2.6792    0.7333 H   0  0  0  0  0  0  0  0  0  0  0  0
    5.8355    1.3433    1.8584 H   0  0  0  0  0  0  0  0  0  0  0  0
    7.3410   -0.7311   -0.6333 H   0  0  0  0  0  0  0  0  0  0  0  0
    5.9372   -0.1395   -1.5223 H   0  0  0  0  0  0  0  0  0  0  0  0
    5.9360   -1.1283    1.3831 H   0  0  0  0  0  0  0  0  0  0  0  0
    5.3735   -2.0805    0.0228 H   0  0  0  0  0  0  0  0  0  0  0  0
   -1.2592   -2.5508    0.5809 H   0  0  0  0  0  0  0  0  0  0  0  0
   -3.8209   -4.4477    1.1196 H   0  0  0  0  0  0  0  0  0  0  0  0
   -7.6031    0.9396    1.2904 H   0  0  0  0  0  0  0  0  0  0  0  0
   -6.6124    0.9496   -0.1687 H   0  0  0  0  0  0  0  0  0  0  0  0
   -6.0000    1.6706    1.3751 H   0  0  0  0  0  0  0  0  0  0  0  0
  1  2  1  0
  2  3  1  0
  3  4  2  0
  4  5  1  0
  5  6  1  0
  6  7  1  0
  7  8  1  0
  8  9  1  0
  9 10  1  0
 10 11  1  0
 11 12  1  0
 12 13  1  0
 13 14  1  0
 14 15  1  0
  6 16  2  0
 16 17  1  0
 17 18  2  0
 18 19  1  0
 19 20  1  0
 18 21  1  0
 21 22  1  0
 22 23  1  0
 21 24  2  0
 24  3  1  0
 15 10  1  0
 24 17  1  0
  1 25  1  0
  1 26  1  0
  1 27  1  0
  4 28  1  0
  7 29  1  0
  7 30  1  0
  8 31  1  0
  8 32  1  0
  9 33  1  0
  9 34  1  0
 11 35  1  0
 11 36  1  0
 12 37  1  0
 12 38  1  0
 14 39  1  0
 14 40  1  0
 15 41  1  0
 15 42  1  0
 16 43  1  0
 20 44  1  0
 23 45  1  0
 23 46  1  0
 23 47  1  0
M  END
$$$$
