
     RDKit          3D

 64 65  0  0  0  0  0  0  0  0999 V2000
    7.3447    1.9883    0.5473 C   0  0  0  0  0  0  0  0  0  0  0  0
    6.1833    1.9801    1.5339 C   0  0  0  0  0  0  0  0  0  0  0  0
    5.4802    0.7069    1.7239 N   0  0  0  0  0  0  0  0  0  0  0  0
    6.2727   -0.3374    2.3804 C   0  0  0  0  0  0  0  0  0  0  0  0
    7.0767   -1.2812    1.4869 C   0  0  0  0  0  0  0  0  0  0  0  0
    4.7029    0.2952    0.5474 C   0  0  0  0  0  0  0  0  0  0  0  0
    3.6166   -0.7580    0.8544 C   0  0  0  0  0  0  0  0  0  0  0  0
    2.9117   -1.1892   -0.3433 N   0  0  0  0  0  0  0  0  0  0  0  0
    1.9098   -0.4186   -0.9012 C   0  0  0  0  0  0  0  0  0  0  0  0
    1.6192    0.7065   -0.4969 O   0  0  0  0  0  0  0  0  0  0  0  0
    1.2376   -1.0470   -2.1367 C   0  0  2  0  0  0  0  0  0  0  0  0
    2.0743   -0.7501   -3.3738 C   0  0  0  0  0  0  0  0  0  0  0  0
   -0.0983   -0.4793   -2.2679 N   0  0  0  0  0  0  0  0  0  0  0  0
   -1.1777   -1.1347   -1.7118 C   0  0  0  0  0  0  0  0  0  0  0  0
   -1.1374   -2.2883   -1.3019 O   0  0  0  0  0  0  0  0  0  0  0  0
   -2.4302   -0.3334   -1.6274 C   0  0  0  0  0  0  0  0  0  0  0  0
   -2.8326    0.3648   -2.7720 C   0  0  0  0  0  0  0  0  0  0  0  0
   -4.0181    1.0933   -2.7646 C   0  0  0  0  0  0  0  0  0  0  0  0
   -4.8515    1.0901   -1.6411 C   0  0  0  0  0  0  0  0  0  0  0  0
   -5.9976    1.9145   -1.6685 N   0  0  0  0  0  0  0  0  0  0  0  0
   -4.4302    0.4335   -0.4504 C   0  0  0  0  0  0  0  0  0  0  0  0
   -5.2693    0.5117    0.7685 C   0  0  0  0  0  0  0  0  0  0  0  0
   -5.2103    1.6830    1.5507 C   0  0  0  0  0  0  0  0  0  0  0  0
   -5.9363    1.8023    2.7380 C   0  0  0  0  0  0  0  0  0  0  0  0
   -6.7322    0.7490    3.1767 C   0  0  0  0  0  0  0  0  0  0  0  0
   -6.8124   -0.4190    2.4204 C   0  0  0  0  0  0  0  0  0  0  0  0
   -6.1014   -0.5361    1.2146 C   0  0  0  0  0  0  0  0  0  0  0  0
   -6.2591   -1.8149    0.4902 C   0  0  0  0  0  0  0  0  0  0  0  0
   -6.2995   -2.9172    1.0046 O   0  0  0  0  0  0  0  0  0  0  0  0
   -6.4631   -1.6407   -0.8266 O   0  0  0  0  0  0  0  0  0  0  0  0
   -3.1994   -0.2844   -0.4437 C   0  0  0  0  0  0  0  0  0  0  0  0
   -2.7210   -1.0045    0.7962 C   0  0  0  0  0  0  0  0  0  0  0  0
    7.6859    3.0174    0.3874 H   0  0  0  0  0  0  0  0  0  0  0  0
    7.0587    1.5830   -0.4271 H   0  0  0  0  0  0  0  0  0  0  0  0
    8.1990    1.4225    0.9297 H   0  0  0  0  0  0  0  0  0  0  0  0
    5.4556    2.7384    1.2166 H   0  0  0  0  0  0  0  0  0  0  0  0
    6.5467    2.3356    2.5060 H   0  0  0  0  0  0  0  0  0  0  0  0
    6.9499    0.1177    3.1151 H   0  0  0  0  0  0  0  0  0  0  0  0
    5.5875   -0.9512    2.9812 H   0  0  0  0  0  0  0  0  0  0  0  0
    7.7625   -0.7473    0.8251 H   0  0  0  0  0  0  0  0  0  0  0  0
    7.6756   -1.9532    2.1111 H   0  0  0  0  0  0  0  0  0  0  0  0
    6.4248   -1.9073    0.8706 H   0  0  0  0  0  0  0  0  0  0  0  0
    5.3600   -0.0734   -0.2515 H   0  0  0  0  0  0  0  0  0  0  0  0
    4.1933    1.1754    0.1301 H   0  0  0  0  0  0  0  0  0  0  0  0
    2.8858   -0.3567    1.5666 H   0  0  0  0  0  0  0  0  0  0  0  0
    4.0537   -1.6616    1.2915 H   0  0  0  0  0  0  0  0  0  0  0  0
    2.9225   -2.1769   -0.5621 H   0  0  0  0  0  0  0  0  0  0  0  0
    1.1652   -2.1310   -1.9932 H   0  0  0  0  0  0  0  0  0  0  0  0
    1.5997   -1.1593   -4.2724 H   0  0  0  0  0  0  0  0  0  0  0  0
    2.1941    0.3296   -3.5230 H   0  0  0  0  0  0  0  0  0  0  0  0
    3.0758   -1.1842   -3.2871 H   0  0  0  0  0  0  0  0  0  0  0  0
   -0.1380    0.5351   -2.2464 H   0  0  0  0  0  0  0  0  0  0  0  0
   -2.2349    0.3345   -3.6798 H   0  0  0  0  0  0  0  0  0  0  0  0
   -4.3026    1.6494   -3.6552 H   0  0  0  0  0  0  0  0  0  0  0  0
   -6.3782    2.0530   -2.5965 H   0  0  0  0  0  0  0  0  0  0  0  0
   -6.7120    1.6149   -1.0096 H   0  0  0  0  0  0  0  0  0  0  0  0
   -4.5814    2.5129    1.2292 H   0  0  0  0  0  0  0  0  0  0  0  0
   -5.8696    2.7168    3.3230 H   0  0  0  0  0  0  0  0  0  0  0  0
   -7.2889    0.8352    4.1062 H   0  0  0  0  0  0  0  0  0  0  0  0
   -7.4337   -1.2420    2.7694 H   0  0  0  0  0  0  0  0  0  0  0  0
   -6.5409   -2.5518   -1.1783 H   0  0  0  0  0  0  0  0  0  0  0  0
   -1.6296   -0.9560    0.8880 H   0  0  0  0  0  0  0  0  0  0  0  0
   -3.0347   -2.0531    0.7651 H   0  0  0  0  0  0  0  0  0  0  0  0
   -3.1036   -0.5518    1.7150 H   0  0  0  0  0  0  0  0  0  0  0  0
  1  2  1  0
  2  3  1  0
  3  4  1  0
  4  5  1  0
  3  6  1  0
  6  7  1  0
  7  8  1  0
  8  9  1  0
  9 10  2  0
  9 11  1  0
 11 12  1  0
 11 13  1  0
 13 14  1  0
 14 15  2  0
 14 16  1  0
 16 17  2  0
 17 18  1  0
 18 19  2  0
 19 20  1  0
 19 21  1  0
 21 22  1  0
 22 23  2  0
 23 24  1  0
 24 25  2  0
 25 26  1  0
 26 27  2  0
 27 28  1  0
 28 29  2  0
 28 30  1  0
 21 31  2  0
 31 32  1  0
 31 16  1  0
 27 22  1  0
  1 33  1  0
  1 34  1  0
  1 35  1  0
  2 36  1  0
  2 37  1  0
  4 38  1  0
  4 39  1  0
  5 40  1  0
  5 41  1  0
  5 42  1  0
  6 43  1  0
  6 44  1  0
  7 45  1  0
  7 46  1  0
  8 47  1  0
 11 48  1  1
 12 49  1  0
 12 50  1  0
 12 51  1  0
 13 52  1  0
 17 53  1  0
 18 54  1  0
 20 55  1  0
 20 56  1  0
 23 57  1  0
 24 58  1  0
 25 59  1  0
 26 60  1  0
 30 61  1  0
 32 62  1  0
 32 63  1  0
 32 64  1  0
M  END
$$$$
