
     RDKit          3D

 38 40  0  0  0  0  0  0  0  0999 V2000
   -3.6099    1.5930   -1.3075 C   0  0  0  0  0  0  0  0  0  0  0  0
   -3.9681    0.2067   -0.8449 C   0  0  0  0  0  0  0  0  0  0  0  0
   -4.9043   -0.5439   -1.5764 C   0  0  0  0  0  0  0  0  0  0  0  0
   -5.2464   -1.8356   -1.1724 C   0  0  0  0  0  0  0  0  0  0  0  0
   -6.6335   -2.9280   -2.2703 I   0  0  0  0  0  0  0  0  0  0  0  0
   -4.6644   -2.3981   -0.0398 C   0  0  0  0  0  0  0  0  0  0  0  0
   -3.7317   -1.6627    0.6931 C   0  0  0  0  0  0  0  0  0  0  0  0
   -3.3758   -0.3646    0.2982 C   0  0  0  0  0  0  0  0  0  0  0  0
   -2.3892    0.3706    1.0995 C   0  0  0  0  0  0  0  0  0  0  0  0
   -1.0553    0.2133    1.0529 C   0  0  0  0  0  0  0  0  0  0  0  0
   -0.2171   -0.8807    0.0069 S   0  0  0  0  0  0  0  0  0  0  0  0
    1.3263   -0.1653    0.4706 C   0  0  0  0  0  0  0  0  0  0  0  0
    2.3878   -0.6923   -0.2051 N   0  0  0  0  0  0  0  0  0  0  0  0
    3.7559   -0.3901   -0.1149 C   0  0  0  0  0  0  0  0  0  0  0  0
    4.2901    0.5589    0.7647 C   0  0  0  0  0  0  0  0  0  0  0  0
    5.6650    0.8196    0.8071 C   0  0  0  0  0  0  0  0  0  0  0  0
    6.5344    0.1327   -0.0346 C   0  0  0  0  0  0  0  0  0  0  0  0
    6.0210   -0.8124   -0.9150 C   0  0  0  0  0  0  0  0  0  0  0  0
    7.1899   -1.7537   -2.0658 Br  0  0  0  0  0  0  0  0  0  0  0  0
    4.6490   -1.0734   -0.9580 C   0  0  0  0  0  0  0  0  0  0  0  0
    1.2920    0.7691    1.3588 N   0  0  0  0  0  0  0  0  0  0  0  0
   -0.0620    1.0087    1.8615 C   0  0  0  0  0  0  0  0  0  0  0  0
   -0.2932    2.4383    1.8237 N   0  0  0  0  0  0  0  0  0  0  0  0
   -3.8059    2.3234   -0.5158 H   0  0  0  0  0  0  0  0  0  0  0  0
   -2.5542    1.6374   -1.5940 H   0  0  0  0  0  0  0  0  0  0  0  0
   -4.2022    1.8906   -2.1793 H   0  0  0  0  0  0  0  0  0  0  0  0
   -5.3629   -0.1131   -2.4637 H   0  0  0  0  0  0  0  0  0  0  0  0
   -4.9221   -3.4027    0.2844 H   0  0  0  0  0  0  0  0  0  0  0  0
   -3.2791   -2.1105    1.5753 H   0  0  0  0  0  0  0  0  0  0  0  0
   -2.8148    1.1167    1.7682 H   0  0  0  0  0  0  0  0  0  0  0  0
    2.1445   -1.4129   -0.8717 H   0  0  0  0  0  0  0  0  0  0  0  0
    3.6514    1.1190    1.4417 H   0  0  0  0  0  0  0  0  0  0  0  0
    6.0515    1.5618    1.5015 H   0  0  0  0  0  0  0  0  0  0  0  0
    7.6001    0.3406    0.0041 H   0  0  0  0  0  0  0  0  0  0  0  0
    4.2751   -1.8172   -1.6573 H   0  0  0  0  0  0  0  0  0  0  0  0
   -0.1057    0.6681    2.9033 H   0  0  0  0  0  0  0  0  0  0  0  0
   -0.0957    2.7335    0.8690 H   0  0  0  0  0  0  0  0  0  0  0  0
    0.4592    2.8554    2.3694 H   0  0  0  0  0  0  0  0  0  0  0  0
  1  2  1  0
  2  3  2  0
  3  4  1  0
  4  5  1  0
  4  6  2  0
  6  7  1  0
  7  8  2  0
  8  9  1  0
  9 10  2  0
 10 11  1  0
 11 12  1  0
 12 13  1  0
 13 14  1  0
 14 15  2  0
 15 16  1  0
 16 17  2  0
 17 18  1  0
 18 19  1  0
 18 20  2  0
 12 21  2  0
 21 22  1  0
 22 23  1  0
  8  2  1  0
 22 10  1  0
 20 14  1  0
  1 24  1  0
  1 25  1  0
  1 26  1  0
  3 27  1  0
  6 28  1  0
  7 29  1  0
  9 30  1  0
 13 31  1  0
 15 32  1  0
 16 33  1  0
 17 34  1  0
 20 35  1  0
 22 36  1  0
 23 37  1  0
 23 38  1  0
M  END
$$$$
