REMARK SMILES C[C@H]1CC(N2CC[C@H](Cc3ccc(C(=O)N4CCOCC4)cc3)C2=O)=c2[nH]ccc2=C1N(C)C
REMARK SMILES IDX 5 1 6 2 7 3 8 4 24 5 25 6 4 7 2 8 3 9 31 10 30 11 26 12
REMARK SMILES IDX 29 13 27 14 28 15 1 16 32 18 33 19 34 20 9 21 10 22 11 23
REMARK SMILES IDX 23 24 12 25 22 26 13 27 14 28 16 29 17 30 21 31 18 32 20 33
REMARK SMILES IDX 19 34 15 35
REMARK H PARENT 27 17
ROOT
ATOM      1  N   UNL     1      -2.038   0.181  -0.048  1.00  0.00    -0.314 N 
ATOM      2  C   UNL     1      -1.430   0.718  -1.250  1.00  0.00     0.126 C 
ATOM      3  C   UNL     1       0.028   0.323  -1.152  1.00  0.00     0.036 C 
ATOM      4  C   UNL     1       0.295   0.402   0.342  1.00  0.00     0.085 C 
ATOM      5  C   UNL     1      -1.040  -0.024   0.931  1.00  0.00     0.230 C 
ATOM      6  O   UNL     1      -1.155  -0.404   2.088  1.00  0.00    -0.274 OA
ENDROOT
BRANCH   1   7
ATOM      7  C   UNL     1      -3.428   0.043   0.100  1.00  0.00     0.046 C 
ATOM      8  C   UNL     1      -5.786   0.084  -1.051  1.00  0.00     0.039 C 
ATOM      9  C   UNL     1      -4.319   0.593  -1.009  1.00  0.00     0.066 C 
ATOM     10  C   UNL     1      -6.382  -0.231   0.321  1.00  0.00     0.026 C 
ATOM     11  C   UNL     1      -5.521  -0.519   1.316  1.00  0.00     0.021 A 
ATOM     12  C   UNL     1      -4.053  -0.487   1.168  1.00  0.00     0.067 A 
ATOM     13  C   UNL     1      -5.817  -0.980   2.670  1.00  0.00     0.030 A 
ATOM     14  N   UNL     1      -3.601  -1.027   2.351  1.00  0.00    -0.360 N 
ATOM     15  C   UNL     1      -4.628  -1.244   3.236  1.00  0.00     0.083 A 
ATOM     16  C   UNL     1      -6.623   1.086  -1.863  1.00  0.00     0.015 C 
ATOM     17  H   UNL     1      -2.633  -0.884   2.636  1.00  0.00     0.166 HD
BRANCH  10  18
ATOM     18  N   UNL     1      -7.783  -0.271   0.394  1.00  0.00    -0.380 N 
ATOM     19  C   UNL     1      -8.477  -1.489  -0.031  1.00  0.00     0.143 C 
ATOM     20  C   UNL     1      -8.502   0.494   1.414  1.00  0.00     0.143 C 
ENDBRANCH  10  18
ENDBRANCH   1   7
BRANCH   4  21
ATOM     21  C   UNL     1       1.433  -0.491   0.833  1.00  0.00     0.049 C 
BRANCH  21  22
ATOM     22  C   UNL     1       2.782  -0.067   0.303  1.00  0.00    -0.047 A 
ATOM     23  C   UNL     1       3.479   0.988   0.912  1.00  0.00     0.004 A 
ATOM     24  C   UNL     1       3.339  -0.704  -0.816  1.00  0.00     0.004 A 
ATOM     25  C   UNL     1       4.720   1.392   0.420  1.00  0.00     0.014 A 
ATOM     26  C   UNL     1       4.577  -0.300  -1.316  1.00  0.00     0.014 A 
ATOM     27  C   UNL     1       5.269   0.734  -0.682  1.00  0.00     0.040 A 
BRANCH  27  28
ATOM     28  C   UNL     1       6.574   1.182  -1.202  1.00  0.00     0.254 C 
ATOM     29  N   UNL     1       7.688   0.389  -0.957  1.00  0.00    -0.334 N 
ATOM     30  C   UNL     1       7.696  -0.819  -0.123  1.00  0.00     0.148 C 
ATOM     31  C   UNL     1       9.007   0.871  -1.371  1.00  0.00     0.148 C 
ATOM     32  C   UNL     1       8.979  -1.629  -0.331  1.00  0.00     0.181 C 
ATOM     33  C   UNL     1      10.068   0.517  -0.324  1.00  0.00     0.181 C 
ATOM     34  O   UNL     1      10.175  -0.889  -0.054  1.00  0.00    -0.378 OA
ATOM     35  O   UNL     1       6.608   2.250  -1.810  1.00  0.00    -0.269 OA
ENDBRANCH  27  28
ENDBRANCH  21  22
ENDBRANCH   4  21
TORSDOF 5
