MODEL        7USER    Run = 7USERUSER    Estimated Free Energy of Binding    = -10.33 kcal/mol  [=(1)+(2)+(3)-(4)]USERUSER    (1) Final Intermolecular Energy     = -12.72 kcal/molUSER        vdW + Hbond + desolv Energy     = -12.46 kcal/molUSER        Electrostatic Energy            =  -0.26 kcal/molUSER        Moving Ligand-Fixed Receptor    = -12.72 kcal/molUSER        Moving Ligand-Moving Receptor   =  +0.00 kcal/molUSER    (2) Final Total Internal Energy     =  -2.80 kcal/molUSER    (3) Torsional Free Energy           =  +2.39 kcal/molUSER    (4) Unbound System's Energy         =  -2.80 kcal/molUSERUSERREMARK SMILES Nc1ncnc2c1ncn2[C@H]1CC[C@@H](O)C[C@H]1NCc1ccc(O)c(N2CCNCC2)c1REMARK SMILES IDX 18 1 17 3 11 4 12 5 13 6 16 7 14 8 10 9 2 10 3 11 7 12 4 13REMARK SMILES IDX 6 14 8 15 5 16 9 17 1 18 15 21 19 23 20 24 21 25 32 26 22 27REMARK SMILES IDX 25 28 23 29 26 30 27 31 31 32 28 33 30 34 29 35 24 37REMARK H PARENT 18 2 1 19 1 20 15 22 29 36 24 38USER                              x       y       z     vdW  Elec       q    TypeUSER                           _______ _______ _______ _____ _____    ______ ____ROOTATOM      1  N   UNL     1      37.883  45.165  15.812 -0.14 +0.10    -0.308 NA ATOM      2  H   UNL     1      37.397  44.750  15.008 +0.08 -0.04    +0.123 HD ENDROOTBRANCH   1   3ATOM      3  C   UNL     1      37.232  46.430  16.180 -0.39 -0.04    +0.079 C  ATOM      4  C   UNL     1      38.024  47.643  15.604 -0.44 -0.06    +0.107 C  ATOM      5  C   UNL     1      37.981  47.685  14.065 -0.57 -0.01    +0.030 C  ATOM      6  C   UNL     1      36.536  47.724  13.559 -0.62 -0.02    +0.034 C  ATOM      7  C   UNL     1      35.781  46.503  15.649 -0.36 -0.05    +0.052 C  ATOM      8  C   UNL     1      35.689  46.579  14.120 -0.43 -0.09    +0.116 C  BRANCH   4   9ATOM      9  N   UNL     1      39.349  47.776  16.198 -0.25 +0.11    -0.310 N  ATOM     10  C   UNL     1      41.928  47.199  18.500 -0.41 -0.00    +0.155 A  ATOM     11  N   UNL     1      41.360  46.352  19.386 -0.31 -0.01    -0.217 NA ATOM     12  C   UNL     1      41.159  47.659  17.417 -0.38 -0.02    +0.150 A  ATOM     13  C   UNL     1      40.088  45.960  19.163 -0.26 -0.01    +0.226 A  ATOM     14  C   UNL     1      39.862  47.178  17.319 -0.33 -0.04    +0.165 A  ATOM     15  N   UNL     1      41.443  48.536  16.391 -0.82 +0.00    -0.231 NA ATOM     16  N   UNL     1      39.267  46.311  18.155 -0.29 +0.04    -0.217 NA ATOM     17  C   UNL     1      40.339  48.576  15.678 -0.42 -0.05    +0.202 A  BRANCH  10  18ATOM     18  N   UNL     1      43.242  47.596  18.723 -0.29 -0.04    -0.382 N  ATOM     19  H   UNL     1      43.286  48.516  19.140 -0.53 -0.02    +0.158 HD ATOM     20  H   UNL     1      43.849  47.409  17.932 -0.45 +0.01    +0.158 HD ENDBRANCH  10  18ENDBRANCH   4   9BRANCH   8  21ATOM     21  O   UNL     1      36.120  45.338  13.564 -0.19 +0.18    -0.393 OA ATOM     22  H   UNL     1      37.058  45.223  13.796 +0.16 -0.08    +0.210 HD ENDBRANCH   8  21ENDBRANCH   1   3BRANCH   1  23ATOM     23  C   UNL     1      38.009  44.187  16.888 -0.12 -0.03    +0.117 C  BRANCH  23  24ATOM     24  C   UNL     1      36.770  44.020  17.734 -0.29 +0.01    -0.032 A  ATOM     25  C   UNL     1      36.704  44.582  19.021 -0.34 -0.00    +0.009 A  ATOM     26  C   UNL     1      35.666  43.300  17.241 -0.34 -0.01    +0.035 A  ATOM     27  C   UNL     1      35.568  44.418  19.810 -0.34 -0.01    +0.049 A  ATOM     28  C   UNL     1      34.514  43.132  18.017 -0.29 -0.02    +0.079 A  ATOM     29  C   UNL     1      34.497  43.700  19.302 -0.30 -0.02    +0.138 A  BRANCH  28  30ATOM     30  N   UNL     1      33.373  42.410  17.599 -0.12 +0.12    -0.366 N  ATOM     31  C   UNL     1      33.001  41.293  18.492 -0.34 -0.02    +0.132 C  ATOM     32  C   UNL     1      32.234  43.320  17.299 -0.27 -0.04    +0.132 C  ATOM     33  C   UNL     1      31.901  40.434  17.817 -0.39 -0.02    +0.102 C  ATOM     34  C   UNL     1      30.872  42.584  17.399 -0.26 -0.02    +0.102 C  ATOM     35  N   UNL     1      30.929  41.173  16.975 -0.15 +0.09    -0.313 NA ATOM     36  H   UNL     1      31.304  41.166  16.024 -0.50 -0.08    +0.122 HD ENDBRANCH  28  30BRANCH  29  37ATOM     37  O   UNL     1      33.370  43.546  20.065 -0.65 -0.03    -0.506 OA ATOM     38  H   UNL     1      33.326  44.398  20.549 -0.11 -0.03    +0.293 HD ENDBRANCH  29  37ENDBRANCH  23  24ENDBRANCH   1  23TORSDOF 8TERENDMDL