REMARK SMILES COC1=c2cc[nH]c2=C(N2CC[C@@H](Cc3ccc(C(=O)NCCN(C)C)c(Cl)c3)C2=O)C[C@@H]1C
REMARK SMILES IDX 15 1 16 2 17 3 18 4 27 5 28 6 29 7 14 8 13 9 10 10 11 11
REMARK SMILES IDX 30 12 12 13 31 14 9 15 3 16 4 17 33 18 5 19 8 20 32 21 6 22
REMARK SMILES IDX 7 23 34 24 2 26 1 27 19 28 21 29 20 30 22 32 23 33 24 34
REMARK SMILES IDX 25 35 26 36
REMARK H PARENT 7 25 21 31
ROOT
ATOM      1  C   UNL     1       1.329  -1.336  -0.187  1.00  0.00    -0.046 A 
ATOM      2  C   UNL     1       2.188  -0.508  -0.923  1.00  0.00     0.004 A 
ATOM      3  C   UNL     1       3.497  -0.287  -0.491  1.00  0.00     0.015 A 
ATOM      4  C   UNL     1       3.959  -0.891   0.687  1.00  0.00     0.058 A 
ATOM      5  C   UNL     1       3.111  -1.716   1.432  1.00  0.00     0.054 A 
ATOM      6  Cl  UNL     1       3.620  -2.529   2.867  1.00  0.00    -0.083 Cl
ATOM      7  C   UNL     1       1.801  -1.937   0.990  1.00  0.00     0.025 A 
ENDROOT
BRANCH   1   8
ATOM      8  C   UNL     1      -0.094  -1.551  -0.645  1.00  0.00     0.049 C 
BRANCH   8   9
ATOM      9  C   UNL     1      -1.024  -0.423  -0.204  1.00  0.00     0.085 C 
ATOM     10  N   UNL     1      -3.342  -0.084   0.169  1.00  0.00    -0.314 N 
ATOM     11  C   UNL     1      -2.627   0.349   1.354  1.00  0.00     0.126 C 
ATOM     12  C   UNL     1      -2.420  -0.573  -0.785  1.00  0.00     0.230 C 
ATOM     13  C   UNL     1      -1.300  -0.376   1.289  1.00  0.00     0.036 C 
ATOM     14  O   UNL     1      -2.621  -0.979  -1.921  1.00  0.00    -0.274 OA
BRANCH  10  15
ATOM     15  C   UNL     1      -4.721   0.120   0.000  1.00  0.00     0.046 C 
ATOM     16  C   UNL     1      -7.601   0.628  -0.281  1.00  0.00     0.108 C 
ATOM     17  C   UNL     1      -6.871   0.023  -1.226  1.00  0.00     0.039 A 
ATOM     18  C   UNL     1      -7.001   0.896   1.077  1.00  0.00     0.058 C 
ATOM     19  C   UNL     1      -7.290  -0.431  -2.543  1.00  0.00     0.031 A 
ATOM     20  C   UNL     1      -5.450  -0.312  -1.048  1.00  0.00     0.069 A 
ATOM     21  C   UNL     1      -5.447   0.963   1.055  1.00  0.00     0.067 C 
ATOM     22  C   UNL     1      -6.210  -1.034  -3.070  1.00  0.00     0.083 A 
ATOM     23  N   UNL     1      -5.156  -1.031  -2.184  1.00  0.00    -0.360 N 
ATOM     24  C   UNL     1      -7.482  -0.175   2.066  1.00  0.00     0.016 C 
ATOM     25  H   UNL     1      -4.184  -1.145  -2.470  1.00  0.00     0.166 HD
BRANCH  16  26
ATOM     26  O   UNL     1      -8.944   0.911  -0.438  1.00  0.00    -0.500 OA
ATOM     27  C   UNL     1      -9.127   2.251  -0.891  1.00  0.00     0.278 C 
ENDBRANCH  16  26
ENDBRANCH  10  15
ENDBRANCH   8   9
ENDBRANCH   1   8
BRANCH   4  28
ATOM     28  C   UNL     1       5.342  -0.608   1.120  1.00  0.00     0.252 C 
ATOM     29  N   UNL     1       6.316  -0.973   0.217  1.00  0.00    -0.351 N 
ATOM     30  O   UNL     1       5.556  -0.065   2.195  1.00  0.00    -0.269 OA
ATOM     31  H   UNL     1       6.054  -1.490  -0.612  1.00  0.00     0.163 HD
BRANCH  29  32
ATOM     32  C   UNL     1       7.731  -0.829   0.520  1.00  0.00     0.131 C 
BRANCH  32  33
ATOM     33  C   UNL     1       8.219   0.627   0.386  1.00  0.00     0.105 C 
BRANCH  33  34
ATOM     34  N   UNL     1       9.668   0.791   0.620  1.00  0.00    -0.308 NA
ATOM     35  C   UNL     1      10.468   0.238  -0.473  1.00  0.00     0.105 C 
ATOM     36  C   UNL     1       9.987   2.212   0.795  1.00  0.00     0.105 C 
ENDBRANCH  33  34
ENDBRANCH  32  33
ENDBRANCH  29  32
ENDBRANCH   4  28
TORSDOF 8
