MODEL        1USER    Run = 1USERUSER    Estimated Free Energy of Binding    = -10.65 kcal/mol  [=(1)+(2)+(3)-(4)]USERUSER    (1) Final Intermolecular Energy     = -12.15 kcal/molUSER        vdW + Hbond + desolv Energy     = -12.03 kcal/molUSER        Electrostatic Energy            =  -0.12 kcal/molUSER        Moving Ligand-Fixed Receptor    = -12.15 kcal/molUSER        Moving Ligand-Moving Receptor   =  +0.00 kcal/molUSER    (2) Final Total Internal Energy     =  -1.58 kcal/molUSER    (3) Torsional Free Energy           =  +1.49 kcal/molUSER    (4) Unbound System's Energy         =  -1.58 kcal/molUSERUSERREMARK SMILES C[C@H]1CC(N2CC[C@H](Cc3ccc(C(=O)N4CCOCC4)cc3)C2=O)=c2[nH]ccc2=C1N(C)CREMARK SMILES IDX 5 1 6 2 7 3 8 4 24 5 25 6 4 7 2 8 3 9 31 10 30 11 26 12REMARK SMILES IDX 29 13 27 14 28 15 1 16 32 18 33 19 34 20 9 21 10 22 11 23REMARK SMILES IDX 23 24 12 25 22 26 13 27 14 28 16 29 17 30 21 31 18 32 20 33REMARK SMILES IDX 19 34 15 35REMARK H PARENT 27 17USER                              x       y       z     vdW  Elec       q    TypeUSER                           _______ _______ _______ _____ _____    ______ ____ROOTATOM      1  N   UNL     1      36.121  43.441  19.408 -0.16 +0.04    -0.314 N  ATOM      2  C   UNL     1      35.247  42.292  19.548 -0.39 -0.01    +0.126 C  ATOM      3  C   UNL     1      34.607  42.130  18.186 -0.46 -0.01    +0.036 C  ATOM      4  C   UNL     1      34.463  43.566  17.711 -0.32 -0.03    +0.085 C  ATOM      5  C   UNL     1      35.688  44.230  18.319 -0.23 -0.06    +0.230 C  ATOM      6  O   UNL     1      36.121  45.302  17.918 -0.21 +0.10    -0.274 OA ENDROOTBRANCH   1   7ATOM      7  C   UNL     1      37.136  43.735  20.333 -0.42 -0.00    +0.046 C  ATOM      8  C   UNL     1      38.125  43.331  22.730 -0.36 +0.00    +0.039 C  ATOM      9  C   UNL     1      36.884  43.395  21.798 -0.42 +0.00    +0.066 C  ATOM     10  C   UNL     1      39.245  44.301  22.354 -0.31 +0.00    +0.026 C  ATOM     11  C   UNL     1      39.294  44.720  21.075 -0.33 +0.00    +0.021 A  ATOM     12  C   UNL     1      38.302  44.346  20.049 -0.31 -0.00    +0.067 A  ATOM     13  C   UNL     1      40.319  45.530  20.422 -0.35 +0.00    +0.030 A  ATOM     14  N   UNL     1      38.849  44.832  18.883 -0.16 +0.03    -0.360 N  ATOM     15  C   UNL     1      39.981  45.572  19.123 -0.38 -0.00    +0.083 A  ATOM     16  C   UNL     1      37.647  43.486  24.184 -0.37 +0.00    +0.015 C  ATOM     17  H   UNL     1      38.262  44.953  18.059 +0.10 -0.03    +0.166 HD BRANCH  10  18ATOM     18  N   UNL     1      40.171  44.601  23.365 -0.02 -0.02    -0.380 N  ATOM     19  C   UNL     1      39.963  45.800  24.180 -0.16 +0.01    +0.143 C  ATOM     20  C   UNL     1      40.895  43.534  24.058 -0.16 +0.00    +0.143 C  ENDBRANCH  10  18ENDBRANCH   1   7BRANCH   4  21ATOM     21  C   UNL     1      34.432  43.735  16.193 -0.38 -0.02    +0.049 C  BRANCH  21  22ATOM     22  C   UNL     1      35.486  44.691  15.687 -0.31 +0.02    -0.047 A  ATOM     23  C   UNL     1      35.154  46.028  15.419 -0.32 -0.00    +0.004 A  ATOM     24  C   UNL     1      36.797  44.248  15.456 -0.36 -0.00    +0.004 A  ATOM     25  C   UNL     1      36.120  46.913  14.941 -0.36 -0.01    +0.014 A  ATOM     26  C   UNL     1      37.765  45.127  14.972 -0.34 -0.00    +0.014 A  ATOM     27  C   UNL     1      37.425  46.461  14.735 -0.38 -0.02    +0.040 A  BRANCH  27  28ATOM     28  C   UNL     1      38.432  47.403  14.214 -0.36 -0.09    +0.254 C  ATOM     29  N   UNL     1      39.483  47.769  15.044 -0.24 +0.10    -0.334 N  ATOM     30  C   UNL     1      39.622  47.377  16.452 -0.44 -0.04    +0.148 C  ATOM     31  C   UNL     1      40.431  48.785  14.582 -0.51 -0.04    +0.148 C  ATOM     32  C   UNL     1      41.035  47.661  16.971 -0.42 -0.02    +0.181 C  ATOM     33  C   UNL     1      40.834  49.715  15.732 -0.56 -0.05    +0.181 C  ATOM     34  O   UNL     1      41.423  49.036  16.852 -0.92 -0.01    -0.378 OA ATOM     35  O   UNL     1      38.273  47.830  13.072 -0.74 +0.03    -0.269 OA ENDBRANCH  27  28ENDBRANCH  21  22ENDBRANCH   4  21TORSDOF 5TERENDMDL