REMARK SMILES Nc1ncnc2c1ncn2[C@H]1CC[C@@H](O)C[C@H]1NCc1ccc(C(=O)N2CCNCC2)cc1
REMARK SMILES IDX 18 1 17 3 11 4 12 5 13 6 16 7 14 8 10 9 2 10 3 11 7 12 4 13
REMARK SMILES IDX 6 14 8 15 5 16 9 17 1 18 15 21 19 23 20 24 21 25 33 26 22 27
REMARK SMILES IDX 32 28 23 29 24 30 26 31 27 32 31 33 28 34 30 35 29 36 25 37
REMARK H PARENT 18 2 1 19 1 20 15 22 29 38
ROOT
ATOM      1  N   UNL     1      -1.899  -0.451  -0.535  1.00  0.00    -0.308 NA
ATOM      2  H   UNL     1      -1.707  -1.278  -1.109  1.00  0.00     0.123 HD
ENDROOT
BRANCH   1   3
ATOM      3  C   UNL     1      -1.965  -0.823   0.889  1.00  0.00     0.079 C 
ATOM      4  C   UNL     1      -3.381  -0.615   1.519  1.00  0.00     0.107 C 
ATOM      5  C   UNL     1      -4.325  -1.831   1.366  1.00  0.00     0.030 C 
ATOM      6  C   UNL     1      -3.940  -2.747   0.211  1.00  0.00     0.034 C 
ATOM      7  C   UNL     1      -1.562  -2.300   1.069  1.00  0.00     0.052 C 
ATOM      8  C   UNL     1      -2.501  -3.263   0.332  1.00  0.00     0.116 C 
BRANCH   4   9
ATOM      9  N   UNL     1      -3.961   0.678   1.175  1.00  0.00    -0.310 N 
ATOM     10  C   UNL     1      -5.888   2.951  -0.665  1.00  0.00     0.155 A 
ATOM     11  N   UNL     1      -6.458   2.170  -1.608  1.00  0.00    -0.217 NA
ATOM     12  C   UNL     1      -5.024   2.358   0.271  1.00  0.00     0.150 A 
ATOM     13  C   UNL     1      -6.190   0.847  -1.585  1.00  0.00     0.226 A 
ATOM     14  C   UNL     1      -4.835   0.988   0.168  1.00  0.00     0.165 A 
ATOM     15  N   UNL     1      -4.284   2.886   1.309  1.00  0.00    -0.231 NA
ATOM     16  N   UNL     1      -5.400   0.167  -0.734  1.00  0.00    -0.217 NA
ATOM     17  C   UNL     1      -3.665   1.851   1.831  1.00  0.00     0.202 A 
BRANCH  10  18
ATOM     18  N   UNL     1      -6.171   4.312  -0.683  1.00  0.00    -0.382 N 
ATOM     19  H   UNL     1      -5.474   4.868  -0.201  1.00  0.00     0.158 HD
ATOM     20  H   UNL     1      -6.472   4.620  -1.597  1.00  0.00     0.158 HD
ENDBRANCH  10  18
ENDBRANCH   4   9
BRANCH   8  21
ATOM     21  O   UNL     1      -1.982  -3.491  -0.980  1.00  0.00    -0.393 OA
ATOM     22  H   UNL     1      -2.586  -4.112  -1.425  1.00  0.00     0.210 HD
ENDBRANCH   8  21
ENDBRANCH   1   3
BRANCH   1  23
ATOM     23  C   UNL     1      -0.925   0.592  -0.849  1.00  0.00     0.117 C 
BRANCH  23  24
ATOM     24  C   UNL     1       0.516   0.171  -0.660  1.00  0.00    -0.034 A 
ATOM     25  C   UNL     1       1.058  -0.884  -1.413  1.00  0.00     0.006 A 
ATOM     26  C   UNL     1       1.330   0.831   0.275  1.00  0.00     0.006 A 
ATOM     27  C   UNL     1       2.385  -1.279  -1.230  1.00  0.00     0.014 A 
ATOM     28  C   UNL     1       2.659   0.443   0.457  1.00  0.00     0.014 A 
ATOM     29  C   UNL     1       3.185  -0.601  -0.310  1.00  0.00     0.040 A 
BRANCH  29  30
ATOM     30  C   UNL     1       4.579  -1.043  -0.106  1.00  0.00     0.253 C 
ATOM     31  N   UNL     1       5.612  -0.148  -0.365  1.00  0.00    -0.336 N 
ATOM     32  C   UNL     1       6.978  -0.624  -0.141  1.00  0.00     0.135 C 
ATOM     33  C   UNL     1       5.495   1.058  -1.188  1.00  0.00     0.135 C 
ATOM     34  C   UNL     1       8.051   0.407  -0.536  1.00  0.00     0.102 C 
ATOM     35  C   UNL     1       6.413   2.189  -0.681  1.00  0.00     0.102 C 
ATOM     36  N   UNL     1       7.709   1.773  -0.107  1.00  0.00    -0.313 NA
ATOM     37  O   UNL     1       4.762  -2.188   0.299  1.00  0.00    -0.269 OA
ATOM     38  H   UNL     1       7.605   1.752   0.909  1.00  0.00     0.122 HD
ENDBRANCH  29  30
ENDBRANCH  23  24
ENDBRANCH   1  23
TORSDOF 7
