MODEL        7USER    Run = 7USERUSER    Estimated Free Energy of Binding    = -10.51 kcal/mol  [=(1)+(2)+(3)-(4)]USERUSER    (1) Final Intermolecular Energy     = -12.89 kcal/molUSER        vdW + Hbond + desolv Energy     = -12.65 kcal/molUSER        Electrostatic Energy            =  -0.24 kcal/molUSER        Moving Ligand-Fixed Receptor    = -12.89 kcal/molUSER        Moving Ligand-Moving Receptor   =  +0.00 kcal/molUSER    (2) Final Total Internal Energy     =  -2.47 kcal/molUSER    (3) Torsional Free Energy           =  +2.39 kcal/molUSER    (4) Unbound System's Energy         =  -2.47 kcal/molUSERUSERREMARK SMILES COC1=c2cc[nH]c2=C(N2CC[C@@H](Cc3ccc(C(=O)NCCN(C)C)c(Cl)c3)C2=O)C[C@@H]1CREMARK SMILES IDX 15 1 16 2 17 3 18 4 27 5 28 6 29 7 14 8 13 9 10 10 11 11REMARK SMILES IDX 30 12 12 13 31 14 9 15 3 16 4 17 33 18 5 19 8 20 32 21 6 22REMARK SMILES IDX 7 23 34 24 2 26 1 27 19 28 21 29 20 30 22 32 23 33 24 34REMARK SMILES IDX 25 35 26 36REMARK H PARENT 7 25 21 31USER                              x       y       z     vdW  Elec       q    TypeUSER                           _______ _______ _______ _____ _____    ______ ____ROOTATOM      1  C   UNL     1      37.012  42.973  22.038 -0.40 -0.00    -0.046 A  ATOM      2  C   UNL     1      36.574  41.935  22.871 -0.50 +0.00    +0.004 A  ATOM      3  C   UNL     1      36.556  42.102  24.257 -0.41 +0.00    +0.015 A  ATOM      4  C   UNL     1      36.981  43.312  24.824 -0.33 +0.00    +0.058 A  ATOM      5  C   UNL     1      37.424  44.354  24.004 -0.29 +0.01    +0.054 A  ATOM      6  Cl  UNL     1      37.921  45.887  24.624 -0.29 -0.01    -0.083 Cl ATOM      7  C   UNL     1      37.435  44.181  22.614 -0.34 +0.00    +0.025 A  ENDROOTBRANCH   1   8ATOM      8  C   UNL     1      37.054  42.778  20.541 -0.37 -0.00    +0.049 C  BRANCH   8   9ATOM      9  C   UNL     1      36.882  44.089  19.778 -0.39 -0.01    +0.085 C  ATOM     10  N   UNL     1      38.145  45.465  18.315 -0.19 +0.06    -0.314 N  ATOM     11  C   UNL     1      36.866  45.196  17.688 -0.32 -0.04    +0.126 C  ATOM     12  C   UNL     1      38.206  44.804  19.564 -0.26 -0.01    +0.230 C  ATOM     13  C   UNL     1      36.367  43.933  18.357 -0.36 -0.01    +0.036 C  ATOM     14  O   UNL     1      39.088  44.824  20.410 -0.24 -0.00    -0.274 OA BRANCH  10  15ATOM     15  C   UNL     1      39.074  46.373  17.781 -0.43 -0.01    +0.046 C  ATOM     16  C   UNL     1      40.934  48.327  16.619 -0.53 -0.01    +0.108 C  ATOM     17  C   UNL     1      41.230  47.588  17.696 -0.48 -0.00    +0.039 A  ATOM     18  C   UNL     1      39.686  48.033  15.825 -0.55 -0.02    +0.058 C  ATOM     19  C   UNL     1      42.429  47.626  18.519 -0.47 +0.00    +0.031 A  ATOM     20  C   UNL     1      40.335  46.547  18.222 -0.43 -0.01    +0.069 A  ATOM     21  C   UNL     1      38.596  47.293  16.652 -0.39 -0.03    +0.067 C  ATOM     22  C   UNL     1      42.268  46.643  19.423 -0.42 +0.01    +0.083 A  ATOM     23  N   UNL     1      41.087  45.966  19.218 -0.21 -0.01    -0.360 N  ATOM     24  C   UNL     1      40.058  47.224  14.574 -0.46 -0.00    +0.016 C  ATOM     25  H   UNL     1      40.626  45.414  19.940 +0.10 +0.01    +0.166 HD BRANCH  16  26ATOM     26  O   UNL     1      41.792  49.282  16.107 -0.77 -0.08    -0.500 OA ATOM     27  C   UNL     1      41.059  50.341  15.495 -0.44 -0.09    +0.278 C  ENDBRANCH  16  26ENDBRANCH  10  15ENDBRANCH   8   9ENDBRANCH   1   8BRANCH   4  28ATOM     28  C   UNL     1      36.970  43.435  26.295 -0.24 -0.02    +0.252 C  ATOM     29  N   UNL     1      36.417  44.603  26.773 -0.15 +0.07    -0.351 N  ATOM     30  O   UNL     1      37.406  42.532  26.996 -0.21 +0.04    -0.269 OA ATOM     31  H   UNL     1      36.156  45.330  26.121 -0.41 -0.04    +0.163 HD BRANCH  29  32ATOM     32  C   UNL     1      36.394  44.912  28.194 -0.37 -0.03    +0.131 C  BRANCH  32  33ATOM     33  C   UNL     1      36.186  46.414  28.469 -0.32 -0.03    +0.105 C  BRANCH  33  34ATOM     34  N   UNL     1      36.543  47.281  27.328 -0.19 +0.07    -0.308 NA ATOM     35  C   UNL     1      35.799  48.541  27.340 -0.33 -0.01    +0.105 C  ATOM     36  C   UNL     1      37.983  47.559  27.344 -0.24 -0.01    +0.105 C  ENDBRANCH  33  34ENDBRANCH  32  33ENDBRANCH  29  32ENDBRANCH   4  28TORSDOF 8TERENDMDL