MODEL        8USER    Run = 8USERUSER    Estimated Free Energy of Binding    = -11.25 kcal/mol  [=(1)+(2)+(3)-(4)]USERUSER    (1) Final Intermolecular Energy     = -12.74 kcal/molUSER        vdW + Hbond + desolv Energy     = -12.56 kcal/molUSER        Electrostatic Energy            =  -0.17 kcal/molUSER        Moving Ligand-Fixed Receptor    = -12.74 kcal/molUSER        Moving Ligand-Moving Receptor   =  +0.00 kcal/molUSER    (2) Final Total Internal Energy     =  -1.28 kcal/molUSER    (3) Torsional Free Energy           =  +1.49 kcal/molUSER    (4) Unbound System's Energy         =  -1.28 kcal/molUSERUSERREMARK SMILES COC1=c2cc[nH]c2=C(N2CC[C@H](Cc3ccc(C(=O)N4CCNCC4)cc3)C2=O)C[C@H]1CREMARK SMILES IDX 10 1 11 2 12 3 13 4 29 5 30 6 9 7 3 8 4 9 32 10 5 11 8 12REMARK SMILES IDX 31 13 6 14 7 15 33 16 2 18 1 19 14 20 15 21 16 22 28 23REMARK SMILES IDX 17 24 27 25 18 26 19 27 21 28 22 29 26 30 23 31 25 32 24 33REMARK SMILES IDX 20 34REMARK H PARENT 7 17 24 35USER                              x       y       z     vdW  Elec       q    TypeUSER                           _______ _______ _______ _____ _____    ______ ____ROOTATOM      1  N   UNL     1      39.005  45.404  17.436 -0.18 +0.05    -0.314 N  ATOM      2  C   UNL     1      38.096  44.433  18.016 -0.31 -0.02    +0.126 C  ATOM      3  C   UNL     1      38.550  44.291  19.452 -0.36 -0.00    +0.036 C  ATOM      4  C   UNL     1      40.054  44.460  19.343 -0.38 +0.00    +0.085 C  ATOM      5  C   UNL     1      40.183  45.467  18.213 -0.35 -0.01    +0.230 C  ATOM      6  O   UNL     1      41.197  46.126  18.031 -0.34 +0.01    -0.274 OA ENDROOTBRANCH   1   7ATOM      7  C   UNL     1      38.743  46.048  16.217 -0.42 -0.01    +0.046 C  ATOM      8  C   UNL     1      38.077  47.353  13.650 -0.49 -0.03    +0.108 C  ATOM      9  C   UNL     1      39.060  47.802  14.460 -0.47 -0.01    +0.039 A  ATOM     10  C   UNL     1      37.158  46.260  14.168 -0.45 -0.03    +0.058 C  ATOM     11  C   UNL     1      40.028  48.886  14.307 -0.37 -0.01    +0.031 A  ATOM     12  C   UNL     1      39.288  47.212  15.807 -0.43 -0.02    +0.069 A  ATOM     13  C   UNL     1      37.820  45.346  15.225 -0.37 -0.02    +0.067 C  ATOM     14  C   UNL     1      40.676  48.978  15.480 -0.55 -0.02    +0.083 A  ATOM     15  N   UNL     1      40.195  48.068  16.388 -0.25 +0.09    -0.360 N  ATOM     16  C   UNL     1      35.871  46.890  14.720 -0.40 -0.01    +0.016 C  ATOM     17  H   UNL     1      40.747  47.742  17.183 +0.09 -0.02    +0.166 HD BRANCH   8  18ATOM     18  O   UNL     1      37.715  47.746  12.385 -0.78 +0.01    -0.500 OA ATOM     19  C   UNL     1      36.901  46.924  11.569 -0.44 -0.10    +0.278 C  ENDBRANCH   8  18ENDBRANCH   1   7BRANCH   4  20ATOM     20  C   UNL     1      40.735  44.948  20.619 -0.38 +0.00    +0.049 C  BRANCH  20  21ATOM     21  C   UNL     1      39.828  44.877  21.827 -0.26 -0.00    -0.047 A  ATOM     22  C   UNL     1      39.621  46.011  22.624 -0.28 +0.00    +0.004 A  ATOM     23  C   UNL     1      39.213  43.666  22.180 -0.27 +0.00    +0.004 A  ATOM     24  C   UNL     1      38.813  45.941  23.759 -0.30 +0.00    +0.014 A  ATOM     25  C   UNL     1      38.403  43.591  23.313 -0.29 +0.00    +0.014 A  ATOM     26  C   UNL     1      38.195  44.734  24.089 -0.26 +0.00    +0.040 A  BRANCH  26  27ATOM     27  C   UNL     1      37.363  44.665  25.307 -0.23 +0.01    +0.253 C  ATOM     28  N   UNL     1      37.543  43.590  26.168 -0.08 +0.02    -0.336 N  ATOM     29  C   UNL     1      36.698  43.482  27.359 -0.37 -0.03    +0.135 C  ATOM     30  C   UNL     1      38.348  42.405  25.847 -0.25 -0.00    +0.135 C  ATOM     31  C   UNL     1      36.038  42.094  27.442 -0.51 -0.03    +0.102 C  ATOM     32  C   UNL     1      38.318  41.342  26.960 -0.40 -0.01    +0.102 C  ATOM     33  N   UNL     1      36.968  40.947  27.389 -0.29 +0.08    -0.313 NA ATOM     34  O   UNL     1      36.541  45.561  25.481 -0.70 +0.00    -0.269 OA ATOM     35  H   UNL     1      36.590  40.266  26.729 -0.47 -0.06    +0.122 HD ENDBRANCH  26  27ENDBRANCH  20  21ENDBRANCH   4  20TORSDOF 5TERENDMDL