REMARK SMILES COC1=c2cc[nH]c2=C(N2CC[C@H](Cc3ccc(C(=O)N4CCNCC4)cc3)C2=O)C[C@H]1C
REMARK SMILES IDX 10 1 11 2 12 3 13 4 29 5 30 6 9 7 3 8 4 9 32 10 5 11 8 12
REMARK SMILES IDX 31 13 6 14 7 15 33 16 2 18 1 19 14 20 15 21 16 22 28 23
REMARK SMILES IDX 17 24 27 25 18 26 19 27 21 28 22 29 26 30 23 31 25 32 24 33
REMARK SMILES IDX 20 34
REMARK H PARENT 7 17 24 35
ROOT
ATOM      1  N   UNL     1      -2.765  -0.164  -0.144  1.00  0.00    -0.314 N 
ATOM      2  C   UNL     1      -2.088  -1.395  -0.506  1.00  0.00     0.126 C 
ATOM      3  C   UNL     1      -0.638  -1.157  -0.147  1.00  0.00     0.036 C 
ATOM      4  C   UNL     1      -0.462   0.322  -0.441  1.00  0.00     0.085 C 
ATOM      5  C   UNL     1      -1.823   0.887  -0.073  1.00  0.00     0.230 C 
ATOM      6  O   UNL     1      -2.003   2.074   0.158  1.00  0.00    -0.274 OA
ENDROOT
BRANCH   1   7
ATOM      7  C   UNL     1      -4.161  -0.077  -0.027  1.00  0.00     0.046 C 
ATOM      8  C   UNL     1      -7.104  -0.017   0.241  1.00  0.00     0.108 C 
ATOM      9  C   UNL     1      -6.336   1.081   0.411  1.00  0.00     0.039 A 
ATOM     10  C   UNL     1      -6.415  -1.364   0.100  1.00  0.00     0.058 C 
ATOM     11  C   UNL     1      -6.679   2.478   0.670  1.00  0.00     0.031 A 
ATOM     12  C   UNL     1      -4.850   1.000   0.404  1.00  0.00     0.069 A 
ATOM     13  C   UNL     1      -4.990  -1.270  -0.492  1.00  0.00     0.067 C 
ATOM     14  C   UNL     1      -5.517   3.114   0.891  1.00  0.00     0.083 A 
ATOM     15  N   UNL     1      -4.454   2.249   0.825  1.00  0.00    -0.360 N 
ATOM     16  C   UNL     1      -6.395  -2.075   1.461  1.00  0.00     0.016 C 
ATOM     17  H   UNL     1      -3.503   2.562   0.624  1.00  0.00     0.166 HD
BRANCH   8  18
ATOM     18  O   UNL     1      -8.470  -0.153   0.202  1.00  0.00    -0.500 OA
ATOM     19  C   UNL     1      -9.319   0.977   0.279  1.00  0.00     0.278 C 
ENDBRANCH   8  18
ENDBRANCH   1   7
BRANCH   4  20
ATOM     20  C   UNL     1       0.663   0.997   0.340  1.00  0.00     0.049 C 
BRANCH  20  21
ATOM     21  C   UNL     1       2.026   0.441  -0.004  1.00  0.00    -0.047 A 
ATOM     22  C   UNL     1       2.636   0.767  -1.224  1.00  0.00     0.004 A 
ATOM     23  C   UNL     1       2.678  -0.433   0.879  1.00  0.00     0.004 A 
ATOM     24  C   UNL     1       3.878   0.229  -1.560  1.00  0.00     0.014 A 
ATOM     25  C   UNL     1       3.921  -0.973   0.548  1.00  0.00     0.014 A 
ATOM     26  C   UNL     1       4.522  -0.627  -0.665  1.00  0.00     0.040 A 
BRANCH  26  27
ATOM     27  C   UNL     1       5.824  -1.211  -1.044  1.00  0.00     0.253 C 
ATOM     28  N   UNL     1       6.954  -0.816  -0.339  1.00  0.00    -0.336 N 
ATOM     29  C   UNL     1       8.260  -1.351  -0.728  1.00  0.00     0.135 C 
ATOM     30  C   UNL     1       6.980   0.301   0.613  1.00  0.00     0.135 C 
ATOM     31  C   UNL     1       9.277  -0.217  -0.945  1.00  0.00     0.102 C 
ATOM     32  C   UNL     1       8.381   0.556   1.198  1.00  0.00     0.102 C 
ATOM     33  N   UNL     1       9.442   0.712   0.192  1.00  0.00    -0.313 NA
ATOM     34  O   UNL     1       5.836  -2.006  -1.980  1.00  0.00    -0.269 OA
ATOM     35  H   UNL     1       9.422   1.665  -0.174  1.00  0.00     0.122 HD
ENDBRANCH  26  27
ENDBRANCH  20  21
ENDBRANCH   4  20
TORSDOF 5
