REMARK SMILES COc1ccc(O)c(C(=O)c2ccc(C(=O)N[C@@H]3CCN(CC(=O)N4CCOCC4)C[C@H]3NC(=O)c3cnc(N)nc3)cc2)c1F
REMARK SMILES IDX 15 1 16 2 17 3 14 5 11 6 12 7 44 8 13 9 43 10 9 11 10 12
REMARK SMILES IDX 8 13 3 14 4 15 45 16 5 17 6 18 46 19 2 20 1 21 7 22 18 24
REMARK SMILES IDX 19 25 32 26 20 27 31 28 21 29 33 30 34 31 35 33 36 34 37 35
REMARK SMILES IDX 42 36 38 37 41 38 39 39 40 40 22 43 23 44 25 45 26 46 30 47
REMARK SMILES IDX 27 48 29 49 28 50 24 51
REMARK H PARENT 17 4 7 23 33 32 40 41 40 42
ROOT
ATOM      1  C   UNL     1       1.264   0.384  -1.668  1.00  0.00     0.251 C 
ATOM      2  O   UNL     1       0.958  -0.094  -2.753  1.00  0.00    -0.269 OA
ATOM      3  N   UNL     1       0.355   0.741  -0.692  1.00  0.00    -0.347 N 
ATOM      4  H   UNL     1       0.706   0.812   0.263  1.00  0.00     0.164 HD
ENDROOT
BRANCH   1   5
ATOM      5  C   UNL     1       2.694   0.597  -1.326  1.00  0.00     0.039 A 
ATOM      6  C   UNL     1       5.407   1.012  -0.794  1.00  0.00     0.023 A 
ATOM      7  C   UNL     1       5.003  -0.115  -1.524  1.00  0.00     0.013 A 
ATOM      8  C   UNL     1       4.459   1.939  -0.346  1.00  0.00     0.013 A 
ATOM      9  C   UNL     1       3.647  -0.317  -1.793  1.00  0.00     0.014 A 
ATOM     10  C   UNL     1       3.101   1.729  -0.604  1.00  0.00     0.014 A 
BRANCH   6  11
ATOM     11  C   UNL     1       6.842   1.286  -0.564  1.00  0.00     0.199 C 
ATOM     12  O   UNL     1       7.287   2.400  -0.846  1.00  0.00    -0.288 OA
BRANCH  11  13
ATOM     13  C   UNL     1       7.779   0.254  -0.078  1.00  0.00     0.104 A 
ATOM     14  C   UNL     1       8.273  -1.707   1.280  1.00  0.00     0.155 A 
ATOM     15  C   UNL     1       9.590  -1.701   0.808  1.00  0.00     0.053 A 
ATOM     16  C   UNL     1       7.375  -0.733   0.822  1.00  0.00     0.179 A 
ATOM     17  C   UNL     1      10.009  -0.704  -0.079  1.00  0.00     0.051 A 
ATOM     18  C   UNL     1       9.113   0.277  -0.501  1.00  0.00     0.130 A 
ATOM     19  F   UNL     1       6.119  -0.737   1.298  1.00  0.00    -0.202 F 
BRANCH  14  20
ATOM     20  O   UNL     1       7.758  -2.616   2.168  1.00  0.00    -0.494 OA
ATOM     21  C   UNL     1       8.693  -3.385   2.913  1.00  0.00     0.278 C 
ENDBRANCH  14  20
BRANCH  18  22
ATOM     22  O   UNL     1       9.606   1.238  -1.341  1.00  0.00    -0.507 OA
ATOM     23  H   UNL     1       8.944   1.967  -1.394  1.00  0.00     0.293 HD
ENDBRANCH  18  22
ENDBRANCH  11  13
ENDBRANCH   6  11
ENDBRANCH   1   5
BRANCH   3  24
ATOM     24  C   UNL     1      -1.080   0.518  -0.872  1.00  0.00     0.107 C 
ATOM     25  C   UNL     1      -1.705   1.571  -1.791  1.00  0.00     0.042 C 
ATOM     26  C   UNL     1      -1.825   0.469   0.496  1.00  0.00     0.118 C 
ATOM     27  C   UNL     1      -3.196   1.281  -2.018  1.00  0.00     0.087 C 
ATOM     28  C   UNL     1      -3.225   1.118   0.418  1.00  0.00     0.112 C 
ATOM     29  N   UNL     1      -3.883   0.736  -0.834  1.00  0.00    -0.292 NA
BRANCH  26  30
ATOM     30  N   UNL     1      -1.927  -0.922   0.951  1.00  0.00    -0.346 N 
ATOM     31  C   UNL     1      -0.879  -1.547   1.591  1.00  0.00     0.254 C 
ATOM     32  H   UNL     1      -2.728  -1.436   0.603  1.00  0.00     0.164 HD
ATOM     33  O   UNL     1       0.133  -0.957   1.954  1.00  0.00    -0.269 OA
BRANCH  31  34
ATOM     34  C   UNL     1      -1.025  -2.986   1.861  1.00  0.00     0.076 A 
ATOM     35  C   UNL     1      -0.415  -3.561   2.953  1.00  0.00     0.130 A 
ATOM     36  C   UNL     1      -1.734  -3.857   1.066  1.00  0.00     0.130 A 
ATOM     37  N   UNL     1      -0.522  -4.875   3.263  1.00  0.00    -0.221 NA
ATOM     38  N   UNL     1      -1.877  -5.174   1.340  1.00  0.00    -0.221 NA
ATOM     39  C   UNL     1      -1.273  -5.623   2.446  1.00  0.00     0.219 A 
BRANCH  39  40
ATOM     40  N   UNL     1      -1.395  -6.964   2.737  1.00  0.00    -0.368 N 
ATOM     41  H   UNL     1      -1.633  -7.478   1.900  1.00  0.00     0.159 HD
ATOM     42  H   UNL     1      -0.583  -7.273   3.253  1.00  0.00     0.159 HD
ENDBRANCH  39  40
ENDBRANCH  31  34
ENDBRANCH  26  30
BRANCH  29  43
ATOM     43  C   UNL     1      -5.340   0.997  -0.843  1.00  0.00     0.185 C 
BRANCH  43  44
ATOM     44  C   UNL     1      -5.764   2.473  -0.672  1.00  0.00     0.236 C 
ATOM     45  N   UNL     1      -7.136   2.735  -0.718  1.00  0.00    -0.337 N 
ATOM     46  C   UNL     1      -7.577   4.093  -0.380  1.00  0.00     0.148 C 
ATOM     47  C   UNL     1      -8.165   1.704  -0.541  1.00  0.00     0.148 C 
ATOM     48  C   UNL     1      -8.948   4.415  -0.979  1.00  0.00     0.181 C 
ATOM     49  C   UNL     1      -9.511   2.135  -1.132  1.00  0.00     0.181 C 
ATOM     50  O   UNL     1      -9.915   3.414  -0.628  1.00  0.00    -0.378 OA
ATOM     51  O   UNL     1      -4.948   3.386  -0.520  1.00  0.00    -0.273 OA
ENDBRANCH  43  44
ENDBRANCH  29  43
ENDBRANCH   3  24
TORSDOF 11
