MODEL        2USER    Run = 2USERUSER    Estimated Free Energy of Binding    = -10.31 kcal/mol  [=(1)+(2)+(3)-(4)]USERUSER    (1) Final Intermolecular Energy     = -13.59 kcal/molUSER        vdW + Hbond + desolv Energy     = -13.03 kcal/molUSER        Electrostatic Energy            =  -0.55 kcal/molUSER        Moving Ligand-Fixed Receptor    = -13.59 kcal/molUSER        Moving Ligand-Moving Receptor   =  +0.00 kcal/molUSER    (2) Final Total Internal Energy     =  -3.42 kcal/molUSER    (3) Torsional Free Energy           =  +3.28 kcal/molUSER    (4) Unbound System's Energy         =  -3.42 kcal/molUSERUSERREMARK SMILES COc1ccc(O)c(C(=O)c2ccc(C(=O)N[C@@H]3CCN(CC(=O)N4CCOCC4)C[C@H]3NC(=O)c3cnc(N)nc3)cc2)c1FREMARK SMILES IDX 15 1 16 2 17 3 14 5 11 6 12 7 44 8 13 9 43 10 9 11 10 12REMARK SMILES IDX 8 13 3 14 4 15 45 16 5 17 6 18 46 19 2 20 1 21 7 22 18 24REMARK SMILES IDX 19 25 32 26 20 27 31 28 21 29 33 30 34 31 35 33 36 34 37 35REMARK SMILES IDX 42 36 38 37 41 38 39 39 40 40 22 43 23 44 25 45 26 46 30 47REMARK SMILES IDX 27 48 29 49 28 50 24 51REMARK H PARENT 17 4 7 23 33 32 40 41 40 42USER                              x       y       z     vdW  Elec       q    TypeUSER                           _______ _______ _______ _____ _____    ______ ____ROOTATOM      1  C   UNL     1      40.808  45.296  20.629 -0.26 +0.02    +0.251 C  ATOM      2  O   UNL     1      41.073  46.256  19.917 -0.28 -0.02    -0.269 OA ATOM      3  N   UNL     1      39.586  44.655  20.645 -0.13 -0.01    -0.347 N  ATOM      4  H   UNL     1      39.568  43.701  21.006 +0.10 +0.00    +0.164 HD ENDROOTBRANCH   1   5ATOM      5  C   UNL     1      41.841  44.737  21.538 -0.27 +0.01    +0.039 A  ATOM      6  C   UNL     1      43.819  43.616  23.166 -0.21 +0.00    +0.023 A  ATOM      7  C   UNL     1      42.752  42.825  22.718 -0.30 -0.00    +0.013 A  ATOM      8  C   UNL     1      43.907  44.961  22.787 -0.17 +0.00    +0.013 A  ATOM      9  C   UNL     1      41.768  43.386  21.900 -0.34 +0.00    +0.014 A  ATOM     10  C   UNL     1      42.915  45.525  21.980 -0.24 +0.00    +0.014 A  BRANCH   6  11ATOM     11  C   UNL     1      44.911  43.024  23.968 -0.11 +0.01    +0.199 C  ATOM     12  O   UNL     1      44.623  42.328  24.943 -0.06 +0.01    -0.288 OA BRANCH  11  13ATOM     13  C   UNL     1      46.336  43.295  23.691 -0.08 +0.01    +0.104 A  ATOM     14  C   UNL     1      48.173  43.655  22.132 -0.12 +0.06    +0.155 A  ATOM     15  C   UNL     1      49.051  43.827  23.207 -0.04 +0.01    +0.053 A  ATOM     16  C   UNL     1      46.818  43.401  22.385 -0.16 +0.07    +0.179 A  ATOM     17  C   UNL     1      48.580  43.703  24.519 -0.01 +0.00    +0.051 A  ATOM     18  C   UNL     1      47.236  43.418  24.755 -0.01 +0.01    +0.130 A  ATOM     19  F   UNL     1      45.989  43.217  21.344 -0.06 -0.12    -0.202 F  BRANCH  14  20ATOM     20  O   UNL     1      48.524  43.728  20.808 -0.64 -0.36    -0.494 OA ATOM     21  C   UNL     1      49.588  42.889  20.380 -0.16 -0.06    +0.278 C  ENDBRANCH  14  20BRANCH  18  22ATOM     22  O   UNL     1      46.859  43.278  26.063 +0.01 +0.01    -0.507 OA ATOM     23  H   UNL     1      46.092  42.659  26.095 +0.03 -0.01    +0.293 HD ENDBRANCH  18  22ENDBRANCH  11  13ENDBRANCH   6  11ENDBRANCH   1   5BRANCH   3  24ATOM     24  C   UNL     1      38.504  45.059  19.746 -0.34 -0.00    +0.107 C  ATOM     25  C   UNL     1      37.214  44.285  20.030 -0.41 -0.00    +0.042 C  ATOM     26  C   UNL     1      38.918  44.909  18.251 -0.37 -0.01    +0.118 C  ATOM     27  C   UNL     1      36.075  44.770  19.121 -0.31 -0.02    +0.087 C  ATOM     28  C   UNL     1      37.741  44.440  17.367 -0.31 -0.03    +0.112 C  ATOM     29  N   UNL     1      36.513  45.134  17.762 -0.15 +0.10    -0.292 NA BRANCH  26  30ATOM     30  N   UNL     1      39.456  46.182  17.760 -0.21 +0.06    -0.346 N  ATOM     31  C   UNL     1      39.630  46.416  16.413 -0.33 -0.05    +0.254 C  ATOM     32  H   UNL     1      39.857  46.787  18.467 +0.08 -0.02    +0.164 HD ATOM     33  O   UNL     1      39.218  45.658  15.542 -0.21 +0.05    -0.269 OA BRANCH  31  34ATOM     34  C   UNL     1      40.324  47.657  16.036 -0.47 -0.01    +0.076 A  ATOM     35  C   UNL     1      40.289  48.115  14.738 -0.41 -0.03    +0.130 A  ATOM     36  C   UNL     1      41.062  48.429  16.904 -0.40 -0.01    +0.130 A  ATOM     37  N   UNL     1      40.895  49.255  14.331 -0.43 +0.06    -0.221 NA ATOM     38  N   UNL     1      41.676  49.580  16.546 -0.93 -0.03    -0.221 NA ATOM     39  C   UNL     1      41.549  49.952  15.268 -0.44 -0.03    +0.219 A  BRANCH  39  40ATOM     40  N   UNL     1      42.177  51.115  14.879 -0.27 +0.07    -0.368 N  ATOM     41  H   UNL     1      41.911  51.351  13.933 +0.12 -0.05    +0.159 HD ATOM     42  H   UNL     1      42.043  51.824  15.586 -0.25 -0.07    +0.159 HD ENDBRANCH  39  40ENDBRANCH  31  34ENDBRANCH  26  30BRANCH  29  43ATOM     43  C   UNL     1      35.427  45.035  16.761 -0.25 -0.10    +0.185 C  BRANCH  43  44ATOM     44  C   UNL     1      35.851  44.590  15.344 -0.25 -0.11    +0.236 C  ATOM     45  N   UNL     1      36.257  45.602  14.470 -0.15 +0.18    -0.337 N  ATOM     46  C   UNL     1      36.834  45.194  13.184 -0.44 -0.05    +0.148 C  ATOM     47  C   UNL     1      36.653  46.944  14.912 -0.36 -0.10    +0.148 C  ATOM     48  C   UNL     1      36.722  46.299  12.131 -0.57 -0.07    +0.181 C  ATOM     49  C   UNL     1      36.550  47.970  13.779 -0.44 -0.11    +0.181 C  ATOM     50  O   UNL     1      37.266  47.535  12.616 -0.89 +0.10    -0.378 OA ATOM     51  O   UNL     1      35.822  43.411  14.980 -0.15 +0.10    -0.273 OA ENDBRANCH  43  44ENDBRANCH  29  43ENDBRANCH   3  24TORSDOF 11TERENDMDL