REMARK SMILES O=S(=O)(Nc1ccc(F)cc1)c1ccc(-c2ccncc2)cc1
REMARK SMILES IDX 1 1 2 2 3 3 4 4 5 6 6 7 11 8 7 9 10 10 8 11 9 12 12 13 13 14
REMARK SMILES IDX 23 15 14 16 22 17 15 18 16 19 17 20 21 21 18 22 20 23 19 24
REMARK H PARENT 4 5
ROOT
ATOM      1  O   UNL     1       1.465   3.430  -2.117  1.00  0.00    -0.201 OA
ATOM      2  S   UNL     1       1.835   2.635  -0.965  1.00  0.00     0.261 S 
ATOM      3  O   UNL     1       2.414   3.244   0.213  1.00  0.00    -0.201 OA
ENDROOT
BRANCH   2   4
ATOM      4  N   UNL     1       2.867   1.428  -1.542  1.00  0.00    -0.280 N 
ATOM      5  H   UNL     1       2.736   1.258  -2.538  1.00  0.00     0.180 HD
BRANCH   4   6
ATOM      6  C   UNL     1       3.196   0.326  -0.708  1.00  0.00     0.049 A 
ATOM      7  C   UNL     1       2.771  -0.953  -1.079  1.00  0.00     0.030 A 
ATOM      8  C   UNL     1       3.910   0.512   0.477  1.00  0.00     0.030 A 
ATOM      9  C   UNL     1       3.057  -2.045  -0.258  1.00  0.00     0.041 A 
ATOM     10  C   UNL     1       4.196  -0.582   1.297  1.00  0.00     0.041 A 
ATOM     11  C   UNL     1       3.766  -1.849   0.922  1.00  0.00     0.123 A 
ATOM     12  F   UNL     1       4.038  -2.898   1.709  1.00  0.00    -0.207 F 
ENDBRANCH   4   6
ENDBRANCH   2   4
BRANCH   2  13
ATOM     13  C   UNL     1       0.394   1.720  -0.463  1.00  0.00     0.087 A 
ATOM     14  C   UNL     1       0.235   1.351   0.873  1.00  0.00     0.023 A 
ATOM     15  C   UNL     1      -0.589   1.413  -1.406  1.00  0.00     0.023 A 
ATOM     16  C   UNL     1      -0.905   0.640   1.260  1.00  0.00     0.010 A 
ATOM     17  C   UNL     1      -1.726   0.703  -1.009  1.00  0.00     0.010 A 
ATOM     18  C   UNL     1      -1.902   0.302   0.328  1.00  0.00    -0.018 A 
BRANCH  18  19
ATOM     19  C   UNL     1      -3.102  -0.443   0.742  1.00  0.00    -0.015 A 
ATOM     20  C   UNL     1      -3.906   0.006   1.796  1.00  0.00     0.029 A 
ATOM     21  C   UNL     1      -3.480  -1.625   0.094  1.00  0.00     0.029 A 
ATOM     22  C   UNL     1      -5.027  -0.728   2.148  1.00  0.00     0.111 A 
ATOM     23  C   UNL     1      -4.617  -2.293   0.521  1.00  0.00     0.111 A 
ATOM     24  N   UNL     1      -5.400  -1.869   1.534  1.00  0.00    -0.265 NA
ENDBRANCH  18  19
ENDBRANCH   2  13
TORSDOF 4
