MODEL        6USER    Run = 6USERUSER    Estimated Free Energy of Binding    =  -8.13 kcal/mol  [=(1)+(2)+(3)-(4)]USERUSER    (1) Final Intermolecular Energy     =  -8.73 kcal/molUSER        vdW + Hbond + desolv Energy     =  -8.61 kcal/molUSER        Electrostatic Energy            =  -0.12 kcal/molUSER        Moving Ligand-Fixed Receptor    =  -8.73 kcal/molUSER        Moving Ligand-Moving Receptor   =  +0.00 kcal/molUSER    (2) Final Total Internal Energy     =  -0.65 kcal/molUSER    (3) Torsional Free Energy           =  +0.60 kcal/molUSER    (4) Unbound System's Energy         =  -0.65 kcal/molUSERUSERREMARK SMILES Clc1ccc(-c2scnc2-c2ccncc2)cc1REMARK SMILES IDX 1 1 2 2 3 3 4 4 5 5 17 6 18 7 6 8 7 9 10 10 8 11 9 12 11 13REMARK SMILES IDX 12 14 16 15 13 16 15 17 14 18REMARK H PARENTUSER                              x       y       z     vdW  Elec       q    TypeUSER                           _______ _______ _______ _____ _____    ______ ____ROOTATOM      1  Cl  UNL     1      35.775  44.013  19.854 -0.57 +0.01    -0.084 Cl ATOM      2  C   UNL     1      36.130  44.760  18.347 -0.32 -0.01    +0.041 A  ATOM      3  C   UNL     1      35.442  45.910  17.964 -0.36 -0.01    +0.021 A  ATOM      4  C   UNL     1      35.731  46.515  16.738 -0.34 -0.01    +0.011 A  ATOM      5  C   UNL     1      36.708  45.975  15.887 -0.36 +0.00    -0.006 A  ATOM      6  C   UNL     1      37.391  44.817  16.288 -0.34 -0.00    +0.011 A  ATOM      7  C   UNL     1      37.103  44.212  17.514 -0.30 -0.01    +0.021 A  ENDROOTBRANCH   5   8ATOM      8  C   UNL     1      36.991  46.609  14.597 -0.37 -0.03    +0.062 A  ATOM      9  S   UNL     1      35.884  46.382  13.291 -0.65 +0.07    -0.121 S  ATOM     10  C   UNL     1      38.065  47.375  14.153 -0.43 -0.03    +0.089 A  ATOM     11  C   UNL     1      36.920  47.273  12.266 -0.51 -0.06    +0.177 A  ATOM     12  N   UNL     1      38.024  47.728  12.810 -0.78 +0.02    -0.244 NA BRANCH  10  13ATOM     13  C   UNL     1      39.203  47.788  14.966 -0.52 -0.00    +0.005 A  ATOM     14  C   UNL     1      39.978  48.873  14.550 -0.47 -0.01    +0.030 A  ATOM     15  C   UNL     1      39.527  47.155  16.167 -0.46 -0.01    +0.030 A  ATOM     16  C   UNL     1      41.054  49.256  15.332 -0.56 -0.02    +0.111 A  ATOM     17  C   UNL     1      40.624  47.611  16.877 -0.45 -0.02    +0.111 A  ATOM     18  N   UNL     1      41.400  48.642  16.483 -0.84 +0.00    -0.265 NA ENDBRANCH  10  13ENDBRANCH   5   8TORSDOF 2TERENDMDL