REMARK SMILES COc1ccc(F)c(C(=O)c2ccc(C(=O)O[C@@H]3CCCNC[C@H]3NC(=O)c3ccncc3)cc2)c1
REMARK SMILES IDX 17 1 15 2 16 3 14 4 11 5 12 6 35 7 13 8 34 9 9 10 10 11 8 12
REMARK SMILES IDX 3 13 4 14 36 15 5 16 6 17 7 18 2 19 1 20 18 21 24 23 23 24
REMARK SMILES IDX 22 25 21 27 20 28 19 29 25 31 26 32 27 34 28 35 29 36 33 37
REMARK SMILES IDX 30 38 32 39 31 40
REMARK H PARENT 22 26 25 33
REMARK Flexibility Score:   99.900
ROOT
ATOM      1  O   UNL     1      -0.980   0.461   0.564  1.00  0.00    -0.457 OA
ENDROOT
BRANCH   1   2
ATOM      2  C   UNL     1      -0.453   1.688   0.345  1.00  0.00     0.338 C 
ATOM      3  O   UNL     1      -1.072   2.732   0.241  1.00  0.00    -0.246 OA
BRANCH   2   4
ATOM      4  C   UNL     1       1.028   1.596   0.252  1.00  0.00     0.060 A 
ATOM      5  C   UNL     1       3.829   1.515   0.079  1.00  0.00     0.023 A 
ATOM      6  C   UNL     1       3.170   2.730   0.303  1.00  0.00     0.013 A 
ATOM      7  C   UNL     1       3.080   0.343  -0.090  1.00  0.00     0.013 A 
ATOM      8  C   UNL     1       1.776   2.770   0.391  1.00  0.00     0.016 A 
ATOM      9  C   UNL     1       1.685   0.382   0.005  1.00  0.00     0.016 A 
BRANCH   5  10
ATOM     10  C   UNL     1       5.310   1.530  -0.037  1.00  0.00     0.196 C 
ATOM     11  O   UNL     1       5.870   2.545  -0.453  1.00  0.00    -0.288 OA
BRANCH  10  12
ATOM     12  C   UNL     1       6.145   0.357   0.299  1.00  0.00     0.062 A 
ATOM     13  C   UNL     1       8.069  -1.021  -0.233  1.00  0.00     0.119 A 
ATOM     14  C   UNL     1       7.794  -1.810   0.891  1.00  0.00     0.049 A 
ATOM     15  C   UNL     1       7.245   0.068  -0.524  1.00  0.00     0.061 A 
ATOM     16  C   UNL     1       6.713  -1.513   1.723  1.00  0.00     0.044 A 
ATOM     17  C   UNL     1       5.898  -0.426   1.427  1.00  0.00     0.134 A 
ATOM     18  F   UNL     1       4.884  -0.143   2.257  1.00  0.00    -0.206 F 
BRANCH  13  19
ATOM     19  O   UNL     1       9.161  -1.417  -0.953  1.00  0.00    -0.497 OA
ATOM     20  C   UNL     1       9.492  -0.643  -2.100  1.00  0.00     0.278 C 
ENDBRANCH  13  19
ENDBRANCH  10  12
ENDBRANCH   5  10
ENDBRANCH   2   4
ENDBRANCH   1   2
BRANCH   1  21
ATOM     21  C   UNL     1      -2.417   0.386   0.699  1.00  0.00     0.200 CG0
ATOM     22  G   UNL     1      -2.736  -0.938   1.407  1.00  0.00     0.000 G0
BRANCH  21  23
ATOM     23  C   UNL     1      -3.148   0.548  -0.661  1.00  0.00     0.137 C 
BRANCH  23  24
ATOM     24  C   UNL     1      -2.454  -0.196  -1.829  1.00  0.00     0.109 C 
BRANCH  24  25
ATOM     25  N   UNL     1      -2.024  -1.588  -1.679  1.00  0.00    -0.315 NA
ATOM     26  H   UNL     1      -2.027  -2.036  -2.595  1.00  0.00     0.122 HD
BRANCH  25  27
ATOM     27  C   UNL     1      -2.746  -2.408  -0.721  1.00  0.00     0.081 C 
BRANCH  27  28
ATOM     28  C   UNL     1      -2.249  -2.206   0.710  1.00  0.00     0.019 C 
BRANCH  28  29
ATOM     29  C   UNL     1      -2.736  -0.938   1.407  1.00  0.00     0.049 CG0
ATOM     30  G   UNL     1      -2.417   0.386   0.699  1.00  0.00     0.000 G0
ENDBRANCH  28  29
ENDBRANCH  27  28
ENDBRANCH  25  27
ENDBRANCH  24  25
ENDBRANCH  23  24
BRANCH  23  31
ATOM     31  N   UNL     1      -4.584   0.219  -0.610  1.00  0.00    -0.344 N 
ATOM     32  C   UNL     1      -5.472   0.947   0.153  1.00  0.00     0.251 C 
ATOM     33  H   UNL     1      -4.954  -0.327  -1.379  1.00  0.00     0.164 HD
ATOM     34  O   UNL     1      -5.139   1.849   0.910  1.00  0.00    -0.269 OA
BRANCH  32  35
ATOM     35  C   UNL     1      -6.910   0.605   0.002  1.00  0.00     0.042 A 
ATOM     36  C   UNL     1      -7.333  -0.676  -0.347  1.00  0.00     0.034 A 
ATOM     37  C   UNL     1      -7.855   1.599   0.256  1.00  0.00     0.034 A 
ATOM     38  C   UNL     1      -8.695  -0.900  -0.451  1.00  0.00     0.112 A 
ATOM     39  C   UNL     1      -9.191   1.275   0.120  1.00  0.00     0.112 A 
ATOM     40  N   UNL     1      -9.630   0.048  -0.236  1.00  0.00    -0.265 NA
ENDBRANCH  32  35
ENDBRANCH  23  31
ENDBRANCH  21  23
ENDBRANCH   1  21
TORSDOF 8
