REMARK SMILES COc1ccc(-c2nc(C(=O)Nc3ccc(F)cc3)cs2)cc1
REMARK SMILES IDX 7 1 8 2 9 3 20 4 21 5 6 6 3 7 4 8 23 9 5 10 22 11 2 12 1 13
REMARK SMILES IDX 10 14 12 15 11 16 13 18 14 19 19 20 15 21 18 22 16 23 17 24
REMARK H PARENT 12 17
ROOT
ATOM      1  C   UNL     1      -1.109   1.284  -1.385  1.00  0.00     0.124 A 
ATOM      2  N   UNL     1       0.052   0.775  -1.009  1.00  0.00    -0.231 NA
ATOM      3  C   UNL     1       1.074   1.188  -1.871  1.00  0.00     0.140 A 
ATOM      4  C   UNL     1       0.657   2.003  -2.903  1.00  0.00     0.101 A 
ATOM      5  S   UNL     1      -1.028   2.267  -2.802  1.00  0.00    -0.122 S 
ENDROOT
BRANCH   1   6
ATOM      6  C   UNL     1      -2.384   1.026  -0.685  1.00  0.00     0.011 A 
ATOM      7  C   UNL     1      -4.775   0.443   0.724  1.00  0.00     0.118 A 
ATOM      8  C   UNL     1      -4.721   1.502  -0.182  1.00  0.00     0.047 A 
ATOM      9  C   UNL     1      -3.633  -0.327   0.931  1.00  0.00     0.047 A 
ATOM     10  C   UNL     1      -3.541   1.794  -0.878  1.00  0.00     0.015 A 
ATOM     11  C   UNL     1      -2.453  -0.035   0.235  1.00  0.00     0.015 A 
BRANCH   7  12
ATOM     12  O   UNL     1      -5.986   0.270   1.332  1.00  0.00    -0.497 OA
ATOM     13  C   UNL     1      -6.093  -0.801   2.262  1.00  0.00     0.278 C 
ENDBRANCH   7  12
ENDBRANCH   1   6
BRANCH   3  14
ATOM     14  C   UNL     1       2.465   0.763  -1.661  1.00  0.00     0.275 C 
ATOM     15  N   UNL     1       2.578  -0.033  -0.538  1.00  0.00    -0.321 N 
ATOM     16  O   UNL     1       3.366   1.106  -2.416  1.00  0.00    -0.267 OA
ATOM     17  H   UNL     1       1.696  -0.184  -0.055  1.00  0.00     0.170 HD
BRANCH  15  18
ATOM     18  C   UNL     1       3.730  -0.633  -0.004  1.00  0.00     0.041 A 
ATOM     19  C   UNL     1       3.570  -1.396   1.162  1.00  0.00     0.029 A 
ATOM     20  C   UNL     1       5.004  -0.510  -0.567  1.00  0.00     0.029 A 
ATOM     21  C   UNL     1       4.667  -2.025   1.755  1.00  0.00     0.041 A 
ATOM     22  C   UNL     1       6.102  -1.140   0.028  1.00  0.00     0.041 A 
ATOM     23  C   UNL     1       5.924  -1.891   1.182  1.00  0.00     0.123 A 
ATOM     24  F   UNL     1       6.976  -2.494   1.749  1.00  0.00    -0.207 F 
ENDBRANCH  15  18
ENDBRANCH   3  14
TORSDOF 4
