MODEL        9USER    Run = 9USERUSER    Estimated Free Energy of Binding    =  -7.49 kcal/mol  [=(1)+(2)+(3)-(4)]USERUSER    (1) Final Intermolecular Energy     = -10.77 kcal/molUSER        vdW + Hbond + desolv Energy     = -10.89 kcal/molUSER        Electrostatic Energy            =  +0.11 kcal/molUSER        Moving Ligand-Fixed Receptor    = -10.77 kcal/molUSER        Moving Ligand-Moving Receptor   =  +0.00 kcal/molUSER    (2) Final Total Internal Energy     =  -2.91 kcal/molUSER    (3) Torsional Free Energy           =  +3.28 kcal/molUSER    (4) Unbound System's Energy         =  -2.91 kcal/molUSERUSERREMARK SMILES CCN(C[C@H]1CCCN1C(=O)[C@@H](O)CC(C)C)C(=O)c1cc(-c2ccc(F)cc2)n[nH]1REMARK SMILES IDX 5 1 6 2 7 3 8 4 9 5 4 6 3 7 2 8 1 9 18 10 19 11 20 12 21 13REMARK SMILES IDX 31 14 22 15 30 16 23 18 24 19 29 20 25 21 28 22 26 23 27 24REMARK SMILES IDX 10 25 11 26 12 27 13 28 14 30 15 31 16 32 17 33REMARK H PARENT 31 17 13 29USER                              x       y       z     vdW  Elec       q    TypeUSER                           _______ _______ _______ _____ _____    ______ ____ROOTATOM      1  C   UNL     1      38.587  46.089  16.754 -0.39 -0.03    +0.104 C  ATOM      2  C   UNL     1      39.891  45.660  17.451 -0.44 -0.00    +0.029 C  ATOM      3  C   UNL     1      40.767  46.896  17.360 -0.55 -0.00    +0.024 C  ATOM      4  C   UNL     1      40.447  47.402  15.964 -0.48 -0.02    +0.120 C  ATOM      5  N   UNL     1      39.022  47.138  15.802 -0.19 +0.11    -0.336 N  ENDROOTBRANCH   1   6ATOM      6  C   UNL     1      37.875  44.874  16.113 -0.24 -0.04    +0.145 C  BRANCH   6   7ATOM      7  N   UNL     1      36.665  44.423  16.817 -0.11 +0.11    -0.336 N  BRANCH   7   8ATOM      8  C   UNL     1      35.940  43.278  16.253 -0.41 -0.04    +0.116 C  ATOM      9  C   UNL     1      35.141  42.524  17.310 -0.47 -0.01    +0.027 C  ENDBRANCH   7   8BRANCH   7  10ATOM     10  C   UNL     1      36.333  45.085  18.004 -0.21 -0.09    +0.271 C  ATOM     11  O   UNL     1      35.633  46.092  17.987 -0.29 +0.15    -0.267 OA BRANCH  10  12ATOM     12  C   UNL     1      36.855  44.569  19.240 -0.25 -0.02    +0.123 A  ATOM     13  C   UNL     1      36.212  44.345  20.439 -0.30 -0.00    +0.064 A  ATOM     14  N   UNL     1      38.112  44.081  19.428 -0.17 +0.02    -0.272 N  ATOM     15  C   UNL     1      37.191  43.812  21.323 -0.34 +0.00    +0.093 A  ATOM     16  N   UNL     1      38.365  43.689  20.685 -0.18 -0.00    -0.175 NA ATOM     17  H   UNL     1      38.855  43.996  18.744 +0.12 -0.01    +0.190 HD BRANCH  15  18ATOM     18  C   UNL     1      37.036  43.437  22.734 -0.37 +0.00    +0.002 A  ATOM     19  C   UNL     1      37.263  44.365  23.765 -0.31 +0.00    +0.013 A  ATOM     20  C   UNL     1      36.654  42.128  23.082 -0.47 +0.00    +0.013 A  ATOM     21  C   UNL     1      37.116  43.990  25.104 -0.31 +0.00    +0.040 A  ATOM     22  C   UNL     1      36.512  41.753  24.421 -0.34 -0.00    +0.040 A  ATOM     23  C   UNL     1      36.744  42.688  25.418 -0.31 -0.01    +0.123 A  ATOM     24  F   UNL     1      36.608  42.335  26.703 -0.08 +0.04    -0.207 F  ENDBRANCH  15  18ENDBRANCH  10  12ENDBRANCH   7  10ENDBRANCH   6   7ENDBRANCH   1   6BRANCH   5  25ATOM     25  C   UNL     1      38.226  48.139  15.266 -0.38 -0.14    +0.251 C  ATOM     26  O   UNL     1      38.185  49.273  15.755 -0.25 +0.22    -0.272 OA BRANCH  25  27ATOM     27  C   UNL     1      37.350  47.845  14.031 -0.44 -0.10    +0.203 C  BRANCH  27  28ATOM     28  O   UNL     1      37.133  49.024  13.259 -0.38 +0.14    -0.383 OA ATOM     29  H   UNL     1      37.524  49.759  13.776 -0.37 -0.15    +0.211 HD ENDBRANCH  27  28BRANCH  27  30ATOM     30  C   UNL     1      37.970  46.752  13.144 -0.44 -0.01    +0.045 C  BRANCH  30  31ATOM     31  C   UNL     1      37.003  45.839  12.354 -0.62 +0.00    -0.014 C  ATOM     32  C   UNL     1      36.556  44.684  13.259 -0.33 -0.00    +0.007 C  ATOM     33  C   UNL     1      35.768  46.564  11.821 -0.59 -0.00    +0.007 C  ENDBRANCH  30  31ENDBRANCH  27  30ENDBRANCH  25  27ENDBRANCH   5  25TORSDOF 11TERENDMDL