MODEL        2USER    Run = 2USERUSER    Estimated Free Energy of Binding    =  -9.81 kcal/mol  [=(1)+(2)+(3)-(4)]USERUSER    (1) Final Intermolecular Energy     = -11.30 kcal/molUSER        vdW + Hbond + desolv Energy     = -11.18 kcal/molUSER        Electrostatic Energy            =  -0.11 kcal/molUSER        Moving Ligand-Fixed Receptor    = -11.30 kcal/molUSER        Moving Ligand-Moving Receptor   =  +0.00 kcal/molUSER    (2) Final Total Internal Energy     =  -1.11 kcal/molUSER    (3) Torsional Free Energy           =  +1.49 kcal/molUSER    (4) Unbound System's Energy         =  -1.11 kcal/molUSERUSERREMARK SMILES COc1ccc(C(=O)N2CCN(Cc3ncsc3-c3ccc(F)cc3)CC2)cc1REMARK SMILES IDX 7 1 8 2 9 3 10 4 11 5 12 6 26 7 27 8 6 9 3 10 4 11 29 12REMARK SMILES IDX 5 13 28 14 2 15 1 16 13 17 14 18 15 19 18 20 16 21 17 22REMARK SMILES IDX 19 23 20 24 25 25 21 26 24 27 22 28 23 29REMARK H PARENTUSER                              x       y       z     vdW  Elec       q    TypeUSER                           _______ _______ _______ _____ _____    ______ ____ROOTATOM      1  C   UNL     1      40.758  48.023  16.794 -0.40 -0.04    +0.253 C  ATOM      2  O   UNL     1      41.523  48.984  16.780 -1.00 -0.02    -0.269 OA ATOM      3  N   UNL     1      40.813  47.003  17.747 -0.28 +0.04    -0.336 N  ATOM      4  C   UNL     1      40.411  45.626  17.438 -0.35 -0.01    +0.135 C  ATOM      5  C   UNL     1      40.164  44.793  18.709 -0.42 -0.00    +0.106 C  ATOM      6  N   UNL     1      41.316  44.823  19.632 -0.20 -0.03    -0.294 NA ATOM      7  C   UNL     1      41.614  46.232  19.985 -0.40 +0.01    +0.106 C  ATOM      8  C   UNL     1      41.881  47.101  18.743 -0.50 +0.00    +0.135 C  ENDROOTBRANCH   1   9ATOM      9  C   UNL     1      39.706  47.967  15.754 -0.50 -0.01    +0.040 A  ATOM     10  C   UNL     1      37.769  47.877  13.738 -0.43 -0.04    +0.118 A  ATOM     11  C   UNL     1      37.721  48.880  14.710 -0.44 -0.03    +0.047 A  ATOM     12  C   UNL     1      38.799  46.932  13.775 -0.29 -0.01    +0.047 A  ATOM     13  C   UNL     1      38.693  48.931  15.715 -0.36 -0.01    +0.017 A  ATOM     14  C   UNL     1      39.775  46.978  14.772 -0.45 -0.00    +0.017 A  BRANCH  10  15ATOM     15  O   UNL     1      36.884  47.714  12.709 -0.76 +0.17    -0.497 OA ATOM     16  C   UNL     1      36.567  46.379  12.335 -0.48 -0.11    +0.278 C  ENDBRANCH  10  15ENDBRANCH   1   9BRANCH   6  17ATOM     17  C   UNL     1      41.015  44.021  20.834 -0.28 +0.01    +0.142 C  BRANCH  17  18ATOM     18  C   UNL     1      40.235  44.824  21.840 -0.23 +0.00    +0.073 A  ATOM     19  N   UNL     1      40.932  45.724  22.644 -0.11 -0.02    -0.248 NA ATOM     20  C   UNL     1      38.861  44.798  22.051 -0.29 +0.00    +0.059 A  ATOM     21  C   UNL     1      40.095  46.337  23.449 -0.17 +0.01    +0.176 A  ATOM     22  S   UNL     1      38.447  45.909  23.296 -0.37 -0.02    -0.122 S  BRANCH  20  23ATOM     23  C   UNL     1      37.817  43.998  21.412 -0.37 -0.00    -0.006 A  ATOM     24  C   UNL     1      37.284  44.391  20.175 -0.36 -0.00    +0.012 A  ATOM     25  C   UNL     1      37.327  42.836  22.028 -0.42 +0.00    +0.012 A  ATOM     26  C   UNL     1      36.279  43.638  19.565 -0.36 -0.00    +0.040 A  ATOM     27  C   UNL     1      36.322  42.083  21.416 -0.49 +0.00    +0.040 A  ATOM     28  C   UNL     1      35.808  42.492  20.192 -0.38 -0.00    +0.123 A  ATOM     29  F   UNL     1      34.842  41.770  19.608 -0.09 +0.01    -0.207 F  ENDBRANCH  20  23ENDBRANCH  17  18ENDBRANCH   6  17TORSDOF 5TERENDMDL