MODEL        2USER    Run = 2USERUSER    Estimated Free Energy of Binding    =  -8.00 kcal/mol  [=(1)+(2)+(3)-(4)]USERUSER    (1) Final Intermolecular Energy     =  -8.90 kcal/molUSER        vdW + Hbond + desolv Energy     =  -8.83 kcal/molUSER        Electrostatic Energy            =  -0.07 kcal/molUSER        Moving Ligand-Fixed Receptor    =  -8.90 kcal/molUSER        Moving Ligand-Moving Receptor   =  +0.00 kcal/molUSER    (2) Final Total Internal Energy     =  -0.51 kcal/molUSER    (3) Torsional Free Energy           =  +0.89 kcal/molUSER    (4) Unbound System's Energy         =  -0.51 kcal/molUSERUSERREMARK SMILES Cc1nccc(Cn2ccc(-c3ccc(F)cc3)cc2=O)n1REMARK SMILES IDX 8 1 9 2 10 3 11 4 19 5 20 6 21 7 7 8 6 9 2 10 3 11 22 12REMARK SMILES IDX 4 13 5 14 1 15 12 16 13 17 18 18 14 19 17 20 15 21 16 22REMARK H PARENTUSER                              x       y       z     vdW  Elec       q    TypeUSER                           _______ _______ _______ _____ _____    ______ ____ROOTATOM      1  N   UNL     1      40.292  47.889  15.934 -0.29 +0.07    -0.309 N  ATOM      2  C   UNL     1      39.914  46.617  16.327 -0.40 -0.02    +0.090 A  ATOM      3  C   UNL     1      40.355  46.085  17.471 -0.45 -0.00    +0.027 A  ATOM      4  C   UNL     1      41.258  46.829  18.327 -0.52 +0.00    -0.011 A  ATOM      5  C   UNL     1      41.655  48.060  17.952 -0.36 -0.00    +0.080 A  ATOM      6  C   UNL     1      41.161  48.666  16.687 -0.25 -0.02    +0.251 A  ATOM      7  O   UNL     1      41.527  49.796  16.373 -1.07 -0.00    -0.269 OA ENDROOTBRANCH   1   8ATOM      8  C   UNL     1      39.831  48.412  14.648 -0.46 -0.06    +0.181 C  BRANCH   8   9ATOM      9  C   UNL     1      38.472  47.857  14.265 -0.47 -0.02    +0.064 A  ATOM     10  C   UNL     1      37.105  46.954  12.645 -0.52 -0.04    +0.125 A  ATOM     11  N   UNL     1      36.036  46.917  13.465 -0.34 +0.15    -0.242 NA ATOM     12  N   UNL     1      38.329  47.397  12.995 -0.57 +0.03    -0.236 NA ATOM     13  C   UNL     1      36.220  47.386  14.716 -0.23 -0.10    +0.115 A  ATOM     14  C   UNL     1      37.421  47.875  15.170 -0.45 -0.03    +0.046 A  ATOM     15  C   UNL     1      36.911  46.520  11.222 -0.44 -0.03    +0.089 C  ENDBRANCH   8   9ENDBRANCH   1   8BRANCH   4  16ATOM     16  C   UNL     1      41.801  46.283  19.587 -0.44 -0.00    -0.018 A  ATOM     17  C   UNL     1      42.803  46.965  20.297 -0.43 +0.00    +0.012 A  ATOM     18  C   UNL     1      41.330  45.055  20.077 -0.37 +0.00    +0.012 A  ATOM     19  C   UNL     1      43.339  46.421  21.472 -0.29 +0.02    +0.040 A  ATOM     20  C   UNL     1      41.856  44.519  21.254 -0.29 +0.01    +0.040 A  ATOM     21  C   UNL     1      42.857  45.206  21.940 -0.18 +0.03    +0.123 A  ATOM     22  F   UNL     1      43.384  44.674  23.052 -0.02 -0.04    -0.207 F  ENDBRANCH   4  16TORSDOF 3TERENDMDL