REMARK SMILES Cc1nccc(Cn2ccc(-c3ccc(F)cc3)cc2=O)n1
REMARK SMILES IDX 8 1 9 2 10 3 11 4 19 5 20 6 21 7 7 8 6 9 2 10 3 11 22 12
REMARK SMILES IDX 4 13 5 14 1 15 12 16 13 17 18 18 14 19 17 20 15 21 16 22
REMARK H PARENT
ROOT
ATOM      1  N   UNL     1      -0.217  -1.211  -1.101  1.00  0.00    -0.309 N 
ATOM      2  C   UNL     1       0.693  -0.227  -1.446  1.00  0.00     0.090 A 
ATOM      3  C   UNL     1       1.638   0.174  -0.590  1.00  0.00     0.027 A 
ATOM      4  C   UNL     1       1.724  -0.408   0.734  1.00  0.00    -0.011 A 
ATOM      5  C   UNL     1       0.834  -1.352   1.097  1.00  0.00     0.080 A 
ATOM      6  C   UNL     1      -0.214  -1.814   0.148  1.00  0.00     0.251 A 
ATOM      7  O   UNL     1      -1.006  -2.686   0.498  1.00  0.00    -0.269 OA
ENDROOT
BRANCH   1   8
ATOM      8  C   UNL     1      -1.270  -1.581  -2.047  1.00  0.00     0.181 C 
BRANCH   8   9
ATOM      9  C   UNL     1      -2.533  -0.767  -1.836  1.00  0.00     0.064 A 
ATOM     10  C   UNL     1      -3.682   1.200  -2.181  1.00  0.00     0.125 A 
ATOM     11  N   UNL     1      -4.734   0.800  -1.439  1.00  0.00    -0.242 NA
ATOM     12  N   UNL     1      -2.580   0.460  -2.416  1.00  0.00    -0.236 NA
ATOM     13  C   UNL     1      -4.645  -0.423  -0.879  1.00  0.00     0.115 A 
ATOM     14  C   UNL     1      -3.561  -1.251  -1.040  1.00  0.00     0.046 A 
ATOM     15  C   UNL     1      -3.713   2.589  -2.747  1.00  0.00     0.089 C 
ENDBRANCH   8   9
ENDBRANCH   1   8
BRANCH   4  16
ATOM     16  C   UNL     1       2.727   0.014   1.732  1.00  0.00    -0.018 A 
ATOM     17  C   UNL     1       3.709  -0.880   2.192  1.00  0.00     0.012 A 
ATOM     18  C   UNL     1       2.693   1.318   2.250  1.00  0.00     0.012 A 
ATOM     19  C   UNL     1       4.633  -0.482   3.167  1.00  0.00     0.040 A 
ATOM     20  C   UNL     1       3.621   1.718   3.212  1.00  0.00     0.040 A 
ATOM     21  C   UNL     1       4.582   0.814   3.664  1.00  0.00     0.123 A 
ATOM     22  F   UNL     1       5.452   1.189   4.612  1.00  0.00    -0.207 F 
ENDBRANCH   4  16
TORSDOF 3
