MODEL        5USER    Run = 5USERUSER    Estimated Free Energy of Binding    =  -9.28 kcal/mol  [=(1)+(2)+(3)-(4)]USERUSER    (1) Final Intermolecular Energy     = -10.17 kcal/molUSER        vdW + Hbond + desolv Energy     = -10.14 kcal/molUSER        Electrostatic Energy            =  -0.03 kcal/molUSER        Moving Ligand-Fixed Receptor    = -10.17 kcal/molUSER        Moving Ligand-Moving Receptor   =  +0.00 kcal/molUSER    (2) Final Total Internal Energy     =  -0.98 kcal/molUSER    (3) Torsional Free Energy           =  +0.89 kcal/molUSER    (4) Unbound System's Energy         =  -0.98 kcal/molUSERUSERREMARK SMILES O=C(Cc1ccc2ccccc2c1)Nc1cc2ccc(F)cc2[nH]1REMARK SMILES IDX 1 1 2 2 14 3 3 5 4 6 5 7 13 8 6 9 12 10 7 11 11 12 8 13REMARK SMILES IDX 10 14 9 15 15 16 16 17 24 18 17 19 23 20 18 21 22 22 19 23REMARK SMILES IDX 20 24 21 26REMARK H PARENT 14 4 24 25USER                              x       y       z     vdW  Elec       q    TypeUSER                           _______ _______ _______ _____ _____    ______ ____ROOTATOM      1  O   UNL     1      41.790  50.363  16.447 -0.92 -0.00    -0.274 OA ATOM      2  C   UNL     1      41.382  49.403  15.795 -0.43 -0.02    +0.229 C  ATOM      3  N   UNL     1      41.568  49.232  14.432 -0.36 +0.04    -0.312 N  ATOM      4  H   UNL     1      41.152  48.434  13.966 +0.14 -0.01    +0.171 HD ENDROOTBRANCH   2   5ATOM      5  C   UNL     1      40.614  48.263  16.442 -0.52 -0.03    +0.135 C  BRANCH   5   6ATOM      6  C   UNL     1      39.646  47.597  15.498 -0.49 +0.01    -0.038 A  ATOM      7  C   UNL     1      39.702  46.216  15.271 -0.41 -0.00    +0.005 A  ATOM      8  C   UNL     1      38.661  48.352  14.845 -0.52 -0.01    +0.013 A  ATOM      9  C   UNL     1      38.796  45.604  14.401 -0.33 -0.00    +0.009 A  ATOM     10  C   UNL     1      37.742  47.748  13.969 -0.52 +0.01    -0.018 A  ATOM     11  C   UNL     1      37.811  46.356  13.744 -0.43 +0.01    -0.018 A  ATOM     12  C   UNL     1      36.753  48.500  13.317 -0.49 -0.00    +0.009 A  ATOM     13  C   UNL     1      36.891  45.754  12.871 -0.54 -0.00    +0.009 A  ATOM     14  C   UNL     1      35.843  47.887  12.454 -0.51 -0.00    +0.001 A  ATOM     15  C   UNL     1      35.913  46.517  12.229 -0.64 -0.00    +0.001 A  ENDBRANCH   5   6ENDBRANCH   2   5BRANCH   3  16ATOM     16  C   UNL     1      42.281  50.127  13.663 -0.58 -0.03    +0.110 A  ATOM     17  C   UNL     1      42.165  50.395  12.317 -0.34 -0.02    +0.055 A  ATOM     18  N   UNL     1      43.275  50.930  14.161 -0.17 +0.10    -0.341 N  ATOM     19  C   UNL     1      43.135  51.385  11.987 -0.52 -0.00    +0.002 A  ATOM     20  C   UNL     1      43.808  51.713  13.165 -0.05 -0.02    +0.050 A  ATOM     21  C   UNL     1      43.500  52.037  10.792 -0.50 -0.01    +0.013 A  ATOM     22  C   UNL     1      44.826  52.674  13.215 -0.25 -0.02    +0.066 A  ATOM     23  C   UNL     1      44.520  52.996  10.822 -0.35 -0.02    +0.040 A  ATOM     24  C   UNL     1      45.159  53.302  12.016 -0.20 -0.05    +0.125 A  ATOM     25  H   UNL     1      43.557  50.930  15.135 -0.21 -0.01    +0.168 HD ATOM     26  F   UNL     1      46.129  54.230  12.019 +0.00 +0.07    -0.207 F  ENDBRANCH   3  16TORSDOF 3TERENDMDL