REMARK SMILES COc1ccc(C(=O)N2CCN(Cc3ncsc3-c3ccc(F)cc3)CC2)cc1
REMARK SMILES IDX 7 1 8 2 9 3 10 4 11 5 12 6 26 7 27 8 6 9 3 10 4 11 29 12
REMARK SMILES IDX 5 13 28 14 2 15 1 16 13 17 14 18 15 19 18 20 16 21 17 22
REMARK SMILES IDX 19 23 20 24 25 25 21 26 24 27 22 28 23 29
REMARK H PARENT
ROOT
ATOM      1  C   UNL     1       2.491  -1.884  -0.069  1.00  0.00     0.253 C 
ATOM      2  O   UNL     1       2.663  -3.098  -0.134  1.00  0.00    -0.269 OA
ATOM      3  N   UNL     1       1.326  -1.292   0.426  1.00  0.00    -0.336 N 
ATOM      4  C   UNL     1       0.843   0.005  -0.061  1.00  0.00     0.135 C 
ATOM      5  C   UNL     1      -0.189   0.636   0.890  1.00  0.00     0.106 C 
ATOM      6  N   UNL     1      -1.310  -0.278   1.189  1.00  0.00    -0.294 NA
ATOM      7  C   UNL     1      -0.769  -1.531   1.768  1.00  0.00     0.106 C 
ATOM      8  C   UNL     1       0.260  -2.205   0.843  1.00  0.00     0.135 C 
ENDROOT
BRANCH   1   9
ATOM      9  C   UNL     1       3.596  -1.008  -0.518  1.00  0.00     0.040 A 
ATOM     10  C   UNL     1       5.729   0.590  -1.368  1.00  0.00     0.118 A 
ATOM     11  C   UNL     1       5.200   0.754  -0.085  1.00  0.00     0.047 A 
ATOM     12  C   UNL     1       5.194  -0.388  -2.213  1.00  0.00     0.047 A 
ATOM     13  C   UNL     1       4.138  -0.049   0.344  1.00  0.00     0.017 A 
ATOM     14  C   UNL     1       4.136  -1.195  -1.791  1.00  0.00     0.017 A 
BRANCH  10  15
ATOM     15  O   UNL     1       6.760   1.307  -1.909  1.00  0.00    -0.497 OA
ATOM     16  C   UNL     1       7.378   2.279  -1.075  1.00  0.00     0.278 C 
ENDBRANCH  10  15
ENDBRANCH   1   9
BRANCH   6  17
ATOM     17  C   UNL     1      -2.256   0.376   2.114  1.00  0.00     0.142 C 
BRANCH  17  18
ATOM     18  C   UNL     1      -3.533  -0.411   2.229  1.00  0.00     0.073 A 
ATOM     19  N   UNL     1      -3.703  -1.225   3.348  1.00  0.00    -0.248 NA
ATOM     20  C   UNL     1      -4.607  -0.404   1.346  1.00  0.00     0.059 A 
ATOM     21  C   UNL     1      -4.870  -1.825   3.285  1.00  0.00     0.176 A 
ATOM     22  S   UNL     1      -5.838  -1.455   1.925  1.00  0.00    -0.122 S 
BRANCH  20  23
ATOM     23  C   UNL     1      -4.793   0.312   0.085  1.00  0.00    -0.006 A 
ATOM     24  C   UNL     1      -3.944   0.058  -1.003  1.00  0.00     0.012 A 
ATOM     25  C   UNL     1      -5.811   1.269  -0.053  1.00  0.00     0.012 A 
ATOM     26  C   UNL     1      -4.109   0.747  -2.206  1.00  0.00     0.040 A 
ATOM     27  C   UNL     1      -5.975   1.957  -1.257  1.00  0.00     0.040 A 
ATOM     28  C   UNL     1      -5.122   1.690  -2.321  1.00  0.00     0.123 A 
ATOM     29  F   UNL     1      -5.279   2.353  -3.474  1.00  0.00    -0.207 F 
ENDBRANCH  20  23
ENDBRANCH  17  18
ENDBRANCH   6  17
TORSDOF 5
