REMARK SMILES Clc1ccc(-c2scnc2-c2ccncc2)cc1
REMARK SMILES IDX 1 1 2 2 3 3 4 4 5 5 17 6 18 7 6 8 7 9 10 10 8 11 9 12 11 13
REMARK SMILES IDX 12 14 16 15 13 16 15 17 14 18
REMARK H PARENT
ROOT
ATOM      1  Cl  UNL     1       4.781   1.401   1.910  1.00  0.00    -0.084 Cl
ATOM      2  C   UNL     1       3.466   0.932   0.906  1.00  0.00     0.041 A 
ATOM      3  C   UNL     1       2.313   1.713   0.864  1.00  0.00     0.021 A 
ATOM      4  C   UNL     1       1.245   1.330   0.048  1.00  0.00     0.011 A 
ATOM      5  C   UNL     1       1.322   0.164  -0.729  1.00  0.00    -0.006 A 
ATOM      6  C   UNL     1       2.490  -0.611  -0.675  1.00  0.00     0.011 A 
ATOM      7  C   UNL     1       3.559  -0.228   0.140  1.00  0.00     0.021 A 
ENDROOT
BRANCH   5   8
ATOM      8  C   UNL     1       0.190  -0.237  -1.568  1.00  0.00     0.062 A 
ATOM      9  S   UNL     1       0.423  -0.391  -3.272  1.00  0.00    -0.121 S 
ATOM     10  C   UNL     1      -1.144  -0.496  -1.267  1.00  0.00     0.089 A 
ATOM     11  C   UNL     1      -1.237  -0.748  -3.461  1.00  0.00     0.177 A 
ATOM     12  N   UNL     1      -1.956  -0.764  -2.363  1.00  0.00    -0.244 NA
BRANCH  10  13
ATOM     13  C   UNL     1      -1.731  -0.475   0.068  1.00  0.00     0.005 A 
ATOM     14  C   UNL     1      -2.982   0.118   0.252  1.00  0.00     0.030 A 
ATOM     15  C   UNL     1      -1.097  -1.058   1.166  1.00  0.00     0.030 A 
ATOM     16  C   UNL     1      -3.528   0.129   1.524  1.00  0.00     0.111 A 
ATOM     17  C   UNL     1      -1.724  -0.993   2.399  1.00  0.00     0.111 A 
ATOM     18  N   UNL     1      -2.921  -0.406   2.604  1.00  0.00    -0.265 NA
ENDBRANCH  10  13
ENDBRANCH   5   8
TORSDOF 2
