REMARK SMILES O=C(Cc1ccc2ccccc2c1)Nc1cc2ccc(F)cc2[nH]1
REMARK SMILES IDX 1 1 2 2 14 3 3 5 4 6 5 7 13 8 6 9 12 10 7 11 11 12 8 13
REMARK SMILES IDX 10 14 9 15 15 16 16 17 24 18 17 19 23 20 18 21 22 22 19 23
REMARK SMILES IDX 20 24 21 26
REMARK H PARENT 14 4 24 25
ROOT
ATOM      1  O   UNL     1      -0.753   0.818  -2.077  1.00  0.00    -0.274 OA
ATOM      2  C   UNL     1      -0.451  -0.316  -1.707  1.00  0.00     0.229 C 
ATOM      3  N   UNL     1      -1.167  -1.069  -0.789  1.00  0.00    -0.312 N 
ATOM      4  H   UNL     1      -0.816  -1.975  -0.502  1.00  0.00     0.171 HD
ENDROOT
BRANCH   2   5
ATOM      5  C   UNL     1       0.775  -1.034  -2.244  1.00  0.00     0.135 C 
BRANCH   5   6
ATOM      6  C   UNL     1       1.977  -0.898  -1.344  1.00  0.00    -0.038 A 
ATOM      7  C   UNL     1       2.546  -2.023  -0.734  1.00  0.00     0.005 A 
ATOM      8  C   UNL     1       2.553   0.361  -1.118  1.00  0.00     0.013 A 
ATOM      9  C   UNL     1       3.665  -1.890   0.092  1.00  0.00     0.009 A 
ATOM     10  C   UNL     1       3.680   0.508  -0.291  1.00  0.00    -0.018 A 
ATOM     11  C   UNL     1       4.243  -0.633   0.323  1.00  0.00    -0.018 A 
ATOM     12  C   UNL     1       4.261   1.765  -0.065  1.00  0.00     0.009 A 
ATOM     13  C   UNL     1       5.370  -0.484   1.147  1.00  0.00     0.009 A 
ATOM     14  C   UNL     1       5.383   1.896   0.754  1.00  0.00     0.001 A 
ATOM     15  C   UNL     1       5.936   0.774   1.361  1.00  0.00     0.001 A 
ENDBRANCH   5   6
ENDBRANCH   2   5
BRANCH   3  16
ATOM     16  C   UNL     1      -2.339  -0.622  -0.216  1.00  0.00     0.110 A 
ATOM     17  C   UNL     1      -3.165  -1.265   0.678  1.00  0.00     0.055 A 
ATOM     18  N   UNL     1      -2.887   0.609  -0.475  1.00  0.00    -0.341 N 
ATOM     19  C   UNL     1      -4.260  -0.398   0.958  1.00  0.00     0.002 A 
ATOM     20  C   UNL     1      -4.053   0.776   0.232  1.00  0.00     0.050 A 
ATOM     21  C   UNL     1      -5.409  -0.503   1.768  1.00  0.00     0.013 A 
ATOM     22  C   UNL     1      -4.934   1.864   0.283  1.00  0.00     0.066 A 
ATOM     23  C   UNL     1      -6.304   0.572   1.825  1.00  0.00     0.040 A 
ATOM     24  C   UNL     1      -6.058   1.729   1.096  1.00  0.00     0.125 A 
ATOM     25  H   UNL     1      -2.468   1.286  -1.103  1.00  0.00     0.168 HD
ATOM     26  F   UNL     1      -6.928   2.748   1.174  1.00  0.00    -0.207 F 
ENDBRANCH   3  16
TORSDOF 3
