MODEL        5USER    Run = 5USERUSER    Estimated Free Energy of Binding    =  -7.80 kcal/mol  [=(1)+(2)+(3)-(4)]USERUSER    (1) Final Intermolecular Energy     =  -9.00 kcal/molUSER        vdW + Hbond + desolv Energy     =  -8.89 kcal/molUSER        Electrostatic Energy            =  -0.11 kcal/molUSER        Moving Ligand-Fixed Receptor    =  -9.00 kcal/molUSER        Moving Ligand-Moving Receptor   =  +0.00 kcal/molUSER    (2) Final Total Internal Energy     =  -1.27 kcal/molUSER    (3) Torsional Free Energy           =  +1.19 kcal/molUSER    (4) Unbound System's Energy         =  -1.27 kcal/molUSERUSERREMARK SMILES COc1ccc(-c2nc(C(=O)Nc3ccc(F)cc3)cs2)cc1REMARK SMILES IDX 7 1 8 2 9 3 20 4 21 5 6 6 3 7 4 8 23 9 5 10 22 11 2 12 1 13REMARK SMILES IDX 10 14 12 15 11 16 13 18 14 19 19 20 15 21 18 22 16 23 17 24REMARK H PARENT 12 17USER                              x       y       z     vdW  Elec       q    TypeUSER                           _______ _______ _______ _____ _____    ______ ____ROOTATOM      1  C   UNL     1      39.873  46.685  17.312 -0.39 -0.02    +0.124 A  ATOM      2  N   UNL     1      39.413  45.817  18.197 -0.28 +0.03    -0.231 NA ATOM      3  C   UNL     1      40.261  45.750  19.308 -0.34 -0.00    +0.140 A  ATOM      4  C   UNL     1      41.366  46.572  19.234 -0.38 +0.00    +0.101 A  ATOM      5  S   UNL     1      41.354  47.446  17.766 -0.61 +0.01    -0.122 S  ENDROOTBRANCH   1   6ATOM      6  C   UNL     1      39.208  46.974  16.024 -0.45 -0.00    +0.011 A  ATOM      7  C   UNL     1      37.886  47.417  13.555 -0.43 -0.04    +0.118 A  ATOM      8  C   UNL     1      38.581  48.447  14.187 -0.45 -0.02    +0.047 A  ATOM      9  C   UNL     1      37.847  46.161  14.157 -0.40 -0.02    +0.047 A  ATOM     10  C   UNL     1      39.234  48.233  15.407 -0.52 -0.01    +0.015 A  ATOM     11  C   UNL     1      38.499  45.947  15.378 -0.38 -0.00    +0.015 A  BRANCH   7  12ATOM     12  O   UNL     1      37.297  47.763  12.372 -0.87 +0.08    -0.497 OA ATOM     13  C   UNL     1      36.171  46.996  11.964 -0.51 -0.14    +0.278 C  ENDBRANCH   7  12ENDBRANCH   1   6BRANCH   3  14ATOM     14  C   UNL     1      39.964  44.861  20.440 -0.24 +0.01    +0.275 C  ATOM     15  N   UNL     1      38.645  44.451  20.418 -0.16 +0.00    -0.321 N  ATOM     16  O   UNL     1      40.816  44.563  21.268 -0.19 -0.02    -0.267 OA ATOM     17  H   UNL     1      38.114  44.829  19.638 +0.10 -0.01    +0.170 HD BRANCH  15  18ATOM     18  C   UNL     1      37.978  43.604  21.318 -0.32 +0.00    +0.041 A  ATOM     19  C   UNL     1      36.959  42.794  20.796 -0.39 -0.00    +0.029 A  ATOM     20  C   UNL     1      38.273  43.531  22.683 -0.31 +0.00    +0.029 A  ATOM     21  C   UNL     1      36.248  41.924  21.626 -0.50 +0.00    +0.041 A  ATOM     22  C   UNL     1      37.560  42.661  23.513 -0.36 +0.00    +0.041 A  ATOM     23  C   UNL     1      36.555  41.866  22.978 -0.41 +0.01    +0.123 A  ATOM     24  F   UNL     1      35.874  41.033  23.774 -0.11 +0.03    -0.207 F  ENDBRANCH  15  18ENDBRANCH   3  14TORSDOF 4TERENDMDL