REMARK SMILES CCN(C[C@H]1CCCN1C(=O)[C@@H](O)CC(C)C)C(=O)c1cc(-c2ccc(F)cc2)n[nH]1
REMARK SMILES IDX 5 1 6 2 7 3 8 4 9 5 4 6 3 7 2 8 1 9 18 10 19 11 20 12 21 13
REMARK SMILES IDX 31 14 22 15 30 16 23 18 24 19 29 20 25 21 28 22 26 23 27 24
REMARK SMILES IDX 10 25 11 26 12 27 13 28 14 30 15 31 16 32 17 33
REMARK H PARENT 31 17 13 29
ROOT
ATOM      1  C   UNL     1      -1.298   0.510  -1.417  1.00  0.00     0.104 C 
ATOM      2  C   UNL     1      -0.762  -0.000  -2.768  1.00  0.00     0.029 C 
ATOM      3  C   UNL     1      -1.634   0.708  -3.788  1.00  0.00     0.024 C 
ATOM      4  C   UNL     1      -2.997   0.659  -3.120  1.00  0.00     0.120 C 
ATOM      5  N   UNL     1      -2.712   0.849  -1.702  1.00  0.00    -0.336 N 
ENDROOT
BRANCH   1   6
ATOM      6  C   UNL     1      -1.086  -0.543  -0.303  1.00  0.00     0.145 C 
BRANCH   6   7
ATOM      7  N   UNL     1       0.308  -0.969  -0.112  1.00  0.00    -0.336 N 
BRANCH   7   8
ATOM      8  C   UNL     1       0.670  -2.322  -0.554  1.00  0.00     0.116 C 
ATOM      9  C   UNL     1       0.233  -3.390   0.441  1.00  0.00     0.027 C 
ENDBRANCH   7   8
BRANCH   7  10
ATOM     10  C   UNL     1       1.196  -0.030   0.422  1.00  0.00     0.271 C 
ATOM     11  O   UNL     1       0.833   1.120   0.650  1.00  0.00    -0.267 OA
BRANCH  10  12
ATOM     12  C   UNL     1       2.551  -0.439   0.671  1.00  0.00     0.123 A 
ATOM     13  C   UNL     1       3.731   0.101   0.205  1.00  0.00     0.064 A 
ATOM     14  N   UNL     1       2.939  -1.411   1.543  1.00  0.00    -0.272 N 
ATOM     15  C   UNL     1       4.778  -0.678   0.772  1.00  0.00     0.093 A 
ATOM     16  N   UNL     1       4.262  -1.627   1.569  1.00  0.00    -0.175 NA
ATOM     17  H   UNL     1       2.352  -1.977   2.145  1.00  0.00     0.190 HD
BRANCH  15  18
ATOM     18  C   UNL     1       6.226  -0.546   0.566  1.00  0.00     0.002 A 
ATOM     19  C   UNL     1       6.768   0.559  -0.113  1.00  0.00     0.013 A 
ATOM     20  C   UNL     1       7.104  -1.534   1.049  1.00  0.00     0.013 A 
ATOM     21  C   UNL     1       8.149   0.667  -0.306  1.00  0.00     0.040 A 
ATOM     22  C   UNL     1       8.484  -1.427   0.852  1.00  0.00     0.040 A 
ATOM     23  C   UNL     1       8.992  -0.327   0.177  1.00  0.00     0.123 A 
ATOM     24  F   UNL     1      10.313  -0.219  -0.013  1.00  0.00    -0.207 F 
ENDBRANCH  15  18
ENDBRANCH  10  12
ENDBRANCH   7  10
ENDBRANCH   6   7
ENDBRANCH   1   6
BRANCH   5  25
ATOM     25  C   UNL     1      -3.502   1.737  -0.988  1.00  0.00     0.251 C 
ATOM     26  O   UNL     1      -4.464   2.317  -1.504  1.00  0.00    -0.272 OA
BRANCH  25  27
ATOM     27  C   UNL     1      -3.179   2.034   0.491  1.00  0.00     0.203 C 
BRANCH  27  28
ATOM     28  O   UNL     1      -3.578   3.355   0.851  1.00  0.00    -0.383 OA
ATOM     29  H   UNL     1      -4.087   3.699   0.088  1.00  0.00     0.211 HD
ENDBRANCH  27  28
BRANCH  27  30
ATOM     30  C   UNL     1      -3.846   1.017   1.432  1.00  0.00     0.045 C 
BRANCH  30  31
ATOM     31  C   UNL     1      -5.389   0.919   1.400  1.00  0.00    -0.014 C 
ATOM     32  C   UNL     1      -5.833  -0.253   2.284  1.00  0.00     0.007 C 
ATOM     33  C   UNL     1      -6.097   2.191   1.863  1.00  0.00     0.007 C 
ENDBRANCH  30  31
ENDBRANCH  27  30
ENDBRANCH  25  27
ENDBRANCH   5  25
TORSDOF 11
