MODEL        10USER    Run = 10USERUSER    Estimated Free Energy of Binding    =  -8.61 kcal/mol  [=(1)+(2)+(3)-(4)]USERUSER    (1) Final Intermolecular Energy     =  -9.80 kcal/molUSER        vdW + Hbond + desolv Energy     =  -9.65 kcal/molUSER        Electrostatic Energy            =  -0.16 kcal/molUSER        Moving Ligand-Fixed Receptor    =  -9.80 kcal/molUSER        Moving Ligand-Moving Receptor   =  +0.00 kcal/molUSER    (2) Final Total Internal Energy     =  -1.18 kcal/molUSER    (3) Torsional Free Energy           =  +1.19 kcal/molUSER    (4) Unbound System's Energy         =  -1.18 kcal/molUSERUSERREMARK SMILES O=S(=O)(Nc1ccc(F)cc1)c1ccc(-c2ccncc2)cc1REMARK SMILES IDX 1 1 2 2 3 3 4 4 5 6 6 7 11 8 7 9 10 10 8 11 9 12 12 13 13 14REMARK SMILES IDX 23 15 14 16 22 17 15 18 16 19 17 20 21 21 18 22 20 23 19 24REMARK H PARENT 4 5USER                              x       y       z     vdW  Elec       q    TypeUSER                           _______ _______ _______ _____ _____    ______ ____ROOTATOM      1  O   UNL     1      36.270  48.801  12.713 -0.69 +0.08    -0.201 OA ATOM      2  S   UNL     1      36.928  47.514  12.627 -0.64 -0.09    +0.261 S  ATOM      3  O   UNL     1      37.649  47.118  11.436 -0.97 +0.03    -0.201 OA ENDROOTBRANCH   2   4ATOM      4  N   UNL     1      35.746  46.359  12.981 -0.34 +0.16    -0.280 N  ATOM      5  H   UNL     1      34.838  46.612  12.594 -0.16 -0.14    +0.180 HD BRANCH   4   6ATOM      6  C   UNL     1      35.782  45.676  14.226 -0.37 -0.03    +0.049 A  ATOM      7  C   UNL     1      35.130  46.241  15.326 -0.26 -0.03    +0.030 A  ATOM      8  C   UNL     1      36.475  44.472  14.363 -0.28 -0.01    +0.030 A  ATOM      9  C   UNL     1      35.179  45.602  16.566 -0.31 -0.03    +0.041 A  ATOM     10  C   UNL     1      36.522  43.833  15.604 -0.37 -0.01    +0.041 A  ATOM     11  C   UNL     1      35.874  44.404  16.693 -0.24 -0.05    +0.123 A  ATOM     12  F   UNL     1      35.921  43.793  17.884 -0.04 +0.06    -0.207 F  ENDBRANCH   4   6ENDBRANCH   2   4BRANCH   2  13ATOM     13  C   UNL     1      38.036  47.388  14.013 -0.44 -0.03    +0.087 A  ATOM     14  C   UNL     1      38.927  46.317  14.095 -0.31 -0.01    +0.023 A  ATOM     15  C   UNL     1      38.033  48.386  14.989 -0.52 -0.01    +0.023 A  ATOM     16  C   UNL     1      39.801  46.231  15.184 -0.41 -0.00    +0.010 A  ATOM     17  C   UNL     1      38.911  48.291  16.073 -0.40 -0.01    +0.010 A  ATOM     18  C   UNL     1      39.807  47.213  16.191 -0.48 +0.00    -0.018 A  BRANCH  18  19ATOM     19  C   UNL     1      40.732  47.119  17.332 -0.51 +0.00    -0.015 A  ATOM     20  C   UNL     1      41.675  48.122  17.585 -0.42 -0.00    +0.029 A  ATOM     21  C   UNL     1      40.698  46.024  18.203 -0.47 -0.00    +0.029 A  ATOM     22  C   UNL     1      42.522  47.990  18.673 -0.33 +0.00    +0.111 A  ATOM     23  C   UNL     1      41.590  45.979  19.263 -0.37 +0.01    +0.111 A  ATOM     24  N   UNL     1      42.502  46.940  19.517 -0.33 -0.04    -0.265 NA ENDBRANCH  18  19ENDBRANCH   2  13TORSDOF 4TERENDMDL