MODEL        9USER    Run = 9USERUSER    Estimated Free Energy of Binding    =  -6.60 kcal/mol  [=(1)+(2)+(3)-(4)]USERUSER    (1) Final Intermolecular Energy     = -10.77 kcal/molUSER        vdW + Hbond + desolv Energy     = -10.78 kcal/molUSER        Electrostatic Energy            =  -0.39 kcal/molUSER        Moving Ligand-Fixed Receptor    = -11.17 kcal/molUSER        Moving Ligand-Moving Receptor   =  +0.40 kcal/molUSER    (2) Final Total Internal Energy     =  -2.28 kcal/molUSER    (3) Torsional Free Energy           =  +4.18 kcal/molUSER    (4) Unbound System's Energy         =  -2.28 kcal/molUSERUSERREMARK SMILES COc1ccc(F)c(C(=O)c2ccc(C(=O)O[C@@H]3CCCNC[C@H]3NC(=O)c3ccncc3)cc2)c1REMARK SMILES IDX 17 1 15 2 16 3 14 4 11 5 12 6 35 7 13 8 34 9 9 10 10 11 8 12REMARK SMILES IDX 3 13 4 14 36 15 5 16 6 17 7 18 2 19 1 20 18 21 24 23 23 24REMARK SMILES IDX 22 25 21 27 20 28 19 29 25 31 26 32 27 34 28 35 29 36 33 37REMARK SMILES IDX 30 38 32 39 31 40REMARK H PARENT 22 26 25 33REMARK Flexibility Score:   99.900USER                              x       y       z     vdW  Elec       q    TypeUSER                           _______ _______ _______ _____ _____    ______ ____ROOTATOM      1  O   UNL     1      31.258  40.183  16.831 -0.05 +0.13    -0.457 OA ENDROOTBRANCH   1   2ATOM      2  C   UNL     1      32.057  40.315  17.915 -0.24 -0.06    +0.338 C  ATOM      3  O   UNL     1      32.964  41.117  18.050 -0.32 +0.06    -0.246 OA BRANCH   2   4ATOM      4  C   UNL     1      31.669  39.327  18.956 -0.40 +0.01    +0.060 A  ATOM      5  C   UNL     1      30.927  37.532  20.983 -0.47 +0.00    +0.023 A  ATOM      6  C   UNL     1      30.862  38.913  21.204 -0.27 +0.00    +0.013 A  ATOM      7  C   UNL     1      31.395  37.050  19.753 -0.44 +0.00    +0.013 A  ATOM      8  C   UNL     1      31.230  39.806  20.195 -0.26 +0.00    +0.016 A  ATOM      9  C   UNL     1      31.757  37.944  18.741 -0.51 +0.00    +0.016 A  BRANCH   5  10ATOM     10  C   UNL     1      30.555  36.623  22.098 -0.28 +0.01    +0.196 C  ATOM     11  O   UNL     1      31.261  36.589  23.107 -0.23 +0.01    -0.288 OA BRANCH  10  12ATOM     12  C   UNL     1      29.380  35.728  22.034 -0.30 -0.00    +0.062 A  ATOM     13  C   UNL     1      28.128  33.902  23.024 -0.32 +0.03    +0.119 A  ATOM     14  C   UNL     1      27.170  34.031  22.011 -0.32 -0.02    +0.049 A  ATOM     15  C   UNL     1      29.231  34.757  23.037 -0.20 +0.02    +0.061 A  ATOM     16  C   UNL     1      27.305  35.009  21.024 -0.27 -0.03    +0.044 A  ATOM     17  C   UNL     1      28.406  35.858  21.045 -0.14 -0.04    +0.134 A  ATOM     18  F   UNL     1      28.498  36.808  20.104 -0.07 +0.01    -0.206 F  BRANCH  13  19ATOM     19  O   UNL     1      27.867  32.912  23.930 -0.41 -0.43    -0.497 OA ATOM     20  C   UNL     1      28.246  31.590  23.567 -0.30 +0.09    +0.278 C  ENDBRANCH  13  19ENDBRANCH  10  12ENDBRANCH   5  10ENDBRANCH   2   4ENDBRANCH   1   2BRANCH   1  21ATOM     21  C   UNL     1      30.264  41.212  16.627 -0.28 -0.05    +0.200 CG0ATOM     22  G   UNL     1      29.009  40.525  16.073 +0.00 +0.00    +0.000 G0 BRANCH  21  23ATOM     23  C   UNL     1      30.783  42.365  15.726 -0.29 -0.07    +0.137 C  BRANCH  23  24ATOM     24  C   UNL     1      29.831  43.586  15.674 -0.27 -0.06    +0.109 C  BRANCH  24  25ATOM     25  N   UNL     1      28.526  43.546  16.338 -0.09 +0.12    -0.315 NA ATOM     26  H   UNL     1      28.666  43.367  17.332 +0.07 -0.02    +0.122 HD BRANCH  25  27ATOM     27  C   UNL     1      27.534  42.630  15.801 -0.23 -0.04    +0.081 C  BRANCH  27  28ATOM     28  C   UNL     1      27.681  41.217  16.364 -0.31 -0.00    +0.019 C  BRANCH  28  29ATOM     29  C   UNL     1      29.011  40.524  16.076 -0.41 -0.00    +0.049 CG0ATOM     30  G   UNL     1      30.265  41.214  16.631 +0.00 +0.00    +0.000 G0 ENDBRANCH  28  29ENDBRANCH  27  28ENDBRANCH  25  27ENDBRANCH  24  25ENDBRANCH  23  24BRANCH  23  31ATOM     31  N   UNL     1      32.162  42.789  16.033 -0.09 +0.18    -0.344 N  ATOM     32  C   UNL     1      32.434  43.990  16.653 -0.20 -0.10    +0.251 C  ATOM     33  H   UNL     1      32.863  42.059  16.082 -0.50 -0.12    +0.164 HD ATOM     34  O   UNL     1      31.584  44.831  16.911 -0.63 +0.06    -0.269 OA BRANCH  32  35ATOM     35  C   UNL     1      33.849  44.230  17.038 -0.28 -0.02    +0.042 A  ATOM     36  C   UNL     1      34.213  45.240  17.927 -0.37 -0.02    +0.034 A  ATOM     37  C   UNL     1      34.828  43.387  16.512 -0.37 -0.01    +0.034 A  ATOM     38  C   UNL     1      35.555  45.377  18.233 -0.27 -0.04    +0.112 A  ATOM     39  C   UNL     1      36.142  43.611  16.878 -0.29 -0.04    +0.112 A  ATOM     40  N   UNL     1      36.526  44.593  17.721 -0.15 +0.08    -0.265 NA ENDBRANCH  32  35ENDBRANCH  23  31ENDBRANCH  21  23ENDBRANCH   1  21TORSDOF 8TERENDMDL