MODEL        9USER    Run = 9USERUSER    Estimated Free Energy of Binding    =  -8.75 kcal/mol  [=(1)+(2)+(3)-(4)]USERUSER    (1) Final Intermolecular Energy     = -11.43 kcal/molUSER        vdW + Hbond + desolv Energy     = -11.53 kcal/molUSER        Electrostatic Energy            =  +0.10 kcal/molUSER        Moving Ligand-Fixed Receptor    = -11.43 kcal/molUSER        Moving Ligand-Moving Receptor   =  +0.00 kcal/molUSER    (2) Final Total Internal Energy     =  -0.99 kcal/molUSER    (3) Torsional Free Energy           =  +2.68 kcal/molUSER    (4) Unbound System's Energy         =  -0.99 kcal/molUSERUSERREMARK SMILES CCCNCc1ccc(NC(=O)Cc2nn(-c3ccnc(C(F)(F)F)c3)cc2C)cc1REMARK SMILES IDX 6 1 7 2 8 3 9 4 30 5 31 6 5 7 4 8 3 10 2 11 1 12 10 13 11 14REMARK SMILES IDX 12 16 13 17 14 18 15 19 28 20 16 21 27 22 29 23 17 24 18 25REMARK SMILES IDX 26 26 19 27 21 28 20 29 22 30 23 31 24 32 25 33REMARK H PARENT 4 9 10 15USER                              x       y       z     vdW  Elec       q    TypeUSER                           _______ _______ _______ _____ _____    ______ ____ROOTATOM      1  C   UNL     1      39.961  48.005  15.357 -0.52 +0.01    -0.034 A  ATOM      2  C   UNL     1      40.722  49.005  15.972 -0.60 -0.00    +0.007 A  ATOM      3  C   UNL     1      41.419  48.739  17.155 -0.25 -0.00    +0.026 A  ATOM      4  C   UNL     1      41.376  47.469  17.740 -0.47 -0.00    +0.041 A  ATOM      5  C   UNL     1      40.625  46.469  17.124 -0.46 -0.00    +0.026 A  ATOM      6  C   UNL     1      39.922  46.735  15.944 -0.47 -0.00    +0.007 A  ENDROOTBRANCH   1   7ATOM      7  C   UNL     1      39.217  48.289  14.072 -0.36 -0.04    +0.116 C  BRANCH   7   8ATOM      8  N   UNL     1      37.858  48.788  14.285 -0.30 +0.19    -0.313 NA ATOM      9  H   UNL     1      37.725  49.614  13.703 -0.48 -0.08    +0.123 HD BRANCH   8  10ATOM     10  C   UNL     1      36.800  47.824  13.987 -0.54 -0.05    +0.081 C  BRANCH  10  11ATOM     11  C   UNL     1      36.451  47.691  12.501 -0.75 -0.01    +0.012 C  ATOM     12  C   UNL     1      36.691  46.294  11.950 -0.74 -0.00    +0.005 C  ENDBRANCH  10  11ENDBRANCH   8  10ENDBRANCH   7   8ENDBRANCH   1   7BRANCH   4  13ATOM     13  N   UNL     1      42.106  47.289  18.929 -0.33 -0.01    -0.326 N  ATOM     14  C   UNL     1      41.991  46.268  19.860 -0.32 +0.04    +0.230 C  ATOM     15  H   UNL     1      42.748  48.038  19.183 -0.08 +0.00    +0.169 HD ATOM     16  O   UNL     1      41.232  45.306  19.802 -0.27 -0.03    -0.274 OA BRANCH  14  17ATOM     17  C   UNL     1      42.973  46.413  21.012 -0.28 +0.06    +0.158 C  BRANCH  17  18ATOM     18  C   UNL     1      42.307  46.986  22.219 -0.25 +0.01    +0.075 A  ATOM     19  N   UNL     1      41.047  46.633  22.507 -0.17 -0.02    -0.172 NA ATOM     20  C   UNL     1      42.842  47.873  23.183 -0.33 -0.00    -0.009 A  ATOM     21  N   UNL     1      40.750  47.291  23.658 -0.15 -0.03    -0.240 N  ATOM     22  C   UNL     1      41.818  48.046  24.088 -0.25 +0.02    +0.118 A  ATOM     23  C   UNL     1      44.199  48.467  23.226 -0.29 +0.01    +0.048 C  BRANCH  21  24ATOM     24  C   UNL     1      39.477  47.137  24.270 -0.27 +0.01    +0.068 A  ATOM     25  C   UNL     1      38.927  45.876  24.495 -0.22 +0.00    +0.048 A  ATOM     26  C   UNL     1      38.754  48.276  24.650 -0.36 +0.01    +0.061 A  ATOM     27  C   UNL     1      37.678  45.808  25.085 -0.24 +0.01    +0.114 A  ATOM     28  C   UNL     1      37.501  48.122  25.244 -0.32 +0.01    +0.146 A  ATOM     29  N   UNL     1      36.960  46.890  25.459 -0.80 -0.02    -0.252 NA BRANCH  28  30ATOM     30  C   UNL     1      36.720  49.370  25.635 -0.23 -0.00    +0.433 C  ATOM     31  F   UNL     1      35.390  49.114  25.816 -0.20 +0.02    -0.165 F  ATOM     32  F   UNL     1      36.774  50.340  24.675 -0.16 +0.01    -0.165 F  ATOM     33  F   UNL     1      37.143  49.966  26.785 -0.08 -0.02    -0.165 F  ENDBRANCH  28  30ENDBRANCH  21  24ENDBRANCH  17  18ENDBRANCH  14  17ENDBRANCH   4  13TORSDOF 9TERENDMDL