REMARK SMILES CCCNCc1ccc(NC(=O)Cc2nn(-c3ccnc(C(F)(F)F)c3)cc2C)cc1
REMARK SMILES IDX 6 1 7 2 8 3 9 4 30 5 31 6 5 7 4 8 3 10 2 11 1 12 10 13 11 14
REMARK SMILES IDX 12 16 13 17 14 18 15 19 28 20 16 21 27 22 29 23 17 24 18 25
REMARK SMILES IDX 26 26 19 27 21 28 20 29 22 30 23 31 24 32 25 33
REMARK H PARENT 4 9 10 15
ROOT
ATOM      1  C   UNL     1      -3.127   0.813  -0.416  1.00  0.00    -0.034 A 
ATOM      2  C   UNL     1      -1.906   1.104  -1.035  1.00  0.00     0.007 A 
ATOM      3  C   UNL     1      -0.779   0.315  -0.786  1.00  0.00     0.026 A 
ATOM      4  C   UNL     1      -0.851  -0.783   0.078  1.00  0.00     0.041 A 
ATOM      5  C   UNL     1      -2.068  -1.080   0.689  1.00  0.00     0.026 A 
ATOM      6  C   UNL     1      -3.196  -0.287   0.446  1.00  0.00     0.007 A 
ENDROOT
BRANCH   1   7
ATOM      7  C   UNL     1      -4.348   1.659  -0.694  1.00  0.00     0.116 C 
BRANCH   7   8
ATOM      8  N   UNL     1      -5.007   1.332  -1.959  1.00  0.00    -0.313 NA
ATOM      9  H   UNL     1      -4.294   1.264  -2.684  1.00  0.00     0.123 HD
BRANCH   8  10
ATOM     10  C   UNL     1      -5.783   0.093  -1.940  1.00  0.00     0.081 C 
BRANCH  10  11
ATOM     11  C   UNL     1      -7.037   0.134  -1.060  1.00  0.00     0.012 C 
ATOM     12  C   UNL     1      -7.994   1.256  -1.431  1.00  0.00     0.005 C 
ENDBRANCH  10  11
ENDBRANCH   8  10
ENDBRANCH   7   8
ENDBRANCH   1   7
BRANCH   4  13
ATOM     13  N   UNL     1       0.330  -1.522   0.271  1.00  0.00    -0.326 N 
ATOM     14  C   UNL     1       0.535  -2.608   1.108  1.00  0.00     0.230 C 
ATOM     15  H   UNL     1       1.163  -1.175  -0.201  1.00  0.00     0.169 HD
ATOM     16  O   UNL     1      -0.300  -3.146   1.829  1.00  0.00    -0.274 OA
BRANCH  14  17
ATOM     17  C   UNL     1       1.954  -3.150   1.028  1.00  0.00     0.158 C 
BRANCH  17  18
ATOM     18  C   UNL     1       2.954  -2.095   1.369  1.00  0.00     0.075 A 
ATOM     19  N   UNL     1       3.371  -1.249   0.417  1.00  0.00    -0.172 NA
ATOM     20  C   UNL     1       3.541  -1.811   2.625  1.00  0.00    -0.009 A 
ATOM     21  N   UNL     1       4.237  -0.411   1.044  1.00  0.00    -0.240 N 
ATOM     22  C   UNL     1       4.356  -0.728   2.378  1.00  0.00     0.118 A 
ATOM     23  C   UNL     1       3.318  -2.503   3.916  1.00  0.00     0.048 C 
BRANCH  21  24
ATOM     24  C   UNL     1       4.872   0.639   0.328  1.00  0.00     0.068 A 
ATOM     25  C   UNL     1       5.716   1.547   0.967  1.00  0.00     0.048 A 
ATOM     26  C   UNL     1       4.642   0.771  -1.048  1.00  0.00     0.061 A 
ATOM     27  C   UNL     1       6.288   2.549   0.204  1.00  0.00     0.114 A 
ATOM     28  C   UNL     1       5.262   1.807  -1.747  1.00  0.00     0.146 A 
ATOM     29  N   UNL     1       6.081   2.699  -1.122  1.00  0.00    -0.252 NA
BRANCH  28  30
ATOM     30  C   UNL     1       4.987   1.948  -3.239  1.00  0.00     0.433 C 
ATOM     31  F   UNL     1       3.690   2.290  -3.497  1.00  0.00    -0.165 F 
ATOM     32  F   UNL     1       5.197   0.783  -3.920  1.00  0.00    -0.165 F 
ATOM     33  F   UNL     1       5.750   2.885  -3.869  1.00  0.00    -0.165 F 
ENDBRANCH  28  30
ENDBRANCH  21  24
ENDBRANCH  17  18
ENDBRANCH  14  17
ENDBRANCH   4  13
TORSDOF 9
