
     RDKit          3D

 63 67  0  0  0  0  0  0  0  0999 V2000
   -5.7362    0.6535    3.8046 C   0  0  0  0  0  0  0  0  0  0  0  0
   -4.2614    0.8843    3.4937 C   0  0  0  0  0  0  0  0  0  0  0  0
   -3.8518    0.7297    2.0930 N   0  0  0  0  0  0  0  0  0  0  0  0
   -3.9550   -0.6499    1.6141 C   0  0  0  0  0  0  0  0  0  0  0  0
   -3.3244   -0.7917    0.2260 C   0  0  0  0  0  0  0  0  0  0  0  0
   -3.9704    0.1941   -0.7451 C   0  0  0  0  0  0  0  0  0  0  0  0
   -3.4436    0.0684   -2.0917 N   0  0  0  0  0  0  0  0  0  0  0  0
   -2.1780    0.3095   -2.5316 C   0  0  0  0  0  0  0  0  0  0  0  0
   -1.2828    0.8960   -1.8225 N   0  0  0  0  0  0  0  0  0  0  0  0
    0.0392    1.1225   -2.4252 C   0  0  0  0  0  0  0  0  0  0  0  0
    1.1404    0.2042   -1.8712 C   0  0  0  0  0  0  0  0  0  0  0  0
    0.7995   -0.9951   -1.2187 C   0  0  0  0  0  0  0  0  0  0  0  0
    1.7802   -1.8794   -0.7615 C   0  0  0  0  0  0  0  0  0  0  0  0
    3.1319   -1.5947   -0.9461 C   0  0  0  0  0  0  0  0  0  0  0  0
    4.0733   -2.5781   -0.5276 N   0  0  0  0  0  0  0  0  0  0  0  0
    5.6064   -2.2134    0.0522 S   0  0  0  0  0  0  0  0  0  0  0  0
    6.3690   -1.5357   -0.9732 O   0  0  0  0  0  0  0  0  0  0  0  0
    6.0985   -3.4326    0.6602 O   0  0  0  0  0  0  0  0  0  0  0  0
    5.2836   -1.0637    1.3688 C   0  0  0  0  0  0  0  0  0  0  0  0
    5.5470    0.2977    1.1843 C   0  0  0  0  0  0  0  0  0  0  0  0
    5.2937    1.1895    2.2264 C   0  0  0  0  0  0  0  0  0  0  0  0
    4.7940    0.7210    3.4431 C   0  0  0  0  0  0  0  0  0  0  0  0
    4.5572   -0.6426    3.6325 C   0  0  0  0  0  0  0  0  0  0  0  0
    4.8062   -1.5420    2.5957 C   0  0  0  0  0  0  0  0  0  0  0  0
    3.4886   -0.4297   -1.6187 C   0  0  0  0  0  0  0  0  0  0  0  0
    2.5157    0.4937   -2.0543 C   0  0  0  0  0  0  0  0  0  0  0  0
    2.9912    1.7320   -2.7693 C   0  0  0  0  0  0  0  0  0  0  0  0
    0.1044    1.0800   -3.8802 N   0  0  0  0  0  0  0  0  0  0  0  0
   -0.7963    1.8709   -4.6433 C   0  0  0  0  0  0  0  0  0  0  0  0
   -0.9605    0.4188   -4.4088 C   0  0  0  0  0  0  0  0  0  0  0  0
   -1.9454   -0.1332   -3.8027 N   0  0  0  0  0  0  0  0  0  0  0  0
   -3.9025    1.6221   -0.2096 C   0  0  0  0  0  0  0  0  0  0  0  0
   -4.5077    1.6852    1.1944 C   0  0  0  0  0  0  0  0  0  0  0  0
   -6.0640   -0.3492    3.5219 H   0  0  0  0  0  0  0  0  0  0  0  0
   -6.3756    1.3814    3.2973 H   0  0  0  0  0  0  0  0  0  0  0  0
   -5.9058    0.7640    4.8798 H   0  0  0  0  0  0  0  0  0  0  0  0
   -3.9842    1.8895    3.8302 H   0  0  0  0  0  0  0  0  0  0  0  0
   -3.6610    0.2058    4.1138 H   0  0  0  0  0  0  0  0  0  0  0  0
   -3.4229   -1.3243    2.2980 H   0  0  0  0  0  0  0  0  0  0  0  0
   -4.9995   -0.9847    1.5721 H   0  0  0  0  0  0  0  0  0  0  0  0
   -3.4550   -1.8193   -0.1328 H   0  0  0  0  0  0  0  0  0  0  0  0
   -2.2439   -0.6220    0.2977 H   0  0  0  0  0  0  0  0  0  0  0  0
   -5.0373   -0.0674   -0.8188 H   0  0  0  0  0  0  0  0  0  0  0  0
   -3.9457   -0.5667   -2.7032 H   0  0  0  0  0  0  0  0  0  0  0  0
    0.3032    2.1416   -2.1156 H   0  0  0  0  0  0  0  0  0  0  0  0
   -0.2465   -1.2592   -1.0643 H   0  0  0  0  0  0  0  0  0  0  0  0
    1.4660   -2.7949   -0.2665 H   0  0  0  0  0  0  0  0  0  0  0  0
    3.7227   -3.4609   -0.1620 H   0  0  0  0  0  0  0  0  0  0  0  0
    5.9448    0.6708    0.2422 H   0  0  0  0  0  0  0  0  0  0  0  0
    5.4833    2.2526    2.0890 H   0  0  0  0  0  0  0  0  0  0  0  0
    4.5906    1.4192    4.2510 H   0  0  0  0  0  0  0  0  0  0  0  0
    4.1755   -0.9988    4.5858 H   0  0  0  0  0  0  0  0  0  0  0  0
    4.6293   -2.6043    2.7495 H   0  0  0  0  0  0  0  0  0  0  0  0
    4.5330   -0.2254   -1.8468 H   0  0  0  0  0  0  0  0  0  0  0  0
    4.0265    1.9667   -2.5033 H   0  0  0  0  0  0  0  0  0  0  0  0
    2.3996    2.6059   -2.4830 H   0  0  0  0  0  0  0  0  0  0  0  0
    2.9356    1.5912   -3.8521 H   0  0  0  0  0  0  0  0  0  0  0  0
   -1.4541    2.5392   -4.1115 H   0  0  0  0  0  0  0  0  0  0  0  0
   -0.4393    2.1587   -5.6192 H   0  0  0  0  0  0  0  0  0  0  0  0
   -4.4456    2.3030   -0.8782 H   0  0  0  0  0  0  0  0  0  0  0  0
   -2.8684    1.9846   -0.1667 H   0  0  0  0  0  0  0  0  0  0  0  0
   -5.5858    1.4934    1.1327 H   0  0  0  0  0  0  0  0  0  0  0  0
   -4.3793    2.7058    1.5751 H   0  0  0  0  0  0  0  0  0  0  0  0
  1  2  1  0
  2  3  1  0
  3  4  1  0
  4  5  1  0
  5  6  1  0
  6  7  1  0
  7  8  1  0
  8  9  2  0
  9 10  1  0
 10 11  1  0
 11 12  2  0
 12 13  1  0
 13 14  2  0
 14 15  1  0
 15 16  1  0
 16 17  2  0
 16 18  2  0
 16 19  1  0
 19 20  2  0
 20 21  1  0
 21 22  2  0
 22 23  1  0
 23 24  2  0
 14 25  1  0
 25 26  2  0
 26 27  1  0
 10 28  1  0
 28 29  1  0
 29 30  1  0
 30 31  2  0
  6 32  1  0
 32 33  1  0
 33  3  1  0
 31  8  1  0
 26 11  1  0
 30 28  1  0
 24 19  1  0
  1 34  1  0
  1 35  1  0
  1 36  1  0
  2 37  1  0
  2 38  1  0
  4 39  1  0
  4 40  1  0
  5 41  1  0
  5 42  1  0
  6 43  1  0
  7 44  1  0
 10 45  1  0
 12 46  1  0
 13 47  1  0
 15 48  1  0
 20 49  1  0
 21 50  1  0
 22 51  1  0
 23 52  1  0
 24 53  1  0
 25 54  1  0
 27 55  1  0
 27 56  1  0
 27 57  1  0
 29 58  1  0
 29 59  1  0
 32 60  1  0
 32 61  1  0
 33 62  1  0
 33 63  1  0
M  END
$$$$
