
     RDKit          3D

 70 75  0  0  0  0  0  0  0  0999 V2000
   10.9257   -1.2759    0.4748 C   0  0  0  0  0  0  0  0  0  0  0  0
    9.4902   -1.3040    0.2038 N   0  0  0  0  0  0  0  0  0  0  0  0
    8.9930   -2.6675    0.0386 C   0  0  0  0  0  0  0  0  0  0  0  0
    7.4590   -2.6786    0.0544 C   0  0  0  0  0  0  0  0  0  0  0  0
    6.8362   -1.4411   -0.6154 C   0  0  0  0  0  0  0  0  0  0  0  0
    6.4642   -0.4741    0.4095 N   0  0  0  0  0  0  0  0  0  0  0  0
    5.6404    0.5884    0.1778 C   0  0  0  0  0  0  0  0  0  0  0  0
    4.7777    0.5635   -0.7742 N   0  0  0  0  0  0  0  0  0  0  0  0
    3.9987    1.7776   -0.9071 C   0  0  0  0  0  0  0  0  0  0  0  0
    2.5060    1.5527   -0.6563 C   0  0  0  0  0  0  0  0  0  0  0  0
    2.0494    0.5349    0.1971 C   0  0  0  0  0  0  0  0  0  0  0  0
    0.6836    0.3625    0.4379 C   0  0  0  0  0  0  0  0  0  0  0  0
   -0.2519    1.2195   -0.1504 C   0  0  0  0  0  0  0  0  0  0  0  0
   -1.6761    1.0216    0.1285 C   0  0  0  0  0  0  0  0  0  0  0  0
   -2.4308    1.9831    0.6829 C   0  0  0  0  0  0  0  0  0  0  0  0
   -3.8017    1.7729    0.9881 C   0  0  0  0  0  0  0  0  0  0  0  0
   -4.5808    2.6032    1.6649 N   0  0  0  0  0  0  0  0  0  0  0  0
   -5.8281    2.0256    1.7630 N   0  0  0  0  0  0  0  0  0  0  0  0
   -5.7560    0.8819    1.1291 C   0  0  0  0  0  0  0  0  0  0  0  0
   -6.6739   -0.0964    0.8915 N   0  0  0  0  0  0  0  0  0  0  0  0
   -7.9555   -0.0270    1.3873 C   0  0  0  0  0  0  0  0  0  0  0  0
   -8.3868    0.8356    2.1439 O   0  0  0  0  0  0  0  0  0  0  0  0
   -8.7958   -1.2251    0.9719 C   0  0  0  0  0  0  0  0  0  0  0  0
  -10.2588   -0.8505    0.7442 C   0  0  0  0  0  0  0  0  0  0  0  0
  -11.1915   -2.0545    0.8234 C   0  0  0  0  0  0  0  0  0  0  0  0
  -12.4292   -1.6100    0.0537 C   0  0  0  0  0  0  0  0  0  0  0  0
  -11.9801   -0.3986   -0.7539 C   0  0  0  0  0  0  0  0  0  0  0  0
  -10.5167   -0.3598   -0.6267 N   0  0  0  0  0  0  0  0  0  0  0  0
   -4.5165    0.6469    0.6113 O   0  0  0  0  0  0  0  0  0  0  0  0
    0.1909    2.2302   -1.0096 C   0  0  0  0  0  0  0  0  0  0  0  0
    1.5564    2.3929   -1.2623 C   0  0  0  0  0  0  0  0  0  0  0  0
    4.5477    2.9204   -0.2172 N   0  0  0  0  0  0  0  0  0  0  0  0
    3.9714    3.5996    0.8206 C   0  0  0  0  0  0  0  0  0  0  0  0
    5.0773    2.6844    1.0836 C   0  0  0  0  0  0  0  0  0  0  0  0
    5.8062    1.6211    1.0428 N   0  0  0  0  0  0  0  0  0  0  0  0
    7.8171   -0.8209   -1.6108 C   0  0  0  0  0  0  0  0  0  0  0  0
    9.1576   -0.4609   -0.9556 C   0  0  0  0  0  0  0  0  0  0  0  0
   11.1553   -1.8282    1.3929 H   0  0  0  0  0  0  0  0  0  0  0  0
   11.5101   -1.7097   -0.3439 H   0  0  0  0  0  0  0  0  0  0  0  0
   11.2654   -0.2463    0.6341 H   0  0  0  0  0  0  0  0  0  0  0  0
    9.3673   -3.1084   -0.8951 H   0  0  0  0  0  0  0  0  0  0  0  0
    9.3435   -3.3133    0.8528 H   0  0  0  0  0  0  0  0  0  0  0  0
    7.1262   -3.5804   -0.4756 H   0  0  0  0  0  0  0  0  0  0  0  0
    7.0979   -2.7763    1.0871 H   0  0  0  0  0  0  0  0  0  0  0  0
    5.9291   -1.7635   -1.1419 H   0  0  0  0  0  0  0  0  0  0  0  0
    7.2293   -0.2313    1.0336 H   0  0  0  0  0  0  0  0  0  0  0  0
    4.0693    2.0282   -1.9742 H   0  0  0  0  0  0  0  0  0  0  0  0
    2.7587   -0.1300    0.6864 H   0  0  0  0  0  0  0  0  0  0  0  0
    0.3635   -0.4302    1.1091 H   0  0  0  0  0  0  0  0  0  0  0  0
   -2.0731    0.0359   -0.1042 H   0  0  0  0  0  0  0  0  0  0  0  0
   -2.0131    2.9504    0.9468 H   0  0  0  0  0  0  0  0  0  0  0  0
   -6.3636   -0.8730    0.3295 H   0  0  0  0  0  0  0  0  0  0  0  0
   -8.7162   -1.9537    1.7906 H   0  0  0  0  0  0  0  0  0  0  0  0
   -8.3738   -1.7039    0.0779 H   0  0  0  0  0  0  0  0  0  0  0  0
  -10.5860   -0.0890    1.4646 H   0  0  0  0  0  0  0  0  0  0  0  0
  -11.4287   -2.3300    1.8573 H   0  0  0  0  0  0  0  0  0  0  0  0
  -10.7485   -2.9330    0.3333 H   0  0  0  0  0  0  0  0  0  0  0  0
  -12.7906   -2.4173   -0.5930 H   0  0  0  0  0  0  0  0  0  0  0  0
  -13.2396   -1.3352    0.7392 H   0  0  0  0  0  0  0  0  0  0  0  0
  -12.2863   -0.4644   -1.8035 H   0  0  0  0  0  0  0  0  0  0  0  0
  -12.4118    0.5202   -0.3391 H   0  0  0  0  0  0  0  0  0  0  0  0
  -10.1259   -1.0162   -1.3040 H   0  0  0  0  0  0  0  0  0  0  0  0
   -0.5206    2.8964   -1.4928 H   0  0  0  0  0  0  0  0  0  0  0  0
    1.8814    3.1884   -1.9301 H   0  0  0  0  0  0  0  0  0  0  0  0
    3.0141    3.2981    1.2162 H   0  0  0  0  0  0  0  0  0  0  0  0
    4.2025    4.6528    0.8852 H   0  0  0  0  0  0  0  0  0  0  0  0
    7.3910    0.0715   -2.0846 H   0  0  0  0  0  0  0  0  0  0  0  0
    7.9970   -1.5456   -2.4162 H   0  0  0  0  0  0  0  0  0  0  0  0
    9.9338   -0.5191   -1.7305 H   0  0  0  0  0  0  0  0  0  0  0  0
    9.1239    0.5826   -0.6190 H   0  0  0  0  0  0  0  0  0  0  0  0
  1  2  1  0
  2  3  1  0
  3  4  1  0
  4  5  1  0
  5  6  1  0
  6  7  1  0
  7  8  2  0
  8  9  1  0
  9 10  1  0
 10 11  2  0
 11 12  1  0
 12 13  2  0
 13 14  1  0
 14 15  2  3
 15 16  1  0
 16 17  2  0
 17 18  1  0
 18 19  2  0
 19 20  1  0
 20 21  1  0
 21 22  2  0
 21 23  1  0
 23 24  1  0
 24 25  1  0
 25 26  1  0
 26 27  1  0
 27 28  1  0
 19 29  1  0
 13 30  1  0
 30 31  2  0
  9 32  1  0
 32 33  1  0
 33 34  1  0
 34 35  2  0
  5 36  1  0
 36 37  1  0
 37  2  1  0
 35  7  1  0
 31 10  1  0
 34 32  1  0
 29 16  1  0
 28 24  1  0
  1 38  1  0
  1 39  1  0
  1 40  1  0
  3 41  1  0
  3 42  1  0
  4 43  1  0
  4 44  1  0
  5 45  1  0
  6 46  1  0
  9 47  1  0
 11 48  1  0
 12 49  1  0
 14 50  1  0
 15 51  1  0
 20 52  1  0
 23 53  1  0
 23 54  1  0
 24 55  1  0
 25 56  1  0
 25 57  1  0
 26 58  1  0
 26 59  1  0
 27 60  1  0
 27 61  1  0
 28 62  1  0
 30 63  1  0
 31 64  1  0
 33 65  1  0
 33 66  1  0
 36 67  1  0
 36 68  1  0
 37 69  1  0
 37 70  1  0
M  END
$$$$
