
     RDKit          3D

 61 65  0  0  0  0  0  0  0  0999 V2000
    8.5687    1.5151   -2.0851 C   0  0  0  0  0  0  0  0  0  0  0  0
    7.8517    2.0584   -0.9922 O   0  0  0  0  0  0  0  0  0  0  0  0
    7.2122    1.1728   -0.1704 C   0  0  0  0  0  0  0  0  0  0  0  0
    6.5968    1.7507    0.9460 C   0  0  0  0  0  0  0  0  0  0  0  0
    5.9116    0.9611    1.8721 C   0  0  0  0  0  0  0  0  0  0  0  0
    5.8180   -0.4152    1.6631 C   0  0  0  0  0  0  0  0  0  0  0  0
    4.9647   -1.4386    2.8414 S   0  0  0  0  0  0  0  0  0  0  0  0
    5.7641   -2.6345    3.0199 O   0  0  0  0  0  0  0  0  0  0  0  0
    4.5914   -0.6178    3.9752 O   0  0  0  0  0  0  0  0  0  0  0  0
    3.5903   -1.9277    2.0253 N   0  0  0  0  0  0  0  0  0  0  0  0
    2.5488   -1.0827    1.5511 C   0  0  0  0  0  0  0  0  0  0  0  0
    1.6101   -1.6684    0.6993 C   0  0  0  0  0  0  0  0  0  0  0  0
    0.5209   -0.9330    0.2184 C   0  0  0  0  0  0  0  0  0  0  0  0
    0.3462    0.4106    0.5851 C   0  0  0  0  0  0  0  0  0  0  0  0
   -0.8057    1.2446    0.0250 C   0  0  0  0  0  0  0  0  0  0  0  0
   -2.0102    0.4349   -0.1767 N   0  0  0  0  0  0  0  0  0  0  0  0
   -2.7150    0.6375   -1.2364 C   0  0  0  0  0  0  0  0  0  0  0  0
   -3.8761   -0.0462   -1.4692 N   0  0  0  0  0  0  0  0  0  0  0  0
   -4.6838   -0.5902   -0.3892 C   0  0  0  0  0  0  0  0  0  0  0  0
   -5.3918    0.5428    0.3550 C   0  0  0  0  0  0  0  0  0  0  0  0
   -6.7222    0.0742    0.9176 C   0  0  0  0  0  0  0  0  0  0  0  0
   -7.6502   -0.2903   -0.1499 N   0  0  0  0  0  0  0  0  0  0  0  0
   -8.7854   -1.0277    0.3775 C   0  0  0  0  0  0  0  0  0  0  0  0
   -7.0171   -0.9625   -1.2876 C   0  0  0  0  0  0  0  0  0  0  0  0
   -5.6736   -1.6091   -0.9607 C   0  0  0  0  0  0  0  0  0  0  0  0
   -2.3953    1.5407   -2.2072 N   0  0  0  0  0  0  0  0  0  0  0  0
   -1.2404    2.0675   -2.0960 C   0  0  0  0  0  0  0  0  0  0  0  0
    0.0475    1.4293   -2.3398 C   0  0  0  0  0  0  0  0  0  0  0  0
   -0.3314    2.0460   -1.0944 N   0  0  0  0  0  0  0  0  0  0  0  0
    1.2871    0.9903    1.4505 C   0  0  0  0  0  0  0  0  0  0  0  0
    2.3630    0.2436    1.9465 C   0  0  0  0  0  0  0  0  0  0  0  0
    6.4405   -1.0056    0.5603 C   0  0  0  0  0  0  0  0  0  0  0  0
    7.1362   -0.2091   -0.3567 C   0  0  0  0  0  0  0  0  0  0  0  0
    9.3384    0.8130   -1.7554 H   0  0  0  0  0  0  0  0  0  0  0  0
    9.0545    2.3429   -2.5872 H   0  0  0  0  0  0  0  0  0  0  0  0
    7.8972    1.0397   -2.8014 H   0  0  0  0  0  0  0  0  0  0  0  0
    6.6615    2.8269    1.0988 H   0  0  0  0  0  0  0  0  0  0  0  0
    5.4607    1.4246    2.7485 H   0  0  0  0  0  0  0  0  0  0  0  0
    3.6383   -2.8870    1.6932 H   0  0  0  0  0  0  0  0  0  0  0  0
    1.7180   -2.6977    0.3752 H   0  0  0  0  0  0  0  0  0  0  0  0
   -0.2021   -1.4169   -0.4388 H   0  0  0  0  0  0  0  0  0  0  0  0
   -1.0731    1.9598    0.8156 H   0  0  0  0  0  0  0  0  0  0  0  0
   -4.4061    0.4043   -2.2042 H   0  0  0  0  0  0  0  0  0  0  0  0
   -4.0290   -1.1335    0.3023 H   0  0  0  0  0  0  0  0  0  0  0  0
   -4.7483    0.9026    1.1581 H   0  0  0  0  0  0  0  0  0  0  0  0
   -5.5657    1.4024   -0.2988 H   0  0  0  0  0  0  0  0  0  0  0  0
   -6.5438   -0.7726    1.5924 H   0  0  0  0  0  0  0  0  0  0  0  0
   -7.1667    0.8757    1.5130 H   0  0  0  0  0  0  0  0  0  0  0  0
   -8.4839   -1.9725    0.8345 H   0  0  0  0  0  0  0  0  0  0  0  0
   -9.3075   -0.4278    1.1259 H   0  0  0  0  0  0  0  0  0  0  0  0
   -9.5103   -1.2421   -0.4086 H   0  0  0  0  0  0  0  0  0  0  0  0
   -7.6823   -1.7068   -1.7344 H   0  0  0  0  0  0  0  0  0  0  0  0
   -6.8679   -0.2074   -2.0710 H   0  0  0  0  0  0  0  0  0  0  0  0
   -5.2642   -2.1026   -1.8521 H   0  0  0  0  0  0  0  0  0  0  0  0
   -5.8336   -2.4060   -0.2215 H   0  0  0  0  0  0  0  0  0  0  0  0
    0.0715    0.3502   -2.3856 H   0  0  0  0  0  0  0  0  0  0  0  0
    0.7699    1.9924   -2.9126 H   0  0  0  0  0  0  0  0  0  0  0  0
    1.1748    2.0240    1.7655 H   0  0  0  0  0  0  0  0  0  0  0  0
    3.0351    0.7339    2.6431 H   0  0  0  0  0  0  0  0  0  0  0  0
    6.3892   -2.0824    0.4100 H   0  0  0  0  0  0  0  0  0  0  0  0
    7.6035   -0.6987   -1.2052 H   0  0  0  0  0  0  0  0  0  0  0  0
  1  2  1  0
  2  3  1  0
  3  4  2  0
  4  5  1  0
  5  6  2  0
  6  7  1  0
  7  8  2  0
  7  9  2  0
  7 10  1  0
 10 11  1  0
 11 12  2  0
 12 13  1  0
 13 14  2  0
 14 15  1  0
 15 16  1  0
 16 17  2  0
 17 18  1  0
 18 19  1  0
 19 20  1  0
 20 21  1  0
 21 22  1  0
 22 23  1  0
 22 24  1  0
 24 25  1  0
 17 26  1  0
 26 27  2  0
 27 28  1  0
 28 29  1  0
 14 30  1  0
 30 31  2  0
  6 32  1  0
 32 33  2  0
 33  3  1  0
 31 11  1  0
 29 15  1  0
 25 19  1  0
 29 27  1  0
  1 34  1  0
  1 35  1  0
  1 36  1  0
  4 37  1  0
  5 38  1  0
 10 39  1  0
 12 40  1  0
 13 41  1  0
 15 42  1  0
 18 43  1  0
 19 44  1  0
 20 45  1  0
 20 46  1  0
 21 47  1  0
 21 48  1  0
 23 49  1  0
 23 50  1  0
 23 51  1  0
 24 52  1  0
 24 53  1  0
 25 54  1  0
 25 55  1  0
 28 56  1  0
 28 57  1  0
 30 58  1  0
 31 59  1  0
 32 60  1  0
 33 61  1  0
M  END
$$$$
