MODEL        8USER    Run = 8USERUSER    Estimated Free Energy of Binding    = -10.19 kcal/mol  [=(1)+(2)+(3)-(4)]USERUSER    (1) Final Intermolecular Energy     = -12.58 kcal/molUSER        vdW + Hbond + desolv Energy     = -12.44 kcal/molUSER        Electrostatic Energy            =  -0.14 kcal/molUSER        Moving Ligand-Fixed Receptor    = -12.58 kcal/molUSER        Moving Ligand-Moving Receptor   =  +0.00 kcal/molUSER    (2) Final Total Internal Energy     =  -1.41 kcal/molUSER    (3) Torsional Free Energy           =  +2.39 kcal/molUSER    (4) Unbound System's Energy         =  -1.41 kcal/molUSERUSERREMARK SMILES NC(=O)Sc1[nH]nccc(N2CCC(C(F)(F)F)CC2)ccc1C=CS(N)(=O)=OREMARK SMILES IDX 24 1 23 2 5 3 6 4 7 5 22 6 8 7 21 8 9 9 10 10 4 12 2 13 1 14REMARK SMILES IDX 3 17 11 18 12 19 20 20 13 21 19 22 14 23 15 24 16 25 17 26REMARK SMILES IDX 18 27 25 28 26 29 28 30 29 31 27 32REMARK H PARENT 6 11 1 15 1 16 27 33 27 34USER                              x       y       z     vdW  Elec       q    TypeUSER                           _______ _______ _______ _____ _____    ______ ____ROOTATOM      1  C   UNL     1      37.677  48.219  14.919 -0.58 -0.02    +0.024 C  ENDROOTBRANCH   1   2ATOM      2  C   UNL     1      38.682  47.642  15.832 -0.46 -0.00    +0.007 A  ATOM      3  C   UNL     1      39.998  47.904  15.617 -0.46 -0.03    +0.106 A  ATOM      4  N   UNL     1      41.010  47.267  16.315 -0.23 +0.03    -0.271 N  ATOM      5  N   UNL     1      41.559  48.013  17.431 -0.57 +0.01    -0.183 NA ATOM      6  C   UNL     1      38.156  46.802  16.747 -0.36 -0.01    +0.013 A  ATOM      7  C   UNL     1      41.409  47.313  18.559 -0.36 -0.00    +0.135 A  ATOM      8  C   UNL     1      38.473  46.066  17.820 -0.35 -0.01    +0.026 A  ATOM      9  C   UNL     1      40.590  46.378  19.062 -0.38 -0.00    +0.048 A  ATOM     10  C   UNL     1      39.410  45.805  18.754 -0.40 -0.00    +0.038 A  ATOM     11  H   UNL     1      41.792  47.144  15.672 +0.16 +0.00    +0.191 HD BRANCH   3  12ATOM     12  S   UNL     1      40.529  48.875  14.217 -0.61 +0.00    -0.009 SA BRANCH  12  13ATOM     13  C   UNL     1      41.647  50.032  14.892 -0.49 -0.05    +0.282 C  ATOM     14  N   UNL     1      41.254  50.356  16.158 -0.26 +0.08    -0.360 N  ATOM     15  H   UNL     1      41.955  50.799  16.732 -0.49 -0.02    +0.160 HD ATOM     16  H   UNL     1      40.564  49.758  16.591 +0.11 -0.04    +0.160 HD ATOM     17  O   UNL     1      42.686  50.458  14.406 -0.56 +0.04    -0.262 OA ENDBRANCH  12  13ENDBRANCH   3  12BRANCH  10  18ATOM     18  N   UNL     1      38.992  44.766  19.676 -0.15 +0.01    -0.371 N  ATOM     19  C   UNL     1      37.761  44.014  19.379 -0.30 -0.01    +0.117 C  ATOM     20  C   UNL     1      39.380  44.900  21.089 -0.32 +0.00    +0.117 C  ATOM     21  C   UNL     1      36.780  44.103  20.543 -0.43 -0.00    +0.034 C  ATOM     22  C   UNL     1      38.917  43.682  21.878 -0.31 +0.00    +0.034 C  ATOM     23  C   UNL     1      37.383  43.548  21.848 -0.38 +0.01    +0.098 C  BRANCH  23  24ATOM     24  C   UNL     1      36.981  42.102  22.073 -0.29 +0.02    +0.391 C  ATOM     25  F   UNL     1      38.068  41.291  22.089 -0.14 -0.02    -0.171 F  ATOM     26  F   UNL     1      36.329  41.932  23.243 -0.19 -0.01    -0.171 F  ATOM     27  F   UNL     1      36.174  41.659  21.081 -0.21 -0.00    -0.171 F  ENDBRANCH  23  24ENDBRANCH  10  18ENDBRANCH   1   2BRANCH   1  28ATOM     28  C   UNL     1      36.710  47.508  14.322 -0.45 -0.08    +0.123 C  BRANCH  28  29ATOM     29  S   UNL     1      36.506  47.610  12.615 -0.72 -0.10    +0.231 S  ATOM     30  O   UNL     1      37.729  47.173  11.977 -1.00 +0.03    -0.208 OA ATOM     31  O   UNL     1      35.893  48.874  12.268 -0.49 +0.10    -0.208 OA BRANCH  29  32ATOM     32  N   UNL     1      35.363  46.431  12.230 -0.33 +0.14    -0.225 NA ATOM     33  H   UNL     1      35.280  46.303  11.221 -0.11 -0.09    +0.137 HD ATOM     34  H   UNL     1      34.480  46.588  12.718 -0.33 -0.12    +0.137 HD ENDBRANCH  29  32ENDBRANCH  28  29ENDBRANCH   1  28TORSDOF 8TERENDMDL