REMARK SMILES NC(=O)Sc1[nH]nccc(N2CCC(C(F)(F)F)CC2)ccc1C=CS(N)(=O)=O
REMARK SMILES IDX 24 1 23 2 5 3 6 4 7 5 22 6 8 7 21 8 9 9 10 10 4 12 2 13 1 14
REMARK SMILES IDX 3 17 11 18 12 19 20 20 13 21 19 22 14 23 15 24 16 25 17 26
REMARK SMILES IDX 18 27 25 28 26 29 28 30 29 31 27 32
REMARK H PARENT 6 11 1 15 1 16 27 33 27 34
ROOT
ATOM      1  C   UNL     1      -3.471   1.031   0.021  1.00  0.00     0.024 C 
ENDROOT
BRANCH   1   2
ATOM      2  C   UNL     1      -2.368   0.057   0.116  1.00  0.00     0.007 A 
ATOM      3  C   UNL     1      -2.661  -1.264   0.245  1.00  0.00     0.106 A 
ATOM      4  N   UNL     1      -1.697  -2.220   0.513  1.00  0.00    -0.271 N 
ATOM      5  N   UNL     1      -1.213  -2.954  -0.641  1.00  0.00    -0.183 NA
ATOM      6  C   UNL     1      -1.148   0.631   0.171  1.00  0.00     0.013 A 
ATOM      7  C   UNL     1       0.107  -2.787  -0.760  1.00  0.00     0.135 A 
ATOM      8  C   UNL     1       0.160   0.346   0.188  1.00  0.00     0.026 A 
ATOM      9  C   UNL     1       1.040  -1.880  -0.438  1.00  0.00     0.048 A 
ATOM     10  C   UNL     1       1.095  -0.609   0.007  1.00  0.00     0.038 A 
ATOM     11  H   UNL     1      -2.127  -2.926   1.111  1.00  0.00     0.191 HD
BRANCH   3  12
ATOM     12  S   UNL     1      -4.351  -1.826   0.367  1.00  0.00    -0.009 SA
BRANCH  12  13
ATOM     13  C   UNL     1      -5.023  -1.522  -1.213  1.00  0.00     0.282 C 
ATOM     14  N   UNL     1      -6.325  -1.931  -1.238  1.00  0.00    -0.360 N 
ATOM     15  H   UNL     1      -6.882  -1.567  -1.996  1.00  0.00     0.160 HD
ATOM     16  H   UNL     1      -6.764  -2.119  -0.347  1.00  0.00     0.160 HD
ATOM     17  O   UNL     1      -4.503  -0.955  -2.165  1.00  0.00    -0.262 OA
ENDBRANCH  12  13
ENDBRANCH   3  12
BRANCH  10  18
ATOM     18  N   UNL     1       2.439  -0.113   0.234  1.00  0.00    -0.371 N 
ATOM     19  C   UNL     1       3.206   0.395  -0.916  1.00  0.00     0.117 C 
ATOM     20  C   UNL     1       3.200  -0.672   1.362  1.00  0.00     0.117 C 
ATOM     21  C   UNL     1       4.535  -0.342  -1.046  1.00  0.00     0.034 C 
ATOM     22  C   UNL     1       4.549   0.025   1.482  1.00  0.00     0.034 C 
ATOM     23  C   UNL     1       5.402  -0.192   0.218  1.00  0.00     0.098 C 
BRANCH  23  24
ATOM     24  C   UNL     1       6.409   0.934   0.069  1.00  0.00     0.391 C 
ATOM     25  F   UNL     1       7.231   0.716  -0.987  1.00  0.00    -0.171 F 
ATOM     26  F   UNL     1       5.810   2.129  -0.121  1.00  0.00    -0.171 F 
ATOM     27  F   UNL     1       7.195   1.034   1.166  1.00  0.00    -0.171 F 
ENDBRANCH  23  24
ENDBRANCH  10  18
ENDBRANCH   1   2
BRANCH   1  28
ATOM     28  C   UNL     1      -4.035   1.631   1.079  1.00  0.00     0.123 C 
BRANCH  28  29
ATOM     29  S   UNL     1      -5.378   2.685   0.848  1.00  0.00     0.231 S 
ATOM     30  O   UNL     1      -5.557   3.473   2.048  1.00  0.00    -0.208 OA
ATOM     31  O   UNL     1      -6.481   1.954   0.263  1.00  0.00    -0.208 OA
BRANCH  29  32
ATOM     32  N   UNL     1      -4.886   3.785  -0.332  1.00  0.00    -0.225 NA
ATOM     33  H   UNL     1      -4.800   3.341  -1.247  1.00  0.00     0.137 HD
ATOM     34  H   UNL     1      -4.068   4.318  -0.033  1.00  0.00     0.137 HD
ENDBRANCH  29  32
ENDBRANCH  28  29
ENDBRANCH   1  28
TORSDOF 8
