MODEL        10USER    Run = 10USERUSER    Estimated Free Energy of Binding    = -10.25 kcal/mol  [=(1)+(2)+(3)-(4)]USERUSER    (1) Final Intermolecular Energy     = -12.64 kcal/molUSER        vdW + Hbond + desolv Energy     = -12.59 kcal/molUSER        Electrostatic Energy            =  -0.05 kcal/molUSER        Moving Ligand-Fixed Receptor    = -12.64 kcal/molUSER        Moving Ligand-Moving Receptor   =  +0.00 kcal/molUSER    (2) Final Total Internal Energy     =  -1.64 kcal/molUSER    (3) Torsional Free Energy           =  +2.39 kcal/molUSER    (4) Unbound System's Energy         =  -1.64 kcal/molUSERUSERREMARK SMILES CC(=O)Sc1[nH]nccc(N2CCC(C(F)(F)F)CC2)ccc1C=CS(N)(=O)=OREMARK SMILES IDX 24 1 23 2 5 3 6 4 7 5 22 6 8 7 21 8 9 9 10 10 4 12 2 13 1 14REMARK SMILES IDX 3 15 11 16 12 17 20 18 13 19 19 20 14 21 15 22 16 23 17 24REMARK SMILES IDX 18 25 25 26 26 27 28 28 29 29 27 30REMARK H PARENT 6 11 27 31 27 32USER                              x       y       z     vdW  Elec       q    TypeUSER                           _______ _______ _______ _____ _____    ______ ____ROOTATOM      1  C   UNL     1      38.619  46.128  14.199 -0.45 -0.01    +0.024 C  ENDROOTBRANCH   1   2ATOM      2  C   UNL     1      38.985  46.435  15.596 -0.42 -0.00    +0.007 A  ATOM      3  C   UNL     1      39.678  47.570  15.877 -0.43 -0.03    +0.104 A  ATOM      4  N   UNL     1      40.182  47.883  17.117 -0.29 +0.06    -0.271 N  ATOM      5  N   UNL     1      41.430  47.225  17.477 -0.35 +0.02    -0.183 NA ATOM      6  C   UNL     1      38.527  45.515  16.473 -0.33 -0.00    +0.013 A  ATOM      7  C   UNL     1      41.262  46.660  18.676 -0.41 -0.00    +0.135 A  ATOM      8  C   UNL     1      38.546  45.184  17.770 -0.37 -0.00    +0.026 A  ATOM      9  C   UNL     1      40.298  45.977  19.312 -0.38 -0.00    +0.048 A  ATOM     10  C   UNL     1      39.140  45.377  18.967 -0.39 -0.00    +0.038 A  ATOM     11  H   UNL     1      40.376  48.880  17.166 +0.13 -0.05    +0.191 HD BRANCH   3  12ATOM     12  S   UNL     1      39.877  48.828  14.623 -0.67 +0.01    -0.032 SA BRANCH  12  13ATOM     13  C   UNL     1      41.349  49.589  15.218 -0.57 -0.03    +0.192 C  ATOM     14  C   UNL     1      42.367  49.973  14.180 -0.61 -0.01    +0.101 C  ATOM     15  O   UNL     1      41.512  49.809  16.415 -1.05 -0.00    -0.287 OA ENDBRANCH  12  13ENDBRANCH   3  12BRANCH  10  16ATOM     16  N   UNL     1      38.513  44.714  20.087 -0.14 +0.01    -0.371 N  ATOM     17  C   UNL     1      37.481  43.701  19.855 -0.30 -0.01    +0.117 C  ATOM     18  C   UNL     1      39.263  44.578  21.341 -0.30 +0.00    +0.117 C  ATOM     19  C   UNL     1      36.475  43.740  21.003 -0.45 +0.00    +0.034 C  ATOM     20  C   UNL     1      38.289  44.629  22.517 -0.37 +0.00    +0.034 C  ATOM     21  C   UNL     1      37.141  43.618  22.383 -0.37 +0.01    +0.098 C  BRANCH  21  22ATOM     22  C   UNL     1      37.598  42.196  22.669 -0.22 +0.03    +0.391 C  ATOM     23  F   UNL     1      37.212  41.359  21.677 -0.22 -0.01    -0.171 F  ATOM     24  F   UNL     1      37.120  41.697  23.824 -0.16 -0.01    -0.171 F  ATOM     25  F   UNL     1      38.951  42.135  22.731 -0.09 -0.02    -0.171 F  ENDBRANCH  21  22ENDBRANCH  10  16ENDBRANCH   1   2BRANCH   1  26ATOM     26  C   UNL     1      37.340  46.173  13.795 -0.43 -0.05    +0.123 C  BRANCH  26  27ATOM     27  S   UNL     1      36.835  47.367  12.668 -0.70 -0.09    +0.231 S  ATOM     28  O   UNL     1      35.397  47.335  12.522 -0.51 +0.14    -0.208 OA ATOM     29  O   UNL     1      37.714  47.369  11.518 -1.00 +0.02    -0.208 OA BRANCH  27  30ATOM     30  N   UNL     1      37.158  48.824  13.458 -0.61 +0.10    -0.225 NA ATOM     31  H   UNL     1      38.022  49.247  13.122 -0.20 -0.03    +0.137 HD ATOM     32  H   UNL     1      37.087  48.720  14.468 +0.07 -0.11    +0.137 HD ENDBRANCH  27  30ENDBRANCH  26  27ENDBRANCH   1  26TORSDOF 8TERENDMDL