MODEL        2USER    Run = 2USERUSER    Estimated Free Energy of Binding    =  -6.35 kcal/mol  [=(1)+(2)+(3)-(4)]USERUSER    (1) Final Intermolecular Energy     =  -9.34 kcal/molUSER        vdW + Hbond + desolv Energy     =  -9.28 kcal/molUSER        Electrostatic Energy            =  -0.06 kcal/molUSER        Moving Ligand-Fixed Receptor    =  -9.34 kcal/molUSER        Moving Ligand-Moving Receptor   =  +0.00 kcal/molUSER    (2) Final Total Internal Energy     =  -2.61 kcal/molUSER    (3) Torsional Free Energy           =  +2.98 kcal/molUSER    (4) Unbound System's Energy         =  -2.61 kcal/molUSERUSERREMARK SMILES CCCN(CCOCCO)c1nc(-c2ccccn2)nc2[nH]ccc12REMARK SMILES IDX 6 1 5 2 4 3 3 4 2 5 1 6 11 7 12 8 25 9 13 10 24 11 21 12REMARK SMILES IDX 20 13 23 14 22 15 14 17 15 18 19 19 16 20 18 21 17 22 7 23REMARK SMILES IDX 8 24 9 25 10 26REMARK H PARENT 22 16 10 27USER                              x       y       z     vdW  Elec       q    TypeUSER                           _______ _______ _______ _____ _____    ______ ____ROOTATOM      1  C   UNL     1      38.839  47.523  13.805 -0.28 -0.04    +0.181 C  ENDROOTBRANCH   1   2ATOM      2  C   UNL     1      38.612  48.573  14.907 -0.46 -0.08    +0.146 C  BRANCH   2   3ATOM      3  N   UNL     1      39.577  48.505  16.024 -0.24 +0.14    -0.354 N  BRANCH   3   4ATOM      4  C   UNL     1      40.993  48.758  15.715 -0.57 -0.02    +0.118 C  BRANCH   4   5ATOM      5  C   UNL     1      41.172  49.611  14.454 -0.70 -0.00    +0.018 C  ATOM      6  C   UNL     1      42.392  50.519  14.520 -0.70 -0.00    +0.006 C  ENDBRANCH   4   5ENDBRANCH   3   4BRANCH   3   7ATOM      7  C   UNL     1      39.384  47.350  16.807 -0.35 -0.04    +0.142 A  ATOM      8  N   UNL     1      38.273  46.587  16.627 -0.26 +0.08    -0.209 NA ATOM      9  C   UNL     1      40.299  46.934  17.792 -0.44 -0.01    +0.061 A  ATOM     10  C   UNL     1      38.063  45.485  17.397 -0.26 -0.05    +0.182 A  ATOM     11  C   UNL     1      41.565  47.370  18.284 -0.51 -0.00    +0.033 A  ATOM     12  C   UNL     1      39.971  45.799  18.511 -0.36 -0.01    +0.143 A  ATOM     13  N   UNL     1      38.879  45.041  18.374 -0.27 +0.03    -0.208 NA ATOM     14  C   UNL     1      41.950  46.505  19.287 -0.42 +0.01    +0.085 A  ATOM     15  N   UNL     1      40.970  45.555  19.414 -0.20 -0.02    -0.346 N  ATOM     16  H   UNL     1      40.965  44.775  20.056 +0.10 +0.01    +0.167 HD BRANCH  10  17ATOM     17  C   UNL     1      36.814  44.715  17.136 -0.27 -0.04    +0.108 A  ATOM     18  C   UNL     1      36.807  43.575  16.326 -0.32 -0.01    +0.032 A  ATOM     19  N   UNL     1      35.662  45.162  17.718 -0.17 +0.11    -0.253 NA ATOM     20  C   UNL     1      35.615  42.885  16.108 -0.46 -0.00    +0.004 A  ATOM     21  C   UNL     1      34.521  44.475  17.492 -0.23 -0.05    +0.112 A  ATOM     22  C   UNL     1      34.449  43.342  16.702 -0.36 -0.01    +0.020 A  ENDBRANCH  10  17ENDBRANCH   3   7ENDBRANCH   2   3ENDBRANCH   1   2BRANCH   1  23ATOM     23  O   UNL     1      37.728  47.460  12.902 -0.77 +0.08    -0.377 OA BRANCH  23  24ATOM     24  C   UNL     1      36.545  48.042  13.448 -0.48 -0.10    +0.188 C  BRANCH  24  25ATOM     25  C   UNL     1      35.691  46.948  14.083 -0.32 -0.15    +0.184 C  BRANCH  25  26ATOM     26  O   UNL     1      36.485  45.821  14.431 -0.15 +0.20    -0.394 OA ATOM     27  H   UNL     1      37.365  46.151  14.680 +0.16 -0.09    +0.210 HD ENDBRANCH  25  26ENDBRANCH  24  25ENDBRANCH  23  24ENDBRANCH   1  23TORSDOF 10TERENDMDL