REMARK SMILES CC(C)C[C@@H](O)C(=O)Nc1ccc(O)c(C(F)(F)F)c1O
REMARK SMILES IDX 7 1 8 2 9 3 5 5 4 6 2 7 1 8 3 9 6 10 10 12 11 13 20 14 12 15
REMARK SMILES IDX 15 16 13 17 21 18 16 20 17 21 18 22 19 23 14 24
REMARK H PARENT 9 4 6 11 21 19 14 25
ROOT
ATOM      1  C   UNL     1      -0.386   0.882  -0.648  1.00  0.00     0.253 C 
ATOM      2  O   UNL     1       0.065   2.026  -0.678  1.00  0.00    -0.272 OA
ATOM      3  N   UNL     1       0.344  -0.261  -0.411  1.00  0.00    -0.321 N 
ATOM      4  H   UNL     1      -0.181  -1.126  -0.472  1.00  0.00     0.170 HD
ENDROOT
BRANCH   1   5
ATOM      5  C   UNL     1      -1.892   0.632  -0.882  1.00  0.00     0.203 C 
BRANCH   5   6
ATOM      6  C   UNL     1      -2.587   0.312   0.448  1.00  0.00     0.045 C 
BRANCH   6   7
ATOM      7  C   UNL     1      -4.001  -0.301   0.350  1.00  0.00    -0.014 C 
ATOM      8  C   UNL     1      -3.989  -1.679  -0.312  1.00  0.00     0.007 C 
ATOM      9  C   UNL     1      -5.015   0.613  -0.336  1.00  0.00     0.007 C 
ENDBRANCH   6   7
ENDBRANCH   5   6
BRANCH   5  10
ATOM     10  O   UNL     1      -2.488   1.777  -1.481  1.00  0.00    -0.383 OA
ATOM     11  H   UNL     1      -1.977   2.552  -1.170  1.00  0.00     0.211 HD
ENDBRANCH   5  10
ENDBRANCH   1   5
BRANCH   3  12
ATOM     12  C   UNL     1       1.724  -0.425  -0.129  1.00  0.00     0.084 A 
ATOM     13  C   UNL     1       2.126  -1.763   0.013  1.00  0.00     0.034 A 
ATOM     14  C   UNL     1       2.704   0.574   0.032  1.00  0.00     0.155 A 
ATOM     15  C   UNL     1       3.448  -2.096   0.302  1.00  0.00     0.049 A 
ATOM     16  C   UNL     1       4.048   0.250   0.327  1.00  0.00     0.141 A 
ATOM     17  C   UNL     1       4.400  -1.097   0.457  1.00  0.00     0.131 A 
BRANCH  14  18
ATOM     18  O   UNL     1       2.456   1.912  -0.073  1.00  0.00    -0.505 OA
ATOM     19  H   UNL     1       1.525   2.068  -0.337  1.00  0.00     0.293 HD
ENDBRANCH  14  18
BRANCH  16  20
ATOM     20  C   UNL     1       5.055   1.355   0.492  1.00  0.00     0.423 C 
ATOM     21  F   UNL     1       4.771   2.214   1.510  1.00  0.00    -0.166 F 
ATOM     22  F   UNL     1       6.306   0.871   0.786  1.00  0.00    -0.166 F 
ATOM     23  F   UNL     1       5.232   2.112  -0.626  1.00  0.00    -0.166 F 
ENDBRANCH  16  20
BRANCH  17  24
ATOM     24  O   UNL     1       5.661  -1.540   0.740  1.00  0.00    -0.507 OA
ATOM     25  H   UNL     1       6.284  -0.794   0.839  1.00  0.00     0.293 HD
ENDBRANCH  17  24
ENDBRANCH   3  12
TORSDOF 8
