REMARK SMILES CCOc1cc(O)ccc1C(=O)c1cc([N+](=O)[O-])ccc1[N+](=O)[O-]
REMARK SMILES IDX 4 1 5 2 6 3 8 4 9 5 10 6 3 7 2 8 1 9 11 10 12 11 13 12 14 13
REMARK SMILES IDX 21 14 15 15 20 16 19 17 22 18 23 19 24 20 16 21 17 22 18 23
REMARK SMILES IDX 7 24
REMARK H PARENT 7 25
ROOT
ATOM      1  C   UNL     1       1.742   0.629   0.411  1.00  0.00     0.134 A 
ATOM      2  C   UNL     1       2.530   1.758   0.638  1.00  0.00     0.093 A 
ATOM      3  C   UNL     1       2.505   2.795  -0.291  1.00  0.00     0.119 A 
ATOM      4  C   UNL     1       1.703   2.727  -1.428  1.00  0.00     0.047 A 
ATOM      5  C   UNL     1       0.897   1.608  -1.644  1.00  0.00     0.020 A 
ATOM      6  C   UNL     1       0.911   0.567  -0.712  1.00  0.00     0.065 A 
ENDROOT
BRANCH   1   7
ATOM      7  O   UNL     1       1.712  -0.366   1.352  1.00  0.00    -0.493 OA
BRANCH   7   8
ATOM      8  C   UNL     1       2.804  -1.274   1.149  1.00  0.00     0.226 C 
ATOM      9  C   UNL     1       2.562  -2.495   2.017  1.00  0.00     0.049 C 
ENDBRANCH   7   8
ENDBRANCH   1   7
BRANCH   6  10
ATOM     10  C   UNL     1       0.050  -0.604  -0.940  1.00  0.00     0.203 C 
ATOM     11  O   UNL     1       0.517  -1.647  -1.378  1.00  0.00    -0.288 OA
BRANCH  10  12
ATOM     12  C   UNL     1      -1.393  -0.522  -0.638  1.00  0.00     0.107 A 
ATOM     13  C   UNL     1      -1.814  -0.018   0.602  1.00  0.00     0.105 A 
ATOM     14  C   UNL     1      -2.347  -1.026  -1.530  1.00  0.00     0.281 A 
ATOM     15  C   UNL     1      -3.181  -0.029   0.926  1.00  0.00     0.270 A 
ATOM     16  C   UNL     1      -3.712  -1.042  -1.208  1.00  0.00     0.093 A 
ATOM     17  C   UNL     1      -4.130  -0.543   0.028  1.00  0.00     0.093 A 
BRANCH  14  18
ATOM     18  N   UNL     1      -1.961  -1.457  -2.862  1.00  0.00     0.063 N 
ATOM     19  O   UNL     1      -2.332  -2.582  -3.219  1.00  0.00    -0.258 OA
ATOM     20  O   UNL     1      -1.375  -0.624  -3.567  1.00  0.00    -0.258 OA
ENDBRANCH  14  18
BRANCH  15  21
ATOM     21  N   UNL     1      -3.623   0.496   2.227  1.00  0.00     0.062 N 
ATOM     22  O   UNL     1      -2.768   1.014   2.957  1.00  0.00    -0.258 OA
ATOM     23  O   UNL     1      -4.825   0.393   2.508  1.00  0.00    -0.258 OA
ENDBRANCH  15  21
ENDBRANCH  10  12
ENDBRANCH   6  10
BRANCH   3  24
ATOM     24  O   UNL     1       3.260   3.918  -0.120  1.00  0.00    -0.508 OA
ATOM     25  H   UNL     1       3.771   3.836   0.703  1.00  0.00     0.293 HD
ENDBRANCH   3  24
TORSDOF 7
