MODEL        8USER    Run = 8USERUSER    Estimated Free Energy of Binding    =  -8.14 kcal/mol  [=(1)+(2)+(3)-(4)]USERUSER    (1) Final Intermolecular Energy     =  -9.63 kcal/molUSER        vdW + Hbond + desolv Energy     =  -9.33 kcal/molUSER        Electrostatic Energy            =  -0.30 kcal/molUSER        Moving Ligand-Fixed Receptor    =  -9.63 kcal/molUSER        Moving Ligand-Moving Receptor   =  +0.00 kcal/molUSER    (2) Final Total Internal Energy     =  -2.06 kcal/molUSER    (3) Torsional Free Energy           =  +1.49 kcal/molUSER    (4) Unbound System's Energy         =  -2.06 kcal/molUSERUSERREMARK SMILES O=[N+]([O-])c1cccc(S(=O)(=O)Nc2cccc3cnccc23)c1OREMARK SMILES IDX 4 1 5 2 6 3 7 4 8 5 23 6 2 7 1 8 3 9 24 10 9 12 10 13 11 14REMARK SMILES IDX 12 15 13 17 14 18 22 19 15 20 21 21 17 22 16 23 20 24 18 25REMARK SMILES IDX 19 26REMARK H PARENT 24 11 12 16USER                              x       y       z     vdW  Elec       q    TypeUSER                           _______ _______ _______ _____ _____    ______ ____ROOTATOM      1  C   UNL     1      34.678  45.121  17.591 -0.13 -0.16    +0.312 A  ATOM      2  C   UNL     1      34.651  43.717  17.498 -0.25 -0.03    +0.090 A  ATOM      3  C   UNL     1      35.393  43.071  16.513 -0.43 -0.00    +0.009 A  ATOM      4  C   UNL     1      36.159  43.819  15.622 -0.39 -0.01    +0.027 A  ATOM      5  C   UNL     1      36.195  45.222  15.714 -0.26 -0.07    +0.136 A  ATOM      6  C   UNL     1      35.450  45.887  16.696 -0.20 -0.17    +0.215 A  ENDROOTBRANCH   1   7ATOM      7  N   UNL     1      33.889  45.757  18.652 -0.49 -0.03    +0.066 N  ATOM      8  O   UNL     1      33.913  46.993  18.736 -1.09 +0.19    -0.258 OA ATOM      9  O   UNL     1      33.237  45.016  19.403 -0.35 +0.08    -0.258 OA ENDBRANCH   1   7BRANCH   6  10ATOM     10  O   UNL     1      35.529  47.248  16.762 +0.05 +0.74    -0.501 OA ATOM     11  H   UNL     1      34.668  47.654  17.002 -0.12 -0.78    +0.293 HD ENDBRANCH   6  10BRANCH   5  12ATOM     12  S   UNL     1      37.150  46.104  14.496 -0.39 -0.12    +0.265 S  ATOM     13  O   UNL     1      38.440  45.442  14.415 -0.33 +0.05    -0.201 OA ATOM     14  O   UNL     1      36.380  46.302  13.290 -0.40 +0.10    -0.201 OA BRANCH  12  15ATOM     15  N   UNL     1      37.487  47.581  15.244 -0.24 +0.18    -0.279 N  ATOM     16  H   UNL     1      36.713  47.883  15.834 +0.12 -0.20    +0.180 HD BRANCH  15  17ATOM     17  C   UNL     1      38.808  47.837  15.719 -0.44 -0.03    +0.057 A  ATOM     18  C   UNL     1      39.537  48.829  15.054 -0.49 -0.01    +0.027 A  ATOM     19  C   UNL     1      39.356  47.151  16.831 -0.46 -0.00    +0.009 A  ATOM     20  C   UNL     1      40.828  49.145  15.464 -0.64 -0.00    +0.003 A  ATOM     21  C   UNL     1      38.681  46.153  17.564 -0.38 -0.01    +0.031 A  ATOM     22  C   UNL     1      40.665  47.490  17.239 -0.53 -0.00    +0.002 A  ATOM     23  C   UNL     1      41.391  48.479  16.551 -0.43 -0.00    +0.010 A  ATOM     24  C   UNL     1      39.314  45.549  18.639 -0.35 -0.01    +0.111 A  ATOM     25  C   UNL     1      41.201  46.818  18.340 -0.44 -0.01    +0.119 A  ATOM     26  N   UNL     1      40.557  45.865  19.050 -0.27 +0.00    -0.264 NA ENDBRANCH  15  17ENDBRANCH  12  15ENDBRANCH   5  12TORSDOF 5TERENDMDL