REMARK SMILES O=[N+]([O-])c1cccc(S(=O)(=O)Nc2cccc3cnccc23)c1O
REMARK SMILES IDX 4 1 5 2 6 3 7 4 8 5 23 6 2 7 1 8 3 9 24 10 9 12 10 13 11 14
REMARK SMILES IDX 12 15 13 17 14 18 22 19 15 20 21 21 17 22 16 23 20 24 18 25
REMARK SMILES IDX 19 26
REMARK H PARENT 24 11 12 16
ROOT
ATOM      1  C   UNL     1       3.334   0.906  -0.023  1.00  0.00     0.312 A 
ATOM      2  C   UNL     1       4.379  -0.032  -0.115  1.00  0.00     0.090 A 
ATOM      3  C   UNL     1       4.187  -1.333   0.340  1.00  0.00     0.009 A 
ATOM      4  C   UNL     1       2.959  -1.701   0.886  1.00  0.00     0.027 A 
ATOM      5  C   UNL     1       1.909  -0.770   0.975  1.00  0.00     0.136 A 
ATOM      6  C   UNL     1       2.089   0.545   0.526  1.00  0.00     0.215 A 
ENDROOT
BRANCH   1   7
ATOM      7  N   UNL     1       3.579   2.263  -0.526  1.00  0.00     0.066 N 
ATOM      8  O   UNL     1       4.642   2.480  -1.125  1.00  0.00    -0.258 OA
ATOM      9  O   UNL     1       2.700   3.115  -0.326  1.00  0.00    -0.258 OA
ENDBRANCH   1   7
BRANCH   6  10
ATOM     10  O   UNL     1       1.037   1.411   0.613  1.00  0.00    -0.501 OA
ATOM     11  H   UNL     1       1.297   2.328   0.379  1.00  0.00     0.293 HD
ENDBRANCH   6  10
BRANCH   5  12
ATOM     12  S   UNL     1       0.394  -1.306   1.743  1.00  0.00     0.265 S 
ATOM     13  O   UNL     1       0.696  -2.535   2.454  1.00  0.00    -0.201 OA
ATOM     14  O   UNL     1      -0.231  -0.214   2.453  1.00  0.00    -0.201 OA
BRANCH  12  15
ATOM     15  N   UNL     1      -0.561  -1.802   0.441  1.00  0.00    -0.279 N 
ATOM     16  H   UNL     1      -1.056  -2.667   0.652  1.00  0.00     0.180 HD
BRANCH  15  17
ATOM     17  C   UNL     1      -1.259  -0.821  -0.325  1.00  0.00     0.057 A 
ATOM     18  C   UNL     1      -0.662  -0.413  -1.523  1.00  0.00     0.027 A 
ATOM     19  C   UNL     1      -2.514  -0.301   0.079  1.00  0.00     0.009 A 
ATOM     20  C   UNL     1      -1.286   0.531  -2.332  1.00  0.00     0.003 A 
ATOM     21  C   UNL     1      -3.188  -0.673   1.260  1.00  0.00     0.031 A 
ATOM     22  C   UNL     1      -3.137   0.651  -0.758  1.00  0.00     0.002 A 
ATOM     23  C   UNL     1      -2.517   1.062  -1.952  1.00  0.00     0.010 A 
ATOM     24  C   UNL     1      -4.415  -0.101   1.555  1.00  0.00     0.111 A 
ATOM     25  C   UNL     1      -4.377   1.157  -0.362  1.00  0.00     0.119 A 
ATOM     26  N   UNL     1      -5.031   0.800   0.766  1.00  0.00    -0.264 NA
ENDBRANCH  15  17
ENDBRANCH  12  15
ENDBRANCH   5  12
TORSDOF 5
