REMARK SMILES CCCN(CCOCCO)c1nc(-c2ccccn2)nc2[nH]ccc12
REMARK SMILES IDX 6 1 5 2 4 3 3 4 2 5 1 6 11 7 12 8 25 9 13 10 24 11 21 12
REMARK SMILES IDX 20 13 23 14 22 15 14 17 15 18 19 19 16 20 18 21 17 22 7 23
REMARK SMILES IDX 8 24 9 25 10 26
REMARK H PARENT 22 16 10 27
ROOT
ATOM      1  C   UNL     1       2.041   0.552  -0.721  1.00  0.00     0.181 C 
ENDROOT
BRANCH   1   2
ATOM      2  C   UNL     1       1.876  -0.891  -0.212  1.00  0.00     0.146 C 
BRANCH   2   3
ATOM      3  N   UNL     1       0.562  -1.498  -0.511  1.00  0.00    -0.354 N 
BRANCH   3   4
ATOM      4  C   UNL     1       0.222  -1.720  -1.925  1.00  0.00     0.118 C 
BRANCH   4   5
ATOM      5  C   UNL     1       1.135  -2.756  -2.590  1.00  0.00     0.018 C 
ATOM      6  C   UNL     1       1.063  -4.123  -1.926  1.00  0.00     0.006 C 
ENDBRANCH   4   5
ENDBRANCH   3   4
BRANCH   3   7
ATOM      7  C   UNL     1      -0.474  -0.874   0.212  1.00  0.00     0.142 A 
ATOM      8  N   UNL     1      -1.388  -0.107  -0.439  1.00  0.00    -0.209 NA
ATOM      9  C   UNL     1      -0.616  -1.002   1.606  1.00  0.00     0.061 A 
ATOM     10  C   UNL     1      -2.376   0.522   0.253  1.00  0.00     0.182 A 
ATOM     11  C   UNL     1       0.045  -1.704   2.657  1.00  0.00     0.033 A 
ATOM     12  C   UNL     1      -1.659  -0.311   2.195  1.00  0.00     0.143 A 
ATOM     13  N   UNL     1      -2.559   0.468   1.588  1.00  0.00    -0.208 NA
ATOM     14  C   UNL     1      -0.600  -1.403   3.839  1.00  0.00     0.085 A 
ATOM     15  N   UNL     1      -1.634  -0.554   3.541  1.00  0.00    -0.346 N 
ATOM     16  H   UNL     1      -2.300  -0.163   4.192  1.00  0.00     0.167 HD
BRANCH  10  17
ATOM     17  C   UNL     1      -3.327   1.350  -0.542  1.00  0.00     0.108 A 
ATOM     18  C   UNL     1      -3.259   1.414  -1.938  1.00  0.00     0.032 A 
ATOM     19  N   UNL     1      -4.277   2.054   0.141  1.00  0.00    -0.253 NA
ATOM     20  C   UNL     1      -4.168   2.202  -2.642  1.00  0.00     0.004 A 
ATOM     21  C   UNL     1      -5.147   2.809  -0.565  1.00  0.00     0.112 A 
ATOM     22  C   UNL     1      -5.132   2.914  -1.944  1.00  0.00     0.020 A 
ENDBRANCH  10  17
ENDBRANCH   3   7
ENDBRANCH   2   3
ENDBRANCH   1   2
BRANCH   1  23
ATOM     23  O   UNL     1       3.313   1.097  -0.349  1.00  0.00    -0.377 OA
BRANCH  23  24
ATOM     24  C   UNL     1       3.303   1.672   0.957  1.00  0.00     0.188 C 
BRANCH  24  25
ATOM     25  C   UNL     1       4.695   2.204   1.284  1.00  0.00     0.184 C 
BRANCH  25  26
ATOM     26  O   UNL     1       4.715   2.828   2.562  1.00  0.00    -0.394 OA
ATOM     27  H   UNL     1       4.187   3.642   2.496  1.00  0.00     0.210 HD
ENDBRANCH  25  26
ENDBRANCH  24  25
ENDBRANCH  23  24
ENDBRANCH   1  23
TORSDOF 10
