MODEL        6USER    Run = 6USERUSER    Estimated Free Energy of Binding    =  -8.53 kcal/mol  [=(1)+(2)+(3)-(4)]USERUSER    (1) Final Intermolecular Energy     = -10.03 kcal/molUSER        vdW + Hbond + desolv Energy     =  -9.78 kcal/molUSER        Electrostatic Energy            =  -0.24 kcal/molUSER        Moving Ligand-Fixed Receptor    = -10.03 kcal/molUSER        Moving Ligand-Moving Receptor   =  +0.00 kcal/molUSER    (2) Final Total Internal Energy     =  -1.66 kcal/molUSER    (3) Torsional Free Energy           =  +1.49 kcal/molUSER    (4) Unbound System's Energy         =  -1.66 kcal/molUSERUSERREMARK SMILES CNO[C@@H]1C[C@@H]1c1cccc(O)c1N1C(=O)c2ccccc2C1=OREMARK SMILES IDX 4 1 5 2 6 3 3 4 2 5 1 6 7 8 8 9 13 10 9 11 11 12 10 13 14 14REMARK SMILES IDX 15 15 23 16 17 17 22 18 18 19 21 20 19 21 20 22 16 23 24 24REMARK SMILES IDX 12 25REMARK H PARENT 2 7 12 26USER                              x       y       z     vdW  Elec       q    TypeUSER                           _______ _______ _______ _____ _____    ______ ____ROOTATOM      1  C   UNL     1      36.827  47.937  13.787 -0.50 -0.09    +0.150 C  ATOM      2  C   UNL     1      36.916  49.276  14.455 -0.38 -0.04    +0.046 C  ATOM      3  C   UNL     1      37.108  48.022  15.277 -0.48 -0.05    +0.055 C  ENDROOTBRANCH   1   4ATOM      4  O   UNL     1      37.924  47.655  12.891 -0.85 +0.04    -0.298 OA BRANCH   4   5ATOM      5  N   UNL     1      37.348  47.348  11.590 -0.99 +0.04    -0.205 NA ATOM      6  C   UNL     1      36.919  45.959  11.699 -0.54 -0.04    +0.134 C  ATOM      7  H   UNL     1      36.525  47.951  11.602 -0.18 -0.07    +0.154 HD ENDBRANCH   4   5ENDBRANCH   1   4BRANCH   3   8ATOM      8  C   UNL     1      38.466  47.664  15.858 -0.45 +0.01    -0.014 A  ATOM      9  C   UNL     1      39.552  48.532  15.613 -0.54 -0.00    +0.006 A  ATOM     10  C   UNL     1      38.719  46.514  16.649 -0.35 -0.03    +0.098 A  ATOM     11  C   UNL     1      40.817  48.321  16.163 -0.57 -0.00    +0.004 A  ATOM     12  C   UNL     1      40.003  46.313  17.194 -0.37 -0.02    +0.140 A  ATOM     13  C   UNL     1      41.044  47.211  16.966 -0.38 -0.01    +0.048 A  BRANCH  10  14ATOM     14  N   UNL     1      37.708  45.555  16.900 -0.21 +0.08    -0.238 N  ATOM     15  C   UNL     1      37.402  45.066  18.151 -0.24 -0.06    +0.266 C  ATOM     16  C   UNL     1      36.950  44.953  15.923 -0.23 -0.10    +0.266 C  ATOM     17  C   UNL     1      36.363  44.059  17.957 -0.29 -0.01    +0.053 A  ATOM     18  C   UNL     1      36.080  43.999  16.606 -0.32 -0.02    +0.053 A  ATOM     19  C   UNL     1      35.700  43.270  18.878 -0.36 -0.00    +0.015 A  ATOM     20  C   UNL     1      35.125  43.138  16.098 -0.41 -0.01    +0.015 A  ATOM     21  C   UNL     1      34.728  42.392  18.388 -0.41 -0.00    +0.001 A  ATOM     22  C   UNL     1      34.442  42.327  17.009 -0.42 -0.00    +0.001 A  ATOM     23  O   UNL     1      37.785  45.393  19.262 -0.18 +0.03    -0.268 OA ATOM     24  O   UNL     1      36.951  45.073  14.710 -0.25 +0.11    -0.268 OA ENDBRANCH  10  14BRANCH  12  25ATOM     25  O   UNL     1      40.278  45.161  17.886 -0.11 +0.03    -0.506 OA ATOM     26  H   UNL     1      39.766  45.176  18.711 +0.19 -0.02    +0.293 HD ENDBRANCH  12  25ENDBRANCH   3   8TORSDOF 5TERENDMDL