REMARK SMILES Cc1cc(F)ccc1-c1c(CO)ncc2c(-c3ccccc3F)n[nH]c12
REMARK SMILES IDX 9 1 10 2 13 3 14 4 15 5 16 6 24 7 25 8 26 9 8 11 2 12 3 13
REMARK SMILES IDX 4 14 7 15 6 16 1 17 5 18 11 19 12 20 17 22 18 23 22 24 19 25
REMARK SMILES IDX 21 26 20 27 23 28
REMARK H PARENT 25 10 12 21
ROOT
ATOM      1  C   UNL     1      -1.175  -0.477   0.613  1.00  0.00     0.032 A 
ATOM      2  C   UNL     1      -0.840  -1.777   1.017  1.00  0.00     0.076 A 
ATOM      3  N   UNL     1       0.431  -2.278   0.999  1.00  0.00    -0.257 NA
ATOM      4  C   UNL     1       1.459  -1.497   0.579  1.00  0.00     0.124 A 
ATOM      5  C   UNL     1       1.224  -0.183   0.167  1.00  0.00     0.047 A 
ATOM      6  C   UNL     1       2.011   0.904  -0.331  1.00  0.00     0.104 A 
ATOM      7  N   UNL     1       1.233   1.960  -0.625  1.00  0.00    -0.174 NA
ATOM      8  N   UNL     1      -0.002   1.574  -0.277  1.00  0.00    -0.276 N 
ATOM      9  C   UNL     1      -0.083   0.291   0.188  1.00  0.00     0.077 A 
ATOM     10  H   UNL     1      -0.764   2.233  -0.395  1.00  0.00     0.190 HD
ENDROOT
BRANCH   1  11
ATOM     11  C   UNL     1      -2.527   0.083   0.618  1.00  0.00    -0.011 A 
ATOM     12  C   UNL     1      -3.368   0.026  -0.519  1.00  0.00    -0.040 A 
ATOM     13  C   UNL     1      -4.651   0.594  -0.455  1.00  0.00     0.043 A 
ATOM     14  C   UNL     1      -5.091   1.204   0.714  1.00  0.00     0.123 A 
ATOM     15  C   UNL     1      -3.000   0.711   1.787  1.00  0.00     0.012 A 
ATOM     16  C   UNL     1      -4.278   1.268   1.835  1.00  0.00     0.040 A 
ATOM     17  C   UNL     1      -2.922  -0.625  -1.803  1.00  0.00     0.045 C 
ATOM     18  F   UNL     1      -6.317   1.741   0.757  1.00  0.00    -0.207 F 
ENDBRANCH   1  11
BRANCH   2  19
ATOM     19  C   UNL     1      -1.910  -2.734   1.511  1.00  0.00     0.212 C 
BRANCH  19  20
ATOM     20  O   UNL     1      -1.348  -4.005   1.849  1.00  0.00    -0.390 OA
ATOM     21  H   UNL     1      -0.387  -3.904   1.679  1.00  0.00     0.211 HD
ENDBRANCH  19  20
ENDBRANCH   2  19
BRANCH   6  22
ATOM     22  C   UNL     1       3.453   0.961  -0.570  1.00  0.00     0.038 A 
ATOM     23  C   UNL     1       3.947   1.595  -1.721  1.00  0.00     0.013 A 
ATOM     24  C   UNL     1       4.372   0.412   0.329  1.00  0.00     0.132 A 
ATOM     25  C   UNL     1       5.321   1.655  -1.970  1.00  0.00     0.001 A 
ATOM     26  C   UNL     1       5.744   0.469   0.086  1.00  0.00     0.040 A 
ATOM     27  C   UNL     1       6.220   1.089  -1.067  1.00  0.00     0.003 A 
ATOM     28  F   UNL     1       3.960  -0.174   1.464  1.00  0.00    -0.206 F 
ENDBRANCH   6  22
TORSDOF 4
