MODEL        10USER    Run = 10USERUSER    Estimated Free Energy of Binding    =  -8.66 kcal/mol  [=(1)+(2)+(3)-(4)]USERUSER    (1) Final Intermolecular Energy     = -10.15 kcal/molUSER        vdW + Hbond + desolv Energy     = -10.03 kcal/molUSER        Electrostatic Energy            =  -0.12 kcal/molUSER        Moving Ligand-Fixed Receptor    = -10.15 kcal/molUSER        Moving Ligand-Moving Receptor   =  +0.00 kcal/molUSER    (2) Final Total Internal Energy     =  -1.63 kcal/molUSER    (3) Torsional Free Energy           =  +1.49 kcal/molUSER    (4) Unbound System's Energy         =  -1.63 kcal/molUSERUSERREMARK SMILES Cc1ncc2n1[C@]2(NS(=O)(=O)Cc1cc(F)ccc1F)c1ccccc1REMARK SMILES IDX 9 1 10 2 11 3 8 4 7 6 2 7 3 8 6 9 4 10 5 11 1 12 21 13 22 14REMARK SMILES IDX 26 15 23 16 25 17 24 18 12 19 13 20 14 21 19 22 15 23 18 24REMARK SMILES IDX 17 25 20 26 16 27REMARK H PARENT 8 5USER                              x       y       z     vdW  Elec       q    TypeUSER                           _______ _______ _______ _____ _____    ______ ____ROOTATOM      1  S   UNL     1      40.516  46.278  17.333 -0.51 -0.02    +0.218 S  ATOM      2  O   UNL     1      40.601  44.891  17.744 -0.26 +0.00    -0.212 OA ATOM      3  O   UNL     1      41.429  47.253  17.891 -0.46 +0.02    -0.212 OA ENDROOTBRANCH   1   4ATOM      4  N   UNL     1      40.726  46.368  15.666 -0.33 +0.00    -0.180 NA ATOM      5  H   UNL     1      40.455  45.487  15.222 +0.10 -0.00    +0.144 HD BRANCH   4   6ATOM      6  C   UNL     1      40.177  47.573  15.007 -0.43 -0.03    +0.178 C  ATOM      7  C   UNL     1      41.869  49.579  14.278 -0.52 -0.01    +0.108 A  ATOM      8  N   UNL     1      41.788  50.514  15.181 -0.65 +0.04    -0.241 NA ATOM      9  N   UNL     1      41.085  48.506  14.477 -0.29 +0.03    -0.299 N  ATOM     10  C   UNL     1      40.870  50.045  16.044 -0.36 -0.04    +0.139 A  ATOM     11  C   UNL     1      40.376  48.820  15.732 -0.53 -0.02    +0.087 A  ATOM     12  C   UNL     1      42.749  49.625  13.081 -0.60 -0.02    +0.088 C  BRANCH   6  13ATOM     13  C   UNL     1      38.826  47.414  14.329 -0.48 +0.00    -0.000 A  ATOM     14  C   UNL     1      37.951  48.499  14.129 -0.52 -0.00    +0.008 A  ATOM     15  C   UNL     1      38.409  46.163  13.833 -0.35 -0.00    +0.008 A  ATOM     16  C   UNL     1      36.720  48.342  13.486 -0.54 -0.00    +0.000 A  ATOM     17  C   UNL     1      37.180  45.999  13.189 -0.51 -0.00    +0.000 A  ATOM     18  C   UNL     1      36.334  47.089  13.018 -0.63 -0.00    +0.000 A  ENDBRANCH   6  13ENDBRANCH   4   6ENDBRANCH   1   4BRANCH   1  19ATOM     19  C   UNL     1      38.823  46.843  17.565 -0.20 -0.06    +0.192 C  BRANCH  19  20ATOM     20  C   UNL     1      37.887  45.674  17.694 -0.37 -0.00    +0.007 A  ATOM     21  C   UNL     1      37.130  45.222  16.602 -0.32 -0.02    +0.047 A  ATOM     22  C   UNL     1      37.754  45.004  18.916 -0.25 -0.02    +0.127 A  ATOM     23  C   UNL     1      36.274  44.132  16.750 -0.26 -0.04    +0.123 A  ATOM     24  C   UNL     1      36.898  43.914  19.061 -0.30 -0.01    +0.042 A  ATOM     25  C   UNL     1      36.151  43.474  17.969 -0.26 -0.01    +0.042 A  ATOM     26  F   UNL     1      38.453  45.417  19.980 -0.09 +0.00    -0.207 F  ATOM     27  F   UNL     1      35.557  43.711  15.701 -0.10 +0.08    -0.207 F  ENDBRANCH  19  20ENDBRANCH   1  19TORSDOF 5TERENDMDL