MODEL        8USER    Run = 8USERUSER    Estimated Free Energy of Binding    =  -7.08 kcal/mol  [=(1)+(2)+(3)-(4)]USERUSER    (1) Final Intermolecular Energy     =  -9.47 kcal/molUSER        vdW + Hbond + desolv Energy     =  -9.11 kcal/molUSER        Electrostatic Energy            =  -0.35 kcal/molUSER        Moving Ligand-Fixed Receptor    =  -9.47 kcal/molUSER        Moving Ligand-Moving Receptor   =  +0.00 kcal/molUSER    (2) Final Total Internal Energy     =  -3.77 kcal/molUSER    (3) Torsional Free Energy           =  +2.39 kcal/molUSER    (4) Unbound System's Energy         =  -3.77 kcal/molUSERUSERREMARK SMILES O=C(O)c1cccc(F)c1NC[C@@H](O)C[C@@H]1CNCc2ccccc21REMARK SMILES IDX 11 1 10 3 4 4 5 5 6 6 8 7 7 8 9 9 2 10 1 11 3 12 12 14 13 15REMARK SMILES IDX 14 16 15 18 16 19 17 20 25 21 18 22 24 23 20 24 19 25 23 26REMARK SMILES IDX 21 27 22 28REMARK H PARENT 11 2 3 13 14 17 18 29USER                              x       y       z     vdW  Elec       q    TypeUSER                           _______ _______ _______ _____ _____    ______ ____ROOTATOM      1  N   UNL     1      37.053  44.883  18.767 -0.11 +0.07    -0.379 N  ATOM      2  H   UNL     1      37.029  45.885  18.971 +0.10 -0.03    +0.160 HD ENDROOTBRANCH   1   3ATOM      3  C   UNL     1      35.759  44.325  18.775 -0.30 -0.02    +0.085 A  ATOM      4  C   UNL     1      34.645  45.051  18.287 -0.33 -0.04    +0.086 A  ATOM      5  C   UNL     1      33.339  44.532  18.391 -0.36 -0.01    +0.018 A  ATOM      6  C   UNL     1      33.112  43.284  18.966 -0.39 -0.00    +0.004 A  ATOM      7  C   UNL     1      35.483  43.073  19.360 -0.30 -0.02    +0.147 A  ATOM      8  C   UNL     1      34.190  42.552  19.448 -0.39 -0.00    +0.041 A  ATOM      9  F   UNL     1      36.472  42.326  19.877 -0.10 +0.01    -0.205 F  BRANCH   4  10ATOM     10  C   UNL     1      34.754  46.371  17.613 -0.21 -0.32    +0.337 C  ATOM     11  O   UNL     1      35.280  46.581  16.536 -0.27 +0.30    -0.246 OA BRANCH  10  12ATOM     12  O   UNL     1      34.271  47.390  18.355 -0.92 +0.49    -0.478 OA ATOM     13  H   UNL     1      33.895  47.997  17.678 -0.31 -0.75    +0.297 HD ENDBRANCH  10  12ENDBRANCH   4  10ENDBRANCH   1   3BRANCH   1  14ATOM     14  C   UNL     1      37.968  44.601  17.650 -0.31 -0.03    +0.144 C  BRANCH  14  15ATOM     15  C   UNL     1      37.995  45.755  16.626 -0.34 -0.04    +0.134 C  BRANCH  15  16ATOM     16  O   UNL     1      37.703  47.004  17.261 -0.05 +0.20    -0.391 OA ATOM     17  H   UNL     1      37.201  47.536  16.612 +0.14 -0.17    +0.211 HD ENDBRANCH  15  16BRANCH  15  18ATOM     18  C   UNL     1      39.318  45.871  15.858 -0.35 -0.01    +0.043 C  BRANCH  18  19ATOM     19  C   UNL     1      39.335  46.763  14.590 -0.49 -0.01    +0.036 C  ATOM     20  C   UNL     1      39.613  48.261  14.842 -0.54 -0.03    +0.089 C  ATOM     21  C   UNL     1      37.996  46.610  13.877 -0.43 +0.01    -0.039 A  ATOM     22  N   UNL     1      38.505  48.923  15.536 -0.24 +0.21    -0.312 NA ATOM     23  C   UNL     1      37.709  45.445  13.146 -0.25 -0.00    +0.004 A  ATOM     24  C   UNL     1      37.025  47.626  13.976 -0.51 +0.02    -0.031 A  ATOM     25  C   UNL     1      37.312  48.932  14.684 -0.48 -0.10    +0.117 C  ATOM     26  C   UNL     1      36.471  45.287  12.524 -0.49 -0.00    +0.000 A  ATOM     27  C   UNL     1      35.786  47.453  13.339 -0.45 -0.00    +0.005 A  ATOM     28  C   UNL     1      35.510  46.289  12.622 -0.49 -0.00    +0.000 A  ATOM     29  H   UNL     1      38.303  48.403  16.389 +0.07 -0.09    +0.123 HD ENDBRANCH  18  19ENDBRANCH  15  18ENDBRANCH  14  15ENDBRANCH   1  14TORSDOF 8TERENDMDL