REMARK SMILES Cc1ncccc1-c1cccc(-c2n[nH]c3c2NCC(C)(C)CNCC3=O)c1
REMARK SMILES IDX 13 1 14 2 15 3 16 4 17 5 12 7 8 8 9 9 28 10 10 11 11 12 7 13
REMARK SMILES IDX 2 14 3 15 4 16 6 17 5 18 1 19 18 20 19 22 20 23 21 24 22 25
REMARK SMILES IDX 26 27 27 28 25 29 24 30 23 32
REMARK H PARENT 15 6 18 21 24 31
REMARK Flexibility Score:   24.900
ROOT
ATOM      1  C   UNL     1       0.093  -1.692   0.350  1.00  0.00     0.116 A 
ATOM      2  N   UNL     1       0.542  -2.348   1.430  1.00  0.00    -0.173 NA
ATOM      3  N   UNL     1      -0.576  -2.748   2.051  1.00  0.00    -0.272 N 
ATOM      4  C   UNL     1      -1.743  -2.278   1.507  1.00  0.00     0.126 A 
ATOM      5  C   UNL     1      -1.337  -1.605   0.373  1.00  0.00     0.092 A 
ATOM      6  H   UNL     1      -0.492  -3.336   2.875  1.00  0.00     0.190 HD
ENDROOT
BRANCH   1   7
ATOM      7  C   UNL     1       1.027  -1.165  -0.639  1.00  0.00     0.005 A 
ATOM      8  C   UNL     1       2.991   0.194  -1.157  1.00  0.00    -0.016 A 
ATOM      9  C   UNL     1       2.832  -0.135  -2.512  1.00  0.00     0.009 A 
ATOM     10  C   UNL     1       2.076  -0.329  -0.230  1.00  0.00     0.019 A 
ATOM     11  C   UNL     1       1.799  -0.977  -2.928  1.00  0.00     0.001 A 
ATOM     12  C   UNL     1       0.901  -1.494  -1.994  1.00  0.00     0.010 A 
BRANCH   8  13
ATOM     13  C   UNL     1       4.086   1.069  -0.723  1.00  0.00     0.003 A 
ATOM     14  C   UNL     1       5.237   0.595  -0.071  1.00  0.00     0.045 A 
ATOM     15  N   UNL     1       6.248   1.412   0.332  1.00  0.00    -0.261 NA
ATOM     16  C   UNL     1       6.126   2.732   0.083  1.00  0.00     0.111 A 
ATOM     17  C   UNL     1       4.009   2.449  -0.961  1.00  0.00     0.012 A 
ATOM     18  C   UNL     1       5.037   3.294  -0.556  1.00  0.00     0.021 A 
ATOM     19  C   UNL     1       5.431  -0.866   0.224  1.00  0.00     0.067 C 
ENDBRANCH   8  13
ENDBRANCH   1   7
BRANCH   5  20
ATOM     20  N   UNL     1      -2.148  -1.081  -0.584  1.00  0.00    -0.381 N 
ATOM     21  H   UNL     1      -1.907  -1.395  -1.523  1.00  0.00     0.160 HD
BRANCH  20  22
ATOM     22  C   UNL     1      -2.340   0.372  -0.664  1.00  0.00     0.120 C 
BRANCH  22  23
ATOM     23  C   UNL     1      -3.318   0.978   0.375  1.00  0.00    -0.006 CG0
ATOM     24  C   UNL     1      -2.611   1.217   1.723  1.00  0.00     0.014 C 
ATOM     25  C   UNL     1      -3.702   2.394  -0.142  1.00  0.00     0.014 C 
ATOM     26  G   UNL     1      -4.657   0.182   0.505  1.00  0.00     0.000 G0
ENDBRANCH  22  23
ENDBRANCH  20  22
ENDBRANCH   5  20
BRANCH   4  27
ATOM     27  C   UNL     1      -3.003  -2.590   2.149  1.00  0.00     0.196 C 
ATOM     28  O   UNL     1      -3.083  -3.587   2.878  1.00  0.00    -0.291 OA
BRANCH  27  29
ATOM     29  C   UNL     1      -4.187  -1.617   2.118  1.00  0.00     0.164 C 
BRANCH  29  30
ATOM     30  N   UNL     1      -4.621  -1.254   0.774  1.00  0.00    -0.309 NA
ATOM     31  H   UNL     1      -5.531  -1.670   0.585  1.00  0.00     0.123 HD
BRANCH  30  32
ATOM     32  C   UNL     1      -4.657   0.182   0.505  1.00  0.00     0.089 CG0
ATOM     33  G   UNL     1      -3.318   0.978   0.375  1.00  0.00     0.000 G0
ENDBRANCH  30  32
ENDBRANCH  29  30
ENDBRANCH  27  29
ENDBRANCH   4  27
TORSDOF 2
