REMARK SMILES C[C@H]1C[C@@H]1Nc1ccc(Cl)nc1-c1n[nH]cc1C(=O)N(CCN)Cc1ccc2c(c1)OCO2
REMARK SMILES IDX 18 1 19 2 17 3 13 4 14 5 15 6 16 7 12 9 6 10 7 11 8 12 11 13
REMARK SMILES IDX 9 14 10 15 5 16 4 18 2 19 3 20 1 21 20 22 21 23 22 24 23 25
REMARK SMILES IDX 24 28 25 29 26 30 30 31 27 32 29 33 28 34 31 35 33 36 32 37
REMARK H PARENT 15 8 5 17 23 26 23 27
ROOT
ATOM      1  C   UNL     1      -0.047  -0.823  -0.278  1.00  0.00     0.258 C 
ATOM      2  O   UNL     1       0.477  -1.863   0.120  1.00  0.00    -0.269 OA
ENDROOT
BRANCH   1   3
ATOM      3  C   UNL     1       0.431  -0.222  -1.502  1.00  0.00     0.087 A 
ATOM      4  C   UNL     1       1.369   0.838  -1.641  1.00  0.00     0.125 A 
ATOM      5  N   UNL     1       1.586   1.117  -2.940  1.00  0.00    -0.173 NA
ATOM      6  N   UNL     1       0.827   0.231  -3.603  1.00  0.00    -0.284 N 
ATOM      7  C   UNL     1       0.129  -0.609  -2.790  1.00  0.00     0.119 A 
ATOM      8  H   UNL     1       0.842   0.254  -4.618  1.00  0.00     0.189 HD
BRANCH   4   9
ATOM      9  C   UNL     1       2.015   1.575  -0.553  1.00  0.00     0.116 A 
ATOM     10  C   UNL     1       3.002   0.978   0.264  1.00  0.00     0.063 A 
ATOM     11  C   UNL     1       3.565   1.806   1.244  1.00  0.00     0.031 A 
ATOM     12  C   UNL     1       3.110   3.113   1.420  1.00  0.00     0.043 A 
ATOM     13  N   UNL     1       1.530   2.836  -0.379  1.00  0.00    -0.232 NA
ATOM     14  C   UNL     1       2.100   3.564   0.594  1.00  0.00     0.130 A 
ATOM     15  Cl  UNL     1       1.464   5.147   0.767  1.00  0.00    -0.062 Cl
BRANCH  10  16
ATOM     16  N   UNL     1       3.490  -0.334   0.042  1.00  0.00    -0.380 N 
ATOM     17  H   UNL     1       2.806  -0.935  -0.421  1.00  0.00     0.160 HD
BRANCH  16  18
ATOM     18  C   UNL     1       4.343  -1.019   1.014  1.00  0.00     0.082 C 
ATOM     19  C   UNL     1       5.841  -0.869   0.980  1.00  0.00     0.010 C 
ATOM     20  C   UNL     1       5.208  -2.163   0.553  1.00  0.00     0.030 C 
ATOM     21  C   UNL     1       6.622  -0.800   2.246  1.00  0.00     0.010 C 
ENDBRANCH  16  18
ENDBRANCH  10  16
ENDBRANCH   4   9
ENDBRANCH   1   3
BRANCH   1  22
ATOM     22  N   UNL     1      -1.057  -0.162   0.420  1.00  0.00    -0.333 N 
BRANCH  22  23
ATOM     23  C   UNL     1      -1.518  -0.766   1.673  1.00  0.00     0.135 C 
BRANCH  23  24
ATOM     24  C   UNL     1      -2.592  -1.866   1.510  1.00  0.00     0.099 C 
BRANCH  24  25
ATOM     25  N   UNL     1      -2.280  -2.874   0.496  1.00  0.00    -0.329 NA
ATOM     26  H   UNL     1      -1.278  -3.086   0.524  1.00  0.00     0.118 HD
ATOM     27  H   UNL     1      -2.775  -3.740   0.697  1.00  0.00     0.118 HD
ENDBRANCH  24  25
ENDBRANCH  23  24
ENDBRANCH  22  23
BRANCH  22  28
ATOM     28  C   UNL     1      -1.697   1.084  -0.017  1.00  0.00     0.155 C 
BRANCH  28  29
ATOM     29  C   UNL     1      -3.168   0.935  -0.330  1.00  0.00    -0.025 A 
ATOM     30  C   UNL     1      -4.133   1.647   0.422  1.00  0.00     0.009 A 
ATOM     31  C   UNL     1      -3.588   0.102  -1.381  1.00  0.00     0.056 A 
ATOM     32  C   UNL     1      -5.498   1.524   0.142  1.00  0.00     0.051 A 
ATOM     33  C   UNL     1      -4.940   0.004  -1.635  1.00  0.00     0.166 A 
ATOM     34  C   UNL     1      -5.869   0.693  -0.892  1.00  0.00     0.165 A 
ATOM     35  O   UNL     1      -5.513  -0.755  -2.607  1.00  0.00    -0.454 OA
ATOM     36  O   UNL     1      -7.144   0.451  -1.298  1.00  0.00    -0.454 OA
ATOM     37  C   UNL     1      -6.909  -0.471  -2.385  1.00  0.00     0.468 C 
ENDBRANCH  28  29
ENDBRANCH  22  28
ENDBRANCH   1  22
TORSDOF 10
