MODEL        6USER    Run = 6USERUSER    Estimated Free Energy of Binding    =  -8.28 kcal/mol  [=(1)+(2)+(3)-(4)]USERUSER    (1) Final Intermolecular Energy     = -10.37 kcal/molUSER        vdW + Hbond + desolv Energy     =  -9.91 kcal/molUSER        Electrostatic Energy            =  -0.46 kcal/molUSER        Moving Ligand-Fixed Receptor    = -10.37 kcal/molUSER        Moving Ligand-Moving Receptor   =  +0.00 kcal/molUSER    (2) Final Total Internal Energy     =  -1.45 kcal/molUSER    (3) Torsional Free Energy           =  +2.09 kcal/molUSER    (4) Unbound System's Energy         =  -1.45 kcal/molUSERUSERREMARK SMILES CCOc1cc(O)ccc1C(=O)c1cc([N+](=O)[O-])ccc1[N+](=O)[O-]REMARK SMILES IDX 4 1 5 2 6 3 8 4 9 5 10 6 3 7 2 8 1 9 11 10 12 11 13 12 14 13REMARK SMILES IDX 21 14 15 15 20 16 19 17 22 18 23 19 24 20 16 21 17 22 18 23REMARK SMILES IDX 7 24REMARK H PARENT 7 25USER                              x       y       z     vdW  Elec       q    TypeUSER                           _______ _______ _______ _____ _____    ______ ____ROOTATOM      1  C   UNL     1      40.047  47.211  16.508 -0.40 -0.03    +0.134 A  ATOM      2  C   UNL     1      40.829  48.287  16.928 -0.40 -0.01    +0.093 A  ATOM      3  C   UNL     1      41.123  49.301  16.021 -0.49 -0.01    +0.119 A  ATOM      4  C   UNL     1      40.643  49.263  14.714 -0.55 -0.01    +0.047 A  ATOM      5  C   UNL     1      39.841  48.198  14.299 -0.36 -0.00    +0.020 A  ATOM      6  C   UNL     1      39.535  47.181  15.207 -0.44 -0.02    +0.065 A  ENDROOTBRANCH   1   7ATOM      7  O   UNL     1      39.699  46.242  17.412 -0.14 +0.08    -0.493 OA BRANCH   7   8ATOM      8  C   UNL     1      40.678  46.167  18.459 -0.39 -0.01    +0.226 C  ATOM      9  C   UNL     1      40.539  44.813  19.130 -0.45 +0.00    +0.049 C  ENDBRANCH   7   8ENDBRANCH   1   7BRANCH   6  10ATOM     10  C   UNL     1      38.679  46.068  14.766 -0.32 -0.06    +0.203 C  ATOM     11  O   UNL     1      39.148  45.134  14.130 -0.15 +0.06    -0.288 OA BRANCH  10  12ATOM     12  C   UNL     1      37.239  46.077  15.095 -0.31 -0.05    +0.107 A  ATOM     13  C   UNL     1      36.834  46.016  16.437 -0.30 -0.06    +0.105 A  ATOM     14  C   UNL     1      36.269  46.049  14.086 -0.23 -0.15    +0.281 A  ATOM     15  C   UNL     1      35.466  45.928  16.744 -0.16 -0.21    +0.270 A  ATOM     16  C   UNL     1      34.902  45.957  14.390 -0.28 -0.07    +0.093 A  ATOM     17  C   UNL     1      34.500  45.894  15.726 -0.10 -0.10    +0.093 A  BRANCH  14  18ATOM     18  N   UNL     1      36.643  46.216  12.693 -0.53 -0.03    +0.063 N  ATOM     19  O   UNL     1      37.129  47.306  12.368 -0.96 +0.07    -0.258 OA ATOM     20  O   UNL     1      36.535  45.219  11.966 -0.46 +0.09    -0.258 OA ENDBRANCH  14  18BRANCH  15  21ATOM     21  N   UNL     1      35.041  45.861  18.150 -0.41 -0.03    +0.062 N  ATOM     22  O   UNL     1      35.326  44.839  18.788 -0.26 +0.07    -0.258 OA ATOM     23  O   UNL     1      34.429  46.835  18.611 -0.88 +0.18    -0.258 OA ENDBRANCH  15  21ENDBRANCH  10  12ENDBRANCH   6  10BRANCH   3  24ATOM     24  O   UNL     1      41.888  50.372  16.379 -0.61 -0.02    -0.508 OA ATOM     25  H   UNL     1      41.324  51.036  16.810 -0.36 -0.13    +0.293 HD ENDBRANCH   3  24TORSDOF 7TERENDMDL