MODEL        6USER    Run = 6USERUSER    Estimated Free Energy of Binding    =  -8.78 kcal/mol  [=(1)+(2)+(3)-(4)]USERUSER    (1) Final Intermolecular Energy     =  -9.97 kcal/molUSER        vdW + Hbond + desolv Energy     =  -9.95 kcal/molUSER        Electrostatic Energy            =  -0.02 kcal/molUSER        Moving Ligand-Fixed Receptor    =  -9.97 kcal/molUSER        Moving Ligand-Moving Receptor   =  +0.00 kcal/molUSER    (2) Final Total Internal Energy     =  -1.54 kcal/molUSER    (3) Torsional Free Energy           =  +1.19 kcal/molUSER    (4) Unbound System's Energy         =  -1.54 kcal/molUSERUSERREMARK SMILES Cc1cc(F)ccc1-c1c(CO)ncc2c(-c3ccccc3F)n[nH]c12REMARK SMILES IDX 9 1 10 2 13 3 14 4 15 5 16 6 24 7 25 8 26 9 8 11 2 12 3 13REMARK SMILES IDX 4 14 7 15 6 16 1 17 5 18 11 19 12 20 17 22 18 23 22 24 19 25REMARK SMILES IDX 21 26 20 27 23 28REMARK H PARENT 25 10 12 21USER                              x       y       z     vdW  Elec       q    TypeUSER                           _______ _______ _______ _____ _____    ______ ____ROOTATOM      1  C   UNL     1      38.370  46.288  16.197 -0.37 -0.01    +0.032 A  ATOM      2  C   UNL     1      39.609  46.834  16.560 -0.42 -0.02    +0.076 A  ATOM      3  N   UNL     1      40.194  46.655  17.782 -0.30 +0.03    -0.257 NA ATOM      4  C   UNL     1      39.571  45.902  18.724 -0.35 -0.01    +0.124 A  ATOM      5  C   UNL     1      38.336  45.308  18.450 -0.36 -0.01    +0.047 A  ATOM      6  C   UNL     1      37.401  44.487  19.157 -0.29 -0.01    +0.104 A  ATOM      7  N   UNL     1      36.317  44.240  18.402 -0.22 +0.04    -0.174 NA ATOM      8  N   UNL     1      36.578  44.843  17.234 -0.15 +0.10    -0.276 N  ATOM      9  C   UNL     1      37.765  45.520  17.200 -0.32 -0.02    +0.077 A  ATOM     10  H   UNL     1      35.892  44.770  16.490 +0.14 -0.09    +0.190 HD ENDROOTBRANCH   1  11ATOM     11  C   UNL     1      37.720  46.468  14.898 -0.40 +0.00    -0.011 A  ATOM     12  C   UNL     1      37.250  47.729  14.461 -0.48 +0.02    -0.040 A  ATOM     13  C   UNL     1      36.623  47.834  13.209 -0.58 -0.02    +0.043 A  ATOM     14  C   UNL     1      36.467  46.709  12.406 -0.56 -0.05    +0.123 A  ATOM     15  C   UNL     1      37.544  45.346  14.063 -0.40 -0.00    +0.012 A  ATOM     16  C   UNL     1      36.921  45.467  12.821 -0.50 -0.01    +0.040 A  ATOM     17  C   UNL     1      37.400  48.967  15.307 -0.47 -0.04    +0.045 C  ATOM     18  F   UNL     1      35.865  46.827  11.215 -0.16 +0.12    -0.207 F  ENDBRANCH   1  11BRANCH   2  19ATOM     19  C   UNL     1      40.396  47.687  15.581 -0.42 -0.04    +0.212 C  BRANCH  19  20ATOM     20  O   UNL     1      41.429  48.416  16.248 -0.69 +0.01    -0.390 OA ATOM     21  H   UNL     1      41.849  47.761  16.845 -0.32 -0.02    +0.211 HD ENDBRANCH  19  20ENDBRANCH   2  19BRANCH   6  22ATOM     22  C   UNL     1      37.483  43.966  20.522 -0.36 -0.00    +0.038 A  ATOM     23  C   UNL     1      38.166  44.694  21.509 -0.35 +0.00    +0.013 A  ATOM     24  C   UNL     1      36.882  42.758  20.887 -0.33 +0.00    +0.132 A  ATOM     25  C   UNL     1      38.260  44.210  22.817 -0.33 +0.00    +0.001 A  ATOM     26  C   UNL     1      36.972  42.271  22.191 -0.47 +0.00    +0.040 A  ATOM     27  C   UNL     1      37.665  42.996  23.157 -0.37 +0.00    +0.003 A  ATOM     28  F   UNL     1      36.185  42.037  19.995 -0.13 +0.01    -0.206 F  ENDBRANCH   6  22TORSDOF 4TERENDMDL