MODEL        8USER    Run = 8USERUSER    Estimated Free Energy of Binding    =  -7.59 kcal/mol  [=(1)+(2)+(3)-(4)]USERUSER    (1) Final Intermolecular Energy     = -10.28 kcal/molUSER        vdW + Hbond + desolv Energy     = -10.77 kcal/molUSER        Electrostatic Energy            =  -0.25 kcal/molUSER        Moving Ligand-Fixed Receptor    = -11.02 kcal/molUSER        Moving Ligand-Moving Receptor   =  +0.75 kcal/molUSER    (2) Final Total Internal Energy     =  -1.42 kcal/molUSER    (3) Torsional Free Energy           =  +2.68 kcal/molUSER    (4) Unbound System's Energy         =  -1.42 kcal/molUSERUSERREMARK SMILES Cc1ncccc1-c1cccc(-c2n[nH]c3c2NCC(C)(C)CNCC3=O)c1REMARK SMILES IDX 13 1 14 2 15 3 16 4 17 5 12 7 8 8 9 9 28 10 10 11 11 12 7 13REMARK SMILES IDX 2 14 3 15 4 16 6 17 5 18 1 19 18 20 19 22 20 23 21 24 22 25REMARK SMILES IDX 26 27 27 28 25 29 24 30 23 32REMARK H PARENT 15 6 18 21 24 31REMARK Flexibility Score:   24.900USER                              x       y       z     vdW  Elec       q    TypeUSER                           _______ _______ _______ _____ _____    ______ ____ROOTATOM      1  C   UNL     1      40.475  46.303  18.198 -0.40 -0.01    +0.116 A  ATOM      2  N   UNL     1      41.288  47.132  17.527 -0.38 +0.02    -0.173 NA ATOM      3  N   UNL     1      42.318  47.319  18.364 -0.37 +0.00    -0.272 N  ATOM      4  C   UNL     1      42.165  46.760  19.607 -0.38 +0.02    +0.126 A  ATOM      5  C   UNL     1      40.978  46.063  19.518 -0.36 +0.00    +0.092 A  ATOM      6  H   UNL     1      43.112  47.866  18.046 -0.19 -0.00    +0.190 HD ENDROOTBRANCH   1   7ATOM      7  C   UNL     1      39.259  45.792  17.574 -0.42 -0.00    +0.005 A  ATOM      8  C   UNL     1      37.787  45.678  15.626 -0.35 +0.01    -0.016 A  ATOM      9  C   UNL     1      36.933  44.832  16.351 -0.34 -0.00    +0.009 A  ATOM     10  C   UNL     1      38.949  46.153  16.255 -0.39 -0.00    +0.019 A  ATOM     11  C   UNL     1      37.240  44.456  17.660 -0.34 -0.00    +0.001 A  ATOM     12  C   UNL     1      38.401  44.931  18.269 -0.38 -0.00    +0.010 A  BRANCH   8  13ATOM     13  C   UNL     1      37.467  46.060  14.246 -0.42 -0.00    +0.003 A  ATOM     14  C   UNL     1      37.585  47.375  13.765 -0.49 -0.02    +0.045 A  ATOM     15  N   UNL     1      37.284  47.723  12.484 -0.99 +0.05    -0.261 NA ATOM     16  C   UNL     1      36.859  46.751  11.652 -0.55 -0.04    +0.111 A  ATOM     17  C   UNL     1      37.024  45.085  13.340 -0.46 -0.00    +0.012 A  ATOM     18  C   UNL     1      36.715  45.429  12.028 -0.56 -0.01    +0.021 A  ATOM     19  C   UNL     1      38.062  48.496  14.644 -0.56 -0.04    +0.067 C  ENDBRANCH   8  13ENDBRANCH   1   7BRANCH   5  20ATOM     20  N   UNL     1      40.467  45.223  20.456 -0.13 -0.02    -0.381 N  ATOM     21  H   UNL     1      40.116  45.714  21.278 +0.08 +0.01    +0.160 HD BRANCH  20  22ATOM     22  C   UNL     1      41.274  44.101  20.950 -0.31 +0.01    +0.120 C  BRANCH  22  23ATOM     23  C   UNL     1      41.421  44.007  22.490 -0.29 -0.00    -0.006 CG0ATOM     24  C   UNL     1      40.247  43.225  23.109 -0.29 +0.00    +0.014 C  ATOM     25  C   UNL     1      42.682  43.139  22.768 -0.34 +0.00    +0.014 C  ATOM     26  G   UNL     1      41.682  45.388  23.174 +0.00 +0.00    +0.000 G0 ENDBRANCH  22  23ENDBRANCH  20  22ENDBRANCH   5  20BRANCH   4  27ATOM     27  C   UNL     1      43.188  46.969  20.611 -0.33 +0.07    +0.196 C  ATOM     28  O   UNL     1      44.370  47.080  20.260 -0.35 -0.29    -0.291 OA BRANCH  27  29ATOM     29  C   UNL     1      42.835  47.259  22.074 -0.29 +0.03    +0.164 C  BRANCH  29  30ATOM     30  N   UNL     1      42.934  46.097  22.949 -0.06 -0.06    -0.309 NA ATOM     31  H   UNL     1      43.350  46.373  23.837 +0.05 +0.02    +0.123 HD BRANCH  30  32ATOM     32  C   UNL     1      41.676  45.390  23.179 -0.16 +0.01    +0.089 CG0ATOM     33  G   UNL     1      41.428  44.009  22.490 +0.00 +0.00    +0.000 G0 ENDBRANCH  30  32ENDBRANCH  29  30ENDBRANCH  27  29ENDBRANCH   4  27TORSDOF 2TERENDMDL