MODEL        2USER    Run = 2USERUSER    Estimated Free Energy of Binding    =  -6.18 kcal/mol  [=(1)+(2)+(3)-(4)]USERUSER    (1) Final Intermolecular Energy     =  -8.57 kcal/molUSER        vdW + Hbond + desolv Energy     =  -8.31 kcal/molUSER        Electrostatic Energy            =  -0.26 kcal/molUSER        Moving Ligand-Fixed Receptor    =  -8.57 kcal/molUSER        Moving Ligand-Moving Receptor   =  +0.00 kcal/molUSER    (2) Final Total Internal Energy     =  -1.48 kcal/molUSER    (3) Torsional Free Energy           =  +2.39 kcal/molUSER    (4) Unbound System's Energy         =  -1.48 kcal/molUSERUSERREMARK SMILES CC(C)C[C@@H](O)C(=O)Nc1ccc(O)c(C(F)(F)F)c1OREMARK SMILES IDX 7 1 8 2 9 3 5 5 4 6 2 7 1 8 3 9 6 10 10 12 11 13 20 14 12 15REMARK SMILES IDX 15 16 13 17 21 18 16 20 17 21 18 22 19 23 14 24REMARK H PARENT 9 4 6 11 21 19 14 25USER                              x       y       z     vdW  Elec       q    TypeUSER                           _______ _______ _______ _____ _____    ______ ____ROOTATOM      1  C   UNL     1      34.643  44.835  28.828 -0.44 -0.06    +0.253 C  ATOM      2  O   UNL     1      33.801  44.165  29.424 -0.47 +0.05    -0.272 OA ATOM      3  N   UNL     1      34.695  46.210  28.794 -0.22 +0.08    -0.321 N  ATOM      4  H   UNL     1      35.430  46.597  28.212 -0.30 -0.06    +0.170 HD ENDROOTBRANCH   1   5ATOM      5  C   UNL     1      35.772  44.140  28.035 -0.42 -0.06    +0.203 C  BRANCH   5   6ATOM      6  C   UNL     1      35.187  43.043  27.136 -0.59 -0.01    +0.045 C  BRANCH   6   7ATOM      7  C   UNL     1      35.254  41.601  27.686 -0.69 +0.01    -0.014 C  ATOM      8  C   UNL     1      36.681  41.052  27.696 -0.62 -0.00    +0.007 C  ATOM      9  C   UNL     1      34.313  40.633  26.971 -0.59 -0.00    +0.007 C  ENDBRANCH   6   7ENDBRANCH   5   6BRANCH   5  10ATOM     10  O   UNL     1      36.472  45.096  27.247 -0.20 +0.09    -0.383 OA ATOM     11  H   UNL     1      35.806  45.522  26.669 -0.43 -0.11    +0.211 HD ENDBRANCH   5  10ENDBRANCH   1   5BRANCH   3  12ATOM     12  C   UNL     1      33.862  47.175  29.415 -0.33 -0.01    +0.084 A  ATOM     13  C   UNL     1      34.420  48.462  29.475 -0.33 -0.00    +0.034 A  ATOM     14  C   UNL     1      32.581  46.989  29.972 -0.19 -0.00    +0.155 A  ATOM     15  C   UNL     1      33.734  49.522  30.064 -0.21 +0.00    +0.049 A  ATOM     16  C   UNL     1      31.875  48.055  30.574 -0.32 -0.00    +0.141 A  ATOM     17  C   UNL     1      32.472  49.320  30.608 -0.20 +0.00    +0.131 A  BRANCH  14  18ATOM     18  O   UNL     1      31.921  45.794  29.989 -0.78 -0.07    -0.505 OA ATOM     19  H   UNL     1      32.337  45.182  30.632 -0.29 -0.09    +0.293 HD ENDBRANCH  14  18BRANCH  16  20ATOM     20  C   UNL     1      30.512  47.803  31.157 -0.25 +0.00    +0.423 C  ATOM     21  F   UNL     1      29.597  47.358  30.251 -0.22 -0.01    -0.166 F  ATOM     22  F   UNL     1      30.539  46.832  32.127 -0.20 +0.01    -0.166 F  ATOM     23  F   UNL     1      29.965  48.888  31.770 -0.12 +0.00    -0.166 F  ENDBRANCH  16  20BRANCH  17  24ATOM     24  O   UNL     1      31.896  50.429  31.160 -0.02 -0.04    -0.507 OA ATOM     25  H   UNL     1      31.863  50.363  32.134 +0.10 +0.02    +0.293 HD ENDBRANCH  17  24ENDBRANCH   3  12TORSDOF 8TERENDMDL