REMARK SMILES O=C(O)c1cccc(F)c1NC[C@@H](O)C[C@@H]1CNCc2ccccc21
REMARK SMILES IDX 11 1 10 3 4 4 5 5 6 6 8 7 7 8 9 9 2 10 1 11 3 12 12 14 13 15
REMARK SMILES IDX 14 16 15 18 16 19 17 20 25 21 18 22 24 23 20 24 19 25 23 26
REMARK SMILES IDX 21 27 22 28
REMARK H PARENT 11 2 3 13 14 17 18 29
ROOT
ATOM      1  N   UNL     1       2.423  -0.735   1.240  1.00  0.00    -0.379 N 
ATOM      2  H   UNL     1       2.485  -1.639   0.764  1.00  0.00     0.160 HD
ENDROOT
BRANCH   1   3
ATOM      3  C   UNL     1       3.493   0.109   0.881  1.00  0.00     0.085 A 
ATOM      4  C   UNL     1       4.600  -0.382   0.146  1.00  0.00     0.086 A 
ATOM      5  C   UNL     1       5.714   0.438  -0.122  1.00  0.00     0.018 A 
ATOM      6  C   UNL     1       5.750   1.758   0.321  1.00  0.00     0.004 A 
ATOM      7  C   UNL     1       3.577   1.446   1.320  1.00  0.00     0.147 A 
ATOM      8  C   UNL     1       4.675   2.262   1.041  1.00  0.00     0.041 A 
ATOM      9  F   UNL     1       2.589   1.989   2.050  1.00  0.00    -0.205 F 
BRANCH   4  10
ATOM     10  C   UNL     1       4.668  -1.754  -0.421  1.00  0.00     0.337 C 
ATOM     11  O   UNL     1       5.683  -2.346  -0.738  1.00  0.00    -0.246 OA
BRANCH  10  12
ATOM     12  O   UNL     1       3.453  -2.298  -0.646  1.00  0.00    -0.478 OA
ATOM     13  H   UNL     1       3.673  -3.167  -1.054  1.00  0.00     0.297 HD
ENDBRANCH  10  12
ENDBRANCH   4  10
ENDBRANCH   1   3
BRANCH   1  14
ATOM     14  C   UNL     1       1.044  -0.225   1.210  1.00  0.00     0.144 C 
BRANCH  14  15
ATOM     15  C   UNL     1       0.604   0.156  -0.219  1.00  0.00     0.134 C 
BRANCH  15  16
ATOM     16  O   UNL     1       0.739  -0.958  -1.106  1.00  0.00    -0.391 OA
ATOM     17  H   UNL     1       1.679  -1.226  -1.077  1.00  0.00     0.211 HD
ENDBRANCH  15  16
BRANCH  15  18
ATOM     18  C   UNL     1      -0.828   0.702  -0.301  1.00  0.00     0.043 C 
BRANCH  18  19
ATOM     19  C   UNL     1      -1.949  -0.123   0.382  1.00  0.00     0.036 C 
ATOM     20  C   UNL     1      -2.092  -1.579  -0.115  1.00  0.00     0.089 C 
ATOM     21  C   UNL     1      -3.272   0.609   0.188  1.00  0.00    -0.039 A 
ATOM     22  N   UNL     1      -2.601  -1.650  -1.487  1.00  0.00    -0.312 NA
ATOM     23  C   UNL     1      -3.561   1.763   0.935  1.00  0.00     0.004 A 
ATOM     24  C   UNL     1      -4.198   0.150  -0.769  1.00  0.00    -0.031 A 
ATOM     25  C   UNL     1      -3.970  -1.130  -1.543  1.00  0.00     0.117 C 
ATOM     26  C   UNL     1      -4.754   2.456   0.733  1.00  0.00     0.000 A 
ATOM     27  C   UNL     1      -5.397   0.856  -0.956  1.00  0.00     0.005 A 
ATOM     28  C   UNL     1      -5.670   2.005  -0.213  1.00  0.00     0.000 A 
ATOM     29  H   UNL     1      -2.002  -1.079  -2.083  1.00  0.00     0.123 HD
ENDBRANCH  18  19
ENDBRANCH  15  18
ENDBRANCH  14  15
ENDBRANCH   1  14
TORSDOF 8
