REMARK SMILES CNO[C@@H]1C[C@@H]1c1cccc(O)c1N1C(=O)c2ccccc2C1=O
REMARK SMILES IDX 4 1 5 2 6 3 3 4 2 5 1 6 7 8 8 9 13 10 9 11 11 12 10 13 14 14
REMARK SMILES IDX 15 15 23 16 17 17 22 18 18 19 21 20 19 21 20 22 16 23 24 24
REMARK SMILES IDX 12 25
REMARK H PARENT 2 7 12 26
ROOT
ATOM      1  C   UNL     1       2.546  -0.783  -0.902  1.00  0.00     0.150 C 
ATOM      2  C   UNL     1       1.147  -0.659  -1.426  1.00  0.00     0.046 C 
ATOM      3  C   UNL     1       1.375  -1.242  -0.051  1.00  0.00     0.055 C 
ENDROOT
BRANCH   1   4
ATOM      4  O   UNL     1       3.171   0.482  -0.595  1.00  0.00    -0.298 OA
BRANCH   4   5
ATOM      5  N   UNL     1       4.536   0.197  -0.178  1.00  0.00    -0.205 NA
ATOM      6  C   UNL     1       5.366   0.970  -1.094  1.00  0.00     0.134 C 
ATOM      7  H   UNL     1       4.549   0.644   0.739  1.00  0.00     0.154 HD
ENDBRANCH   4   5
ENDBRANCH   1   4
BRANCH   3   8
ATOM      8  C   UNL     1       0.952  -0.491   1.201  1.00  0.00    -0.014 A 
ATOM      9  C   UNL     1       1.905  -0.303   2.226  1.00  0.00     0.006 A 
ATOM     10  C   UNL     1      -0.341   0.053   1.409  1.00  0.00     0.098 A 
ATOM     11  C   UNL     1       1.628   0.433   3.379  1.00  0.00     0.004 A 
ATOM     12  C   UNL     1      -0.606   0.790   2.581  1.00  0.00     0.140 A 
ATOM     13  C   UNL     1       0.369   0.991   3.555  1.00  0.00     0.048 A 
BRANCH  10  14
ATOM     14  N   UNL     1      -1.380  -0.135   0.465  1.00  0.00    -0.238 N 
ATOM     15  C   UNL     1      -2.181   0.880  -0.011  1.00  0.00     0.266 C 
ATOM     16  C   UNL     1      -1.753  -1.356  -0.046  1.00  0.00     0.266 C 
ATOM     17  C   UNL     1      -3.156   0.252  -0.899  1.00  0.00     0.053 A 
ATOM     18  C   UNL     1      -2.889  -1.103  -0.929  1.00  0.00     0.053 A 
ATOM     19  C   UNL     1      -4.182   0.811  -1.637  1.00  0.00     0.015 A 
ATOM     20  C   UNL     1      -3.639  -1.978  -1.692  1.00  0.00     0.015 A 
ATOM     21  C   UNL     1      -4.954  -0.054  -2.419  1.00  0.00     0.001 A 
ATOM     22  C   UNL     1      -4.685  -1.438  -2.446  1.00  0.00     0.001 A 
ATOM     23  O   UNL     1      -2.126   2.089   0.135  1.00  0.00    -0.268 OA
ATOM     24  O   UNL     1      -1.333  -2.481   0.160  1.00  0.00    -0.268 OA
ENDBRANCH  10  14
BRANCH  12  25
ATOM     25  O   UNL     1      -1.877   1.243   2.829  1.00  0.00    -0.506 OA
ATOM     26  H   UNL     1      -1.810   2.042   3.378  1.00  0.00     0.293 HD
ENDBRANCH  12  25
ENDBRANCH   3   8
TORSDOF 5
