MODEL        8USER    Run = 8USERUSER    Estimated Free Energy of Binding    =  -9.19 kcal/mol  [=(1)+(2)+(3)-(4)]USERUSER    (1) Final Intermolecular Energy     = -12.17 kcal/molUSER        vdW + Hbond + desolv Energy     = -12.13 kcal/molUSER        Electrostatic Energy            =  -0.04 kcal/molUSER        Moving Ligand-Fixed Receptor    = -12.17 kcal/molUSER        Moving Ligand-Moving Receptor   =  +0.00 kcal/molUSER    (2) Final Total Internal Energy     =  -2.63 kcal/molUSER    (3) Torsional Free Energy           =  +2.98 kcal/molUSER    (4) Unbound System's Energy         =  -2.63 kcal/molUSERUSERREMARK SMILES C[C@H]1C[C@@H]1Nc1ccc(Cl)nc1-c1n[nH]cc1C(=O)N(CCN)Cc1ccc2c(c1)OCO2REMARK SMILES IDX 18 1 19 2 17 3 13 4 14 5 15 6 16 7 12 9 6 10 7 11 8 12 11 13REMARK SMILES IDX 9 14 10 15 5 16 4 18 2 19 3 20 1 21 20 22 21 23 22 24 23 25REMARK SMILES IDX 24 28 25 29 26 30 30 31 27 32 29 33 28 34 31 35 33 36 32 37REMARK H PARENT 15 8 5 17 23 26 23 27USER                              x       y       z     vdW  Elec       q    TypeUSER                           _______ _______ _______ _____ _____    ______ ____ROOTATOM      1  C   UNL     1      41.387  45.493  21.508 -0.20 +0.03    +0.258 C  ATOM      2  O   UNL     1      41.514  44.270  21.453 -0.21 -0.03    -0.269 OA ENDROOTBRANCH   1   3ATOM      3  C   UNL     1      42.005  46.308  20.488 -0.32 +0.02    +0.087 A  ATOM      4  C   UNL     1      41.503  46.606  19.191 -0.39 +0.01    +0.125 A  ATOM      5  N   UNL     1      42.347  47.417  18.526 -0.46 -0.00    -0.173 NA ATOM      6  N   UNL     1      43.341  47.650  19.397 -0.30 -0.04    -0.284 N  ATOM      7  C   UNL     1      43.177  47.026  20.596 -0.33 +0.04    +0.119 A  ATOM      8  H   UNL     1      44.101  48.257  19.104 -0.48 +0.00    +0.189 HD BRANCH   4   9ATOM      9  C   UNL     1      40.260  46.102  18.604 -0.38 -0.01    +0.116 A  ATOM     10  C   UNL     1      39.980  46.242  17.225 -0.42 -0.01    +0.063 A  ATOM     11  C   UNL     1      38.773  45.682  16.788 -0.35 -0.01    +0.031 A  ATOM     12  C   UNL     1      37.892  45.091  17.694 -0.34 -0.01    +0.043 A  ATOM     13  N   UNL     1      39.402  45.560  19.513 -0.26 +0.01    -0.232 NA ATOM     14  C   UNL     1      38.253  45.065  19.026 -0.29 -0.01    +0.130 A  ATOM     15  Cl  UNL     1      37.212  44.384  20.206 -0.51 +0.00    -0.062 Cl BRANCH  10  16ATOM     16  N   UNL     1      40.906  46.800  16.308 -0.10 +0.03    -0.380 N  ATOM     17  H   UNL     1      41.837  46.917  16.711 -0.35 -0.04    +0.160 HD BRANCH  16  18ATOM     18  C   UNL     1      40.521  47.842  15.355 -0.54 -0.01    +0.082 C  ATOM     19  C   UNL     1      41.101  49.229  15.437 -0.72 -0.00    +0.010 C  ATOM     20  C   UNL     1      39.670  48.992  15.829 -0.55 -0.01    +0.030 C  ATOM     21  C   UNL     1      41.422  49.988  14.197 -0.72 -0.00    +0.010 C  ENDBRANCH  16  18ENDBRANCH  10  16ENDBRANCH   4   9ENDBRANCH   1   3BRANCH   1  22ATOM     22  N   UNL     1      40.709  46.144  22.539 -0.09 -0.03    -0.333 N  BRANCH  22  23ATOM     23  C   UNL     1      41.518  46.774  23.586 -0.18 +0.01    +0.135 C  BRANCH  23  24ATOM     24  C   UNL     1      41.582  48.317  23.520 -0.28 +0.02    +0.099 C  BRANCH  24  25ATOM     25  N   UNL     1      42.893  48.856  23.154 -0.83 -0.10    -0.329 NA ATOM     26  H   UNL     1      43.621  48.180  23.406 +0.03 +0.03    +0.118 HD ATOM     27  H   UNL     1      42.948  48.992  22.147 -0.33 +0.02    +0.118 HD ENDBRANCH  24  25ENDBRANCH  23  24ENDBRANCH  22  23BRANCH  22  28ATOM     28  C   UNL     1      39.249  46.231  22.654 -0.24 +0.01    +0.155 C  BRANCH  28  29ATOM     29  C   UNL     1      38.619  45.032  23.325 -0.28 -0.00    -0.025 A  ATOM     30  C   UNL     1      38.944  43.723  22.896 -0.27 +0.00    +0.009 A  ATOM     31  C   UNL     1      37.720  45.207  24.390 -0.26 +0.01    +0.056 A  ATOM     32  C   UNL     1      38.374  42.602  23.509 -0.26 +0.00    +0.051 A  ATOM     33  C   UNL     1      37.177  44.083  24.976 -0.23 +0.01    +0.166 A  ATOM     34  C   UNL     1      37.493  42.816  24.545 -0.25 +0.01    +0.165 A  ATOM     35  O   UNL     1      36.293  44.074  26.010 -0.15 +0.04    -0.454 OA ATOM     36  O   UNL     1      36.844  41.850  25.249 -0.17 +0.05    -0.454 OA ATOM     37  C   UNL     1      36.083  42.657  26.174 -0.13 -0.06    +0.468 C  ENDBRANCH  28  29ENDBRANCH  22  28ENDBRANCH   1  22TORSDOF 10TERENDMDL