REMARK SMILES COc1ccc(O)c(C(=O)c2ccc(/C=C/[C@@H]3CCCN(S(C)(=O)=O)C[C@H]3NC(=O)c3ccncc3)cc2)c1F
REMARK SMILES IDX 16 1 15 2 14 3 11 4 12 5 38 6 13 7 37 8 9 9 10 10 8 11 3 12
REMARK SMILES IDX 4 13 39 14 5 15 6 16 40 17 2 18 1 19 7 20 17 22 18 23 27 25
REMARK SMILES IDX 26 26 21 27 20 28 19 29 22 31 23 32 24 33 25 34 28 35 29 36
REMARK SMILES IDX 30 38 31 39 32 40 36 41 33 42 35 43 34 44
REMARK H PARENT 7 21 28 37
REMARK Flexibility Score:   99.900
ROOT
ATOM      1  C   UNL     1      -0.781   0.528  -0.907  1.00  0.00    -0.021 C 
ENDROOT
BRANCH   1   2
ATOM      2  C   UNL     1       0.499   0.870  -0.686  1.00  0.00     0.004 C 
BRANCH   2   3
ATOM      3  C   UNL     1       1.556  -0.115  -0.420  1.00  0.00    -0.026 A 
ATOM      4  C   UNL     1       3.650  -1.894   0.159  1.00  0.00     0.023 A 
ATOM      5  C   UNL     1       2.382  -2.105   0.708  1.00  0.00     0.013 A 
ATOM      6  C   UNL     1       3.869  -0.813  -0.701  1.00  0.00     0.013 A 
ATOM      7  C   UNL     1       1.345  -1.211   0.429  1.00  0.00     0.009 A 
ATOM      8  C   UNL     1       2.827   0.079  -0.976  1.00  0.00     0.009 A 
BRANCH   4   9
ATOM      9  C   UNL     1       4.725  -2.861   0.476  1.00  0.00     0.199 C 
ATOM     10  O   UNL     1       4.465  -4.066   0.465  1.00  0.00    -0.288 OA
BRANCH   9  11
ATOM     11  C   UNL     1       6.120  -2.454   0.763  1.00  0.00     0.104 A 
ATOM     12  C   UNL     1       7.759  -0.845   1.588  1.00  0.00     0.155 A 
ATOM     13  C   UNL     1       8.790  -1.732   1.271  1.00  0.00     0.053 A 
ATOM     14  C   UNL     1       6.431  -1.219   1.334  1.00  0.00     0.179 A 
ATOM     15  C   UNL     1       8.492  -2.984   0.730  1.00  0.00     0.051 A 
ATOM     16  C   UNL     1       7.167  -3.345   0.491  1.00  0.00     0.130 A 
ATOM     17  F   UNL     1       5.452  -0.368   1.681  1.00  0.00    -0.202 F 
BRANCH  12  18
ATOM     18  O   UNL     1       7.926   0.400   2.134  1.00  0.00    -0.494 OA
ATOM     19  C   UNL     1       9.244   0.773   2.518  1.00  0.00     0.278 C 
ENDBRANCH  12  18
BRANCH  16  20
ATOM     20  O   UNL     1       6.965  -4.603  -0.012  1.00  0.00    -0.507 OA
ATOM     21  H   UNL     1       6.001  -4.800   0.049  1.00  0.00     0.293 HD
ENDBRANCH  16  20
ENDBRANCH   9  11
ENDBRANCH   4   9
ENDBRANCH   2   3
ENDBRANCH   1   2
BRANCH   1  22
ATOM     22  C   UNL     1      -1.971   1.458  -1.109  1.00  0.00     0.035 C 
BRANCH  22  23
ATOM     23  C   UNL     1      -1.567   2.884  -1.575  1.00  0.00     0.011 CG0
ATOM     24  G   UNL     1      -2.652   3.627  -2.381  1.00  0.00     0.000 G0
ENDBRANCH  22  23
BRANCH  22  25
ATOM     25  C   UNL     1      -2.855   1.410   0.183  1.00  0.00     0.104 C 
BRANCH  25  26
ATOM     26  C   UNL     1      -3.737   2.651   0.376  1.00  0.00     0.127 C 
BRANCH  26  27
ATOM     27  N   UNL     1      -4.462   2.934  -0.900  1.00  0.00    -0.200 NA
BRANCH  27  28
ATOM     28  C   UNL     1      -3.876   4.094  -1.595  1.00  0.00     0.102 C 
BRANCH  28  29
ATOM     29  C   UNL     1      -2.652   3.627  -2.381  1.00  0.00     0.017 CG0
ATOM     30  G   UNL     1      -1.567   2.884  -1.575  1.00  0.00     0.000 G0
ENDBRANCH  28  29
ENDBRANCH  27  28
BRANCH  27  31
ATOM     31  S   UNL     1      -6.132   2.749  -0.826  1.00  0.00     0.211 S 
ATOM     32  C   UNL     1      -6.633   2.740  -2.538  1.00  0.00     0.176 C 
ATOM     33  O   UNL     1      -6.358   1.415  -0.306  1.00  0.00    -0.213 OA
ATOM     34  O   UNL     1      -6.679   3.919  -0.178  1.00  0.00    -0.213 OA
ENDBRANCH  27  31
ENDBRANCH  26  27
ENDBRANCH  25  26
BRANCH  25  35
ATOM     35  N   UNL     1      -3.717   0.214   0.189  1.00  0.00    -0.347 N 
ATOM     36  C   UNL     1      -3.406  -0.926   0.897  1.00  0.00     0.251 C 
ATOM     37  H   UNL     1      -4.684   0.362  -0.096  1.00  0.00     0.164 HD
ATOM     38  O   UNL     1      -2.353  -1.082   1.503  1.00  0.00    -0.269 OA
BRANCH  36  39
ATOM     39  C   UNL     1      -4.445  -1.991   0.934  1.00  0.00     0.042 A 
ATOM     40  C   UNL     1      -5.415  -2.123  -0.060  1.00  0.00     0.034 A 
ATOM     41  C   UNL     1      -4.420  -2.899   1.994  1.00  0.00     0.034 A 
ATOM     42  C   UNL     1      -6.334  -3.151   0.064  1.00  0.00     0.112 A 
ATOM     43  C   UNL     1      -5.383  -3.891   2.026  1.00  0.00     0.112 A 
ATOM     44  N   UNL     1      -6.340  -4.035   1.084  1.00  0.00    -0.265 NA
ENDBRANCH  36  39
ENDBRANCH  25  35
ENDBRANCH  22  25
ENDBRANCH   1  22
TORSDOF 10
