MODEL        7USER    Run = 7USERUSER    Estimated Free Energy of Binding    =  -7.81 kcal/mol  [=(1)+(2)+(3)-(4)]USERUSER    (1) Final Intermolecular Energy     = -12.59 kcal/molUSER        vdW + Hbond + desolv Energy     = -13.11 kcal/molUSER        Electrostatic Energy            =  -0.35 kcal/molUSER        Moving Ligand-Fixed Receptor    = -13.46 kcal/molUSER        Moving Ligand-Moving Receptor   =  +0.88 kcal/molUSER    (2) Final Total Internal Energy     =  -4.39 kcal/molUSER    (3) Torsional Free Energy           =  +4.77 kcal/molUSER    (4) Unbound System's Energy         =  -4.39 kcal/molUSERUSERREMARK SMILES COc1ccc(O)c(C(=O)c2ccc(/C=C/[C@@H]3CCCN(S(C)(=O)=O)C[C@H]3NC(=O)c3ccncc3)cc2)c1FREMARK SMILES IDX 16 1 15 2 14 3 11 4 12 5 38 6 13 7 37 8 9 9 10 10 8 11 3 12REMARK SMILES IDX 4 13 39 14 5 15 6 16 40 17 2 18 1 19 7 20 17 22 18 23 27 25REMARK SMILES IDX 26 26 21 27 20 28 19 29 22 31 23 32 24 33 25 34 28 35 29 36REMARK SMILES IDX 30 38 31 39 32 40 36 41 33 42 35 43 34 44REMARK H PARENT 7 21 28 37REMARK Flexibility Score:   99.900USER                              x       y       z     vdW  Elec       q    TypeUSER                           _______ _______ _______ _____ _____    ______ ____ROOTATOM      1  C   UNL     1      38.630  46.044  16.207 -0.43 +0.01    -0.021 C  ENDROOTBRANCH   1   2ATOM      2  C   UNL     1      39.961  46.222  16.233 -0.48 -0.00    +0.004 C  BRANCH   2   3ATOM      3  C   UNL     1      40.715  46.443  17.474 -0.48 +0.00    -0.026 A  ATOM      4  C   UNL     1      42.248  46.759  19.805 -0.43 +0.00    +0.023 A  ATOM      5  C   UNL     1      42.191  47.789  18.861 -0.34 +0.00    +0.013 A  ATOM      6  C   UNL     1      41.518  45.583  19.602 -0.40 +0.00    +0.013 A  ATOM      7  C   UNL     1      41.439  47.624  17.696 -0.49 -0.00    +0.009 A  ATOM      8  C   UNL     1      40.767  45.424  18.433 -0.46 -0.00    +0.009 A  BRANCH   4   9ATOM      9  C   UNL     1      43.055  46.968  21.029 -0.32 +0.06    +0.199 C  ATOM     10  O   UNL     1      44.278  46.828  20.967 -0.55 -0.26    -0.288 OA BRANCH   9  11ATOM     11  C   UNL     1      42.468  47.386  22.323 -0.23 +0.02    +0.104 A  ATOM     12  C   UNL     1      40.696  47.310  24.000 -0.18 +0.02    +0.155 A  ATOM     13  C   UNL     1      41.398  48.229  24.784 -0.28 +0.01    +0.053 A  ATOM     14  C   UNL     1      41.243  46.895  22.776 -0.11 +0.02    +0.179 A  ATOM     15  C   UNL     1      42.640  48.704  24.358 -0.34 +0.01    +0.051 A  ATOM     16  C   UNL     1      43.175  48.275  23.144 -0.29 +0.03    +0.130 A  ATOM     17  F   UNL     1      40.571  45.983  22.056 -0.06 -0.02    -0.202 F  BRANCH  12  18ATOM     18  O   UNL     1      39.481  46.765  24.318 -0.06 -0.04    -0.494 OA ATOM     19  C   UNL     1      39.455  45.385  24.663 -0.09 +0.01    +0.278 C  ENDBRANCH  12  18BRANCH  16  20ATOM     20  O   UNL     1      44.411  48.768  22.821 -0.25 -0.14    -0.507 OA ATOM     21  H   UNL     1      44.477  48.792  21.837 -0.45 -0.02    +0.293 HD ENDBRANCH  16  20ENDBRANCH   9  11ENDBRANCH   4   9ENDBRANCH   2   3ENDBRANCH   1   2BRANCH   1  22ATOM     22  C   UNL     1      37.830  44.912  16.840 -0.37 -0.01    +0.035 C  BRANCH  22  23ATOM     23  C   UNL     1      36.930  44.151  15.828 -0.41 -0.00    +0.011 CG0ATOM     24  G   UNL     1      35.880  45.030  15.118 +0.00 +0.00    +0.000 G0 ENDBRANCH  22  23BRANCH  22  25ATOM     25  C   UNL     1      37.082  45.482  18.093 -0.30 -0.03    +0.104 C  BRANCH  25  26ATOM     26  C   UNL     1      35.735  46.139  17.763 -0.26 -0.07    +0.127 C  BRANCH  26  27ATOM     27  N   UNL     1      34.784  45.086  17.290 -0.19 +0.11    -0.200 NA BRANCH  27  28ATOM     28  C   UNL     1      34.548  45.199  15.840 -0.31 -0.07    +0.102 C  BRANCH  28  29ATOM     29  C   UNL     1      35.880  45.030  15.112 -0.40 -0.01    +0.017 CG0ATOM     30  G   UNL     1      36.935  44.153  15.817 +0.00 +0.00    +0.000 G0 ENDBRANCH  28  29ENDBRANCH  27  28BRANCH  27  31ATOM     31  S   UNL     1      33.504  44.764  18.332 -0.41 -0.08    +0.211 S  ATOM     32  C   UNL     1      32.159  44.351  17.235 -0.23 -0.05    +0.176 C  ATOM     33  O   UNL     1      33.867  43.553  19.041 -0.30 +0.03    -0.213 OA ATOM     34  O   UNL     1      33.185  45.987  19.033 -0.37 +0.11    -0.213 OA ENDBRANCH  27  31ENDBRANCH  26  27ENDBRANCH  25  26BRANCH  25  35ATOM     35  N   UNL     1      36.858  44.428  19.099 -0.13 +0.05    -0.347 N  ATOM     36  C   UNL     1      37.608  44.323  20.249 -0.26 -0.01    +0.251 C  ATOM     37  H   UNL     1      35.948  43.969  19.067 +0.12 -0.03    +0.164 HD ATOM     38  O   UNL     1      38.578  45.031  20.493 -0.26 -0.00    -0.269 OA BRANCH  36  39ATOM     39  C   UNL     1      37.165  43.308  21.243 -0.38 +0.00    +0.042 A  ATOM     40  C   UNL     1      37.364  43.469  22.614 -0.36 +0.00    +0.034 A  ATOM     41  C   UNL     1      36.506  42.170  20.773 -0.46 -0.00    +0.034 A  ATOM     42  C   UNL     1      36.910  42.468  23.457 -0.36 +0.01    +0.112 A  ATOM     43  C   UNL     1      36.091  41.229  21.697 -0.38 +0.00    +0.112 A  ATOM     44  N   UNL     1      36.280  41.353  23.029 -0.34 -0.00    -0.265 NA ENDBRANCH  36  39ENDBRANCH  25  35ENDBRANCH  22  25ENDBRANCH   1  22TORSDOF 10TERENDMDL