MODEL        1USER    Run = 1USERUSER    Estimated Free Energy of Binding    =  -7.15 kcal/mol  [=(1)+(2)+(3)-(4)]USERUSER    (1) Final Intermolecular Energy     = -11.33 kcal/molUSER        vdW + Hbond + desolv Energy     = -11.11 kcal/molUSER        Electrostatic Energy            =  -0.40 kcal/molUSER        Moving Ligand-Fixed Receptor    = -11.51 kcal/molUSER        Moving Ligand-Moving Receptor   =  +0.19 kcal/molUSER    (2) Final Total Internal Energy     =  -2.26 kcal/molUSER    (3) Torsional Free Energy           =  +4.18 kcal/molUSER    (4) Unbound System's Energy         =  -2.26 kcal/molUSERUSERREMARK SMILES COc1ccc(O)c(C(=O)c2ccc(C(=O)N[C@@H]3CCCNC[C@H]3NC(=O)c3cnc(F)c(F)c3)cc2)c1FREMARK SMILES IDX 15 1 16 2 17 3 14 5 11 6 12 7 37 8 13 9 36 10 9 11 10 12REMARK SMILES IDX 8 13 3 14 4 15 38 16 5 17 6 18 39 19 2 20 1 21 7 22 18 24REMARK SMILES IDX 19 25 24 27 23 28 22 29 21 31 20 32 25 34 26 35 27 37 28 38REMARK SMILES IDX 29 39 35 40 30 41 33 42 31 43 34 44 32 45REMARK H PARENT 17 4 7 23 22 30 25 36REMARK Flexibility Score:   88.900USER                              x       y       z     vdW  Elec       q    TypeUSER                           _______ _______ _______ _____ _____    ______ ____ROOTATOM      1  C   UNL     1      39.436  44.968  20.432 -0.26 +0.00    +0.251 C  ATOM      2  O   UNL     1      39.633  46.118  20.057 -0.22 +0.00    -0.269 OA ATOM      3  N   UNL     1      38.331  44.227  20.079 -0.13 +0.01    -0.347 N  ATOM      4  H   UNL     1      38.185  43.313  20.487 +0.11 -0.00    +0.164 HD ENDROOTBRANCH   1   5ATOM      5  C   UNL     1      40.419  44.296  21.325 -0.28 +0.00    +0.039 A  ATOM      6  C   UNL     1      42.338  43.045  22.935 -0.29 -0.00    +0.023 A  ATOM      7  C   UNL     1      41.050  43.277  23.432 -0.23 +0.00    +0.013 A  ATOM      8  C   UNL     1      42.655  43.400  21.618 -0.26 +0.00    +0.013 A  ATOM      9  C   UNL     1      40.091  43.904  22.631 -0.24 +0.00    +0.014 A  ATOM     10  C   UNL     1      41.696  44.024  20.817 -0.30 +0.00    +0.014 A  BRANCH   6  11ATOM     11  C   UNL     1      43.319  42.360  23.810 -0.14 -0.01    +0.199 C  ATOM     12  O   UNL     1      42.980  42.034  24.947 -0.12 +0.04    -0.288 OA BRANCH  11  13ATOM     13  C   UNL     1      44.681  42.003  23.359 -0.23 -0.00    +0.104 A  ATOM     14  C   UNL     1      46.801  42.582  22.305 -0.17 +0.01    +0.155 A  ATOM     15  C   UNL     1      47.245  41.271  22.490 -0.17 -0.01    +0.053 A  ATOM     16  C   UNL     1      45.520  42.937  22.749 -0.20 +0.03    +0.179 A  ATOM     17  C   UNL     1      46.425  40.337  23.130 -0.25 -0.01    +0.051 A  ATOM     18  C   UNL     1      45.160  40.707  23.576 -0.25 -0.02    +0.130 A  ATOM     19  F   UNL     1      45.113  44.208  22.595 -0.06 -0.09    -0.202 F  BRANCH  14  20ATOM     20  O   UNL     1      47.521  43.589  21.718 -0.56 -0.34    -0.494 OA ATOM     21  C   UNL     1      48.818  43.265  21.234 -0.13 +0.06    +0.278 C  ENDBRANCH  14  20BRANCH  18  22ATOM     22  O   UNL     1      44.432  39.744  24.222 -0.69 +0.02    -0.507 OA ATOM     23  H   UNL     1      43.811  40.195  24.840 -0.02 -0.02    +0.293 HD ENDBRANCH  18  22ENDBRANCH  11  13ENDBRANCH   6  11ENDBRANCH   1   5BRANCH   3  24ATOM     24  C   UNL     1      37.241  44.759  19.236 -0.31 -0.01    +0.106 C  BRANCH  24  25ATOM     25  C   UNL     1      35.952  44.025  19.636 -0.44 -0.00    +0.028 CG0ATOM     26  G   UNL     1      34.641  44.712  19.264 +0.00 +0.00    +0.000 G0 ENDBRANCH  24  25BRANCH  24  27ATOM     27  C   UNL     1      37.593  44.552  17.738 -0.32 -0.03    +0.118 C  BRANCH  27  28ATOM     28  C   UNL     1      36.388  44.105  16.876 -0.32 -0.04    +0.108 C  BRANCH  28  29ATOM     29  N   UNL     1      35.174  44.920  16.889 -0.10 +0.17    -0.315 NA ATOM     30  H   UNL     1      34.781  44.922  15.946 +0.09 -0.08    +0.122 HD BRANCH  29  31ATOM     31  C   UNL     1      34.162  44.482  17.836 -0.33 -0.03    +0.081 C  BRANCH  31  32ATOM     32  C   UNL     1      34.641  44.710  19.266 -0.43 -0.00    +0.017 CG0ATOM     33  G   UNL     1      35.952  44.024  19.637 +0.00 +0.00    +0.000 G0 ENDBRANCH  31  32ENDBRANCH  29  31ENDBRANCH  28  29ENDBRANCH  27  28BRANCH  27  34ATOM     34  N   UNL     1      38.173  45.784  17.171 -0.16 +0.10    -0.346 N  ATOM     35  C   UNL     1      39.531  46.000  17.134 -0.31 -0.04    +0.253 C  ATOM     36  H   UNL     1      37.542  46.338  16.607 +0.11 -0.08    +0.164 HD ATOM     37  O   UNL     1      40.345  45.220  17.613 -0.26 +0.01    -0.269 OA BRANCH  35  38ATOM     38  C   UNL     1      40.000  47.241  16.471 -0.46 -0.01    +0.061 A  ATOM     39  C   UNL     1      40.883  48.069  17.166 -0.40 -0.02    +0.128 A  ATOM     40  C   UNL     1      39.588  47.643  15.199 -0.47 -0.02    +0.059 A  ATOM     41  N   UNL     1      41.383  49.234  16.677 -0.95 -0.00    -0.225 NA ATOM     42  C   UNL     1      40.088  48.832  14.681 -0.38 -0.06    +0.178 A  ATOM     43  C   UNL     1      40.972  49.586  15.438 -0.44 -0.06    +0.248 A  ATOM     44  F   UNL     1      39.704  49.235  13.463 +0.10 +0.08    -0.202 F  ATOM     45  F   UNL     1      41.451  50.731  14.930 -0.26 +0.06    -0.182 F  ENDBRANCH  35  38ENDBRANCH  27  34ENDBRANCH  24  27ENDBRANCH   3  24TORSDOF 8TERENDMDL