MODEL        7USER    Run = 7USERUSER    Estimated Free Energy of Binding    =  -6.99 kcal/mol  [=(1)+(2)+(3)-(4)]USERUSER    (1) Final Intermolecular Energy     = -12.06 kcal/molUSER        vdW + Hbond + desolv Energy     = -12.52 kcal/molUSER        Electrostatic Energy            =  -0.19 kcal/molUSER        Moving Ligand-Fixed Receptor    = -12.71 kcal/molUSER        Moving Ligand-Moving Receptor   =  +0.65 kcal/molUSER    (2) Final Total Internal Energy     =  -2.48 kcal/molUSER    (3) Torsional Free Energy           =  +5.07 kcal/molUSER    (4) Unbound System's Energy         =  -2.48 kcal/molUSERUSERREMARK SMILES COc1ccc(O)c(C(=O)c2ccc(C(=O)N[C@@H]3CCCN(C(=O)OC(C)(C)C)C[C@H]3NC(=O)c3cncnc3)cc2)c1FREMARK SMILES IDX 18 1 17 3 15 4 16 5 14 7 11 8 12 9 42 10 13 11 41 12 9 13REMARK SMILES IDX 10 14 8 15 3 16 4 17 43 18 5 19 6 20 44 21 2 22 1 23 7 24REMARK SMILES IDX 31 26 30 27 22 28 21 29 20 30 19 31 23 33 24 34 25 35 26 36REMARK SMILES IDX 27 37 28 38 29 39 32 40 33 41 34 43 35 44 36 45 40 46 37 47REMARK SMILES IDX 39 48 38 49REMARK H PARENT 17 6 7 25 32 42REMARK Flexibility Score:  100.900USER                              x       y       z     vdW  Elec       q    TypeUSER                           _______ _______ _______ _____ _____    ______ ____ROOTATOM      1  C   UNL     1      35.156  45.438  17.281 -0.33 -0.06    +0.106 CG0ATOM      2  G   UNL     1      35.043  46.174  15.933 +0.00 +0.00    +0.000 G0 ENDROOTBRANCH   1   3ATOM      3  N   UNL     1      34.163  44.341  17.247 -0.06 +0.15    -0.347 N  ATOM      4  C   UNL     1      33.538  43.858  18.375 -0.23 -0.06    +0.251 C  ATOM      5  O   UNL     1      33.760  44.301  19.499 -0.34 +0.05    -0.269 OA ATOM      6  H   UNL     1      33.934  43.943  16.345 +0.12 -0.08    +0.164 HD BRANCH   4   7ATOM      7  C   UNL     1      32.594  42.726  18.187 -0.32 -0.01    +0.039 A  ATOM      8  C   UNL     1      30.739  40.655  17.790 -0.32 -0.00    +0.023 A  ATOM      9  C   UNL     1      30.852  41.685  16.848 -0.31 -0.00    +0.013 A  ATOM     10  C   UNL     1      31.555  40.668  18.929 -0.33 +0.00    +0.013 A  ATOM     11  C   UNL     1      31.775  42.719  17.051 -0.30 -0.00    +0.014 A  ATOM     12  C   UNL     1      32.473  41.701  19.134 -0.36 -0.00    +0.014 A  BRANCH   8  13ATOM     13  C   UNL     1      29.776  39.532  17.635 -0.29 +0.03    +0.199 C  ATOM     14  O   UNL     1      29.425  39.155  16.520 -0.03 -0.14    -0.288 OA BRANCH  13  15ATOM     15  C   UNL     1      29.260  38.818  18.810 -0.28 +0.02    +0.104 A  ATOM     16  C   UNL     1      27.639  38.718  20.614 -0.13 -0.02    +0.155 A  ATOM     17  C   UNL     1      28.302  37.599  21.128 -0.25 -0.01    +0.053 A  ATOM     18  C   UNL     1      28.126  39.318  19.447 -0.14 +0.01    +0.179 A  ATOM     19  C   UNL     1      29.439  37.089  20.484 -0.26 +0.00    +0.051 A  ATOM     20  C   UNL     1      29.916  37.701  19.326 -0.30 +0.04    +0.130 A  ATOM     21  F   UNL     1      27.492  40.387  18.935 -0.02 +0.00    -0.202 F  BRANCH  16  22ATOM     22  O   UNL     1      26.519  39.293  21.151 -0.10 +0.13    -0.494 OA ATOM     23  C   UNL     1      25.519  38.420  21.663 -0.22 -0.20    +0.278 C  ENDBRANCH  16  22BRANCH  20  24ATOM     24  O   UNL     1      31.001  37.185  18.678 -0.74 -0.25    -0.507 OA ATOM     25  H   UNL     1      31.067  37.571  17.788 +0.21 +0.13    +0.293 HD ENDBRANCH  20  24ENDBRANCH  13  15ENDBRANCH   8  13ENDBRANCH   4   7ENDBRANCH   1   3BRANCH   1  26ATOM     26  C   UNL     1      36.604  44.914  17.561 -0.31 -0.04    +0.124 C  BRANCH  26  27ATOM     27  C   UNL     1      37.695  45.930  17.156 -0.33 -0.05    +0.150 C  BRANCH  27  28ATOM     28  N   UNL     1      37.672  46.475  15.803 -0.16 +0.14    -0.306 N  BRANCH  28  29ATOM     29  C   UNL     1      37.207  45.656  14.698 -0.36 -0.05    +0.123 C  BRANCH  29  30ATOM     30  C   UNL     1      35.693  45.508  14.734 -0.42 -0.01    +0.024 C  BRANCH  30  31ATOM     31  C   UNL     1      35.041  46.179  15.938 -0.27 -0.03    +0.029 CG0ATOM     32  G   UNL     1      35.156  45.442  17.285 +0.00 +0.00    +0.000 G0 ENDBRANCH  30  31ENDBRANCH  29  30ENDBRANCH  28  29BRANCH  28  33ATOM     33  C   UNL     1      38.199  47.732  15.526 -0.22 -0.22    +0.410 C  ATOM     34  O   UNL     1      37.877  48.404  14.554 -0.44 +0.13    -0.224 OA BRANCH  33  35ATOM     35  O   UNL     1      39.111  48.119  16.454 -0.18 +0.20    -0.444 OA BRANCH  35  36ATOM     36  C   UNL     1      40.527  48.183  16.137 -0.55 -0.02    +0.106 C  ATOM     37  C   UNL     1      40.882  47.231  14.990 -0.32 -0.00    +0.056 C  ATOM     38  C   UNL     1      40.753  49.629  15.666 -0.68 -0.02    +0.056 C  ATOM     39  C   UNL     1      41.392  47.937  17.380 -0.51 -0.00    +0.056 C  ENDBRANCH  35  36ENDBRANCH  33  35ENDBRANCH  28  33ENDBRANCH  27  28ENDBRANCH  26  27BRANCH  26  40ATOM     40  N   UNL     1      36.792  44.583  18.986 -0.14 +0.06    -0.345 N  ATOM     41  C   UNL     1      36.512  43.335  19.493 -0.23 -0.03    +0.254 C  ATOM     42  H   UNL     1      37.306  45.276  19.522 +0.09 -0.01    +0.164 HD ATOM     43  O   UNL     1      36.040  42.439  18.799 -0.19 +0.04    -0.269 OA BRANCH  41  44ATOM     44  C   UNL     1      36.800  43.079  20.920 -0.38 +0.00    +0.076 A  ATOM     45  C   UNL     1      37.304  43.998  21.815 -0.31 +0.01    +0.128 A  ATOM     46  C   UNL     1      36.543  41.832  21.454 -0.45 +0.00    +0.128 A  ATOM     47  N   UNL     1      37.549  43.725  23.119 -0.21 -0.02    -0.244 NA ATOM     48  N   UNL     1      36.764  41.501  22.749 -0.37 -0.01    -0.244 NA ATOM     49  C   UNL     1      37.261  42.478  23.520 -0.27 +0.02    +0.221 A  ENDBRANCH  41  44ENDBRANCH  26  40ENDBRANCH   1  26TORSDOF 11TERENDMDL