REMARK SMILES COc1ccc(O)c(C(=O)c2ccc(C(=O)N[C@@H]3CCCNC[C@H]3NC(=O)c3cnc(F)c(F)c3)cc2)c1F
REMARK SMILES IDX 15 1 16 2 17 3 14 5 11 6 12 7 37 8 13 9 36 10 9 11 10 12
REMARK SMILES IDX 8 13 3 14 4 15 38 16 5 17 6 18 39 19 2 20 1 21 7 22 18 24
REMARK SMILES IDX 19 25 24 27 23 28 22 29 21 31 20 32 25 34 26 35 27 37 28 38
REMARK SMILES IDX 29 39 35 40 30 41 33 42 31 43 34 44 32 45
REMARK H PARENT 17 4 7 23 22 30 25 36
REMARK Flexibility Score:   88.900
ROOT
ATOM      1  C   UNL     1      -0.559  -1.489   0.052  1.00  0.00     0.251 C 
ATOM      2  O   UNL     1      -0.588  -2.604   0.558  1.00  0.00    -0.269 OA
ATOM      3  N   UNL     1      -1.505  -1.026  -0.834  1.00  0.00    -0.347 N 
ATOM      4  H   UNL     1      -1.382  -0.126  -1.280  1.00  0.00     0.164 HD
ENDROOT
BRANCH   1   5
ATOM      5  C   UNL     1       0.547  -0.549   0.381  1.00  0.00     0.039 A 
ATOM      6  C   UNL     1       2.691   1.142   1.004  1.00  0.00     0.023 A 
ATOM      7  C   UNL     1       1.433   1.683   0.714  1.00  0.00     0.013 A 
ATOM      8  C   UNL     1       2.868  -0.247   1.024  1.00  0.00     0.013 A 
ATOM      9  C   UNL     1       0.362   0.841   0.400  1.00  0.00     0.014 A 
ATOM     10  C   UNL     1       1.797  -1.088   0.713  1.00  0.00     0.014 A 
BRANCH   6  11
ATOM     11  C   UNL     1       3.795   2.068   1.350  1.00  0.00     0.199 C 
ATOM     12  O   UNL     1       3.550   3.058   2.039  1.00  0.00    -0.288 OA
BRANCH  11  13
ATOM     13  C   UNL     1       5.197   1.829   0.946  1.00  0.00     0.104 A 
ATOM     14  C   UNL     1       6.848   0.985  -0.635  1.00  0.00     0.155 A 
ATOM     15  C   UNL     1       7.870   1.365   0.237  1.00  0.00     0.053 A 
ATOM     16  C   UNL     1       5.516   1.227  -0.272  1.00  0.00     0.179 A 
ATOM     17  C   UNL     1       7.562   1.998   1.445  1.00  0.00     0.051 A 
ATOM     18  C   UNL     1       6.235   2.243   1.787  1.00  0.00     0.130 A 
ATOM     19  F   UNL     1       4.541   0.887  -1.131  1.00  0.00    -0.202 F 
BRANCH  14  20
ATOM     20  O   UNL     1       7.026   0.383  -1.853  1.00  0.00    -0.494 OA
ATOM     21  C   UNL     1       8.361   0.083  -2.242  1.00  0.00     0.278 C 
ENDBRANCH  14  20
BRANCH  18  22
ATOM     22  O   UNL     1       6.018   2.897   2.970  1.00  0.00    -0.507 OA
ATOM     23  H   UNL     1       5.085   3.212   2.977  1.00  0.00     0.293 HD
ENDBRANCH  18  22
ENDBRANCH  11  13
ENDBRANCH   6  11
ENDBRANCH   1   5
BRANCH   3  24
ATOM     24  C   UNL     1      -2.642  -1.846  -1.299  1.00  0.00     0.106 C 
BRANCH  24  25
ATOM     25  C   UNL     1      -2.456  -2.076  -2.807  1.00  0.00     0.028 CG0
ATOM     26  G   UNL     1      -3.398  -3.085  -3.457  1.00  0.00     0.000 G0
ENDBRANCH  24  25
BRANCH  24  27
ATOM     27  C   UNL     1      -3.975  -1.119  -0.976  1.00  0.00     0.118 C 
BRANCH  27  28
ATOM     28  C   UNL     1      -5.200  -2.065  -0.931  1.00  0.00     0.108 C 
BRANCH  28  29
ATOM     29  N   UNL     1      -5.266  -3.174  -1.881  1.00  0.00    -0.315 NA
ATOM     30  H   UNL     1      -6.219  -3.542  -1.877  1.00  0.00     0.122 HD
BRANCH  29  31
ATOM     31  C   UNL     1      -4.886  -2.828  -3.241  1.00  0.00     0.081 C 
BRANCH  31  32
ATOM     32  C   UNL     1      -3.398  -3.085  -3.457  1.00  0.00     0.017 CG0
ATOM     33  G   UNL     1      -2.456  -2.076  -2.807  1.00  0.00     0.000 G0
ENDBRANCH  31  32
ENDBRANCH  29  31
ENDBRANCH  28  29
ENDBRANCH  27  28
BRANCH  27  34
ATOM     34  N   UNL     1      -3.868  -0.392   0.303  1.00  0.00    -0.346 N 
ATOM     35  C   UNL     1      -4.678   0.678   0.603  1.00  0.00     0.253 C 
ATOM     36  H   UNL     1      -3.342  -0.866   1.026  1.00  0.00     0.164 HD
ATOM     37  O   UNL     1      -5.500   1.134  -0.182  1.00  0.00    -0.269 OA
BRANCH  35  38
ATOM     38  C   UNL     1      -4.531   1.281   1.950  1.00  0.00     0.061 A 
ATOM     39  C   UNL     1      -5.556   2.103   2.422  1.00  0.00     0.128 A 
ATOM     40  C   UNL     1      -3.412   1.095   2.764  1.00  0.00     0.059 A 
ATOM     41  N   UNL     1      -5.543   2.720   3.632  1.00  0.00    -0.225 NA
ATOM     42  C   UNL     1      -3.380   1.719   4.006  1.00  0.00     0.178 A 
ATOM     43  C   UNL     1      -4.450   2.509   4.399  1.00  0.00     0.248 A 
ATOM     44  F   UNL     1      -2.315   1.554   4.801  1.00  0.00    -0.202 F 
ATOM     45  F   UNL     1      -4.412   3.106   5.599  1.00  0.00    -0.182 F 
ENDBRANCH  35  38
ENDBRANCH  27  34
ENDBRANCH  24  27
ENDBRANCH   3  24
TORSDOF 8
