MODEL        1USER    Run = 1USERUSER    Estimated Free Energy of Binding    =  -8.79 kcal/mol  [=(1)+(2)+(3)-(4)]USERUSER    (1) Final Intermolecular Energy     =  -9.68 kcal/molUSER        vdW + Hbond + desolv Energy     =  -9.58 kcal/molUSER        Electrostatic Energy            =  -0.11 kcal/molUSER        Moving Ligand-Fixed Receptor    =  -9.68 kcal/molUSER        Moving Ligand-Moving Receptor   =  +0.00 kcal/molUSER    (2) Final Total Internal Energy     =  -0.28 kcal/molUSER    (3) Torsional Free Energy           =  +0.89 kcal/molUSER    (4) Unbound System's Energy         =  -0.28 kcal/molUSERUSERREMARK SMILES CNc1nccc(-c2cc3c(cn2)-c2ccccc2C[C@]3(C)O)n1REMARK SMILES IDX 8 1 9 2 10 3 11 4 12 5 13 6 14 7 15 8 16 9 17 10 18 11 19 12REMARK SMILES IDX 20 13 21 14 22 15 7 16 3 17 4 18 24 19 5 20 6 21 2 22 1 23REMARK SMILES IDX 23 25REMARK H PARENT 2 24 23 26USER                              x       y       z     vdW  Elec       q    TypeUSER                           _______ _______ _______ _____ _____    ______ ____ROOTATOM      1  C   UNL     1      37.004  45.586  16.545 -0.30 -0.04    +0.089 A  ATOM      2  C   UNL     1      36.012  44.643  16.805 -0.30 -0.02    +0.038 A  ATOM      3  C   UNL     1      35.983  43.963  18.036 -0.32 +0.00    -0.005 A  ATOM      4  C   UNL     1      36.952  44.258  19.015 -0.35 -0.00    +0.006 A  ATOM      5  C   UNL     1      37.911  45.206  18.655 -0.27 -0.02    +0.121 A  ATOM      6  N   UNL     1      37.959  45.866  17.470 -0.22 +0.07    -0.254 NA ATOM      7  C   UNL     1      36.928  43.573  20.326 -0.39 +0.00    -0.013 A  ATOM      8  C   UNL     1      37.606  44.054  21.459 -0.38 +0.00    +0.009 A  ATOM      9  C   UNL     1      37.562  43.369  22.678 -0.38 +0.00    +0.001 A  ATOM     10  C   UNL     1      36.840  42.186  22.790 -0.49 +0.00    +0.000 A  ATOM     11  C   UNL     1      36.149  41.692  21.688 -0.54 +0.00    +0.004 A  ATOM     12  C   UNL     1      36.176  42.386  20.469 -0.45 +0.00    -0.037 A  ATOM     13  C   UNL     1      35.438  41.835  19.273 -0.14 -0.01    +0.076 C  ATOM     14  C   UNL     1      34.898  42.941  18.339 -0.36 -0.02    +0.092 C  ATOM     15  C   UNL     1      33.668  43.641  18.933 -0.41 -0.01    +0.048 C  ENDROOTBRANCH   1  16ATOM     16  C   UNL     1      37.080  46.334  15.267 -0.32 -0.05    +0.094 A  ATOM     17  C   UNL     1      38.233  47.851  13.962 -0.33 -0.08    +0.222 A  ATOM     18  N   UNL     1      37.348  47.763  12.961 -0.92 +0.06    -0.222 NA ATOM     19  N   UNL     1      38.143  47.160  15.103 -0.26 +0.09    -0.211 NA ATOM     20  C   UNL     1      36.305  46.939  13.144 -0.50 -0.06    +0.117 A  ATOM     21  C   UNL     1      36.120  46.196  14.282 -0.39 -0.03    +0.051 A  BRANCH  17  22ATOM     22  N   UNL     1      39.335  48.689  13.858 -0.11 +0.12    -0.357 N  ATOM     23  C   UNL     1      40.268  48.586  14.957 -0.53 -0.04    +0.143 C  ATOM     24  H   UNL     1      38.963  49.616  13.686 -0.26 -0.12    +0.163 HD ENDBRANCH  17  22ENDBRANCH   1  16BRANCH  14  25ATOM     25  O   UNL     1      34.491  42.310  17.115 -0.23 +0.16    -0.385 OA ATOM     26  H   UNL     1      34.735  41.371  17.170 -0.41 -0.13    +0.211 HD ENDBRANCH  14  25TORSDOF 3TERENDMDL