REMARK SMILES CNc1nccc(-c2cc3c(cn2)-c2c(F)cccc2CC3=O)n1
REMARK SMILES IDX 3 1 4 2 5 3 6 4 7 5 24 6 2 7 1 8 8 10 9 11 13 12 10 13 12 14
REMARK SMILES IDX 11 15 22 16 14 17 21 18 15 19 20 20 17 21 19 22 18 23 23 24
REMARK SMILES IDX 16 25
REMARK H PARENT 2 9
ROOT
ATOM      1  C   UNL     1       4.521  -0.005  -0.336  1.00  0.00     0.222 A 
ATOM      2  N   UNL     1       5.102   1.100  -0.817  1.00  0.00    -0.222 NA
ATOM      3  C   UNL     1       4.287   2.087  -1.222  1.00  0.00     0.117 A 
ATOM      4  C   UNL     1       2.919   2.013  -1.156  1.00  0.00     0.051 A 
ATOM      5  C   UNL     1       2.395   0.845  -0.638  1.00  0.00     0.094 A 
ATOM      6  N   UNL     1       3.198  -0.165  -0.222  1.00  0.00    -0.211 NA
ENDROOT
BRANCH   1   7
ATOM      7  N   UNL     1       5.290  -1.079   0.089  1.00  0.00    -0.357 N 
ATOM      8  C   UNL     1       6.556  -0.713   0.681  1.00  0.00     0.143 C 
ATOM      9  H   UNL     1       4.684  -1.647   0.670  1.00  0.00     0.163 HD
ENDBRANCH   1   7
BRANCH   5  10
ATOM     10  C   UNL     1       0.936   0.629  -0.505  1.00  0.00     0.090 A 
ATOM     11  C   UNL     1       0.393  -0.546  -0.006  1.00  0.00     0.043 A 
ATOM     12  N   UNL     1       0.129   1.647  -0.889  1.00  0.00    -0.254 NA
ATOM     13  C   UNL     1      -1.001  -0.674   0.093  1.00  0.00     0.030 A 
ATOM     14  C   UNL     1      -1.218   1.485  -0.788  1.00  0.00     0.121 A 
ATOM     15  C   UNL     1      -1.867   0.347  -0.314  1.00  0.00     0.014 A 
ATOM     16  C   UNL     1      -1.536  -1.932   0.664  1.00  0.00     0.168 C 
ATOM     17  C   UNL     1      -3.337   0.193  -0.234  1.00  0.00     0.023 A 
ATOM     18  C   UNL     1      -3.007  -2.034   0.961  1.00  0.00     0.117 C 
ATOM     19  C   UNL     1      -4.259   1.127  -0.748  1.00  0.00     0.131 A 
ATOM     20  C   UNL     1      -3.881  -0.955   0.378  1.00  0.00    -0.029 A 
ATOM     21  C   UNL     1      -5.640   0.953  -0.648  1.00  0.00     0.040 A 
ATOM     22  C   UNL     1      -5.277  -1.125   0.484  1.00  0.00     0.005 A 
ATOM     23  C   UNL     1      -6.154  -0.175  -0.027  1.00  0.00     0.003 A 
ATOM     24  O   UNL     1      -0.773  -2.859   0.930  1.00  0.00    -0.294 OA
ATOM     25  F   UNL     1      -3.845   2.236  -1.376  1.00  0.00    -0.206 F 
ENDBRANCH   5  10
TORSDOF 2
