MODEL        4USER    Run = 4USERUSER    Estimated Free Energy of Binding    =  -9.59 kcal/mol  [=(1)+(2)+(3)-(4)]USERUSER    (1) Final Intermolecular Energy     = -10.18 kcal/molUSER        vdW + Hbond + desolv Energy     = -10.05 kcal/molUSER        Electrostatic Energy            =  -0.13 kcal/molUSER        Moving Ligand-Fixed Receptor    = -10.18 kcal/molUSER        Moving Ligand-Moving Receptor   =  +0.00 kcal/molUSER    (2) Final Total Internal Energy     =  -0.30 kcal/molUSER    (3) Torsional Free Energy           =  +0.60 kcal/molUSER    (4) Unbound System's Energy         =  -0.30 kcal/molUSERUSERREMARK SMILES CNc1nc(C)cc(-c2cc3c(cn2)-c2ccccc2CC3=O)n1REMARK SMILES IDX 3 1 4 2 5 3 6 4 7 5 8 6 24 7 2 8 1 9 9 11 10 12 14 13 11 14REMARK SMILES IDX 13 15 12 16 22 17 15 18 21 19 16 20 20 21 17 22 19 23 18 24REMARK SMILES IDX 23 25REMARK H PARENT 2 10USER                              x       y       z     vdW  Elec       q    TypeUSER                           _______ _______ _______ _____ _____    ______ ____ROOTATOM      1  C   UNL     1      43.092  46.636  21.602 -0.21 +0.07    +0.223 A  ATOM      2  N   UNL     1      43.179  45.449  22.215 -0.13 -0.07    -0.218 NA ATOM      3  C   UNL     1      42.444  44.437  21.722 -0.25 +0.01    +0.044 A  ATOM      4  C   UNL     1      42.544  43.111  22.414 -0.34 +0.00    +0.067 C  ATOM      5  C   UNL     1      41.627  44.589  20.623 -0.29 +0.01    +0.054 A  ATOM      6  C   UNL     1      41.597  45.844  20.043 -0.33 +0.01    +0.094 A  ATOM      7  N   UNL     1      42.330  46.870  20.532 -0.27 -0.04    -0.211 NA ENDROOTBRANCH   1   8ATOM      8  N   UNL     1      43.818  47.727  22.065 -0.17 -0.09    -0.357 N  ATOM      9  C   UNL     1      45.173  47.410  22.452 -0.25 +0.08    +0.143 C  ATOM     10  H   UNL     1      43.728  48.430  21.338 -0.52 -0.03    +0.163 HD ENDBRANCH   1   8BRANCH   6  11ATOM     11  C   UNL     1      40.763  46.145  18.862 -0.41 -0.00    +0.090 A  ATOM     12  C   UNL     1      41.039  47.198  18.004 -0.50 -0.00    +0.043 A  ATOM     13  N   UNL     1      39.695  45.341  18.648 -0.26 +0.02    -0.254 NA ATOM     14  C   UNL     1      40.198  47.422  16.904 -0.49 -0.01    +0.029 A  ATOM     15  C   UNL     1      38.905  45.584  17.571 -0.33 -0.02    +0.121 A  ATOM     16  C   UNL     1      39.086  46.615  16.651 -0.43 -0.00    +0.011 A  ATOM     17  C   UNL     1      40.524  48.550  16.003 -0.52 -0.04    +0.168 C  ATOM     18  C   UNL     1      38.196  46.859  15.500 -0.41 +0.01    -0.012 A  ATOM     19  C   UNL     1      39.753  48.717  14.722 -0.48 -0.04    +0.117 C  ATOM     20  C   UNL     1      37.015  46.124  15.270 -0.37 -0.00    +0.009 A  ATOM     21  C   UNL     1      38.513  47.874  14.575 -0.50 +0.01    -0.032 A  ATOM     22  C   UNL     1      36.192  46.376  14.168 -0.45 -0.00    +0.001 A  ATOM     23  C   UNL     1      37.684  48.117  13.464 -0.49 -0.00    +0.005 A  ATOM     24  C   UNL     1      36.528  47.372  13.263 -0.61 -0.00    +0.000 A  ATOM     25  O   UNL     1      41.440  49.317  16.301 -1.05 -0.00    -0.294 OA ENDBRANCH   6  11TORSDOF 2TERENDMDL