REMARK SMILES CNc1nc(C)cc(-c2cc3c(cn2)-c2ccccc2CC3=O)n1
REMARK SMILES IDX 3 1 4 2 5 3 6 4 7 5 8 6 24 7 2 8 1 9 9 11 10 12 14 13 11 14
REMARK SMILES IDX 13 15 12 16 22 17 15 18 21 19 16 20 20 21 17 22 19 23 18 24
REMARK SMILES IDX 23 25
REMARK H PARENT 2 10
ROOT
ATOM      1  C   UNL     1       4.151   0.192   0.686  1.00  0.00     0.223 A 
ATOM      2  N   UNL     1       4.785  -0.435  -0.313  1.00  0.00    -0.218 NA
ATOM      3  C   UNL     1       4.033  -0.958  -1.298  1.00  0.00     0.044 A 
ATOM      4  C   UNL     1       4.749  -1.660  -2.412  1.00  0.00     0.067 C 
ATOM      5  C   UNL     1       2.659  -0.861  -1.305  1.00  0.00     0.054 A 
ATOM      6  C   UNL     1       2.081  -0.193  -0.241  1.00  0.00     0.094 A 
ATOM      7  N   UNL     1       2.826   0.335   0.756  1.00  0.00    -0.211 NA
ENDROOT
BRANCH   1   8
ATOM      8  N   UNL     1       4.866   0.748   1.740  1.00  0.00    -0.357 N 
ATOM      9  C   UNL     1       6.135   1.319   1.353  1.00  0.00     0.143 C 
ATOM     10  H   UNL     1       4.219   1.390   2.186  1.00  0.00     0.163 HD
ENDBRANCH   1   8
BRANCH   6  11
ATOM     11  C   UNL     1       0.619  -0.018  -0.123  1.00  0.00     0.090 A 
ATOM     12  C   UNL     1      -0.278  -1.039  -0.396  1.00  0.00     0.043 A 
ATOM     13  N   UNL     1       0.180   1.203   0.264  1.00  0.00    -0.254 NA
ATOM     14  C   UNL     1      -1.653  -0.794  -0.264  1.00  0.00     0.029 A 
ATOM     15  C   UNL     1      -1.157   1.403   0.386  1.00  0.00     0.121 A 
ATOM     16  C   UNL     1      -2.144   0.453   0.132  1.00  0.00     0.011 A 
ATOM     17  C   UNL     1      -2.584  -1.907  -0.555  1.00  0.00     0.168 C 
ATOM     18  C   UNL     1      -3.591   0.711   0.260  1.00  0.00    -0.012 A 
ATOM     19  C   UNL     1      -4.050  -1.739  -0.259  1.00  0.00     0.117 C 
ATOM     20  C   UNL     1      -4.122   1.981   0.564  1.00  0.00     0.009 A 
ATOM     21  C   UNL     1      -4.508  -0.341   0.066  1.00  0.00    -0.032 A 
ATOM     22  C   UNL     1      -5.499   2.196   0.682  1.00  0.00     0.001 A 
ATOM     23  C   UNL     1      -5.892  -0.119   0.193  1.00  0.00     0.005 A 
ATOM     24  C   UNL     1      -6.385   1.144   0.498  1.00  0.00     0.000 A 
ATOM     25  O   UNL     1      -2.142  -2.963  -1.008  1.00  0.00    -0.294 OA
ENDBRANCH   6  11
TORSDOF 2
