REMARK SMILES CNc1nccc(-c2cc3c(cn2)-c2ccccc2C[C@]3(C)O)n1
REMARK SMILES IDX 8 1 9 2 10 3 11 4 12 5 13 6 14 7 15 8 16 9 17 10 18 11 19 12
REMARK SMILES IDX 20 13 21 14 22 15 7 16 3 17 4 18 24 19 5 20 6 21 2 22 1 23
REMARK SMILES IDX 23 25
REMARK H PARENT 2 24 23 26
ROOT
ATOM      1  C   UNL     1       1.324  -0.682   0.512  1.00  0.00     0.089 A 
ATOM      2  C   UNL     1       0.528   0.087  -0.334  1.00  0.00     0.038 A 
ATOM      3  C   UNL     1      -0.874  -0.020  -0.283  1.00  0.00    -0.005 A 
ATOM      4  C   UNL     1      -1.469  -0.895   0.647  1.00  0.00     0.006 A 
ATOM      5  C   UNL     1      -0.588  -1.631   1.439  1.00  0.00     0.121 A 
ATOM      6  N   UNL     1       0.766  -1.547   1.399  1.00  0.00    -0.254 NA
ATOM      7  C   UNL     1      -2.942  -1.007   0.736  1.00  0.00    -0.013 A 
ATOM      8  C   UNL     1      -3.607  -1.557   1.845  1.00  0.00     0.009 A 
ATOM      9  C   UNL     1      -5.002  -1.651   1.883  1.00  0.00     0.001 A 
ATOM     10  C   UNL     1      -5.763  -1.198   0.811  1.00  0.00     0.000 A 
ATOM     11  C   UNL     1      -5.133  -0.638  -0.296  1.00  0.00     0.004 A 
ATOM     12  C   UNL     1      -3.735  -0.526  -0.330  1.00  0.00    -0.037 A 
ATOM     13  C   UNL     1      -3.057   0.067  -1.541  1.00  0.00     0.076 C 
ATOM     14  C   UNL     1      -1.756   0.823  -1.191  1.00  0.00     0.092 C 
ATOM     15  C   UNL     1      -2.043   2.180  -0.532  1.00  0.00     0.048 C 
ENDROOT
BRANCH   1  16
ATOM     16  C   UNL     1       2.805  -0.606   0.502  1.00  0.00     0.094 A 
ATOM     17  C   UNL     1       4.698   0.420  -0.334  1.00  0.00     0.222 A 
ATOM     18  N   UNL     1       5.517  -0.350   0.393  1.00  0.00    -0.222 NA
ATOM     19  N   UNL     1       3.364   0.333  -0.301  1.00  0.00    -0.211 NA
ATOM     20  C   UNL     1       4.942  -1.272   1.181  1.00  0.00     0.117 A 
ATOM     21  C   UNL     1       3.585  -1.444   1.276  1.00  0.00     0.051 A 
BRANCH  17  22
ATOM     22  N   UNL     1       5.211   1.391  -1.184  1.00  0.00    -0.357 N 
ATOM     23  C   UNL     1       6.424   2.017  -0.711  1.00  0.00     0.143 C 
ATOM     24  H   UNL     1       4.442   2.021  -1.381  1.00  0.00     0.163 HD
ENDBRANCH  17  22
ENDBRANCH   1  16
BRANCH  14  25
ATOM     25  O   UNL     1      -1.060   1.076  -2.421  1.00  0.00    -0.385 OA
ATOM     26  H   UNL     1      -1.623   1.649  -2.968  1.00  0.00     0.211 HD
ENDBRANCH  14  25
TORSDOF 3
