MODEL        4USER    Run = 4USERUSER    Estimated Free Energy of Binding    =  -9.13 kcal/mol  [=(1)+(2)+(3)-(4)]USERUSER    (1) Final Intermolecular Energy     =  -9.73 kcal/molUSER        vdW + Hbond + desolv Energy     =  -9.59 kcal/molUSER        Electrostatic Energy            =  -0.14 kcal/molUSER        Moving Ligand-Fixed Receptor    =  -9.73 kcal/molUSER        Moving Ligand-Moving Receptor   =  +0.00 kcal/molUSER    (2) Final Total Internal Energy     =  -0.25 kcal/molUSER    (3) Torsional Free Energy           =  +0.60 kcal/molUSER    (4) Unbound System's Energy         =  -0.25 kcal/molUSERUSERREMARK SMILES CNc1nccc(-c2cc3c(cn2)-c2c(F)cccc2CC3=O)n1REMARK SMILES IDX 3 1 4 2 5 3 6 4 7 5 24 6 2 7 1 8 8 10 9 11 13 12 10 13 12 14REMARK SMILES IDX 11 15 22 16 14 17 21 18 15 19 20 20 17 21 19 22 18 23 23 24REMARK SMILES IDX 16 25REMARK H PARENT 2 9USER                              x       y       z     vdW  Elec       q    TypeUSER                           _______ _______ _______ _____ _____    ______ ____ROOTATOM      1  C   UNL     1      43.168  46.638  21.612 -0.21 +0.07    +0.222 A  ATOM      2  N   UNL     1      43.244  45.456  22.235 -0.13 -0.07    -0.222 NA ATOM      3  C   UNL     1      42.486  44.462  21.744 -0.21 +0.02    +0.117 A  ATOM      4  C   UNL     1      41.666  44.604  20.654 -0.29 +0.01    +0.051 A  ATOM      5  C   UNL     1      41.651  45.850  20.059 -0.33 +0.01    +0.094 A  ATOM      6  N   UNL     1      42.408  46.869  20.536 -0.28 -0.04    -0.211 NA ENDROOTBRANCH   1   7ATOM      7  N   UNL     1      43.906  47.722  22.064 -0.16 -0.10    -0.357 N  ATOM      8  C   UNL     1      45.256  47.402  22.468 -0.25 +0.09    +0.143 C  ATOM      9  H   UNL     1      43.822  48.437  21.351 -0.53 -0.03    +0.163 HD ENDBRANCH   1   7BRANCH   5  10ATOM     10  C   UNL     1      40.815  46.145  18.873 -0.41 -0.00    +0.090 A  ATOM     11  C   UNL     1      41.058  47.221  18.032 -0.49 -0.00    +0.043 A  ATOM     12  N   UNL     1      39.784  45.302  18.626 -0.26 +0.02    -0.254 NA ATOM     13  C   UNL     1      40.222  47.433  16.924 -0.49 -0.01    +0.030 A  ATOM     14  C   UNL     1      38.988  45.543  17.549 -0.33 -0.02    +0.121 A  ATOM     15  C   UNL     1      39.135  46.597  16.649 -0.43 -0.00    +0.014 A  ATOM     16  C   UNL     1      40.540  48.573  16.033 -0.52 -0.04    +0.168 C  ATOM     17  C   UNL     1      38.240  46.844  15.496 -0.40 -0.01    +0.023 A  ATOM     18  C   UNL     1      39.788  48.722  14.739 -0.49 -0.04    +0.117 C  ATOM     19  C   UNL     1      37.058  46.120  15.243 -0.29 -0.07    +0.131 A  ATOM     20  C   UNL     1      38.557  47.869  14.580 -0.50 +0.01    -0.029 A  ATOM     21  C   UNL     1      36.242  46.375  14.140 -0.42 -0.02    +0.040 A  ATOM     22  C   UNL     1      37.734  48.120  13.463 -0.48 -0.00    +0.005 A  ATOM     23  C   UNL     1      36.581  47.377  13.243 -0.61 -0.00    +0.003 A  ATOM     24  O   UNL     1      41.438  49.357  16.335 -1.06 -0.00    -0.294 OA ATOM     25  F   UNL     1      36.651  45.147  16.069 -0.05 +0.09    -0.206 F  ENDBRANCH   5  10TORSDOF 2TERENDMDL