MODEL        6USER    Run = 6USERUSER    Estimated Free Energy of Binding    =  -9.70 kcal/mol  [=(1)+(2)+(3)-(4)]USERUSER    (1) Final Intermolecular Energy     = -10.89 kcal/molUSER        vdW + Hbond + desolv Energy     = -10.85 kcal/molUSER        Electrostatic Energy            =  -0.04 kcal/molUSER        Moving Ligand-Fixed Receptor    = -10.89 kcal/molUSER        Moving Ligand-Moving Receptor   =  +0.00 kcal/molUSER    (2) Final Total Internal Energy     =  -0.83 kcal/molUSER    (3) Torsional Free Energy           =  +1.19 kcal/molUSER    (4) Unbound System's Energy         =  -0.83 kcal/molUSERUSERREMARK SMILES Cn1cc(-c2ccc(C(=O)N3CCC(n4c(O)nc5ccccc54)CC3)cc2)[nH]c1=OREMARK SMILES IDX 9 1 10 2 11 3 12 4 13 5 14 6 25 7 26 8 8 9 5 10 6 11 28 12REMARK SMILES IDX 7 13 27 14 4 15 2 16 3 17 30 18 29 19 1 20 31 21 15 23 16 24REMARK SMILES IDX 24 25 18 26 23 27 19 28 22 29 20 30 21 31 17 32REMARK H PARENT 29 22 17 33USER                              x       y       z     vdW  Elec       q    TypeUSER                           _______ _______ _______ _____ _____    ______ ____ROOTATOM      1  C   UNL     1      40.456  43.789  21.914 -0.18 +0.01    +0.253 C  ATOM      2  O   UNL     1      41.242  42.847  21.955 -0.27 -0.00    -0.269 OA ATOM      3  N   UNL     1      39.601  44.125  22.969 -0.06 -0.02    -0.338 N  ATOM      4  C   UNL     1      38.407  44.956  22.793 -0.31 +0.01    +0.122 C  ATOM      5  C   UNL     1      37.334  44.670  23.836 -0.30 +0.01    +0.047 C  ATOM      6  C   UNL     1      37.918  44.831  25.245 -0.27 +0.00    +0.096 C  ATOM      7  C   UNL     1      39.275  44.128  25.427 -0.17 +0.00    +0.047 C  ATOM      8  C   UNL     1      39.709  43.342  24.196 -0.19 +0.00    +0.122 C  ENDROOTBRANCH   1   9ATOM      9  C   UNL     1      40.418  44.599  20.675 -0.32 +0.00    +0.040 A  ATOM     10  C   UNL     1      40.365  46.202  18.365 -0.48 +0.00    -0.000 A  ATOM     11  C   UNL     1      41.411  46.318  19.294 -0.46 +0.00    +0.011 A  ATOM     12  C   UNL     1      39.335  45.283  18.625 -0.42 -0.00    +0.011 A  ATOM     13  C   UNL     1      41.435  45.529  20.447 -0.36 +0.00    +0.014 A  ATOM     14  C   UNL     1      39.355  44.490  19.775 -0.34 -0.00    +0.014 A  BRANCH  10  15ATOM     15  C   UNL     1      40.334  47.036  17.164 -0.46 -0.01    +0.066 A  ATOM     16  N   UNL     1      39.754  48.076  15.296 -0.28 +0.09    -0.302 N  ATOM     17  C   UNL     1      39.346  47.185  16.264 -0.38 -0.03    +0.117 A  ATOM     18  C   UNL     1      41.060  48.508  15.591 -0.27 -0.04    +0.325 A  ATOM     19  N   UNL     1      41.384  47.836  16.779 -0.23 +0.03    -0.306 N  ATOM     20  C   UNL     1      38.981  48.491  14.159 -0.40 -0.06    +0.154 C  ATOM     21  O   UNL     1      41.769  49.285  14.978 -0.72 +0.01    -0.248 OA ATOM     22  H   UNL     1      42.283  47.916  17.226 -0.37 -0.01    +0.171 HD ENDBRANCH  10  15ENDBRANCH   1   9BRANCH   6  23ATOM     23  N   UNL     1      36.949  44.500  26.283 -0.17 +0.03    -0.291 N  ATOM     24  C   UNL     1      36.533  45.356  27.265 -0.12 -0.07    +0.295 A  ATOM     25  C   UNL     1      36.276  43.312  26.477 -0.36 -0.01    +0.072 A  ATOM     26  N   UNL     1      35.658  44.830  28.076 -0.36 +0.06    -0.195 NA ATOM     27  C   UNL     1      36.268  42.078  25.812 -0.42 -0.00    +0.029 A  ATOM     28  C   UNL     1      35.484  43.553  27.603 -0.47 -0.02    +0.092 A  ATOM     29  C   UNL     1      35.431  41.077  26.320 -0.41 -0.00    +0.002 A  ATOM     30  C   UNL     1      34.651  42.535  28.096 -0.39 -0.01    +0.031 A  ATOM     31  C   UNL     1      34.635  41.299  27.443 -0.56 -0.00    +0.002 A  BRANCH  24  32ATOM     32  O   UNL     1      36.949  46.598  27.405 -0.14 +0.10    -0.480 OA ATOM     33  H   UNL     1      36.191  47.093  27.042 -0.22 -0.10    +0.296 HD ENDBRANCH  24  32ENDBRANCH   6  23TORSDOF 4TERENDMDL