MODEL        2USER    Run = 2USERUSER    Estimated Free Energy of Binding    = -10.20 kcal/mol  [=(1)+(2)+(3)-(4)]USERUSER    (1) Final Intermolecular Energy     = -11.99 kcal/molUSER        vdW + Hbond + desolv Energy     = -11.92 kcal/molUSER        Electrostatic Energy            =  -0.07 kcal/molUSER        Moving Ligand-Fixed Receptor    = -11.99 kcal/molUSER        Moving Ligand-Moving Receptor   =  +0.00 kcal/molUSER    (2) Final Total Internal Energy     =  -1.13 kcal/molUSER    (3) Torsional Free Energy           =  +1.79 kcal/molUSER    (4) Unbound System's Energy         =  -1.13 kcal/molUSERUSERREMARK SMILES COc1ncc(-c2ccc(C(=O)N3CCC(n4c(O)nc5ccccc54)CC3)cc2)nc1NREMARK SMILES IDX 11 1 12 2 13 3 14 4 15 5 16 6 27 7 28 8 10 9 7 10 8 11 30 12REMARK SMILES IDX 9 13 29 14 6 15 3 16 4 17 32 18 5 19 31 20 2 21 1 22 33 23REMARK SMILES IDX 17 26 18 27 26 28 20 29 25 30 21 31 24 32 22 33 23 34 19 35REMARK H PARENT 33 24 33 25 19 36USER                              x       y       z     vdW  Elec       q    TypeUSER                           _______ _______ _______ _____ _____    ______ ____ROOTATOM      1  C   UNL     1      33.492  44.510  16.120 -0.20 -0.14    +0.253 C  ATOM      2  O   UNL     1      32.618  45.130  15.521 -0.26 +0.19    -0.269 OA ATOM      3  N   UNL     1      34.831  44.914  16.158 -0.10 +0.21    -0.338 N  ATOM      4  C   UNL     1      35.198  46.102  15.394 -0.29 -0.12    +0.122 C  ATOM      5  C   UNL     1      36.659  46.087  14.958 -0.42 -0.03    +0.047 C  ATOM      6  C   UNL     1      37.626  45.744  16.104 -0.36 -0.04    +0.096 C  ATOM      7  C   UNL     1      36.916  45.413  17.420 -0.37 -0.02    +0.047 C  ATOM      8  C   UNL     1      35.780  44.432  17.166 -0.28 -0.05    +0.122 C  ENDROOTBRANCH   1   9ATOM      9  C   UNL     1      33.094  43.282  16.843 -0.30 -0.02    +0.040 A  ATOM     10  C   UNL     1      32.265  40.946  18.211 -0.41 -0.00    +0.002 A  ATOM     11  C   UNL     1      31.414  42.062  18.089 -0.29 -0.00    +0.011 A  ATOM     12  C   UNL     1      33.532  41.028  17.596 -0.26 -0.00    +0.011 A  ATOM     13  C   UNL     1      31.818  43.217  17.407 -0.29 -0.00    +0.014 A  ATOM     14  C   UNL     1      33.945  42.179  16.914 -0.36 -0.01    +0.014 A  BRANCH  10  15ATOM     15  C   UNL     1      31.861  39.723  18.935 -0.32 +0.01    +0.091 A  ATOM     16  C   UNL     1      31.136  37.508  20.301 -0.30 +0.05    +0.256 A  ATOM     17  N   UNL     1      31.060  37.429  18.952 -0.75 -0.08    -0.217 NA ATOM     18  C   UNL     1      31.544  38.676  20.972 -0.30 +0.04    +0.187 A  ATOM     19  C   UNL     1      31.434  38.555  18.296 -0.32 +0.02    +0.144 A  ATOM     20  N   UNL     1      31.907  39.786  20.294 -0.71 -0.08    -0.224 NA BRANCH  16  21ATOM     21  O   UNL     1      30.758  36.422  21.072 -0.13 -0.04    -0.478 OA ATOM     22  C   UNL     1      29.406  36.497  21.514 -0.22 -0.01    +0.280 C  ENDBRANCH  16  21BRANCH  18  23ATOM     23  N   UNL     1      31.657  38.744  22.363 -0.08 +0.01    -0.379 N  ATOM     24  H   UNL     1      32.567  39.091  22.643 -0.39 -0.00    +0.158 HD ATOM     25  H   UNL     1      31.421  37.836  22.752 -0.21 -0.03    +0.158 HD ENDBRANCH  18  23ENDBRANCH  10  15ENDBRANCH   1   9BRANCH   6  26ATOM     26  N   UNL     1      38.683  46.732  16.284 -0.21 +0.10    -0.291 N  ATOM     27  C   UNL     1      38.768  47.918  15.605 -0.26 -0.14    +0.295 A  ATOM     28  C   UNL     1      39.776  46.674  17.123 -0.42 -0.01    +0.072 A  ATOM     29  N   UNL     1      39.813  48.627  15.929 -0.38 +0.07    -0.195 NA ATOM     30  C   UNL     1      40.239  45.732  18.053 -0.44 -0.00    +0.029 A  ATOM     31  C   UNL     1      40.457  47.870  16.877 -0.44 -0.02    +0.092 A  ATOM     32  C   UNL     1      41.423  46.032  18.740 -0.49 +0.00    +0.002 A  ATOM     33  C   UNL     1      41.641  48.150  17.575 -0.41 -0.00    +0.031 A  ATOM     34  C   UNL     1      42.114  47.220  18.507 -0.52 +0.00    +0.002 A  BRANCH  27  35ATOM     35  O   UNL     1      37.901  48.332  14.703 -0.20 +0.29    -0.480 OA ATOM     36  H   UNL     1      38.212  49.242  14.545 -0.19 -0.22    +0.296 HD ENDBRANCH  27  35ENDBRANCH   6  26TORSDOF 6TERENDMDL