REMARK SMILES COc1ncc(-c2ccc(C(=O)N3CCC(n4c(O)nc5ccccc54)CC3)cc2)nc1N
REMARK SMILES IDX 11 1 12 2 13 3 14 4 15 5 16 6 27 7 28 8 10 9 7 10 8 11 30 12
REMARK SMILES IDX 9 13 29 14 6 15 3 16 4 17 32 18 5 19 31 20 2 21 1 22 33 23
REMARK SMILES IDX 17 26 18 27 26 28 20 29 25 30 21 31 24 32 22 33 23 34 19 35
REMARK H PARENT 33 24 33 25 19 36
ROOT
ATOM      1  C   UNL     1      -0.237  -1.776  -1.393  1.00  0.00     0.253 C 
ATOM      2  O   UNL     1      -0.363  -2.868  -1.939  1.00  0.00    -0.269 OA
ATOM      3  N   UNL     1      -1.313  -0.926  -1.117  1.00  0.00    -0.338 N 
ATOM      4  C   UNL     1      -2.637  -1.350  -1.561  1.00  0.00     0.122 C 
ATOM      5  C   UNL     1      -3.570  -0.173  -1.822  1.00  0.00     0.047 C 
ATOM      6  C   UNL     1      -3.582   0.852  -0.674  1.00  0.00     0.096 C 
ATOM      7  C   UNL     1      -2.598   0.516   0.451  1.00  0.00     0.047 C 
ATOM      8  C   UNL     1      -1.239   0.160  -0.136  1.00  0.00     0.122 C 
ENDROOT
BRANCH   1   9
ATOM      9  C   UNL     1       1.127  -1.355  -1.001  1.00  0.00     0.040 A 
ATOM     10  C   UNL     1       3.754  -0.617  -0.248  1.00  0.00     0.002 A 
ATOM     11  C   UNL     1       3.203  -1.854   0.140  1.00  0.00     0.011 A 
ATOM     12  C   UNL     1       2.957   0.222  -1.054  1.00  0.00     0.011 A 
ATOM     13  C   UNL     1       1.906  -2.225  -0.236  1.00  0.00     0.014 A 
ATOM     14  C   UNL     1       1.659  -0.140  -1.433  1.00  0.00     0.014 A 
BRANCH  10  15
ATOM     15  C   UNL     1       5.117  -0.203   0.147  1.00  0.00     0.091 A 
ATOM     16  C   UNL     1       7.613   0.576   0.824  1.00  0.00     0.256 A 
ATOM     17  N   UNL     1       6.982  -0.235   1.704  1.00  0.00    -0.217 NA
ATOM     18  C   UNL     1       7.011   1.018  -0.369  1.00  0.00     0.187 A 
ATOM     19  C   UNL     1       5.733  -0.611   1.334  1.00  0.00     0.144 A 
ATOM     20  N   UNL     1       5.763   0.632  -0.712  1.00  0.00    -0.224 NA
BRANCH  16  21
ATOM     21  O   UNL     1       8.886   1.038   1.112  1.00  0.00    -0.478 OA
ATOM     22  C   UNL     1       9.443   0.444   2.280  1.00  0.00     0.280 C 
ENDBRANCH  16  21
BRANCH  18  23
ATOM     23  N   UNL     1       7.678   1.826  -1.294  1.00  0.00    -0.379 N 
ATOM     24  H   UNL     1       8.135   2.608  -0.839  1.00  0.00     0.158 HD
ATOM     25  H   UNL     1       7.023   2.094  -2.022  1.00  0.00     0.158 HD
ENDBRANCH  18  23
ENDBRANCH  10  15
ENDBRANCH   1   9
BRANCH   6  26
ATOM     26  N   UNL     1      -4.919   1.137  -0.167  1.00  0.00    -0.291 N 
ATOM     27  C   UNL     1      -5.525   2.364  -0.207  1.00  0.00     0.295 A 
ATOM     28  C   UNL     1      -5.804   0.275   0.445  1.00  0.00     0.072 A 
ATOM     29  N   UNL     1      -6.716   2.372   0.323  1.00  0.00    -0.195 NA
ATOM     30  C   UNL     1      -5.766  -1.088   0.772  1.00  0.00     0.029 A 
ATOM     31  C   UNL     1      -6.912   1.077   0.736  1.00  0.00     0.092 A 
ATOM     32  C   UNL     1      -6.891  -1.631   1.407  1.00  0.00     0.002 A 
ATOM     33  C   UNL     1      -8.028   0.513   1.373  1.00  0.00     0.031 A 
ATOM     34  C   UNL     1      -8.004  -0.846   1.704  1.00  0.00     0.002 A 
BRANCH  27  35
ATOM     35  O   UNL     1      -4.985   3.453  -0.717  1.00  0.00    -0.480 OA
ATOM     36  H   UNL     1      -5.694   4.104  -0.566  1.00  0.00     0.296 HD
ENDBRANCH  27  35
ENDBRANCH   6  26
TORSDOF 6
