REMARK SMILES Cn1cc(-c2ccc(C(=O)N3CCC(n4c(O)nc5ccccc54)CC3)cc2)[nH]c1=O
REMARK SMILES IDX 9 1 10 2 11 3 12 4 13 5 14 6 25 7 26 8 8 9 5 10 6 11 28 12
REMARK SMILES IDX 7 13 27 14 4 15 2 16 3 17 30 18 29 19 1 20 31 21 15 23 16 24
REMARK SMILES IDX 24 25 18 26 23 27 19 28 22 29 20 30 21 31 17 32
REMARK H PARENT 29 22 17 33
ROOT
ATOM      1  C   UNL     1       0.384  -0.610   1.984  1.00  0.00     0.253 C 
ATOM      2  O   UNL     1       0.288  -1.228   3.041  1.00  0.00    -0.269 OA
ATOM      3  N   UNL     1      -0.708  -0.036   1.325  1.00  0.00    -0.338 N 
ATOM      4  C   UNL     1      -0.679   0.333  -0.092  1.00  0.00     0.122 C 
ATOM      5  C   UNL     1      -2.062   0.316  -0.731  1.00  0.00     0.047 C 
ATOM      6  C   UNL     1      -3.014   1.223   0.057  1.00  0.00     0.096 C 
ATOM      7  C   UNL     1      -2.945   1.004   1.579  1.00  0.00     0.047 C 
ATOM      8  C   UNL     1      -2.011  -0.133   1.976  1.00  0.00     0.122 C 
ENDROOT
BRANCH   1   9
ATOM      9  C   UNL     1       1.732  -0.479   1.385  1.00  0.00     0.040 A 
ATOM     10  C   UNL     1       4.320  -0.281   0.302  1.00  0.00    -0.000 A 
ATOM     11  C   UNL     1       3.780  -1.531   0.644  1.00  0.00     0.011 A 
ATOM     12  C   UNL     1       3.548   0.870   0.532  1.00  0.00     0.011 A 
ATOM     13  C   UNL     1       2.497  -1.631   1.190  1.00  0.00     0.014 A 
ATOM     14  C   UNL     1       2.264   0.775   1.076  1.00  0.00     0.014 A 
BRANCH  10  15
ATOM     15  C   UNL     1       5.666  -0.176  -0.259  1.00  0.00     0.066 A 
ATOM     16  N   UNL     1       7.557  -0.519  -1.362  1.00  0.00    -0.302 N 
ATOM     17  C   UNL     1       6.303  -1.021  -1.089  1.00  0.00     0.117 A 
ATOM     18  C   UNL     1       7.725   0.695  -0.671  1.00  0.00     0.325 A 
ATOM     19  N   UNL     1       6.509   0.878   0.004  1.00  0.00    -0.306 N 
ATOM     20  C   UNL     1       8.543  -1.137  -2.203  1.00  0.00     0.154 C 
ATOM     21  O   UNL     1       8.690   1.437  -0.645  1.00  0.00    -0.248 OA
ATOM     22  H   UNL     1       6.336   1.655   0.621  1.00  0.00     0.171 HD
ENDBRANCH  10  15
ENDBRANCH   1   9
BRANCH   6  23
ATOM     23  N   UNL     1      -4.372   1.188  -0.472  1.00  0.00    -0.291 N 
ATOM     24  C   UNL     1      -4.996   2.235  -1.093  1.00  0.00     0.295 A 
ATOM     25  C   UNL     1      -5.266   0.138  -0.465  1.00  0.00     0.072 A 
ATOM     26  N   UNL     1      -6.209   1.959  -1.482  1.00  0.00    -0.195 NA
ATOM     27  C   UNL     1      -5.217  -1.179   0.014  1.00  0.00     0.029 A 
ATOM     28  C   UNL     1      -6.399   0.655  -1.099  1.00  0.00     0.092 A 
ATOM     29  C   UNL     1      -6.357  -1.972  -0.163  1.00  0.00     0.002 A 
ATOM     30  C   UNL     1      -7.532  -0.158  -1.266  1.00  0.00     0.031 A 
ATOM     31  C   UNL     1      -7.497  -1.473  -0.792  1.00  0.00     0.002 A 
BRANCH  24  32
ATOM     32  O   UNL     1      -4.453   3.417  -1.299  1.00  0.00    -0.480 OA
ATOM     33  H   UNL     1      -5.182   3.884  -1.749  1.00  0.00     0.296 HD
ENDBRANCH  24  32
ENDBRANCH   6  23
TORSDOF 4
