MODEL        9USER    Run = 9USERUSER    Estimated Free Energy of Binding    = -10.25 kcal/mol  [=(1)+(2)+(3)-(4)]USERUSER    (1) Final Intermolecular Energy     = -11.44 kcal/molUSER        vdW + Hbond + desolv Energy     = -11.21 kcal/molUSER        Electrostatic Energy            =  -0.23 kcal/molUSER        Moving Ligand-Fixed Receptor    = -11.44 kcal/molUSER        Moving Ligand-Moving Receptor   =  +0.00 kcal/molUSER    (2) Final Total Internal Energy     =  +0.03 kcal/molUSER    (3) Torsional Free Energy           =  +1.19 kcal/molUSER    (4) Unbound System's Energy         =  +0.03 kcal/molUSERUSERREMARK SMILES O=C(c1ccc(-c2nc3ccccc3[nH]2)cc1)N1CCC(n2c(O)nc3cc(F)ccc32)CC1REMARK SMILES IDX 1 1 2 2 18 3 19 4 20 5 21 6 33 7 34 8 3 9 4 10 17 11 5 12REMARK SMILES IDX 16 13 6 14 7 15 8 16 15 17 9 18 14 19 10 20 13 21 11 22REMARK SMILES IDX 12 23 22 25 23 26 32 27 25 28 31 29 26 30 30 31 27 32 28 33REMARK SMILES IDX 29 34 24 35REMARK H PARENT 15 24 24 36USER                              x       y       z     vdW  Elec       q    TypeUSER                           _______ _______ _______ _____ _____    ______ ____ROOTATOM      1  O   UNL     1      32.787  43.958  17.188 -0.17 +0.10    -0.269 OA ATOM      2  C   UNL     1      33.141  44.680  16.259 -0.21 -0.15    +0.253 C  ATOM      3  N   UNL     1      34.474  45.013  16.009 -0.10 +0.23    -0.338 N  ATOM      4  C   UNL     1      34.882  46.140  15.167 -0.20 -0.13    +0.122 C  ATOM      5  C   UNL     1      36.207  46.747  15.612 -0.39 -0.04    +0.047 C  ATOM      6  C   UNL     1      37.315  45.683  15.622 -0.35 -0.04    +0.096 C  ATOM      7  C   UNL     1      36.842  44.319  16.159 -0.38 -0.02    +0.047 C  ATOM      8  C   UNL     1      35.492  44.405  16.863 -0.29 -0.05    +0.122 C  ENDROOTBRANCH   2   9ATOM      9  C   UNL     1      32.085  45.219  15.373 -0.37 -0.03    +0.040 A  ATOM     10  C   UNL     1      30.748  45.031  15.732 -0.37 -0.01    +0.014 A  ATOM     11  C   UNL     1      32.404  45.848  14.169 -0.23 -0.01    +0.014 A  ATOM     12  C   UNL     1      29.725  45.504  14.900 -0.36 -0.01    +0.013 A  ATOM     13  C   UNL     1      31.379  46.320  13.345 -0.45 -0.01    +0.013 A  ATOM     14  C   UNL     1      30.027  46.159  13.696 -0.49 -0.01    +0.017 A  BRANCH  14  15ATOM     15  C   UNL     1      28.991  46.668  12.788 -0.32 -0.10    +0.138 A  ATOM     16  N   UNL     1      29.159  47.618  11.884 -0.67 +0.05    -0.229 NA ATOM     17  N   UNL     1      27.690  46.212  12.749 -0.07 +0.30    -0.338 N  ATOM     18  C   UNL     1      27.950  47.769  11.252 -0.41 -0.04    +0.089 A  ATOM     19  C   UNL     1      27.007  46.897  11.778 -0.40 -0.03    +0.066 A  ATOM     20  C   UNL     1      27.580  48.631  10.210 -0.26 -0.02    +0.030 A  ATOM     21  C   UNL     1      25.686  46.829  11.329 -0.33 -0.01    +0.028 A  ATOM     22  C   UNL     1      26.263  48.585   9.737 -0.36 -0.00    +0.002 A  ATOM     23  C   UNL     1      25.335  47.697  10.288 -0.20 -0.00    +0.002 A  ATOM     24  H   UNL     1      27.304  45.481  13.324 -0.41 -0.21    +0.168 HD ENDBRANCH  14  15ENDBRANCH   2   9BRANCH   6  25ATOM     25  N   UNL     1      38.524  46.166  16.277 -0.19 +0.09    -0.291 N  ATOM     26  C   UNL     1      39.146  45.600  17.355 -0.20 -0.05    +0.295 A  ATOM     27  C   UNL     1      39.264  47.278  15.927 -0.42 -0.02    +0.072 A  ATOM     28  N   UNL     1      40.220  46.241  17.729 -0.33 +0.02    -0.195 NA ATOM     29  C   UNL     1      39.130  48.251  14.926 -0.51 -0.01    +0.032 A  ATOM     30  C   UNL     1      40.316  47.291  16.850 -0.44 -0.02    +0.095 A  ATOM     31  C   UNL     1      40.107  49.252  14.878 -0.35 -0.02    +0.041 A  ATOM     32  C   UNL     1      41.284  48.300  16.787 -0.41 -0.00    +0.070 A  ATOM     33  C   UNL     1      41.157  49.268  15.792 -0.50 -0.02    +0.125 A  ATOM     34  F   UNL     1      42.074  50.242  15.710 -0.15 -0.01    -0.207 F  BRANCH  26  35ATOM     35  O   UNL     1      38.731  44.518  17.978 -0.10 +0.06    -0.480 OA ATOM     36  H   UNL     1      39.564  44.020  18.078 +0.20 -0.02    +0.296 HD ENDBRANCH  26  35ENDBRANCH   6  25TORSDOF 4TERENDMDL