REMARK SMILES NC=C1[C@@H](CCC(F)(F)F)C[C@H]1C1=c2c(=CCl)ccn2C=NC=C1
REMARK SMILES IDX 13 1 12 3 3 4 4 5 11 6 2 7 1 8 5 11 6 12 7 13 8 14 9 15
REMARK SMILES IDX 10 16 14 17 15 18 20 19 18 20 19 21 16 22 17 23 21 24 22 25
REMARK SMILES IDX 23 26 24 27
REMARK H PARENT 1 9 1 10
REMARK Flexibility Score:   28.900
ROOT
ATOM      1  C   UNL     1      -1.589   0.575   0.758  1.00  0.00    -0.014 CG0
ATOM      2  G   UNL     1      -2.278   0.526   2.048  1.00  0.00     0.000 G0
ENDROOT
BRANCH   1   3
ATOM      3  C   UNL     1      -0.129   0.914   0.903  1.00  0.00     0.050 C 
ATOM      4  C   UNL     1       0.816  -0.199   1.462  1.00  0.00    -0.044 C 
ATOM      5  C   UNL     1       2.004   0.402   0.698  1.00  0.00     0.018 C 
ATOM      6  C   UNL     1       0.878   0.812  -0.286  1.00  0.00     0.021 C 
BRANCH   4   7
ATOM      7  C   UNL     1       0.796  -1.294   2.228  1.00  0.00     0.075 C 
BRANCH   7   8
ATOM      8  N   UNL     1      -0.290  -1.884   2.778  1.00  0.00    -0.405 N 
ATOM      9  H   UNL     1      -0.127  -2.454   3.602  1.00  0.00     0.156 HD
ATOM     10  H   UNL     1      -1.159  -1.369   2.788  1.00  0.00     0.156 HD
ENDBRANCH   7   8
ENDBRANCH   4   7
BRANCH   5  11
ATOM     11  C   UNL     1       3.051  -0.562   0.143  1.00  0.00     0.017 C 
BRANCH  11  12
ATOM     12  C   UNL     1       3.977   0.164  -0.832  1.00  0.00     0.116 C 
BRANCH  12  13
ATOM     13  C   UNL     1       5.057  -0.749  -1.370  1.00  0.00     0.389 C 
ATOM     14  F   UNL     1       4.529  -1.797  -2.037  1.00  0.00    -0.171 F 
ATOM     15  F   UNL     1       5.831  -1.232  -0.375  1.00  0.00    -0.171 F 
ATOM     16  F   UNL     1       5.859  -0.079  -2.225  1.00  0.00    -0.171 F 
ENDBRANCH  12  13
ENDBRANCH  11  12
ENDBRANCH   5  11
ENDBRANCH   1   3
BRANCH   1  17
ATOM     17  C   UNL     1      -2.285   0.491  -0.397  1.00  0.00     0.058 A 
ATOM     18  C   UNL     1      -1.951   0.962  -1.766  1.00  0.00     0.012 A 
ATOM     19  N   UNL     1      -3.515  -0.188  -0.579  1.00  0.00    -0.307 N 
ATOM     20  C   UNL     1      -2.823   0.275  -2.707  1.00  0.00     0.029 A 
ATOM     21  C   UNL     1      -3.738  -0.345  -1.951  1.00  0.00     0.093 A 
BRANCH  18  22
ATOM     22  C   UNL     1      -1.231   2.043  -2.089  1.00  0.00     0.090 C 
ATOM     23  Cl  UNL     1      -0.995   2.653  -3.676  1.00  0.00    -0.092 Cl
ENDBRANCH  18  22
BRANCH  19  24
ATOM     24  C   UNL     1      -4.274  -0.819   0.387  1.00  0.00     0.204 C 
BRANCH  24  25
ATOM     25  N   UNL     1      -4.291  -0.830   1.677  1.00  0.00    -0.246 NA
BRANCH  25  26
ATOM     26  C   UNL     1      -3.428  -0.063   2.395  1.00  0.00     0.113 C 
BRANCH  26  27
ATOM     27  C   UNL     1      -2.278   0.526   2.048  1.00  0.00     0.026 CG0
ATOM     28  G   UNL     1      -1.589   0.575   0.758  1.00  0.00     0.000 G0
ENDBRANCH  26  27
ENDBRANCH  25  26
ENDBRANCH  24  25
ENDBRANCH  19  24
ENDBRANCH   1  17
TORSDOF 7
