MODEL        8USER    Run = 8USERUSER    Estimated Free Energy of Binding    =  -7.09 kcal/mol  [=(1)+(2)+(3)-(4)]USERUSER    (1) Final Intermolecular Energy     = -10.67 kcal/molUSER        vdW + Hbond + desolv Energy     = -11.44 kcal/molUSER        Electrostatic Energy            =  -0.14 kcal/molUSER        Moving Ligand-Fixed Receptor    = -11.58 kcal/molUSER        Moving Ligand-Moving Receptor   =  +0.91 kcal/molUSER    (2) Final Total Internal Energy     =  -1.75 kcal/molUSER    (3) Torsional Free Energy           =  +3.58 kcal/molUSER    (4) Unbound System's Energy         =  -1.75 kcal/molUSERUSERREMARK SMILES [CH][C@@H]1CCCC[C@H]1CCNC(=S)[C@@H]1CO[CH]Oc2nc3c(N)ncnc3n2[CH]O1REMARK SMILES IDX 29 1 13 2 11 4 10 5 12 7 9 8 8 9 7 10 2 11 3 12 4 13 6 14REMARK SMILES IDX 5 15 1 16 28 17 27 18 26 19 18 20 25 21 20 22 19 23 24 24REMARK SMILES IDX 21 25 23 26 17 27 16 28 15 29 14 30 22 32REMARK H PARENT 10 6 22 33 22 34REMARK Flexibility Score:  129.900USER                              x       y       z     vdW  Elec       q    TypeUSER                           _______ _______ _______ _____ _____    ______ ____ROOTATOM      1  O   UNL     1      36.670  46.194  16.474 -0.19 +0.20    -0.340 OA ENDROOTBRANCH   1   2ATOM      2  C   UNL     1      35.436  46.236  15.712 -0.25 -0.20    +0.204 CG0ATOM      3  G   UNL     1      35.647  45.858  14.223 +0.00 +0.00    +0.000 G0 BRANCH   2   4ATOM      4  C   UNL     1      34.496  45.198  16.358 -0.30 -0.08    +0.107 C  ATOM      5  N   UNL     1      35.026  44.564  17.466 -0.05 +0.16    -0.377 N  ATOM      6  H   UNL     1      35.922  44.928  17.789 +0.11 -0.06    +0.161 HD ATOM      7  S   UNL     1      33.002  44.879  15.665 -0.47 +0.04    -0.063 S  BRANCH   5   8ATOM      8  C   UNL     1      34.402  43.561  18.318 -0.31 -0.03    +0.114 C  BRANCH   8   9ATOM      9  C   UNL     1      34.960  43.603  19.744 -0.46 -0.00    +0.025 C  BRANCH   9  10ATOM     10  C   UNL     1      36.456  43.216  19.873 -0.46 +0.00    -0.006 C  ATOM     11  C   UNL     1      37.270  44.228  20.717 -0.44 +0.00    -0.004 C  ATOM     12  C   UNL     1      36.968  44.118  22.220 -0.38 +0.00    +0.004 C  ATOM     13  C   UNL     1      37.083  42.691  22.752 -0.49 +0.00    +0.000 C  ATOM     14  C   UNL     1      36.586  41.789  20.448 -0.47 -0.00    +0.004 C  ATOM     15  C   UNL     1      36.253  41.709  21.935 -0.61 +0.00    +0.000 C  ATOM     16  C   UNL     1      38.718  44.059  20.470 -0.32 +0.00    -0.000 C  ENDBRANCH   9  10ENDBRANCH   8   9ENDBRANCH   5   8ENDBRANCH   2   4ENDBRANCH   1   2BRANCH   1  17ATOM     17  C   UNL     1      37.765  45.981  15.660 -0.24 -0.11    +0.276 C  BRANCH  17  18ATOM     18  N   UNL     1      38.546  47.064  15.269 -0.24 +0.09    -0.246 N  ATOM     19  C   UNL     1      39.634  47.614  15.913 -0.38 -0.05    +0.170 A  ATOM     20  C   UNL     1      38.408  47.783  14.084 -0.26 -0.11    +0.303 A  ATOM     21  N   UNL     1      40.208  47.211  17.063 -0.34 +0.04    -0.216 NA ATOM     22  C   UNL     1      39.970  48.733  15.163 -0.44 -0.05    +0.154 A  ATOM     23  N   UNL     1      39.168  48.857  14.050 -0.25 +0.08    -0.189 NA ATOM     24  C   UNL     1      41.201  48.044  17.428 -0.29 -0.02    +0.226 A  ATOM     25  C   UNL     1      41.027  49.521  15.647 -0.52 -0.03    +0.155 A  ATOM     26  N   UNL     1      41.629  49.161  16.803 -0.90 -0.03    -0.217 NA BRANCH  20  27ATOM     27  O   UNL     1      37.674  47.371  13.042 -0.61 +0.11    -0.428 OA BRANCH  27  28ATOM     28  C   UNL     1      36.349  47.756  13.008 -0.36 -0.19    +0.381 C  BRANCH  28  29ATOM     29  O   UNL     1      35.330  46.892  13.279 -0.36 +0.24    -0.335 OA BRANCH  29  30ATOM     30  C   UNL     1      35.655  45.858  14.217 -0.32 -0.13    +0.204 CG0ATOM     31  G   UNL     1      35.437  46.234  15.705 +0.00 +0.00    +0.000 G0 ENDBRANCH  29  30ENDBRANCH  28  29ENDBRANCH  27  28ENDBRANCH  20  27BRANCH  25  32ATOM     32  N   UNL     1      41.477  50.666  15.003 -0.33 +0.11    -0.382 N  ATOM     33  H   UNL     1      41.906  51.325  15.640 -0.35 -0.05    +0.158 HD ATOM     34  H   UNL     1      40.834  51.025  14.308 -0.17 -0.09    +0.158 HD ENDBRANCH  25  32ENDBRANCH  17  18ENDBRANCH   1  17TORSDOF 5TERENDMDL