REMARK SMILES [CH]1CCCC[C@@H](NCC=C2CNC=C2c2cn3cccnc3n2)O1
REMARK SMILES IDX 7 1 6 3 24 4 1 5 2 6 5 8 4 9 3 10 8 12 9 13 10 14 11 15
REMARK SMILES IDX 14 16 12 17 13 18 15 20 16 21 23 22 17 23 22 24 18 25 21 26
REMARK SMILES IDX 19 27 20 28
REMARK H PARENT 7 2 12 19
REMARK Flexibility Score:  163.900
ROOT
ATOM      1  N   UNL     1      -1.670   0.405   0.418  1.00  0.00    -0.289 NA
ATOM      2  H   UNL     1      -1.281   1.321   0.192  1.00  0.00     0.125 HD
ENDROOT
BRANCH   1   3
ATOM      3  C   UNL     1      -3.098   0.473   0.085  1.00  0.00     0.186 C 
BRANCH   3   4
ATOM      4  O   UNL     1      -3.237   0.839  -1.289  1.00  0.00    -0.357 OA
BRANCH   4   5
ATOM      5  C   UNL     1      -4.406   1.425  -1.683  1.00  0.00     0.149 C 
BRANCH   5   6
ATOM      6  C   UNL     1      -5.685   1.320  -0.937  1.00  0.00     0.035 CG0
ATOM      7  G   UNL     1      -6.081  -0.117  -0.610  1.00  0.00     0.000 G0
ENDBRANCH   5   6
ENDBRANCH   4   5
ENDBRANCH   3   4
BRANCH   3   8
ATOM      8  C   UNL     1      -3.818  -0.852   0.381  1.00  0.00     0.048 C 
BRANCH   8   9
ATOM      9  C   UNL     1      -5.326  -0.696   0.583  1.00  0.00     0.004 C 
BRANCH   9  10
ATOM     10  C   UNL     1      -6.081  -0.117  -0.610  1.00  0.00     0.003 CG0
ATOM     11  G   UNL     1      -5.685   1.320  -0.937  1.00  0.00     0.000 G0
ENDBRANCH   9  10
ENDBRANCH   8   9
ENDBRANCH   3   8
ENDBRANCH   1   3
BRANCH   1  12
ATOM     12  C   UNL     1      -0.934  -0.588  -0.358  1.00  0.00     0.111 C 
BRANCH  12  13
ATOM     13  C   UNL     1       0.526  -0.479  -0.034  1.00  0.00    -0.006 C 
BRANCH  13  14
ATOM     14  C   UNL     1       1.228  -1.322   0.743  1.00  0.00    -0.021 C 
ATOM     15  C   UNL     1       0.651  -2.528   1.468  1.00  0.00     0.148 C 
ATOM     16  C   UNL     1       2.665  -1.266   1.065  1.00  0.00     0.022 C 
ATOM     17  N   UNL     1       1.842  -3.158   2.042  1.00  0.00    -0.386 N 
ATOM     18  C   UNL     1       2.930  -2.339   1.830  1.00  0.00     0.089 C 
ATOM     19  H   UNL     1       1.744  -3.471   3.004  1.00  0.00     0.160 HD
BRANCH  16  20
ATOM     20  C   UNL     1       3.612  -0.265   0.693  1.00  0.00     0.093 A 
ATOM     21  C   UNL     1       4.986  -0.364   0.751  1.00  0.00     0.123 A 
ATOM     22  N   UNL     1       3.236   0.971   0.226  1.00  0.00    -0.211 NA
ATOM     23  N   UNL     1       5.452   0.841   0.298  1.00  0.00    -0.291 N 
ATOM     24  C   UNL     1       4.349   1.632  -0.013  1.00  0.00     0.234 A 
ATOM     25  C   UNL     1       6.756   1.286   0.142  1.00  0.00     0.096 A 
ATOM     26  N   UNL     1       4.512   2.901  -0.492  1.00  0.00    -0.221 NA
ATOM     27  C   UNL     1       6.972   2.523  -0.326  1.00  0.00     0.039 A 
ATOM     28  C   UNL     1       5.738   3.303  -0.633  1.00  0.00     0.117 A 
ENDBRANCH  16  20
ENDBRANCH  13  14
ENDBRANCH  12  13
ENDBRANCH   1  12
TORSDOF 5
