REMARK SMILES ClC1=CNCN2N=C(c3ccc(CN4CCOCC4)cc3)C=NC2=C1
REMARK SMILES IDX 6 1 7 2 8 3 22 4 23 5 24 6 25 7 2 8 1 9 5 11 4 12 3 14 9 16
REMARK SMILES IDX 10 17 21 18 11 19 20 20 12 21 13 22 14 23 15 24 19 25 16 26
REMARK SMILES IDX 18 27 17 28
REMARK H PARENT 4 13
REMARK Flexibility Score:   49.900
ROOT
ATOM      1  N   UNL     1       4.328  -0.310  -0.080  1.00  0.00    -0.227 N 
ATOM      2  N   UNL     1       2.995  -0.430   0.271  1.00  0.00    -0.168 NA
ATOM      3  C   UNL     1       2.140  -0.502  -0.705  1.00  0.00     0.109 C 
ATOM      4  C   UNL     1       2.615  -0.475  -2.129  1.00  0.00     0.144 C 
ATOM      5  N   UNL     1       3.858  -0.388  -2.471  1.00  0.00    -0.235 NA
ATOM      6  C   UNL     1       4.749  -0.262  -1.420  1.00  0.00     0.152 C 
ENDROOT
BRANCH   6   7
ATOM      7  C   UNL     1       6.018  -0.047  -1.838  1.00  0.00     0.070 C 
BRANCH   7   8
ATOM      8  C   UNL     1       7.220   0.267  -1.095  1.00  0.00     0.060 CG0
ATOM      9  Cl  UNL     1       8.666   0.481  -2.044  1.00  0.00    -0.083 Cl
ATOM     10  G   UNL     1       7.305   0.466   0.228  1.00  0.00     0.000 G0
ENDBRANCH   7   8
ENDBRANCH   6   7
BRANCH   1  11
ATOM     11  C   UNL     1       5.231  -0.610   1.033  1.00  0.00     0.261 C 
BRANCH  11  12
ATOM     12  N   UNL     1       6.321   0.338   1.183  1.00  0.00    -0.371 N 
ATOM     13  H   UNL     1       6.678   0.363   2.134  1.00  0.00     0.161 HD
BRANCH  12  14
ATOM     14  C   UNL     1       7.305   0.466   0.228  1.00  0.00     0.100 CG0
ATOM     15  G   UNL     1       7.220   0.267  -1.095  1.00  0.00     0.000 G0
ENDBRANCH  12  14
ENDBRANCH  11  12
ENDBRANCH   1  11
BRANCH   3  16
ATOM     16  C   UNL     1       0.689  -0.617  -0.418  1.00  0.00     0.004 A 
ATOM     17  C   UNL     1      -0.172  -1.332  -1.257  1.00  0.00     0.011 A 
ATOM     18  C   UNL     1       0.183  -0.013   0.738  1.00  0.00     0.011 A 
ATOM     19  C   UNL     1      -1.535  -1.419  -0.952  1.00  0.00     0.006 A 
ATOM     20  C   UNL     1      -1.178  -0.101   1.039  1.00  0.00     0.006 A 
ATOM     21  C   UNL     1      -2.054  -0.795   0.192  1.00  0.00    -0.034 A 
BRANCH  21  22
ATOM     22  C   UNL     1      -3.527  -0.911   0.532  1.00  0.00     0.120 C 
BRANCH  22  23
ATOM     23  N   UNL     1      -4.161   0.384   0.814  1.00  0.00    -0.295 NA
ATOM     24  C   UNL     1      -5.469   0.184   1.475  1.00  0.00     0.113 C 
ATOM     25  C   UNL     1      -4.308   1.234  -0.389  1.00  0.00     0.113 C 
ATOM     26  C   UNL     1      -6.388   1.401   1.302  1.00  0.00     0.175 C 
ATOM     27  C   UNL     1      -5.723   1.209  -0.989  1.00  0.00     0.175 C 
ATOM     28  O   UNL     1      -6.738   1.632  -0.069  1.00  0.00    -0.379 OA
ENDBRANCH  22  23
ENDBRANCH  21  22
ENDBRANCH   3  16
TORSDOF 3
