REMARK SMILES O=C1Nc2ccc(F)cc2C(=O)[C@@H]1c1ccccc1F
REMARK SMILES IDX 1 1 2 2 3 3 4 4 5 5 6 6 7 7 8 8 9 9 10 10 11 11 12 12 13 13
REMARK SMILES IDX 14 15 15 16 19 17 16 18 18 19 17 20 20 21
REMARK H PARENT 3 14
ROOT
ATOM      1  O   UNL     1       0.695   2.625   1.048  1.00  0.00    -0.274 OA
ATOM      2  C   UNL     1       0.032   1.768   0.461  1.00  0.00     0.239 C 
ATOM      3  N   UNL     1      -1.278   1.609   0.806  1.00  0.00    -0.324 N 
ATOM      4  C   UNL     1      -2.156   0.699   0.225  1.00  0.00     0.052 A 
ATOM      5  C   UNL     1      -3.476   0.651   0.684  1.00  0.00     0.030 A 
ATOM      6  C   UNL     1      -4.376  -0.253   0.117  1.00  0.00     0.041 A 
ATOM      7  C   UNL     1      -3.951  -1.101  -0.901  1.00  0.00     0.124 A 
ATOM      8  F   UNL     1      -4.818  -1.966  -1.440  1.00  0.00    -0.207 F 
ATOM      9  C   UNL     1      -2.643  -1.062  -1.365  1.00  0.00     0.053 A 
ATOM     10  C   UNL     1      -1.742  -0.155  -0.796  1.00  0.00     0.045 A 
ATOM     11  C   UNL     1      -0.348  -0.101  -1.273  1.00  0.00     0.182 C 
ATOM     12  O   UNL     1      -0.009  -0.857  -2.183  1.00  0.00    -0.293 OA
ATOM     13  C   UNL     1       0.607   0.885  -0.630  1.00  0.00     0.183 C 
ATOM     14  H   UNL     1      -1.598   2.230   1.541  1.00  0.00     0.169 HD
ENDROOT
BRANCH  13  15
ATOM     15  C   UNL     1       1.870   0.188  -0.154  1.00  0.00     0.008 A 
ATOM     16  C   UNL     1       1.836  -0.786   0.858  1.00  0.00     0.008 A 
ATOM     17  C   UNL     1       3.106   0.516  -0.720  1.00  0.00     0.127 A 
ATOM     18  C   UNL     1       3.014  -1.409   1.279  1.00  0.00     0.001 A 
ATOM     19  C   UNL     1       4.281  -0.102  -0.303  1.00  0.00     0.039 A 
ATOM     20  C   UNL     1       4.236  -1.068   0.700  1.00  0.00     0.003 A 
ATOM     21  F   UNL     1       3.176   1.444  -1.685  1.00  0.00    -0.207 F 
ENDBRANCH  13  15
TORSDOF 1
