MODEL        7USER    Run = 7USERUSER    Estimated Free Energy of Binding    =  -8.05 kcal/mol  [=(1)+(2)+(3)-(4)]USERUSER    (1) Final Intermolecular Energy     = -10.13 kcal/molUSER        vdW + Hbond + desolv Energy     =  -9.74 kcal/molUSER        Electrostatic Energy            =  -0.40 kcal/molUSER        Moving Ligand-Fixed Receptor    = -10.13 kcal/molUSER        Moving Ligand-Moving Receptor   =  +0.00 kcal/molUSER    (2) Final Total Internal Energy     =  -2.03 kcal/molUSER    (3) Torsional Free Energy           =  +2.09 kcal/molUSER    (4) Unbound System's Energy         =  -2.03 kcal/molUSERUSERREMARK SMILES C=C1C(C(=O)N[C@H](C(=O)O)[C@@H]2C[C@@H]2CF)=CC=C1[C@]1(C)N=C(C)O1REMARK SMILES IDX 4 1 5 2 6 3 3 5 2 6 18 7 16 8 17 9 1 10 19 11 21 12 24 13REMARK SMILES IDX 22 14 20 15 23 16 7 17 8 18 9 19 10 20 11 22 12 23 13 24REMARK SMILES IDX 14 25 15 26REMARK H PARENT 6 4 10 21USER                              x       y       z     vdW  Elec       q    TypeUSER                           _______ _______ _______ _____ _____    ______ ____ROOTATOM      1  C   UNL     1      40.518  46.551  16.845 -0.34 -0.03    +0.252 C  ATOM      2  O   UNL     1      40.550  45.805  15.873 -0.25 +0.01    -0.269 OA ATOM      3  N   UNL     1      40.253  47.893  16.764 -0.27 +0.08    -0.338 N  ATOM      4  H   UNL     1      40.534  48.472  17.551 +0.10 -0.03    +0.164 HD ENDROOTBRANCH   1   5ATOM      5  C   UNL     1      40.855  46.072  18.203 -0.52 -0.00    +0.046 C  ATOM      6  C   UNL     1      41.949  46.450  19.095 -0.54 -0.00    -0.011 C  ATOM      7  C   UNL     1      41.800  45.651  20.307 -0.40 +0.00    +0.026 C  ATOM      8  C   UNL     1      40.106  45.166  18.855 -0.49 -0.00    +0.015 C  ATOM      9  C   UNL     1      40.698  44.893  20.149 -0.43 +0.00    +0.011 C  ATOM     10  C   UNL     1      42.892  47.375  18.878 -0.60 +0.00    +0.018 C  BRANCH   7  11ATOM     11  C   UNL     1      42.673  45.624  21.495 -0.19 +0.06    +0.228 C  ATOM     12  N   UNL     1      42.280  46.592  22.520 -0.15 -0.03    -0.205 NA ATOM     13  O   UNL     1      43.887  46.387  21.429 -0.26 -0.29    -0.449 OA ATOM     14  C   UNL     1      43.388  47.219  22.329 -0.27 +0.05    +0.187 C  ATOM     15  C   UNL     1      42.908  44.239  22.077 -0.26 +0.02    +0.090 C  ATOM     16  C   UNL     1      44.042  48.391  22.892 -0.23 +0.03    +0.111 C  ENDBRANCH   7  11ENDBRANCH   1   5BRANCH   3  17ATOM     17  C   UNL     1      40.163  48.559  15.470 -0.49 -0.06    +0.195 C  BRANCH  17  18ATOM     18  C   UNL     1      41.157  49.726  15.345 -0.45 -0.07    +0.326 C  ATOM     19  O   UNL     1      41.418  50.349  14.325 -0.55 +0.08    -0.250 OA BRANCH  18  20ATOM     20  O   UNL     1      41.758  50.081  16.504 -0.78 -0.04    -0.480 OA ATOM     21  H   UNL     1      41.489  51.015  16.633 -0.36 -0.12    +0.296 HD ENDBRANCH  18  20ENDBRANCH  17  18BRANCH  17  22ATOM     22  C   UNL     1      38.705  48.892  15.240 -0.49 -0.02    +0.029 C  ATOM     23  C   UNL     1      37.534  48.057  15.712 -0.47 -0.01    +0.013 C  ATOM     24  C   UNL     1      37.814  48.173  14.234 -0.59 -0.01    +0.026 C  BRANCH  24  25ATOM     25  C   UNL     1      38.253  46.985  13.448 -0.31 -0.06    +0.218 C  ATOM     26  F   UNL     1      37.674  47.060  12.218 -0.14 +0.04    -0.251 F  ENDBRANCH  24  25ENDBRANCH  17  22ENDBRANCH   3  17TORSDOF 7TERENDMDL