MODEL        1USER    Run = 1USERUSER    Estimated Free Energy of Binding    =  -7.63 kcal/mol  [=(1)+(2)+(3)-(4)]USERUSER    (1) Final Intermolecular Energy     =  -7.92 kcal/molUSER        vdW + Hbond + desolv Energy     =  -7.98 kcal/molUSER        Electrostatic Energy            =  +0.05 kcal/molUSER        Moving Ligand-Fixed Receptor    =  -7.92 kcal/molUSER        Moving Ligand-Moving Receptor   =  +0.00 kcal/molUSER    (2) Final Total Internal Energy     =  -0.57 kcal/molUSER    (3) Torsional Free Energy           =  +0.30 kcal/molUSER    (4) Unbound System's Energy         =  -0.57 kcal/molUSERUSERREMARK SMILES O=C1Nc2ccc(F)cc2C(=O)[C@@H]1c1ccccc1FREMARK SMILES IDX 1 1 2 2 3 3 4 4 5 5 6 6 7 7 8 8 9 9 10 10 11 11 12 12 13 13REMARK SMILES IDX 14 15 15 16 19 17 16 18 18 19 17 20 20 21REMARK H PARENT 3 14USER                              x       y       z     vdW  Elec       q    TypeUSER                           _______ _______ _______ _____ _____    ______ ____ROOTATOM      1  O   UNL     1      40.291  48.715  14.898 -0.40 +0.08    -0.274 OA ATOM      2  C   UNL     1      39.915  47.946  15.784 -0.42 -0.07    +0.239 C  ATOM      3  N   UNL     1      40.847  47.427  16.634 -0.26 +0.04    -0.324 N  ATOM      4  C   UNL     1      40.577  46.562  17.690 -0.47 -0.01    +0.052 A  ATOM      5  C   UNL     1      41.640  46.112  18.480 -0.46 +0.00    +0.030 A  ATOM      6  C   UNL     1      41.394  45.244  19.545 -0.37 +0.00    +0.041 A  ATOM      7  C   UNL     1      40.092  44.832  19.812 -0.32 +0.00    +0.124 A  ATOM      8  F   UNL     1      39.864  43.999  20.834 -0.05 -0.01    -0.207 F  ATOM      9  C   UNL     1      39.029  45.273  19.035 -0.37 -0.00    +0.053 A  ATOM     10  C   UNL     1      39.277  46.143  17.968 -0.40 -0.01    +0.045 A  ATOM     11  C   UNL     1      38.161  46.619  17.129 -0.28 -0.07    +0.182 C  ATOM     12  O   UNL     1      37.021  46.245  17.401 -0.24 +0.13    -0.293 OA ATOM     13  C   UNL     1      38.462  47.553  15.974 -0.37 -0.09    +0.183 C  ATOM     14  H   UNL     1      41.798  47.730  16.452 -0.40 -0.02    +0.169 HD ENDROOTBRANCH  13  15ATOM     15  C   UNL     1      37.869  47.026  14.679 -0.44 -0.00    +0.008 A  ATOM     16  C   UNL     1      37.892  45.657  14.363 -0.40 -0.00    +0.008 A  ATOM     17  C   UNL     1      37.290  47.910  13.763 -0.45 -0.06    +0.127 A  ATOM     18  C   UNL     1      37.342  45.199  13.163 -0.45 -0.00    +0.001 A  ATOM     19  C   UNL     1      36.742  47.458  12.567 -0.63 -0.02    +0.039 A  ATOM     20  C   UNL     1      36.768  46.098  12.264 -0.63 -0.00    +0.003 A  ATOM     21  F   UNL     1      37.255  49.223  14.030 -0.17 +0.14    -0.207 F  ENDBRANCH  13  15TORSDOF 1TERENDMDL