MODEL        7USER    Run = 7USERUSER    Estimated Free Energy of Binding    =  -6.03 kcal/mol  [=(1)+(2)+(3)-(4)]USERUSER    (1) Final Intermolecular Energy     =  -9.31 kcal/molUSER        vdW + Hbond + desolv Energy     =  -9.55 kcal/molUSER        Electrostatic Energy            =  -0.07 kcal/molUSER        Moving Ligand-Fixed Receptor    =  -9.62 kcal/molUSER        Moving Ligand-Moving Receptor   =  +0.31 kcal/molUSER    (2) Final Total Internal Energy     =  -1.40 kcal/molUSER    (3) Torsional Free Energy           =  +3.28 kcal/molUSER    (4) Unbound System's Energy         =  -1.40 kcal/molUSERUSERREMARK SMILES [CH]1CCCC[C@@H](NCC=C2CNC=C2c2cn3cccnc3n2)O1REMARK SMILES IDX 7 1 6 3 24 4 1 5 2 6 5 8 4 9 3 10 8 12 9 13 10 14 11 15REMARK SMILES IDX 14 16 12 17 13 18 15 20 16 21 23 22 17 23 22 24 18 25 21 26REMARK SMILES IDX 19 27 20 28REMARK H PARENT 7 2 12 19REMARK Flexibility Score:  163.900USER                              x       y       z     vdW  Elec       q    TypeUSER                           _______ _______ _______ _____ _____    ______ ____ROOTATOM      1  N   UNL     1      37.692  44.496  16.988 -0.16 +0.07    -0.289 NA ATOM      2  H   UNL     1      37.956  43.529  17.179 +0.08 -0.02    +0.125 HD ENDROOTBRANCH   1   3ATOM      3  C   UNL     1      36.228  44.508  16.883 -0.26 -0.07    +0.186 C  BRANCH   3   4ATOM      4  O   UNL     1      35.670  44.606  18.194 -0.13 +0.11    -0.357 OA BRANCH   4   5ATOM      5  C   UNL     1      34.824  45.646  18.456 -0.36 -0.07    +0.149 C  BRANCH   5   6ATOM      6  C   UNL     1      33.466  45.785  17.873 -0.43 -0.02    +0.035 CG0ATOM      7  G   UNL     1      33.291  45.034  16.556 +0.00 +0.00    +0.000 G0 ENDBRANCH   5   6ENDBRANCH   4   5ENDBRANCH   3   4BRANCH   3   8ATOM      8  C   UNL     1      35.729  45.649  15.981 -0.37 -0.03    +0.048 C  BRANCH   8   9ATOM      9  C   UNL     1      34.295  45.453  15.486 -0.38 -0.00    +0.004 C  BRANCH   9  10ATOM     10  C   UNL     1      33.293  45.036  16.558 -0.39 -0.00    +0.003 CG0ATOM     11  G   UNL     1      33.469  45.786  17.875 +0.00 +0.00    +0.000 G0 ENDBRANCH   9  10ENDBRANCH   8   9ENDBRANCH   3   8ENDBRANCH   1   3BRANCH   1  12ATOM     12  C   UNL     1      38.208  45.315  18.080 -0.37 -0.02    +0.111 C  BRANCH  12  13ATOM     13  C   UNL     1      39.686  45.496  17.900 -0.48 +0.00    -0.006 C  BRANCH  13  14ATOM     14  C   UNL     1      40.304  46.634  17.539 -0.55 +0.00    -0.021 C  ATOM     15  C   UNL     1      41.346  47.365  18.372 -0.45 -0.01    +0.148 C  ATOM     16  C   UNL     1      40.113  47.411  16.301 -0.57 -0.00    +0.022 C  ATOM     17  N   UNL     1      41.779  48.438  17.476 -0.20 -0.01    -0.386 N  ATOM     18  C   UNL     1      40.978  48.438  16.354 -0.57 -0.01    +0.089 C  ATOM     19  H   UNL     1      41.877  49.352  17.911 +0.09 +0.02    +0.160 HD BRANCH  16  20ATOM     20  C   UNL     1      39.176  47.175  15.251 -0.41 -0.03    +0.093 A  ATOM     21  C   UNL     1      38.823  45.955  14.716 -0.31 -0.03    +0.123 A  ATOM     22  N   UNL     1      38.502  48.193  14.620 -0.36 +0.10    -0.211 NA ATOM     23  N   UNL     1      37.904  46.242  13.742 -0.22 +0.09    -0.291 N  ATOM     24  C   UNL     1      37.735  47.624  13.714 -0.34 -0.09    +0.234 A  ATOM     25  C   UNL     1      37.216  45.390  12.892 -0.39 -0.03    +0.096 A  ATOM     26  N   UNL     1      36.869  48.204  12.830 -0.92 +0.07    -0.221 NA ATOM     27  C   UNL     1      36.353  45.907  12.007 -0.58 -0.02    +0.039 A  ATOM     28  C   UNL     1      36.233  47.393  12.042 -0.52 -0.06    +0.117 A  ENDBRANCH  16  20ENDBRANCH  13  14ENDBRANCH  12  13ENDBRANCH   1  12TORSDOF 5TERENDMDL