REMARK SMILES [CH][C@@H]1CCCC[C@H]1CCNC(=S)[C@@H]1CO[CH]Oc2nc3c(N)ncnc3n2[CH]O1
REMARK SMILES IDX 29 1 13 2 11 4 10 5 12 7 9 8 8 9 7 10 2 11 3 12 4 13 6 14
REMARK SMILES IDX 5 15 1 16 28 17 27 18 26 19 18 20 25 21 20 22 19 23 24 24
REMARK SMILES IDX 21 25 23 26 17 27 16 28 15 29 14 30 22 32
REMARK H PARENT 10 6 22 33 22 34
REMARK Flexibility Score:  129.900
ROOT
ATOM      1  O   UNL     1       1.272  -0.395   0.939  1.00  0.00    -0.340 OA
ENDROOT
BRANCH   1   2
ATOM      2  C   UNL     1       0.989  -0.040   2.317  1.00  0.00     0.204 CG0
ATOM      3  G   UNL     1       2.061   0.907   2.916  1.00  0.00     0.000 G0
BRANCH   2   4
ATOM      4  C   UNL     1      -0.367   0.694   2.302  1.00  0.00     0.107 C 
ATOM      5  N   UNL     1      -0.587   1.457   1.171  1.00  0.00    -0.377 N 
ATOM      6  H   UNL     1       0.115   1.362   0.438  1.00  0.00     0.161 HD
ATOM      7  S   UNL     1      -1.395   0.576   3.622  1.00  0.00    -0.063 S 
BRANCH   5   8
ATOM      8  C   UNL     1      -1.762   2.248   0.828  1.00  0.00     0.114 C 
BRANCH   8   9
ATOM      9  C   UNL     1      -2.381   1.796  -0.498  1.00  0.00     0.025 C 
BRANCH   9  10
ATOM     10  C   UNL     1      -2.924   0.344  -0.506  1.00  0.00    -0.006 C 
ATOM     11  C   UNL     1      -4.152   0.153   0.419  1.00  0.00    -0.004 C 
ATOM     12  C   UNL     1      -5.428   0.782  -0.162  1.00  0.00     0.004 C 
ATOM     13  C   UNL     1      -5.710   0.349  -1.600  1.00  0.00     0.000 C 
ATOM     14  C   UNL     1      -3.250  -0.092  -1.951  1.00  0.00     0.004 C 
ATOM     15  C   UNL     1      -4.507   0.571  -2.508  1.00  0.00     0.000 C 
ATOM     16  C   UNL     1      -4.368  -1.282   0.701  1.00  0.00    -0.000 C 
ENDBRANCH   9  10
ENDBRANCH   8   9
ENDBRANCH   5   8
ENDBRANCH   2   4
ENDBRANCH   1   2
BRANCH   1  17
ATOM     17  C   UNL     1       2.124  -1.478   0.856  1.00  0.00     0.276 C 
BRANCH  17  18
ATOM     18  N   UNL     1       3.413  -1.298   0.364  1.00  0.00    -0.246 N 
ATOM     19  C   UNL     1       3.802  -0.904  -0.899  1.00  0.00     0.170 A 
ATOM     20  C   UNL     1       4.591  -1.430   1.095  1.00  0.00     0.303 A 
ATOM     21  N   UNL     1       3.017  -0.576  -1.944  1.00  0.00    -0.216 NA
ATOM     22  C   UNL     1       5.187  -0.992  -0.895  1.00  0.00     0.154 A 
ATOM     23  N   UNL     1       5.667  -1.369   0.340  1.00  0.00    -0.189 NA
ATOM     24  C   UNL     1       3.752  -0.322  -3.043  1.00  0.00     0.226 A 
ATOM     25  C   UNL     1       5.840  -0.699  -2.104  1.00  0.00     0.155 A 
ATOM     26  N   UNL     1       5.094  -0.374  -3.183  1.00  0.00    -0.217 NA
BRANCH  20  27
ATOM     27  O   UNL     1       4.636  -1.494   2.432  1.00  0.00    -0.428 OA
BRANCH  27  28
ATOM     28  C   UNL     1       3.862  -0.594   3.136  1.00  0.00     0.381 C 
BRANCH  28  29
ATOM     29  O   UNL     1       3.415   0.571   2.587  1.00  0.00    -0.335 OA
BRANCH  29  30
ATOM     30  C   UNL     1       2.061   0.907   2.916  1.00  0.00     0.204 CG0
ATOM     31  G   UNL     1       0.989  -0.040   2.317  1.00  0.00     0.000 G0
ENDBRANCH  29  30
ENDBRANCH  28  29
ENDBRANCH  27  28
ENDBRANCH  20  27
BRANCH  25  32
ATOM     32  N   UNL     1       7.220  -0.742  -2.250  1.00  0.00    -0.382 N 
ATOM     33  H   UNL     1       7.503  -0.862  -3.214  1.00  0.00     0.158 HD
ATOM     34  H   UNL     1       7.691  -1.294  -1.543  1.00  0.00     0.158 HD
ENDBRANCH  25  32
ENDBRANCH  17  18
ENDBRANCH   1  17
TORSDOF 5
