REMARK SMILES CC=CN=C1NC(=O)[C@H]2CC(=O)N[C@H](CC3CCCCC3)C(=O)N(CCN3CCCN3)[C@@]12CC
REMARK SMILES IDX 5 1 6 2 7 3 8 4 9 5 32 6 4 9 3 10 2 11 1 12 24 13 22 14
REMARK SMILES IDX 23 15 14 16 13 17 11 18 12 20 10 21 15 23 16 24 17 25 21 26
REMARK SMILES IDX 18 27 20 28 19 29 25 30 26 31 27 32 28 33 31 34 29 35 30 36
REMARK SMILES IDX 33 38 34 39
REMARK H PARENT 6 7 13 19 31 37
REMARK Flexibility Score:  124.900
ROOT
ATOM      1  C   UNL     1      -1.802  -1.823   0.593  1.00  0.00     0.135 C 
ATOM      2  N   UNL     1      -1.735  -2.649   1.678  1.00  0.00    -0.312 N 
ATOM      3  C   UNL     1      -1.429  -1.987   2.828  1.00  0.00     0.231 C 
ATOM      4  O   UNL     1      -1.415  -2.489   3.939  1.00  0.00    -0.274 OA
ATOM      5  C   UNL     1      -1.080  -0.543   2.510  1.00  0.00     0.121 CG0
ATOM      6  C   UNL     1      -1.684  -0.376   1.083  1.00  0.00     0.113 C 
ATOM      7  H   UNL     1      -1.921  -3.640   1.671  1.00  0.00     0.171 HD
ATOM      8  G   UNL     1       0.425  -0.312   2.710  1.00  0.00     0.000 G0
ENDROOT
BRANCH   1   9
ATOM      9  N   UNL     1      -2.008  -2.153  -0.640  1.00  0.00    -0.241 NA
BRANCH   9  10
ATOM     10  C   UNL     1      -2.092  -3.479  -0.952  1.00  0.00     0.108 C 
BRANCH  10  11
ATOM     11  C   UNL     1      -3.035  -3.949  -1.776  1.00  0.00    -0.010 C 
ATOM     12  C   UNL     1      -3.156  -5.381  -2.179  1.00  0.00     0.037 C 
ENDBRANCH  10  11
ENDBRANCH   9  10
ENDBRANCH   1   9
BRANCH   6  13
ATOM     13  N   UNL     1      -0.904   0.535   0.159  1.00  0.00    -0.326 N 
BRANCH  13  14
ATOM     14  C   UNL     1       0.439   0.393  -0.209  1.00  0.00     0.246 C 
ATOM     15  O   UNL     1       1.072   1.380  -0.604  1.00  0.00    -0.272 OA
BRANCH  14  16
ATOM     16  C   UNL     1       1.152  -0.992  -0.237  1.00  0.00     0.171 C 
BRANCH  16  17
ATOM     17  N   UNL     1       1.018  -1.873   0.923  1.00  0.00    -0.344 N 
ATOM     18  C   UNL     1       1.281  -1.446   2.193  1.00  0.00     0.221 C 
ATOM     19  H   UNL     1       1.513  -2.747   0.773  1.00  0.00     0.164 HD
ATOM     20  O   UNL     1       2.104  -2.035   2.882  1.00  0.00    -0.275 OA
BRANCH  18  21
ATOM     21  C   UNL     1       0.425  -0.312   2.710  1.00  0.00     0.116 CG0
ATOM     22  G   UNL     1      -1.080  -0.543   2.510  1.00  0.00     0.000 G0
ENDBRANCH  18  21
ENDBRANCH  16  17
BRANCH  16  23
ATOM     23  C   UNL     1       2.661  -0.809  -0.561  1.00  0.00     0.038 C 
BRANCH  23  24
ATOM     24  C   UNL     1       2.919  -0.622  -2.082  1.00  0.00    -0.009 C 
ATOM     25  C   UNL     1       3.988   0.453  -2.369  1.00  0.00     0.004 C 
ATOM     26  C   UNL     1       3.298  -1.950  -2.759  1.00  0.00     0.004 C 
ATOM     27  C   UNL     1       5.398  -0.091  -2.616  1.00  0.00     0.000 C 
ATOM     28  C   UNL     1       4.670  -2.489  -2.333  1.00  0.00     0.000 C 
ATOM     29  C   UNL     1       5.650  -1.402  -1.892  1.00  0.00     0.000 C 
ENDBRANCH  23  24
ENDBRANCH  16  23
ENDBRANCH  14  16
ENDBRANCH  13  14
BRANCH  13  30
ATOM     30  C   UNL     1      -1.432   1.899  -0.107  1.00  0.00     0.137 C 
BRANCH  30  31
ATOM     31  C   UNL     1      -1.107   2.907   1.016  1.00  0.00     0.124 C 
BRANCH  31  32
ATOM     32  N   UNL     1      -1.877   4.152   0.885  1.00  0.00    -0.243 NA
ATOM     33  C   UNL     1      -1.683   5.052   2.022  1.00  0.00     0.104 C 
ATOM     34  N   UNL     1      -1.462   4.916  -0.274  1.00  0.00    -0.255 NA
ATOM     35  C   UNL     1      -2.083   6.409   1.464  1.00  0.00     0.034 C 
ATOM     36  C   UNL     1      -2.051   6.238  -0.046  1.00  0.00     0.100 C 
ATOM     37  H   UNL     1      -0.441   5.013  -0.316  1.00  0.00     0.141 HD
ENDBRANCH  31  32
ENDBRANCH  30  31
ENDBRANCH  13  30
ENDBRANCH   6  13
BRANCH   6  38
ATOM     38  C   UNL     1      -3.198   0.096   1.209  1.00  0.00     0.034 C 
ATOM     39  C   UNL     1      -4.163  -0.705   2.088  1.00  0.00     0.007 C 
ENDBRANCH   6  38
TORSDOF 9
