MODEL        4USER    Run = 4USERUSER    Estimated Free Energy of Binding    =  -9.99 kcal/mol  [=(1)+(2)+(3)-(4)]USERUSER    (1) Final Intermolecular Energy     = -10.29 kcal/molUSER        vdW + Hbond + desolv Energy     = -10.20 kcal/molUSER        Electrostatic Energy            =  -0.08 kcal/molUSER        Moving Ligand-Fixed Receptor    = -10.29 kcal/molUSER        Moving Ligand-Moving Receptor   =  +0.00 kcal/molUSER    (2) Final Total Internal Energy     =  -0.42 kcal/molUSER    (3) Torsional Free Energy           =  +0.30 kcal/molUSER    (4) Unbound System's Energy         =  -0.42 kcal/molUSERUSERREMARK SMILES c1ncc(-c2ccc3[nH]ncc3c2)cc2c(n[nH]1)N[C@H]1OCCC[C@H]21REMARK SMILES IDX 1 1 2 2 3 3 4 4 14 5 15 6 16 7 17 8 18 9 19 10 20 11 21 12REMARK SMILES IDX 22 13 23 14 24 15 25 16 5 19 6 20 13 21 7 22 12 23 8 24REMARK SMILES IDX 11 25 9 26 10 27REMARK H PARENT 18 17 19 18 9 28USER                              x       y       z     vdW  Elec       q    TypeUSER                           _______ _______ _______ _____ _____    ______ ____ROOTATOM      1  C   UNL     1      37.097  46.679  12.583 -0.43 -0.07    +0.214 A  ATOM      2  N   UNL     1      37.384  47.938  12.939 -0.89 +0.06    -0.245 NA ATOM      3  C   UNL     1      38.148  47.949  14.058 -0.43 -0.05    +0.121 A  ATOM      4  C   UNL     1      38.140  47.276  15.234 -0.45 -0.00    +0.000 A  ATOM      5  C   UNL     1      37.248  46.439  15.809 -0.37 -0.01    +0.018 A  ATOM      6  C   UNL     1      36.003  45.954  15.619 -0.36 -0.00    +0.005 A  ATOM      7  C   UNL     1      35.021  46.074  14.675 -0.25 -0.13    +0.151 A  ATOM      8  N   UNL     1      34.784  46.620  13.466 -0.39 +0.13    -0.156 NA ATOM      9  N   UNL     1      35.793  46.260  12.446 -0.40 +0.14    -0.266 N  ATOM     10  N   UNL     1      33.802  45.529  15.157 -0.12 +0.31    -0.343 N  ATOM     11  C   UNL     1      33.891  45.519  16.579 -0.20 -0.20    +0.221 C  ATOM     12  O   UNL     1      33.045  44.579  17.234 -0.14 +0.15    -0.358 OA ATOM     13  C   UNL     1      33.252  44.674  18.645 -0.34 -0.05    +0.163 C  ATOM     14  C   UNL     1      34.713  44.441  19.048 -0.43 -0.01    +0.029 C  ATOM     15  C   UNL     1      35.693  45.299  18.236 -0.39 -0.01    +0.015 C  ATOM     16  C   UNL     1      35.362  45.132  16.753 -0.33 -0.04    +0.073 C  ATOM     17  H   UNL     1      35.770  45.250  12.369 +0.14 -0.08    +0.191 HD ATOM     18  H   UNL     1      33.077  46.085  14.719 -0.11 -0.19    +0.164 HD ENDROOTBRANCH   4  19ATOM     19  C   UNL     1      39.337  47.559  16.084 -0.48 +0.01    -0.016 A  ATOM     20  C   UNL     1      40.138  48.681  15.820 -0.57 -0.00    +0.011 A  ATOM     21  C   UNL     1      39.653  46.700  17.152 -0.46 -0.00    +0.020 A  ATOM     22  C   UNL     1      41.257  48.983  16.603 -0.36 -0.00    +0.029 A  ATOM     23  C   UNL     1      40.772  46.993  17.950 -0.50 -0.00    +0.020 A  ATOM     24  C   UNL     1      41.540  48.115  17.661 -0.40 -0.00    +0.065 A  ATOM     25  C   UNL     1      41.405  46.410  19.070 -0.38 +0.01    +0.143 A  ATOM     26  N   UNL     1      42.539  48.113  18.596 -0.37 -0.00    -0.278 N  ATOM     27  N   UNL     1      42.480  47.097  19.478 -0.40 -0.03    -0.183 NA ATOM     28  H   UNL     1      43.292  48.783  18.684 -0.40 -0.01    +0.190 HD ENDBRANCH   4  19TORSDOF 1TERENDMDL