MODEL        2USER    Run = 2USERUSER    Estimated Free Energy of Binding    =  -7.05 kcal/mol  [=(1)+(2)+(3)-(4)]USERUSER    (1) Final Intermolecular Energy     =  -9.44 kcal/molUSER        vdW + Hbond + desolv Energy     =  -9.67 kcal/molUSER        Electrostatic Energy            =  -0.19 kcal/molUSER        Moving Ligand-Fixed Receptor    =  -9.86 kcal/molUSER        Moving Ligand-Moving Receptor   =  +0.42 kcal/molUSER    (2) Final Total Internal Energy     =  +0.55 kcal/molUSER    (3) Torsional Free Energy           =  +2.39 kcal/molUSER    (4) Unbound System's Energy         =  +0.55 kcal/molUSERUSERREMARK SMILES ClC1=CNCN2N=C(c3ccc(CN4CCOCC4)cc3)C=NC2=C1REMARK SMILES IDX 6 1 7 2 8 3 22 4 23 5 24 6 25 7 2 8 1 9 5 11 4 12 3 14 9 16REMARK SMILES IDX 10 17 21 18 11 19 20 20 12 21 13 22 14 23 15 24 19 25 16 26REMARK SMILES IDX 18 27 17 28REMARK H PARENT 4 13REMARK Flexibility Score:   49.900USER                              x       y       z     vdW  Elec       q    TypeUSER                           _______ _______ _______ _____ _____    ______ ____ROOTATOM      1  N   UNL     1      36.872  46.503  15.957 -0.23 +0.14    -0.227 N  ATOM      2  N   UNL     1      35.810  45.669  16.258 -0.23 +0.11    -0.168 NA ATOM      3  C   UNL     1      35.919  44.952  17.336 -0.31 -0.05    +0.109 C  ATOM      4  C   UNL     1      37.143  45.067  18.198 -0.31 -0.03    +0.144 C  ATOM      5  N   UNL     1      38.131  45.860  17.943 -0.24 +0.06    -0.235 NA ATOM      6  C   UNL     1      38.019  46.578  16.766 -0.33 -0.06    +0.152 C  ENDROOTBRANCH   6   7ATOM      7  C   UNL     1      39.133  47.292  16.485 -0.47 -0.02    +0.070 C  BRANCH   7   8ATOM      8  C   UNL     1      39.490  48.072  15.319 -0.56 -0.02    +0.060 CG0ATOM      9  Cl  UNL     1      41.038  48.871  15.383 -0.85 +0.01    -0.083 Cl ATOM     10  G   UNL     1      38.777  48.181  14.189 +0.00 +0.00    +0.000 G0 ENDBRANCH   7   8ENDBRANCH   6   7BRANCH   1  11ATOM     11  C   UNL     1      36.520  47.526  14.969 -0.22 -0.23    +0.261 C  BRANCH  11  12ATOM     12  N   UNL     1      37.510  47.700  13.921 -0.23 +0.17    -0.371 N  ATOM     13  H   UNL     1      37.105  48.089  13.073 +0.11 -0.05    +0.161 HD BRANCH  12  14ATOM     14  C   UNL     1      38.773  48.178  14.190 -0.50 -0.04    +0.100 CG0ATOM     15  G   UNL     1      39.487  48.070  15.320 +0.00 +0.00    +0.000 G0 ENDBRANCH  12  14ENDBRANCH  11  12ENDBRANCH   1  11BRANCH   3  16ATOM     16  C   UNL     1      34.833  44.019  17.724 -0.30 -0.00    +0.004 A  ATOM     17  C   UNL     1      34.141  44.158  18.932 -0.38 -0.00    +0.011 A  ATOM     18  C   UNL     1      34.482  42.992  16.841 -0.38 -0.00    +0.011 A  ATOM     19  C   UNL     1      33.122  43.258  19.263 -0.41 -0.00    +0.006 A  ATOM     20  C   UNL     1      33.464  42.096  17.175 -0.35 -0.00    +0.006 A  ATOM     21  C   UNL     1      32.781  42.212  18.394 -0.35 +0.01    -0.034 A  BRANCH  21  22ATOM     22  C   UNL     1      31.660  41.253  18.745 -0.30 -0.01    +0.120 C  BRANCH  22  23ATOM     23  N   UNL     1      32.138  39.921  19.139 -0.56 -0.04    -0.295 NA ATOM     24  C   UNL     1      32.307  39.061  17.948 -0.40 -0.01    +0.113 C  ATOM     25  C   UNL     1      31.267  39.263  20.139 -0.40 +0.02    +0.113 C  ATOM     26  C   UNL     1      32.268  37.570  18.309 -0.29 +0.03    +0.175 C  ATOM     27  C   UNL     1      30.315  38.219  19.532 -0.35 +0.03    +0.175 C  ATOM     28  O   UNL     1      30.995  37.168  18.834 -0.83 -0.19    -0.379 OA ENDBRANCH  22  23ENDBRANCH  21  22ENDBRANCH   3  16TORSDOF 3TERENDMDL