MODEL        9USER    Run = 9USERUSER    Estimated Free Energy of Binding    =  -6.93 kcal/mol  [=(1)+(2)+(3)-(4)]USERUSER    (1) Final Intermolecular Energy     = -10.50 kcal/molUSER        vdW + Hbond + desolv Energy     = -10.67 kcal/molUSER        Electrostatic Energy            =  -0.21 kcal/molUSER        Moving Ligand-Fixed Receptor    = -10.88 kcal/molUSER        Moving Ligand-Moving Receptor   =  +0.38 kcal/molUSER    (2) Final Total Internal Energy     =  -1.21 kcal/molUSER    (3) Torsional Free Energy           =  +3.58 kcal/molUSER    (4) Unbound System's Energy         =  -1.21 kcal/molUSERUSERREMARK SMILES NC=C1[C@@H](CCC(F)(F)F)C[C@H]1C1=c2c(=CCl)ccn2C=NC=C1REMARK SMILES IDX 13 1 12 3 3 4 4 5 11 6 2 7 1 8 5 11 6 12 7 13 8 14 9 15REMARK SMILES IDX 10 16 14 17 15 18 20 19 18 20 19 21 16 22 17 23 21 24 22 25REMARK SMILES IDX 23 26 24 27REMARK H PARENT 1 9 1 10REMARK Flexibility Score:   28.900USER                              x       y       z     vdW  Elec       q    TypeUSER                           _______ _______ _______ _____ _____    ______ ____ROOTATOM      1  C   UNL     1      39.105  46.907  16.509 -0.50 +0.00    -0.014 CG0ATOM      2  G   UNL     1      39.683  47.729  15.445 +0.00 +0.00    +0.000 G0 ENDROOTBRANCH   1   3ATOM      3  C   UNL     1      37.612  46.762  16.372 -0.40 -0.03    +0.050 C  ATOM      4  C   UNL     1      36.893  47.682  15.333 -0.46 +0.04    -0.044 C  ATOM      5  C   UNL     1      35.788  46.634  15.144 -0.40 -0.02    +0.018 C  ATOM      6  C   UNL     1      36.955  45.668  15.472 -0.41 -0.01    +0.021 C  BRANCH   4   7ATOM      7  C   UNL     1      37.029  48.859  14.714 -0.46 -0.07    +0.075 C  BRANCH   7   8ATOM      8  N   UNL     1      36.912  50.088  15.265 +0.02 +0.51    -0.405 N  ATOM      9  H   UNL     1      36.184  50.204  15.964 -0.30 -0.41    +0.156 HD ATOM     10  H   UNL     1      37.756  50.612  15.447 -0.42 -0.16    +0.156 HD ENDBRANCH   7   8ENDBRANCH   4   7BRANCH   5  11ATOM     11  C   UNL     1      35.179  46.489  13.750 -0.51 -0.01    +0.017 C  BRANCH  11  12ATOM     12  C   UNL     1      36.208  45.915  12.778 -0.54 -0.05    +0.116 C  BRANCH  12  13ATOM     13  C   UNL     1      36.974  47.004  12.060 -0.40 -0.13    +0.389 C  ATOM     14  F   UNL     1      36.262  48.148  11.998 -0.28 +0.08    -0.171 F  ATOM     15  F   UNL     1      37.285  46.634  10.799 -0.23 +0.05    -0.171 F  ATOM     16  F   UNL     1      38.130  47.273  12.705 -0.17 +0.02    -0.171 F  ENDBRANCH  12  13ENDBRANCH  11  12ENDBRANCH   5  11ENDBRANCH   1   3BRANCH   1  17ATOM     17  C   UNL     1      39.859  46.508  17.557 -0.43 -0.01    +0.058 A  ATOM     18  C   UNL     1      39.764  45.299  18.415 -0.43 -0.00    +0.012 A  ATOM     19  N   UNL     1      41.030  47.150  18.030 -0.31 +0.03    -0.307 N  ATOM     20  C   UNL     1      41.031  45.138  19.113 -0.42 +0.00    +0.029 A  ATOM     21  C   UNL     1      41.707  46.270  18.881 -0.43 +0.01    +0.093 A  BRANCH  18  22ATOM     22  C   UNL     1      38.648  44.648  18.762 -0.37 -0.01    +0.090 C  ATOM     23  Cl  UNL     1      38.039  44.482  20.359 -0.49 +0.00    -0.092 Cl ENDBRANCH  18  22BRANCH  19  24ATOM     24  C   UNL     1      41.579  48.333  17.575 -0.23 -0.00    +0.204 C  BRANCH  24  25ATOM     25  N   UNL     1      41.470  49.041  16.502 -0.94 -0.01    -0.246 NA BRANCH  25  26ATOM     26  C   UNL     1      40.647  48.656  15.490 -0.58 -0.02    +0.113 C  BRANCH  26  27ATOM     27  C   UNL     1      39.682  47.732  15.446 -0.58 -0.01    +0.026 CG0ATOM     28  G   UNL     1      39.105  46.911  16.511 +0.00 +0.00    +0.000 G0 ENDBRANCH  26  27ENDBRANCH  25  26ENDBRANCH  24  25ENDBRANCH  19  24ENDBRANCH   1  17TORSDOF 7TERENDMDL