MODEL        4USER    Run = 4USERUSER    Estimated Free Energy of Binding    =  -8.45 kcal/mol  [=(1)+(2)+(3)-(4)]USERUSER    (1) Final Intermolecular Energy     =  -9.64 kcal/molUSER        vdW + Hbond + desolv Energy     =  -9.61 kcal/molUSER        Electrostatic Energy            =  -0.03 kcal/molUSER        Moving Ligand-Fixed Receptor    =  -9.64 kcal/molUSER        Moving Ligand-Moving Receptor   =  +0.00 kcal/molUSER    (2) Final Total Internal Energy     =  -0.77 kcal/molUSER    (3) Torsional Free Energy           =  +1.19 kcal/molUSER    (4) Unbound System's Energy         =  -0.77 kcal/molUSERUSERREMARK SMILES Cc1c(=O)[nH]cc2ccc(CCC[C@H]3C=CNC3)nc12REMARK SMILES IDX 12 1 11 2 10 3 2 4 3 5 20 6 5 7 19 8 7 9 6 10 8 11 9 12 1 13REMARK SMILES IDX 4 14 13 16 14 17 15 18 18 19 16 20 17 21REMARK H PARENT 5 15 17 22USER                              x       y       z     vdW  Elec       q    TypeUSER                           _______ _______ _______ _____ _____    ______ ____ROOTATOM      1  C   UNL     1      35.667  44.900  15.644 -0.40 -0.00    +0.007 C  ENDROOTBRANCH   1   2ATOM      2  C   UNL     1      35.893  45.192  17.129 -0.35 -0.03    +0.056 C  BRANCH   2   3ATOM      3  C   UNL     1      37.333  45.573  17.431 -0.33 -0.01    +0.041 A  ATOM      4  C   UNL     1      39.691  48.005  16.369 -0.46 -0.01    +0.040 A  ATOM      5  C   UNL     1      41.111  48.364  16.655 -0.30 -0.02    +0.253 A  ATOM      6  C   UNL     1      39.141  46.960  17.020 -0.38 -0.02    +0.080 A  ATOM      7  N   UNL     1      41.763  47.584  17.576 -0.22 +0.03    -0.328 N  ATOM      8  N   UNL     1      37.832  46.587  16.792 -0.23 +0.11    -0.252 NA ATOM      9  C   UNL     1      39.917  46.178  17.992 -0.45 -0.00    +0.017 A  ATOM     10  C   UNL     1      41.194  46.525  18.227 -0.44 -0.00    +0.096 A  ATOM     11  C   UNL     1      39.321  45.055  18.686 -0.41 -0.00    +0.014 A  ATOM     12  C   UNL     1      38.050  44.733  18.431 -0.36 -0.00    +0.024 A  ATOM     13  C   UNL     1      38.992  48.859  15.358 -0.52 -0.03    +0.053 C  ATOM     14  O   UNL     1      41.674  49.304  16.105 -1.02 -0.03    -0.269 OA ATOM     15  H   UNL     1      42.726  47.841  17.755 -0.31 -0.01    +0.169 HD ENDBRANCH   2   3ENDBRANCH   1   2BRANCH   1  16ATOM     16  C   UNL     1      35.414  46.169  14.820 -0.44 -0.01    +0.010 C  BRANCH  16  17ATOM     17  C   UNL     1      36.626  46.560  13.963 -0.51 -0.02    +0.032 C  ATOM     18  C   UNL     1      36.698  45.729  12.703 -0.64 +0.00    -0.004 C  ATOM     19  C   UNL     1      36.559  48.009  13.402 -0.55 -0.06    +0.120 C  ATOM     20  C   UNL     1      36.552  46.507  11.628 -0.65 -0.03    +0.074 C  ATOM     21  N   UNL     1      36.350  47.821  11.965 -0.31 +0.18    -0.391 N  ATOM     22  H   UNL     1      36.793  48.493  11.344 -0.31 -0.05    +0.159 HD ENDBRANCH  16  17ENDBRANCH   1  16TORSDOF 4TERENDMDL