REMARK SMILES c1ncc(-c2ccc3[nH]ncc3c2)cc2c(n[nH]1)N[C@H]1OCCC[C@H]21
REMARK SMILES IDX 1 1 2 2 3 3 4 4 14 5 15 6 16 7 17 8 18 9 19 10 20 11 21 12
REMARK SMILES IDX 22 13 23 14 24 15 25 16 5 19 6 20 13 21 7 22 12 23 8 24
REMARK SMILES IDX 11 25 9 26 10 27
REMARK H PARENT 18 17 19 18 9 28
ROOT
ATOM      1  C   UNL     1       0.267  -2.659  -2.819  1.00  0.00     0.214 A 
ATOM      2  N   UNL     1       1.014  -1.656  -3.297  1.00  0.00    -0.245 NA
ATOM      3  C   UNL     1       1.591  -0.972  -2.279  1.00  0.00     0.121 A 
ATOM      4  C   UNL     1       1.180  -0.519  -1.070  1.00  0.00     0.000 A 
ATOM      5  C   UNL     1      -0.035  -0.436  -0.484  1.00  0.00     0.018 A 
ATOM      6  C   UNL     1      -1.342  -0.628  -0.763  1.00  0.00     0.005 A 
ATOM      7  C   UNL     1      -2.079  -1.053  -1.833  1.00  0.00     0.151 A 
ATOM      8  N   UNL     1      -1.938  -1.560  -3.074  1.00  0.00    -0.156 NA
ATOM      9  N   UNL     1      -1.071  -2.757  -3.129  1.00  0.00    -0.266 N 
ATOM     10  N   UNL     1      -3.457  -0.787  -1.622  1.00  0.00    -0.343 N 
ATOM     11  C   UNL     1      -3.530   0.249  -0.646  1.00  0.00     0.221 C 
ATOM     12  O   UNL     1      -4.755   0.317   0.078  1.00  0.00    -0.358 OA
ATOM     13  C   UNL     1      -4.676   1.387   1.022  1.00  0.00     0.163 C 
ATOM     14  C   UNL     1      -3.497   1.238   1.991  1.00  0.00     0.029 C 
ATOM     15  C   UNL     1      -2.169   0.973   1.268  1.00  0.00     0.015 C 
ATOM     16  C   UNL     1      -2.382  -0.170   0.276  1.00  0.00     0.073 C 
ATOM     17  H   UNL     1      -1.506  -3.450  -2.530  1.00  0.00     0.191 HD
ATOM     18  H   UNL     1      -3.833  -0.612  -2.546  1.00  0.00     0.164 HD
ENDROOT
BRANCH   4  19
ATOM     19  C   UNL     1       2.289   0.047  -0.243  1.00  0.00    -0.016 A 
ATOM     20  C   UNL     1       2.583   1.418  -0.305  1.00  0.00     0.011 A 
ATOM     21  C   UNL     1       3.032  -0.798   0.601  1.00  0.00     0.020 A 
ATOM     22  C   UNL     1       3.605   1.984   0.465  1.00  0.00     0.029 A 
ATOM     23  C   UNL     1       4.059  -0.244   1.383  1.00  0.00     0.020 A 
ATOM     24  C   UNL     1       4.319   1.119   1.299  1.00  0.00     0.065 A 
ATOM     25  C   UNL     1       5.000  -0.726   2.320  1.00  0.00     0.143 A 
ATOM     26  N   UNL     1       5.361   1.336   2.159  1.00  0.00    -0.278 N 
ATOM     27  N   UNL     1       5.792   0.237   2.807  1.00  0.00    -0.183 NA
ATOM     28  H   UNL     1       5.822   2.217   2.347  1.00  0.00     0.190 HD
ENDBRANCH   4  19
TORSDOF 1
