MODEL        2USER    Run = 2USERUSER    Estimated Free Energy of Binding    =  -9.40 kcal/mol  [=(1)+(2)+(3)-(4)]USERUSER    (1) Final Intermolecular Energy     = -12.38 kcal/molUSER        vdW + Hbond + desolv Energy     = -12.18 kcal/molUSER        Electrostatic Energy            =  -0.20 kcal/molUSER        Moving Ligand-Fixed Receptor    = -12.38 kcal/molUSER        Moving Ligand-Moving Receptor   =  +0.00 kcal/molUSER    (2) Final Total Internal Energy     =  -2.12 kcal/molUSER    (3) Torsional Free Energy           =  +2.98 kcal/molUSER    (4) Unbound System's Energy         =  -2.12 kcal/molUSERUSERREMARK SMILES CCOC(=O)NC=CC=C[C@@]1(CC)C[C@H]([C@H]2CCNC[C@@H]2OC)c2ccccc21REMARK SMILES IDX 8 1 7 2 6 3 4 4 5 5 3 7 2 8 1 9 9 10 10 11 11 12 14 13 29 14REMARK SMILES IDX 15 15 28 16 24 17 27 18 25 19 26 20 12 21 13 22 16 23 17 24REMARK SMILES IDX 21 25 18 26 20 27 19 28 22 30 23 31REMARK H PARENT 6 6 19 29USER                              x       y       z     vdW  Elec       q    TypeUSER                           _______ _______ _______ _____ _____    ______ ____ROOTATOM      1  C   UNL     1      38.709  47.866  14.061 -0.54 -0.01    +0.018 C  ENDROOTBRANCH   1   2ATOM      2  C   UNL     1      39.060  48.870  14.877 -0.39 -0.05    +0.089 C  BRANCH   2   3ATOM      3  N   UNL     1      39.866  48.752  15.977 -0.31 +0.11    -0.298 N  ATOM      4  C   UNL     1      41.171  49.165  16.028 -0.27 -0.04    +0.411 C  ATOM      5  O   UNL     1      41.797  49.691  15.119 -0.86 +0.01    -0.224 OA ATOM      6  H   UNL     1      39.521  48.331  16.827 +0.11 -0.07    +0.172 HD BRANCH   4   7ATOM      7  O   UNL     1      41.670  48.893  17.262 -0.71 -0.04    -0.450 OA BRANCH   7   8ATOM      8  C   UNL     1      41.455  47.544  17.695 -0.36 -0.02    +0.231 C  ATOM      9  C   UNL     1      42.412  47.253  18.834 -0.58 +0.00    +0.049 C  ENDBRANCH   7   8ENDBRANCH   4   7ENDBRANCH   2   3ENDBRANCH   1   2BRANCH   1  10ATOM     10  C   UNL     1      38.971  46.457  14.250 -0.48 +0.00    -0.002 C  BRANCH  10  11ATOM     11  C   UNL     1      38.072  45.478  14.458 -0.45 +0.00    -0.015 C  BRANCH  11  12ATOM     12  C   UNL     1      36.987  45.331  15.524 -0.41 -0.01    +0.014 C  ATOM     13  C   UNL     1      36.378  43.894  15.466 -0.43 -0.01    +0.024 C  ATOM     14  C   UNL     1      37.565  45.269  16.935 -0.34 +0.01    -0.034 A  ATOM     15  C   UNL     1      35.989  43.438  16.897 -0.41 -0.01    +0.026 C  ATOM     16  C   UNL     1      38.511  46.118  17.506 -0.39 -0.00    +0.005 A  ATOM     17  C   UNL     1      37.028  44.206  17.680 -0.29 +0.01    -0.040 A  ATOM     18  C   UNL     1      38.937  45.883  18.813 -0.36 -0.00    +0.000 A  ATOM     19  C   UNL     1      37.467  43.960  18.975 -0.28 -0.00    +0.004 A  ATOM     20  C   UNL     1      38.423  44.805  19.541 -0.37 -0.00    +0.000 A  BRANCH  12  21ATOM     21  C   UNL     1      35.888  46.424  15.431 -0.42 -0.01    +0.012 C  ATOM     22  C   UNL     1      35.262  46.621  14.052 -0.49 -0.00    +0.005 C  ENDBRANCH  12  21BRANCH  15  23ATOM     23  C   UNL     1      34.530  43.742  17.346 -0.36 -0.01    +0.028 C  ATOM     24  C   UNL     1      33.733  42.451  17.645 -0.43 -0.01    +0.022 C  ATOM     25  C   UNL     1      34.491  44.693  18.579 -0.34 -0.05    +0.135 C  ATOM     26  C   UNL     1      32.544  42.708  18.566 -0.36 -0.01    +0.081 C  ATOM     27  C   UNL     1      34.226  43.903  19.878 -0.34 -0.01    +0.113 C  ATOM     28  N   UNL     1      32.944  43.184  19.894 -0.73 -0.03    -0.314 NA ATOM     29  H   UNL     1      32.218  43.826  20.214 +0.04 +0.01    +0.122 HD BRANCH  25  30ATOM     30  O   UNL     1      33.445  45.657  18.349 -0.24 +0.20    -0.380 OA ATOM     31  C   UNL     1      33.902  47.002  18.353 -0.40 -0.19    +0.195 C  ENDBRANCH  25  30ENDBRANCH  15  23ENDBRANCH  11  12ENDBRANCH  10  11ENDBRANCH   1  10TORSDOF 10TERENDMDL