MODEL        10USER    Run = 10USERUSER    Estimated Free Energy of Binding    =  -5.46 kcal/mol  [=(1)+(2)+(3)-(4)]USERUSER    (1) Final Intermolecular Energy     =  -9.64 kcal/molUSER        vdW + Hbond + desolv Energy     = -10.07 kcal/molUSER        Electrostatic Energy            =  -0.25 kcal/molUSER        Moving Ligand-Fixed Receptor    = -10.32 kcal/molUSER        Moving Ligand-Moving Receptor   =  +0.69 kcal/molUSER    (2) Final Total Internal Energy     =  -4.37 kcal/molUSER    (3) Torsional Free Energy           =  +4.18 kcal/molUSER    (4) Unbound System's Energy         =  -4.37 kcal/molUSERUSERREMARK SMILES CC=CN=C1NC(=O)[C@H]2CC(=O)N[C@H](CC3CCCCC3)C(=O)N(CCN3CCCN3)[C@@]12CCREMARK SMILES IDX 5 1 6 2 7 3 8 4 9 5 32 6 4 9 3 10 2 11 1 12 24 13 22 14REMARK SMILES IDX 23 15 14 16 13 17 11 18 12 20 10 21 15 23 16 24 17 25 21 26REMARK SMILES IDX 18 27 20 28 19 29 25 30 26 31 27 32 28 33 31 34 29 35 30 36REMARK SMILES IDX 33 38 34 39REMARK H PARENT 6 7 13 19 31 37REMARK Flexibility Score:  124.900USER                              x       y       z     vdW  Elec       q    TypeUSER                           _______ _______ _______ _____ _____    ______ ____ROOTATOM      1  C   UNL     1      41.090  45.952  21.221 -0.27 +0.01    +0.135 C  ATOM      2  N   UNL     1      42.269  46.515  20.824 -0.19 -0.06    -0.312 N  ATOM      3  C   UNL     1      43.287  46.282  21.699 -0.23 +0.09    +0.231 C  ATOM      4  O   UNL     1      44.451  46.593  21.512 -0.63 -0.25    -0.274 OA ATOM      5  C   UNL     1      42.744  45.608  22.947 -0.15 +0.02    +0.121 CG0ATOM      6  C   UNL     1      41.365  45.080  22.451 -0.20 +0.01    +0.113 C  ATOM      7  H   UNL     1      42.414  47.024  19.966 +0.08 +0.03    +0.171 HD ATOM      8  G   UNL     1      42.782  46.588  24.129 +0.00 +0.00    +0.000 G0 ENDROOTBRANCH   1   9ATOM      9  N   UNL     1      39.936  46.045  20.645 -0.09 -0.01    -0.241 NA BRANCH   9  10ATOM     10  C   UNL     1      39.729  45.348  19.490 -0.39 -0.00    +0.108 C  BRANCH  10  11ATOM     11  C   UNL     1      40.498  45.531  18.411 -0.52 +0.00    -0.010 C  ATOM     12  C   UNL     1      40.636  46.832  17.693 -0.55 -0.00    +0.037 C  ENDBRANCH  10  11ENDBRANCH   9  10ENDBRANCH   1   9BRANCH   6  13ATOM     13  N   UNL     1      40.261  45.096  23.487 -0.04 -0.02    -0.326 N  BRANCH  13  14ATOM     14  C   UNL     1      39.371  46.147  23.737 -0.20 +0.02    +0.246 C  ATOM     15  O   UNL     1      38.153  45.933  23.722 -0.38 -0.05    -0.272 OA BRANCH  14  16ATOM     16  C   UNL     1      39.853  47.615  23.938 -0.27 +0.02    +0.171 C  BRANCH  16  17ATOM     17  N   UNL     1      41.052  48.063  23.230 -0.04 -0.05    -0.344 N  ATOM     18  C   UNL     1      42.297  47.977  23.784 -0.25 +0.04    +0.221 C  ATOM     19  H   UNL     1      40.929  49.004  22.869 +0.13 +0.03    +0.164 HD ATOM     20  O   UNL     1      42.993  48.979  23.890 -0.84 -0.09    -0.275 OA BRANCH  18  21ATOM     21  C   UNL     1      42.782  46.588  24.130 -0.12 +0.01    +0.116 CG0ATOM     22  G   UNL     1      42.732  45.611  22.946 +0.00 +0.00    +0.000 G0 ENDBRANCH  18  21ENDBRANCH  16  17BRANCH  16  23ATOM     23  C   UNL     1      40.017  47.920  25.453 -0.27 +0.00    +0.038 C  BRANCH  23  24ATOM     24  C   UNL     1      38.935  48.904  25.977 -0.28 -0.00    -0.009 C  ATOM     25  C   UNL     1      37.702  48.970  25.051 -0.48 +0.00    +0.004 C  ATOM     26  C   UNL     1      38.508  48.563  27.415 -0.27 -0.00    +0.004 C  ATOM     27  C   UNL     1      36.524  48.093  25.483 -0.43 -0.00    +0.000 C  ATOM     28  C   UNL     1      37.730  47.245  27.530 -0.25 -0.00    +0.000 C  ATOM     29  C   UNL     1      36.969  46.866  26.260 -0.36 -0.00    +0.000 C  ENDBRANCH  23  24ENDBRANCH  16  23ENDBRANCH  14  16ENDBRANCH  13  14BRANCH  13  30ATOM     30  C   UNL     1      40.317  44.113  24.601 -0.12 +0.00    +0.137 C  BRANCH  30  31ATOM     31  C   UNL     1      38.940  43.507  24.947 -0.18 +0.00    +0.124 C  BRANCH  31  32ATOM     32  N   UNL     1      38.439  42.624  23.884 -0.16 -0.02    -0.243 NA ATOM     33  C   UNL     1      37.132  42.049  24.204 -0.38 +0.00    +0.104 C  ATOM     34  N   UNL     1      38.238  43.345  22.643 -0.17 -0.02    -0.255 NA ATOM     35  C   UNL     1      36.581  41.656  22.842 -0.56 +0.00    +0.034 C  ATOM     36  C   UNL     1      37.422  42.430  21.840 -0.41 +0.00    +0.100 C  ATOM     37  H   UNL     1      37.710  44.212  22.792 +0.07 +0.01    +0.141 HD ENDBRANCH  31  32ENDBRANCH  30  31ENDBRANCH  13  30ENDBRANCH   6  13BRANCH   6  38ATOM     38  C   UNL     1      41.553  43.624  21.837 -0.36 +0.00    +0.034 C  ATOM     39  C   UNL     1      42.800  42.812  22.200 -0.31 -0.00    +0.007 C  ENDBRANCH   6  38TORSDOF 9TERENDMDL