REMARK SMILES C=C1C(C(=O)N[C@H](C(=O)O)[C@@H]2C[C@@H]2CF)=CC=C1[C@]1(C)N=C(C)O1
REMARK SMILES IDX 4 1 5 2 6 3 3 5 2 6 18 7 16 8 17 9 1 10 19 11 21 12 24 13
REMARK SMILES IDX 22 14 20 15 23 16 7 17 8 18 9 19 10 20 11 22 12 23 13 24
REMARK SMILES IDX 14 25 15 26
REMARK H PARENT 6 4 10 21
ROOT
ATOM      1  C   UNL     1      -0.855  -0.220  -1.755  1.00  0.00     0.252 C 
ATOM      2  O   UNL     1      -1.109  -0.368  -2.945  1.00  0.00    -0.269 OA
ATOM      3  N   UNL     1      -1.781  -0.376  -0.756  1.00  0.00    -0.338 N 
ATOM      4  H   UNL     1      -1.570   0.045   0.145  1.00  0.00     0.164 HD
ENDROOT
BRANCH   1   5
ATOM      5  C   UNL     1       0.475   0.231  -1.295  1.00  0.00     0.046 C 
ATOM      6  C   UNL     1       1.250  -0.155  -0.118  1.00  0.00    -0.011 C 
ATOM      7  C   UNL     1       2.490   0.614  -0.158  1.00  0.00     0.026 C 
ATOM      8  C   UNL     1       1.217   1.114  -1.986  1.00  0.00     0.015 C 
ATOM      9  C   UNL     1       2.455   1.363  -1.276  1.00  0.00     0.011 C 
ATOM     10  C   UNL     1       0.923  -1.065   0.808  1.00  0.00     0.018 C 
BRANCH   7  11
ATOM     11  C   UNL     1       3.590   0.623   0.824  1.00  0.00     0.228 C 
ATOM     12  N   UNL     1       4.901   0.853   0.217  1.00  0.00    -0.205 NA
ATOM     13  O   UNL     1       4.135  -0.649   1.203  1.00  0.00    -0.449 OA
ATOM     14  C   UNL     1       5.254  -0.334   0.570  1.00  0.00     0.187 C 
ATOM     15  C   UNL     1       3.354   1.518   2.031  1.00  0.00     0.090 C 
ATOM     16  C   UNL     1       6.455  -1.148   0.462  1.00  0.00     0.111 C 
ENDBRANCH   7  11
ENDBRANCH   1   5
BRANCH   3  17
ATOM     17  C   UNL     1      -3.193  -0.559  -1.069  1.00  0.00     0.195 C 
BRANCH  17  18
ATOM     18  C   UNL     1      -3.915   0.778  -1.310  1.00  0.00     0.326 C 
ATOM     19  O   UNL     1      -5.086   0.920  -1.633  1.00  0.00    -0.250 OA
BRANCH  18  20
ATOM     20  O   UNL     1      -3.151   1.875  -1.108  1.00  0.00    -0.480 OA
ATOM     21  H   UNL     1      -3.732   2.620  -1.368  1.00  0.00     0.296 HD
ENDBRANCH  18  20
ENDBRANCH  17  18
BRANCH  17  22
ATOM     22  C   UNL     1      -3.776  -1.453   0.004  1.00  0.00     0.029 C 
ATOM     23  C   UNL     1      -5.128  -1.263   0.658  1.00  0.00     0.013 C 
ATOM     24  C   UNL     1      -3.874  -1.068   1.475  1.00  0.00     0.026 C 
BRANCH  24  25
ATOM     25  C   UNL     1      -3.510   0.279   1.999  1.00  0.00     0.218 C 
ATOM     26  F   UNL     1      -2.172   0.452   1.815  1.00  0.00    -0.251 F 
ENDBRANCH  24  25
ENDBRANCH  17  22
ENDBRANCH   3  17
TORSDOF 7
