REMARK SMILES Cc1c(=O)[nH]cc2ccc(CCC[C@H]3C=CNC3)nc12
REMARK SMILES IDX 12 1 11 2 10 3 2 4 3 5 20 6 5 7 19 8 7 9 6 10 8 11 9 12 1 13
REMARK SMILES IDX 4 14 13 16 14 17 15 18 18 19 16 20 17 21
REMARK H PARENT 5 15 17 22
ROOT
ATOM      1  C   UNL     1       1.663   1.482  -1.217  1.00  0.00     0.007 C 
ENDROOT
BRANCH   1   2
ATOM      2  C   UNL     1       0.262   1.791  -1.748  1.00  0.00     0.056 C 
BRANCH   2   3
ATOM      3  C   UNL     1      -0.691   0.619  -1.581  1.00  0.00     0.041 A 
ATOM      4  C   UNL     1      -3.238  -0.402   0.671  1.00  0.00     0.040 A 
ATOM      5  C   UNL     1      -4.160  -1.563   0.842  1.00  0.00     0.253 A 
ATOM      6  C   UNL     1      -2.381  -0.400  -0.370  1.00  0.00     0.080 A 
ATOM      7  N   UNL     1      -4.060  -2.563  -0.092  1.00  0.00    -0.328 N 
ATOM      8  N   UNL     1      -1.508   0.649  -0.573  1.00  0.00    -0.252 NA
ATOM      9  C   UNL     1      -2.342  -1.518  -1.323  1.00  0.00     0.017 A 
ATOM     10  C   UNL     1      -3.183  -2.550  -1.142  1.00  0.00     0.096 A 
ATOM     11  C   UNL     1      -1.417  -1.511  -2.437  1.00  0.00     0.014 A 
ATOM     12  C   UNL     1      -0.591  -0.472  -2.591  1.00  0.00     0.024 A 
ATOM     13  C   UNL     1      -3.353   0.679   1.699  1.00  0.00     0.053 C 
ATOM     14  O   UNL     1      -4.969  -1.630   1.761  1.00  0.00    -0.269 OA
ATOM     15  H   UNL     1      -4.691  -3.344   0.041  1.00  0.00     0.169 HD
ENDBRANCH   2   3
ENDBRANCH   1   2
BRANCH   1  16
ATOM     16  C   UNL     1       1.695   1.305   0.307  1.00  0.00     0.010 C 
BRANCH  16  17
ATOM     17  C   UNL     1       3.125   1.171   0.849  1.00  0.00     0.032 C 
ATOM     18  C   UNL     1       3.137   1.111   2.359  1.00  0.00    -0.004 C 
ATOM     19  C   UNL     1       3.824  -0.162   0.458  1.00  0.00     0.120 C 
ATOM     20  C   UNL     1       3.603  -0.070   2.770  1.00  0.00     0.074 C 
ATOM     21  N   UNL     1       3.909  -0.899   1.721  1.00  0.00    -0.391 N 
ATOM     22  H   UNL     1       4.733  -1.477   1.861  1.00  0.00     0.159 HD
ENDBRANCH  16  17
ENDBRANCH   1  16
TORSDOF 4
