REMARK SMILES CCOC(=O)NC=CC=C[C@@]1(CC)C[C@H]([C@H]2CCNC[C@@H]2OC)c2ccccc21
REMARK SMILES IDX 8 1 7 2 6 3 4 4 5 5 3 7 2 8 1 9 9 10 10 11 11 12 14 13 29 14
REMARK SMILES IDX 15 15 28 16 24 17 27 18 25 19 26 20 12 21 13 22 16 23 17 24
REMARK SMILES IDX 21 25 18 26 20 27 19 28 22 30 23 31
REMARK H PARENT 6 6 19 29
ROOT
ATOM      1  C   UNL     1       2.724  -0.205  -0.670  1.00  0.00     0.018 C 
ENDROOT
BRANCH   1   2
ATOM      2  C   UNL     1       3.866  -0.792  -1.055  1.00  0.00     0.089 C 
BRANCH   2   3
ATOM      3  N   UNL     1       5.079  -0.650  -0.436  1.00  0.00    -0.298 N 
ATOM      4  C   UNL     1       6.231  -1.270  -0.840  1.00  0.00     0.411 C 
ATOM      5  O   UNL     1       6.348  -2.024  -1.795  1.00  0.00    -0.224 OA
ATOM      6  H   UNL     1       5.175  -0.067   0.382  1.00  0.00     0.172 HD
BRANCH   4   7
ATOM      7  O   UNL     1       7.239  -0.913  -0.002  1.00  0.00    -0.450 OA
BRANCH   7   8
ATOM      8  C   UNL     1       8.502  -1.512  -0.319  1.00  0.00     0.231 C 
ATOM      9  C   UNL     1       9.525  -1.022   0.687  1.00  0.00     0.049 C 
ENDBRANCH   7   8
ENDBRANCH   4   7
ENDBRANCH   2   3
ENDBRANCH   1   2
BRANCH   1  10
ATOM     10  C   UNL     1       2.539   0.689   0.450  1.00  0.00    -0.002 C 
BRANCH  10  11
ATOM     11  C   UNL     1       1.388   1.245   0.872  1.00  0.00    -0.015 C 
BRANCH  11  12
ATOM     12  C   UNL     1      -0.040   1.102   0.347  1.00  0.00     0.014 C 
ATOM     13  C   UNL     1      -0.484  -0.394   0.418  1.00  0.00     0.024 C 
ATOM     14  C   UNL     1      -1.072   1.685   1.309  1.00  0.00    -0.034 A 
ATOM     15  C   UNL     1      -2.001  -0.469   0.730  1.00  0.00     0.026 C 
ATOM     16  C   UNL     1      -1.046   2.930   1.934  1.00  0.00     0.005 A 
ATOM     17  C   UNL     1      -2.140   0.801   1.536  1.00  0.00    -0.040 A 
ATOM     18  C   UNL     1      -2.078   3.275   2.807  1.00  0.00     0.000 A 
ATOM     19  C   UNL     1      -3.158   1.138   2.420  1.00  0.00     0.004 A 
ATOM     20  C   UNL     1      -3.124   2.381   3.054  1.00  0.00     0.000 A 
BRANCH  12  21
ATOM     21  C   UNL     1      -0.228   1.690  -1.078  1.00  0.00     0.012 C 
ATOM     22  C   UNL     1       0.299   3.108  -1.285  1.00  0.00     0.005 C 
ENDBRANCH  12  21
BRANCH  15  23
ATOM     23  C   UNL     1      -2.957  -0.529  -0.497  1.00  0.00     0.028 C 
ATOM     24  C   UNL     1      -2.415  -1.452  -1.613  1.00  0.00     0.022 C 
ATOM     25  C   UNL     1      -4.394  -0.969  -0.088  1.00  0.00     0.135 C 
ATOM     26  C   UNL     1      -3.521  -1.943  -2.542  1.00  0.00     0.081 C 
ATOM     27  C   UNL     1      -4.633  -2.456  -0.426  1.00  0.00     0.113 C 
ATOM     28  N   UNL     1      -4.514  -2.776  -1.855  1.00  0.00    -0.314 NA
ATOM     29  H   UNL     1      -5.415  -2.598  -2.302  1.00  0.00     0.122 HD
BRANCH  25  30
ATOM     30  O   UNL     1      -5.323  -0.131  -0.803  1.00  0.00    -0.380 OA
ATOM     31  C   UNL     1      -6.615  -0.085  -0.214  1.00  0.00     0.195 C 
ENDBRANCH  25  30
ENDBRANCH  15  23
ENDBRANCH  11  12
ENDBRANCH  10  11
ENDBRANCH   1  10
TORSDOF 10
