MODEL        6USER    Run = 6USERUSER    Estimated Free Energy of Binding    =  -9.45 kcal/mol  [=(1)+(2)+(3)-(4)]USERUSER    (1) Final Intermolecular Energy     = -11.84 kcal/molUSER        vdW + Hbond + desolv Energy     = -11.42 kcal/molUSER        Electrostatic Energy            =  -0.41 kcal/molUSER        Moving Ligand-Fixed Receptor    = -11.84 kcal/molUSER        Moving Ligand-Moving Receptor   =  +0.00 kcal/molUSER    (2) Final Total Internal Energy     =  -1.73 kcal/molUSER    (3) Torsional Free Energy           =  +2.39 kcal/molUSER    (4) Unbound System's Energy         =  -1.73 kcal/molUSERUSERREMARK SMILES O=C1NC(=O)C(=Cc2ccc(-c3ccc(NCC4CCOCC4)nc3O)c(O)c2)S1REMARK SMILES IDX 8 1 9 2 10 3 11 4 27 5 29 6 7 7 6 8 2 9 3 10 30 11 4 12 1 13REMARK SMILES IDX 5 15 28 16 12 18 13 19 25 20 14 21 24 22 15 23 26 24 16 26REMARK SMILES IDX 17 28 18 29 19 30 23 31 20 32 22 33 21 34REMARK H PARENT 3 14 28 17 26 25 16 27USER                              x       y       z     vdW  Elec       q    TypeUSER                           _______ _______ _______ _____ _____    ______ ____ROOTATOM      1  C   UNL     1      31.445  40.730  17.940 -0.36 +0.00    -0.021 A  ATOM      2  C   UNL     1      30.938  41.995  17.644 -0.28 -0.00    +0.009 A  ATOM      3  C   UNL     1      31.809  43.072  17.439 -0.29 -0.00    +0.013 A  ATOM      4  C   UNL     1      33.209  42.923  17.524 -0.32 -0.01    +0.029 A  ATOM      5  C   UNL     1      33.686  41.641  17.856 -0.32 -0.04    +0.124 A  ATOM      6  C   UNL     1      32.825  40.557  18.044 -0.33 -0.01    +0.055 A  ENDROOTBRANCH   1   7ATOM      7  C   UNL     1      30.550  39.589  18.130 -0.41 +0.00    +0.029 C  BRANCH   7   8ATOM      8  C   UNL     1      30.508  38.806  19.217 -0.40 +0.01    +0.083 C  ATOM      9  C   UNL     1      29.964  37.091  20.984 -0.24 +0.02    +0.290 C  ATOM     10  N   UNL     1      31.087  37.801  21.246 -0.30 -0.03    -0.282 N  ATOM     11  S   UNL     1      29.273  37.614  19.463 -0.48 -0.01    -0.022 SA ATOM     12  C   UNL     1      31.454  38.781  20.371 -0.32 +0.06    +0.265 C  ATOM     13  O   UNL     1      29.483  36.223  21.695 -0.25 +0.01    -0.261 OA ATOM     14  H   UNL     1      31.606  37.651  22.096 +0.01 +0.00    +0.174 HD ATOM     15  O   UNL     1      32.410  39.518  20.546 -1.03 -0.17    -0.268 OA ENDBRANCH   7   8ENDBRANCH   1   7BRANCH   5  16ATOM     16  O   UNL     1      35.018  41.361  18.009 -0.24 +0.17    -0.507 OA ATOM     17  H   UNL     1      35.378  41.225  17.110 -0.30 -0.21    +0.293 HD ENDBRANCH   5  16BRANCH   4  18ATOM     18  C   UNL     1      34.082  44.081  17.224 -0.27 -0.02    +0.048 A  ATOM     19  C   UNL     1      33.839  45.333  17.799 -0.38 -0.01    +0.018 A  ATOM     20  C   UNL     1      35.199  44.039  16.395 -0.19 -0.09    +0.220 A  ATOM     21  C   UNL     1      34.684  46.415  17.533 -0.33 -0.05    +0.047 A  ATOM     22  N   UNL     1      36.038  45.056  16.114 -0.20 +0.10    -0.196 NA ATOM     23  C   UNL     1      35.772  46.247  16.681 -0.28 -0.11    +0.130 A  BRANCH  20  24ATOM     24  O   UNL     1      35.545  42.902  15.731 -0.21 +0.19    -0.493 OA ATOM     25  H   UNL     1      34.839  42.311  16.057 +0.13 -0.14    +0.295 HD ENDBRANCH  20  24BRANCH  23  26ATOM     26  N   UNL     1      36.612  47.353  16.464 -0.03 +0.36    -0.370 N  ATOM     27  H   UNL     1      36.034  48.146  16.203 +0.04 -0.30    +0.162 HD BRANCH  26  28ATOM     28  C   UNL     1      37.701  47.120  15.516 -0.40 -0.06    +0.118 C  BRANCH  28  29ATOM     29  C   UNL     1      38.907  48.009  15.857 -0.54 -0.01    +0.013 C  ATOM     30  C   UNL     1      39.855  48.216  14.671 -0.57 -0.01    +0.034 C  ATOM     31  C   UNL     1      39.693  47.410  17.040 -0.49 -0.01    +0.034 C  ATOM     32  C   UNL     1      41.027  49.120  15.059 -0.57 -0.03    +0.160 C  ATOM     33  C   UNL     1      41.166  47.806  17.027 -0.40 -0.02    +0.160 C  ATOM     34  O   UNL     1      41.325  49.098  16.455 -0.89 +0.01    -0.381 OA ENDBRANCH  28  29ENDBRANCH  26  28ENDBRANCH  23  26ENDBRANCH   4  18TORSDOF 8TERENDMDL