MODEL        10USER    Run = 10USERUSER    Estimated Free Energy of Binding    = -11.25 kcal/mol  [=(1)+(2)+(3)-(4)]USERUSER    (1) Final Intermolecular Energy     = -13.64 kcal/molUSER        vdW + Hbond + desolv Energy     = -13.50 kcal/molUSER        Electrostatic Energy            =  -0.14 kcal/molUSER        Moving Ligand-Fixed Receptor    = -13.64 kcal/molUSER        Moving Ligand-Moving Receptor   =  +0.00 kcal/molUSER    (2) Final Total Internal Energy     =  -1.40 kcal/molUSER    (3) Torsional Free Energy           =  +2.39 kcal/molUSER    (4) Unbound System's Energy         =  -1.40 kcal/molUSERUSERREMARK SMILES CNCc1cc(C=C2SC(=O)NC2=O)ccc1-c1ccc(NCC2CCOCC2)nc1CREMARK SMILES IDX 4 1 5 2 6 3 15 4 16 5 17 6 3 7 2 8 1 9 18 11 19 12 31 13REMARK SMILES IDX 20 14 30 15 21 16 32 17 22 18 23 20 24 21 25 22 29 23 26 24REMARK SMILES IDX 28 25 27 26 7 27 8 28 9 29 13 30 10 31 12 32 14 33 11 34REMARK H PARENT 2 10 22 19 12 35USER                              x       y       z     vdW  Elec       q    TypeUSER                           _______ _______ _______ _____ _____    ______ ____ROOTATOM      1  C   UNL     1      36.221  43.132  20.421 -0.43 +0.00    -0.026 A  ATOM      2  C   UNL     1      36.248  42.520  21.692 -0.42 +0.00    +0.013 A  ATOM      3  C   UNL     1      37.183  42.891  22.663 -0.40 -0.00    -0.024 A  ATOM      4  C   UNL     1      38.098  43.902  22.371 -0.34 +0.00    +0.009 A  ATOM      5  C   UNL     1      38.089  44.515  21.117 -0.36 +0.00    +0.010 A  ATOM      6  C   UNL     1      37.164  44.141  20.125 -0.38 +0.00    -0.012 A  ENDROOTBRANCH   1   7ATOM      7  C   UNL     1      35.191  42.651  19.415 -0.40 -0.01    +0.117 C  BRANCH   7   8ATOM      8  N   UNL     1      33.804  42.872  19.846 -0.64 -0.02    -0.316 NA ATOM      9  C   UNL     1      33.295  44.163  19.394 -0.43 -0.02    +0.101 C  ATOM     10  H   UNL     1      33.225  42.138  19.437 +0.07 +0.01    +0.122 HD ENDBRANCH   7   8ENDBRANCH   1   7BRANCH   6  11ATOM     11  C   UNL     1      37.212  44.826  18.826 -0.33 -0.00    +0.003 A  ATOM     12  C   UNL     1      36.079  45.491  18.346 -0.25 -0.00    +0.014 A  ATOM     13  C   UNL     1      38.358  44.862  18.019 -0.35 -0.01    +0.048 A  ATOM     14  C   UNL     1      36.114  46.136  17.114 -0.32 -0.03    +0.047 A  ATOM     15  N   UNL     1      38.394  45.485  16.809 -0.21 +0.06    -0.236 NA ATOM     16  C   UNL     1      37.282  46.101  16.369 -0.29 -0.06    +0.126 A  ATOM     17  C   UNL     1      39.639  44.201  18.445 -0.29 -0.00    +0.067 C  BRANCH  16  18ATOM     18  N   UNL     1      37.403  46.730  15.130 -0.12 +0.19    -0.370 N  ATOM     19  H   UNL     1      37.025  47.660  15.315 +0.12 -0.13    +0.162 HD BRANCH  18  20ATOM     20  C   UNL     1      38.770  46.786  14.617 -0.42 -0.03    +0.118 C  BRANCH  20  21ATOM     21  C   UNL     1      39.615  47.818  15.381 -0.59 -0.00    +0.013 C  ATOM     22  C   UNL     1      40.251  48.875  14.459 -0.55 -0.01    +0.034 C  ATOM     23  C   UNL     1      40.680  47.181  16.275 -0.51 -0.00    +0.034 C  ATOM     24  C   UNL     1      41.522  49.470  15.062 -0.54 -0.02    +0.160 C  ATOM     25  C   UNL     1      41.416  48.246  17.090 -0.40 -0.01    +0.160 C  ATOM     26  O   UNL     1      41.405  49.537  16.478 -0.98 +0.00    -0.381 OA ENDBRANCH  20  21ENDBRANCH  18  20ENDBRANCH  16  18ENDBRANCH   6  11BRANCH   3  27ATOM     27  C   UNL     1      37.153  42.238  23.975 -0.45 +0.00    +0.029 C  BRANCH  27  28ATOM     28  C   UNL     1      36.550  42.706  25.076 -0.40 -0.00    +0.083 C  ATOM     29  S   UNL     1      35.709  41.821  26.296 -0.69 +0.01    -0.022 SA ATOM     30  C   UNL     1      36.509  44.158  25.390 -0.18 +0.00    +0.265 C  ATOM     31  C   UNL     1      35.315  43.275  27.191 -0.37 -0.06    +0.290 C  ATOM     32  N   UNL     1      35.820  44.359  26.551 -0.17 +0.06    -0.282 N  ATOM     33  O   UNL     1      37.012  45.044  24.720 -0.56 -0.04    -0.268 OA ATOM     34  O   UNL     1      34.681  43.291  28.232 -0.50 +0.08    -0.261 OA ATOM     35  H   UNL     1      35.688  45.284  26.923 -0.40 -0.08    +0.174 HD ENDBRANCH  27  28ENDBRANCH   3  27TORSDOF 8TERENDMDL