MODEL        10USER    Run = 10USERUSER    Estimated Free Energy of Binding    =  -9.53 kcal/mol  [=(1)+(2)+(3)-(4)]USERUSER    (1) Final Intermolecular Energy     = -11.91 kcal/molUSER        vdW + Hbond + desolv Energy     = -11.71 kcal/molUSER        Electrostatic Energy            =  -0.20 kcal/molUSER        Moving Ligand-Fixed Receptor    = -11.91 kcal/molUSER        Moving Ligand-Moving Receptor   =  +0.00 kcal/molUSER    (2) Final Total Internal Energy     =  -1.86 kcal/molUSER    (3) Torsional Free Energy           =  +2.39 kcal/molUSER    (4) Unbound System's Energy         =  -1.86 kcal/molUSERUSERREMARK SMILES O=C1NC(=O)C(=Cc2ccc(-c3ccc(NCC4CCCC4)nc3O)c(O)c2)S1REMARK SMILES IDX 8 1 9 2 10 3 11 4 26 5 28 6 7 7 6 8 2 9 3 10 29 11 4 12 1 13REMARK SMILES IDX 5 15 27 16 12 18 13 19 24 20 14 21 23 22 15 23 25 24 16 26REMARK SMILES IDX 17 28 18 29 19 30 22 31 20 32 21 33REMARK H PARENT 3 14 27 17 25 25 16 27USER                              x       y       z     vdW  Elec       q    TypeUSER                           _______ _______ _______ _____ _____    ______ ____ROOTATOM      1  C   UNL     1      36.636  45.511  14.898 -0.37 +0.01    -0.021 A  ATOM      2  C   UNL     1      35.406  46.005  15.335 -0.35 -0.01    +0.009 A  ATOM      3  C   UNL     1      34.479  45.153  15.949 -0.31 -0.01    +0.013 A  ATOM      4  C   UNL     1      34.751  43.786  16.132 -0.34 -0.01    +0.029 A  ATOM      5  C   UNL     1      35.991  43.307  15.675 -0.33 -0.04    +0.124 A  ATOM      6  C   UNL     1      36.923  44.152  15.062 -0.21 -0.02    +0.055 A  ENDROOTBRANCH   1   7ATOM      7  C   UNL     1      37.615  46.371  14.224 -0.48 -0.01    +0.029 C  BRANCH   7   8ATOM      8  C   UNL     1      38.490  47.196  14.813 -0.47 -0.03    +0.083 C  ATOM      9  C   UNL     1      40.310  48.488  15.968 -0.40 -0.07    +0.290 C  ATOM     10  N   UNL     1      39.279  49.264  15.548 -0.27 +0.16    -0.282 N  ATOM     11  S   UNL     1      40.015  46.820  15.522 -0.64 +0.00    -0.022 SA ATOM     12  C   UNL     1      38.239  48.659  14.912 -0.34 -0.17    +0.265 C  ATOM     13  O   UNL     1      41.295  48.877  16.572 -0.94 +0.01    -0.261 OA ATOM     14  H   UNL     1      39.279  50.256  15.720 -0.35 -0.14    +0.174 HD ATOM     15  O   UNL     1      37.251  49.236  14.488 -0.45 +0.22    -0.268 OA ENDBRANCH   7   8ENDBRANCH   1   7BRANCH   5  16ATOM     16  O   UNL     1      36.298  41.981  15.836 -0.07 +0.20    -0.507 OA ATOM     17  H   UNL     1      35.488  41.489  16.042 -0.19 -0.17    +0.293 HD ENDBRANCH   5  16BRANCH   4  18ATOM     18  C   UNL     1      33.751  42.913  16.769 -0.33 -0.02    +0.048 A  ATOM     19  C   UNL     1      32.396  42.998  16.438 -0.30 -0.01    +0.018 A  ATOM     20  C   UNL     1      34.064  41.967  17.741 -0.25 -0.07    +0.220 A  ATOM     21  C   UNL     1      31.466  42.162  17.059 -0.27 -0.02    +0.047 A  ATOM     22  N   UNL     1      33.194  41.144  18.365 -0.29 +0.03    -0.196 NA ATOM     23  C   UNL     1      31.902  41.242  18.005 -0.28 -0.03    +0.130 A  BRANCH  20  24ATOM     24  O   UNL     1      35.340  41.776  18.168 -0.34 +0.13    -0.493 OA ATOM     25  H   UNL     1      35.579  41.011  17.617 -0.25 -0.18    +0.295 HD ENDBRANCH  20  24BRANCH  23  26ATOM     26  N   UNL     1      31.025  40.386  18.668 -0.11 +0.00    -0.370 N  ATOM     27  H   UNL     1      30.363  41.006  19.131 +0.12 -0.00    +0.162 HD BRANCH  26  28ATOM     28  C   UNL     1      31.637  39.446  19.607 -0.38 +0.02    +0.118 C  BRANCH  28  29ATOM     29  C   UNL     1      31.292  38.005  19.199 -0.55 +0.00    +0.008 C  ATOM     30  C   UNL     1      29.816  37.659  19.414 -0.43 +0.00    +0.005 C  ATOM     31  C   UNL     1      31.987  36.976  20.090 -0.59 +0.00    +0.005 C  ATOM     32  C   UNL     1      29.705  37.276  20.888 -0.42 +0.00    +0.000 C  ATOM     33  C   UNL     1      31.111  36.880  21.333 -0.53 +0.00    +0.000 C  ENDBRANCH  28  29ENDBRANCH  26  28ENDBRANCH  23  26ENDBRANCH   4  18TORSDOF 8TERENDMDL