REMARK SMILES O=C1NC(=O)C(=Cc2ccc(-c3ccc(NCC4CCOCC4)nc3O)c(O)c2)S1
REMARK SMILES IDX 8 1 9 2 10 3 11 4 27 5 29 6 7 7 6 8 2 9 3 10 30 11 4 12 1 13
REMARK SMILES IDX 5 15 28 16 12 18 13 19 25 20 14 21 24 22 15 23 26 24 16 26
REMARK SMILES IDX 17 28 18 29 19 30 23 31 20 32 22 33 21 34
REMARK H PARENT 3 14 28 17 26 25 16 27
ROOT
ATOM      1  C   UNL     1       5.270   0.912   0.603  1.00  0.00    -0.021 A 
ATOM      2  C   UNL     1       4.638   1.387  -0.546  1.00  0.00     0.009 A 
ATOM      3  C   UNL     1       3.245   1.308  -0.666  1.00  0.00     0.013 A 
ATOM      4  C   UNL     1       2.441   0.752   0.350  1.00  0.00     0.029 A 
ATOM      5  C   UNL     1       3.113   0.253   1.481  1.00  0.00     0.124 A 
ATOM      6  C   UNL     1       4.501   0.345   1.618  1.00  0.00     0.055 A 
ENDROOT
BRANCH   1   7
ATOM      7  C   UNL     1       6.721   1.012   0.756  1.00  0.00     0.029 C 
BRANCH   7   8
ATOM      8  C   UNL     1       7.618   0.159   0.242  1.00  0.00     0.083 C 
ATOM      9  C   UNL     1       9.693  -1.111  -0.424  1.00  0.00     0.290 C 
ATOM     10  N   UNL     1       8.545  -1.677  -0.868  1.00  0.00    -0.282 N 
ATOM     11  S   UNL     1       9.325   0.333   0.495  1.00  0.00    -0.022 SA
ATOM     12  C   UNL     1       7.364  -1.051  -0.593  1.00  0.00     0.265 C 
ATOM     13  O   UNL     1      10.822  -1.523  -0.633  1.00  0.00    -0.261 OA
ATOM     14  H   UNL     1       8.566  -2.507  -1.438  1.00  0.00     0.174 HD
ATOM     15  O   UNL     1       6.283  -1.443  -1.000  1.00  0.00    -0.268 OA
ENDBRANCH   7   8
ENDBRANCH   1   7
BRANCH   5  16
ATOM     16  O   UNL     1       2.463  -0.347   2.527  1.00  0.00    -0.507 OA
ATOM     17  H   UNL     1       1.732  -0.867   2.137  1.00  0.00     0.293 HD
ENDBRANCH   5  16
BRANCH   4  18
ATOM     18  C   UNL     1       0.968   0.763   0.198  1.00  0.00     0.048 A 
ATOM     19  C   UNL     1       0.294   1.923  -0.198  1.00  0.00     0.018 A 
ATOM     20  C   UNL     1       0.141  -0.338   0.401  1.00  0.00     0.220 A 
ATOM     21  C   UNL     1      -1.094   1.918  -0.366  1.00  0.00     0.047 A 
ATOM     22  N   UNL     1      -1.197  -0.385   0.248  1.00  0.00    -0.196 NA
ATOM     23  C   UNL     1      -1.813   0.750  -0.129  1.00  0.00     0.130 A 
BRANCH  20  24
ATOM     24  O   UNL     1       0.642  -1.531   0.825  1.00  0.00    -0.493 OA
ATOM     25  H   UNL     1      -0.168  -2.073   0.755  1.00  0.00     0.295 HD
ENDBRANCH  20  24
BRANCH  23  26
ATOM     26  N   UNL     1      -3.203   0.782  -0.339  1.00  0.00    -0.370 N 
ATOM     27  H   UNL     1      -3.586   1.567   0.180  1.00  0.00     0.162 HD
BRANCH  26  28
ATOM     28  C   UNL     1      -3.896  -0.472  -0.046  1.00  0.00     0.118 C 
BRANCH  28  29
ATOM     29  C   UNL     1      -5.384  -0.360  -0.416  1.00  0.00     0.013 C 
ATOM     30  C   UNL     1      -6.164   0.578   0.511  1.00  0.00     0.034 C 
ATOM     31  C   UNL     1      -6.042  -1.753  -0.403  1.00  0.00     0.034 C 
ATOM     32  C   UNL     1      -7.632   0.666   0.090  1.00  0.00     0.160 C 
ATOM     33  C   UNL     1      -7.538  -1.694  -0.111  1.00  0.00     0.160 C 
ATOM     34  O   UNL     1      -8.092  -0.486  -0.617  1.00  0.00    -0.381 OA
ENDBRANCH  28  29
ENDBRANCH  26  28
ENDBRANCH  23  26
ENDBRANCH   4  18
TORSDOF 8
