REMARK SMILES O=C1NC(=O)C(=Cc2ccc(-c3ccc(NCC4CCCC4)nc3O)c(O)c2)S1
REMARK SMILES IDX 8 1 9 2 10 3 11 4 26 5 28 6 7 7 6 8 2 9 3 10 29 11 4 12 1 13
REMARK SMILES IDX 5 15 27 16 12 18 13 19 24 20 14 21 23 22 15 23 25 24 16 26
REMARK SMILES IDX 17 28 18 29 19 30 22 31 20 32 21 33
REMARK H PARENT 3 14 27 17 25 25 16 27
ROOT
ATOM      1  C   UNL     1       4.862  -0.375  -0.614  1.00  0.00    -0.021 A 
ATOM      2  C   UNL     1       4.332   0.912  -0.723  1.00  0.00     0.009 A 
ATOM      3  C   UNL     1       2.951   1.120  -0.623  1.00  0.00     0.013 A 
ATOM      4  C   UNL     1       2.063   0.049  -0.422  1.00  0.00     0.029 A 
ATOM      5  C   UNL     1       2.616  -1.240  -0.325  1.00  0.00     0.124 A 
ATOM      6  C   UNL     1       3.995  -1.455  -0.423  1.00  0.00     0.055 A 
ENDROOT
BRANCH   1   7
ATOM      7  C   UNL     1       6.301  -0.628  -0.746  1.00  0.00     0.029 C 
BRANCH   7   8
ATOM      8  C   UNL     1       7.271  -0.145   0.042  1.00  0.00     0.083 C 
ATOM      9  C   UNL     1       8.860   0.905   1.681  1.00  0.00     0.290 C 
ATOM     10  N   UNL     1       9.475   0.131   0.752  1.00  0.00    -0.282 N 
ATOM     11  S   UNL     1       7.128   0.878   1.421  1.00  0.00    -0.022 SA
ATOM     12  C   UNL     1       8.701  -0.482  -0.186  1.00  0.00     0.265 C 
ATOM     13  O   UNL     1       9.415   1.536   2.564  1.00  0.00    -0.261 OA
ATOM     14  H   UNL     1      10.477   0.030   0.748  1.00  0.00     0.174 HD
ATOM     15  O   UNL     1       9.125  -1.200  -1.077  1.00  0.00    -0.268 OA
ENDBRANCH   7   8
ENDBRANCH   1   7
BRANCH   5  16
ATOM     16  O   UNL     1       1.786  -2.313  -0.126  1.00  0.00    -0.507 OA
ATOM     17  H   UNL     1       2.322  -3.100   0.057  1.00  0.00     0.293 HD
ENDBRANCH   5  16
BRANCH   4  18
ATOM     18  C   UNL     1       0.614   0.297  -0.333  1.00  0.00     0.048 A 
ATOM     19  C   UNL     1      -0.280  -0.292  -1.231  1.00  0.00     0.018 A 
ATOM     20  C   UNL     1       0.033   1.131   0.618  1.00  0.00     0.220 A 
ATOM     21  C   UNL     1      -1.649  -0.038  -1.130  1.00  0.00     0.047 A 
ATOM     22  N   UNL     1      -1.283   1.403   0.746  1.00  0.00    -0.196 NA
ATOM     23  C   UNL     1      -2.113   0.801  -0.124  1.00  0.00     0.130 A 
BRANCH  20  24
ATOM     24  O   UNL     1       0.779   1.777   1.553  1.00  0.00    -0.493 OA
ATOM     25  H   UNL     1       0.070   2.243   2.028  1.00  0.00     0.295 HD
ENDBRANCH  20  24
BRANCH  23  26
ATOM     26  N   UNL     1      -3.465   1.103   0.026  1.00  0.00    -0.370 N 
ATOM     27  H   UNL     1      -3.502   1.720   0.836  1.00  0.00     0.162 HD
BRANCH  26  28
ATOM     28  C   UNL     1      -4.363  -0.042   0.174  1.00  0.00     0.118 C 
BRANCH  28  29
ATOM     29  C   UNL     1      -5.367  -0.069  -0.990  1.00  0.00     0.008 C 
ATOM     30  C   UNL     1      -6.414   1.044  -0.903  1.00  0.00     0.005 C 
ATOM     31  C   UNL     1      -6.241  -1.323  -0.962  1.00  0.00     0.005 C 
ATOM     32  C   UNL     1      -7.487   0.513   0.044  1.00  0.00     0.000 C 
ATOM     33  C   UNL     1      -7.345  -1.008   0.040  1.00  0.00     0.000 C 
ENDBRANCH  28  29
ENDBRANCH  26  28
ENDBRANCH  23  26
ENDBRANCH   4  18
TORSDOF 8
