MODEL        1USER    Run = 1USERUSER    Estimated Free Energy of Binding    = -10.65 kcal/mol  [=(1)+(2)+(3)-(4)]USERUSER    (1) Final Intermolecular Energy     = -12.44 kcal/molUSER        vdW + Hbond + desolv Energy     = -12.30 kcal/molUSER        Electrostatic Energy            =  -0.13 kcal/molUSER        Moving Ligand-Fixed Receptor    = -12.44 kcal/molUSER        Moving Ligand-Moving Receptor   =  +0.00 kcal/molUSER    (2) Final Total Internal Energy     =  -0.97 kcal/molUSER    (3) Torsional Free Energy           =  +1.79 kcal/molUSER    (4) Unbound System's Energy         =  -0.97 kcal/molUSERUSERREMARK SMILES O=C1NC(=O)C(=Cc2ccc(-c3ccc(NCC4CCCC4)nc3)cc2)S1REMARK SMILES IDX 8 1 9 2 10 3 11 4 25 5 26 6 7 7 6 8 2 9 3 10 27 11 4 12 1 13REMARK SMILES IDX 5 15 12 16 13 17 24 18 14 19 23 20 15 21 16 22 17 24 18 25REMARK SMILES IDX 19 26 22 27 20 28 21 29REMARK H PARENT 3 14 16 23USER                              x       y       z     vdW  Elec       q    TypeUSER                           _______ _______ _______ _____ _____    ______ ____ROOTATOM      1  C   UNL     1      40.031  45.638  18.399 -0.44 +0.00    -0.024 A  ATOM      2  C   UNL     1      38.694  45.239  18.335 -0.39 -0.00    +0.009 A  ATOM      3  C   UNL     1      38.084  44.629  19.437 -0.36 -0.00    +0.009 A  ATOM      4  C   UNL     1      38.794  44.410  20.629 -0.34 -0.00    -0.017 A  ATOM      5  C   UNL     1      40.135  44.823  20.681 -0.35 +0.00    +0.009 A  ATOM      6  C   UNL     1      40.747  45.433  19.581 -0.42 +0.00    +0.009 A  ENDROOTBRANCH   1   7ATOM      7  C   UNL     1      40.642  46.299  17.244 -0.52 -0.00    +0.029 C  BRANCH   7   8ATOM      8  C   UNL     1      40.054  47.202  16.446 -0.51 -0.02    +0.083 C  ATOM      9  C   UNL     1      38.578  48.439  14.815 -0.36 -0.15    +0.290 C  ATOM     10  N   UNL     1      39.593  49.190  15.307 -0.28 +0.14    -0.282 N  ATOM     11  S   UNL     1      38.642  46.834  15.508 -0.59 +0.01    -0.022 SA ATOM     12  C   UNL     1      40.462  48.614  16.187 -0.40 -0.06    +0.265 C  ATOM     13  O   UNL     1      37.741  48.807  14.009 -0.52 +0.14    -0.261 OA ATOM     14  H   UNL     1      39.719  50.143  15.009 -0.26 -0.15    +0.174 HD ATOM     15  O   UNL     1      41.420  49.196  16.667 -1.06 -0.00    -0.268 OA ENDBRANCH   7   8ENDBRANCH   1   7BRANCH   4  16ATOM     16  C   UNL     1      38.153  43.767  21.784 -0.35 +0.00    +0.000 A  ATOM     17  C   UNL     1      38.529  44.058  23.098 -0.29 +0.00    +0.014 A  ATOM     18  C   UNL     1      37.127  42.834  21.638 -0.35 +0.01    +0.122 A  ATOM     19  C   UNL     1      37.891  43.427  24.167 -0.28 +0.00    +0.047 A  ATOM     20  N   UNL     1      36.493  42.205  22.659 -0.32 -0.02    -0.239 NA ATOM     21  C   UNL     1      36.888  42.502  23.909 -0.33 +0.01    +0.125 A  BRANCH  21  22ATOM     22  N   UNL     1      36.197  41.844  24.929 -0.18 +0.04    -0.370 N  ATOM     23  H   UNL     1      36.031  40.922  24.528 -0.14 -0.05    +0.162 HD BRANCH  22  24ATOM     24  C   UNL     1      36.937  41.755  26.186 -0.38 -0.02    +0.118 C  BRANCH  24  25ATOM     25  C   UNL     1      36.250  42.534  27.312 -0.54 -0.00    +0.008 C  ATOM     26  C   UNL     1      36.590  44.022  27.367 -0.47 -0.00    +0.005 C  ATOM     27  C   UNL     1      34.724  42.545  27.272 -0.64 -0.00    +0.005 C  ATOM     28  C   UNL     1      35.513  44.624  28.269 -0.56 -0.00    +0.000 C  ATOM     29  C   UNL     1      34.354  43.626  28.282 -0.67 -0.00    +0.000 C  ENDBRANCH  24  25ENDBRANCH  22  24ENDBRANCH  21  22ENDBRANCH   4  16TORSDOF 6TERENDMDL