MODEL        2USER    Run = 2USERUSER    Estimated Free Energy of Binding    = -10.55 kcal/mol  [=(1)+(2)+(3)-(4)]USERUSER    (1) Final Intermolecular Energy     = -12.34 kcal/molUSER        vdW + Hbond + desolv Energy     = -12.25 kcal/molUSER        Electrostatic Energy            =  -0.09 kcal/molUSER        Moving Ligand-Fixed Receptor    = -12.34 kcal/molUSER        Moving Ligand-Moving Receptor   =  +0.00 kcal/molUSER    (2) Final Total Internal Energy     =  -1.45 kcal/molUSER    (3) Torsional Free Energy           =  +1.79 kcal/molUSER    (4) Unbound System's Energy         =  -1.45 kcal/molUSERUSERREMARK SMILES C[C@@H]1N=C(CCc2ccc(C(=O)N3CCN(CC(N)=O)CC3)cc2)c2cccc(F)c2N1CREMARK SMILES IDX 7 1 8 2 9 3 10 4 23 5 24 6 6 7 5 8 4 9 2 10 3 11 32 12 31 13REMARK SMILES IDX 25 14 29 15 26 16 28 17 27 18 1 19 33 20 30 21 11 22 13 23REMARK SMILES IDX 14 24 22 25 15 26 21 27 16 28 12 29 17 30 18 31 19 32 20 33REMARK H PARENT 19 34 19 35USER                              x       y       z     vdW  Elec       q    TypeUSER                           _______ _______ _______ _____ _____    ______ ____ROOTATOM      1  C   UNL     1      39.051  44.718  21.201 -0.31 -0.00    -0.048 A  ATOM      2  C   UNL     1      39.723  43.878  22.099 -0.27 +0.00    +0.004 A  ATOM      3  C   UNL     1      39.005  43.047  22.961 -0.28 +0.00    +0.014 A  ATOM      4  C   UNL     1      37.607  43.064  22.935 -0.35 +0.00    +0.040 A  ATOM      5  C   UNL     1      36.928  43.873  22.022 -0.37 +0.00    +0.014 A  ATOM      6  C   UNL     1      37.649  44.704  21.164 -0.31 +0.00    +0.004 A  ENDROOTBRANCH   1   7ATOM      7  C   UNL     1      39.824  45.607  20.254 -0.37 +0.00    +0.042 C  BRANCH   7   8ATOM      8  C   UNL     1      40.071  44.919  18.909 -0.45 -0.00    +0.061 C  BRANCH   8   9ATOM      9  C   UNL     1      39.144  45.420  17.806 -0.44 -0.01    +0.047 C  ATOM     10  C   UNL     1      37.156  45.314  16.561 -0.28 -0.08    +0.197 C  ATOM     11  N   UNL     1      38.014  44.820  17.637 -0.19 +0.06    -0.265 NA ATOM     12  N   UNL     1      37.835  45.949  15.437 -0.12 +0.13    -0.350 N  ATOM     13  C   UNL     1      38.884  46.804  15.780 -0.38 -0.03    +0.084 A  ATOM     14  C   UNL     1      39.577  46.586  16.987 -0.45 -0.00    +0.022 A  ATOM     15  C   UNL     1      39.337  47.874  14.985 -0.41 -0.05    +0.147 A  ATOM     16  C   UNL     1      40.628  47.423  17.396 -0.51 -0.00    +0.012 A  ATOM     17  C   UNL     1      40.395  48.698  15.375 -0.56 -0.01    +0.041 A  ATOM     18  C   UNL     1      41.035  48.482  16.587 -0.56 -0.00    +0.004 A  ATOM     19  C   UNL     1      36.100  46.238  17.177 -0.37 -0.04    +0.057 C  ATOM     20  C   UNL     1      37.073  46.151  14.213 -0.38 -0.07    +0.146 C  ATOM     21  F   UNL     1      38.748  48.160  13.812 -0.16 +0.06    -0.205 F  ENDBRANCH   8   9ENDBRANCH   7   8ENDBRANCH   1   7BRANCH   4  22ATOM     22  C   UNL     1      36.822  42.171  23.818 -0.32 +0.01    +0.253 C  ATOM     23  N   UNL     1      36.604  42.544  25.148 -0.19 +0.01    -0.336 N  ATOM     24  C   UNL     1      35.772  41.633  25.938 -0.36 -0.03    +0.135 C  ATOM     25  C   UNL     1      36.552  43.954  25.562 -0.33 -0.00    +0.135 C  ATOM     26  C   UNL     1      35.870  41.883  27.454 -0.54 -0.04    +0.106 C  ATOM     27  C   UNL     1      36.636  44.128  27.091 -0.39 -0.02    +0.106 C  ATOM     28  N   UNL     1      35.697  43.291  27.863 -0.27 +0.09    -0.291 NA ATOM     29  O   UNL     1      36.389  41.128  23.331 -0.37 +0.01    -0.269 OA BRANCH  28  30ATOM     30  C   UNL     1      34.309  43.773  27.722 -0.43 -0.03    +0.184 C  BRANCH  30  31ATOM     31  C   UNL     1      33.932  44.750  28.841 -0.48 -0.03    +0.231 C  ATOM     32  N   UNL     1      34.916  45.627  29.213 -0.18 +0.09    -0.369 N  ATOM     33  O   UNL     1      32.835  44.787  29.389 -0.72 -0.03    -0.274 OA ATOM     34  H   UNL     1      35.886  45.489  28.969 +0.07 -0.03    +0.159 HD ATOM     35  H   UNL     1      34.708  46.219  30.006 -0.23 -0.05    +0.159 HD ENDBRANCH  30  31ENDBRANCH  28  30ENDBRANCH   4  22TORSDOF 6TERENDMDL