REMARK SMILES C[C@@H]1N=C(CCc2ccc(C(=O)N3CCN(CC(N)=O)CC3)cc2)c2cccc(F)c2N1C
REMARK SMILES IDX 7 1 8 2 9 3 10 4 23 5 24 6 6 7 5 8 4 9 2 10 3 11 32 12 31 13
REMARK SMILES IDX 25 14 29 15 26 16 28 17 27 18 1 19 33 20 30 21 11 22 13 23
REMARK SMILES IDX 14 24 22 25 15 26 21 27 16 28 12 29 17 30 18 31 19 32 20 33
REMARK H PARENT 19 34 19 35
ROOT
ATOM      1  C   UNL     1      -0.428  -0.170  -0.111  1.00  0.00    -0.048 A 
ATOM      2  C   UNL     1       0.326  -0.558   1.005  1.00  0.00     0.004 A 
ATOM      3  C   UNL     1       1.609  -0.044   1.205  1.00  0.00     0.014 A 
ATOM      4  C   UNL     1       2.148   0.853   0.278  1.00  0.00     0.040 A 
ATOM      5  C   UNL     1       1.394   1.271  -0.820  1.00  0.00     0.014 A 
ATOM      6  C   UNL     1       0.113   0.754  -1.018  1.00  0.00     0.004 A 
ENDROOT
BRANCH   1   7
ATOM      7  C   UNL     1      -1.823  -0.710  -0.322  1.00  0.00     0.042 C 
BRANCH   7   8
ATOM      8  C   UNL     1      -2.885   0.228   0.257  1.00  0.00     0.061 C 
BRANCH   8   9
ATOM      9  C   UNL     1      -4.309  -0.222  -0.051  1.00  0.00     0.047 C 
ATOM     10  C   UNL     1      -5.883  -1.859  -0.650  1.00  0.00     0.197 C 
ATOM     11  N   UNL     1      -4.509  -1.463  -0.344  1.00  0.00    -0.265 NA
ATOM     12  N   UNL     1      -6.745  -0.818  -1.199  1.00  0.00    -0.350 N 
ATOM     13  C   UNL     1      -6.624   0.435  -0.596  1.00  0.00     0.084 A 
ATOM     14  C   UNL     1      -5.405   0.785   0.017  1.00  0.00     0.022 A 
ATOM     15  C   UNL     1      -7.635   1.415  -0.577  1.00  0.00     0.147 A 
ATOM     16  C   UNL     1      -5.228   2.023   0.656  1.00  0.00     0.012 A 
ATOM     17  C   UNL     1      -7.460   2.657   0.039  1.00  0.00     0.041 A 
ATOM     18  C   UNL     1      -6.260   2.959   0.667  1.00  0.00     0.004 A 
ATOM     19  C   UNL     1      -6.490  -2.489   0.608  1.00  0.00     0.057 C 
ATOM     20  C   UNL     1      -7.994  -1.233  -1.821  1.00  0.00     0.146 C 
ATOM     21  F   UNL     1      -8.832   1.183  -1.141  1.00  0.00    -0.205 F 
ENDBRANCH   8   9
ENDBRANCH   7   8
ENDBRANCH   1   7
BRANCH   4  22
ATOM     22  C   UNL     1       3.494   1.435   0.481  1.00  0.00     0.253 C 
ATOM     23  N   UNL     1       4.590   0.582   0.646  1.00  0.00    -0.336 N 
ATOM     24  C   UNL     1       5.893   1.237   0.787  1.00  0.00     0.135 C 
ATOM     25  C   UNL     1       4.628  -0.760   0.047  1.00  0.00     0.135 C 
ATOM     26  C   UNL     1       6.987   0.300   1.329  1.00  0.00     0.106 C 
ATOM     27  C   UNL     1       5.758  -1.636   0.622  1.00  0.00     0.106 C 
ATOM     28  N   UNL     1       7.090  -1.000   0.636  1.00  0.00    -0.291 NA
ATOM     29  O   UNL     1       3.587   2.661   0.493  1.00  0.00    -0.269 OA
BRANCH  28  30
ATOM     30  C   UNL     1       7.647  -0.893  -0.726  1.00  0.00     0.184 C 
BRANCH  30  31
ATOM     31  C   UNL     1       9.110  -0.439  -0.706  1.00  0.00     0.231 C 
ATOM     32  N   UNL     1       9.350   0.797  -1.245  1.00  0.00    -0.369 N 
ATOM     33  O   UNL     1      10.035  -1.099  -0.243  1.00  0.00    -0.274 OA
ATOM     34  H   UNL     1       8.684   1.269  -1.839  1.00  0.00     0.159 HD
ATOM     35  H   UNL     1      10.322   1.071  -1.314  1.00  0.00     0.159 HD
ENDBRANCH  30  31
ENDBRANCH  28  30
ENDBRANCH   4  22
TORSDOF 6
