REMARK SMILES Cc1cc(-c2nn(-c3ccc(O)cc3)c3c2CCN3c2ncncn2)ccc1F
REMARK SMILES IDX 5 1 6 2 7 3 15 4 16 5 17 6 18 7 19 8 4 9 2 10 3 11 28 12
REMARK SMILES IDX 27 13 26 14 1 15 29 16 8 17 9 18 14 19 10 20 13 21 11 22
REMARK SMILES IDX 12 23 20 25 21 26 25 27 22 28 24 29 23 30
REMARK H PARENT 12 24
ROOT
ATOM      1  C   UNL     1       1.454  -0.244   0.032  1.00  0.00     0.098 A 
ATOM      2  N   UNL     1       0.627   0.821  -0.030  1.00  0.00    -0.166 NA
ATOM      3  N   UNL     1      -0.620   0.370   0.339  1.00  0.00    -0.216 N 
ATOM      4  C   UNL     1      -0.583  -0.997   0.458  1.00  0.00     0.143 A 
ATOM      5  C   UNL     1       0.715  -1.393   0.344  1.00  0.00     0.025 A 
ATOM      6  C   UNL     1       0.834  -2.845   0.554  1.00  0.00     0.064 C 
ATOM      7  C   UNL     1      -0.676  -3.267   0.734  1.00  0.00     0.132 C 
ATOM      8  N   UNL     1      -1.474  -2.001   0.671  1.00  0.00    -0.294 N 
ENDROOT
BRANCH   1   9
ATOM      9  C   UNL     1       2.892  -0.096  -0.218  1.00  0.00     0.003 A 
ATOM     10  C   UNL     1       4.870   1.346  -0.342  1.00  0.00    -0.015 A 
ATOM     11  C   UNL     1       3.498   1.170  -0.109  1.00  0.00     0.016 A 
ATOM     12  C   UNL     1       5.640   0.230  -0.666  1.00  0.00     0.126 A 
ATOM     13  C   UNL     1       5.064  -1.031  -0.784  1.00  0.00     0.040 A 
ATOM     14  C   UNL     1       3.694  -1.194  -0.564  1.00  0.00     0.013 A 
ATOM     15  C   UNL     1       5.510   2.692  -0.192  1.00  0.00     0.047 C 
ATOM     16  F   UNL     1       6.958   0.361  -0.873  1.00  0.00    -0.207 F 
ENDBRANCH   1   9
BRANCH   3  17
ATOM     17  C   UNL     1      -1.645   1.310   0.641  1.00  0.00     0.067 A 
ATOM     18  C   UNL     1      -2.765   0.953   1.402  1.00  0.00     0.032 A 
ATOM     19  C   UNL     1      -1.505   2.640   0.208  1.00  0.00     0.032 A 
ATOM     20  C   UNL     1      -3.747   1.905   1.693  1.00  0.00     0.048 A 
ATOM     21  C   UNL     1      -2.488   3.589   0.502  1.00  0.00     0.048 A 
ATOM     22  C   UNL     1      -3.604   3.210   1.240  1.00  0.00     0.115 A 
BRANCH  22  23
ATOM     23  O   UNL     1      -4.587   4.102   1.549  1.00  0.00    -0.508 OA
ATOM     24  H   UNL     1      -4.345   4.967   1.181  1.00  0.00     0.293 HD
ENDBRANCH  22  23
ENDBRANCH   3  17
BRANCH   8  25
ATOM     25  C   UNL     1      -2.700  -2.153  -0.002  1.00  0.00     0.234 A 
ATOM     26  N   UNL     1      -3.423  -3.248   0.253  1.00  0.00    -0.201 NA
ATOM     27  N   UNL     1      -3.102  -1.206  -0.853  1.00  0.00    -0.201 NA
ATOM     28  C   UNL     1      -4.588  -3.334  -0.386  1.00  0.00     0.227 A 
ATOM     29  C   UNL     1      -4.284  -1.402  -1.430  1.00  0.00     0.227 A 
ATOM     30  N   UNL     1      -5.079  -2.448  -1.242  1.00  0.00    -0.225 NA
ENDBRANCH   8  25
TORSDOF 4
