MODEL        6USER    Run = 6USERUSER    Estimated Free Energy of Binding    = -10.91 kcal/mol  [=(1)+(2)+(3)-(4)]USERUSER    (1) Final Intermolecular Energy     = -12.40 kcal/molUSER        vdW + Hbond + desolv Energy     = -12.31 kcal/molUSER        Electrostatic Energy            =  -0.10 kcal/molUSER        Moving Ligand-Fixed Receptor    = -12.40 kcal/molUSER        Moving Ligand-Moving Receptor   =  +0.00 kcal/molUSER    (2) Final Total Internal Energy     =  -1.61 kcal/molUSER    (3) Torsional Free Energy           =  +1.49 kcal/molUSER    (4) Unbound System's Energy         =  -1.61 kcal/molUSERUSERREMARK SMILES CN1CCCC[C@@H]1Cc1ccc2c(c1)CN(S(=O)(=O)c1ccc(F)cc1F)c1ccccc1[C@@H]2C(N)=OREMARK SMILES IDX 9 1 10 2 11 3 12 4 13 5 14 6 15 7 16 8 28 9 29 10 30 11REMARK SMILES IDX 31 12 32 13 33 14 34 15 8 16 7 17 2 18 3 19 4 20 6 21 5 22REMARK SMILES IDX 1 23 35 24 36 25 37 26 17 29 18 30 19 31 20 32 21 33 26 34REMARK SMILES IDX 22 35 25 36 23 37 27 38 24 39REMARK H PARENT 36 27 36 28USER                              x       y       z     vdW  Elec       q    TypeUSER                           _______ _______ _______ _____ _____    ______ ____ROOTATOM      1  C   UNL     1      40.187  45.355  19.010 -0.42 +0.00    -0.046 A  ATOM      2  C   UNL     1      41.078  45.965  18.125 -0.49 -0.00    +0.004 A  ATOM      3  C   UNL     1      40.608  46.698  17.033 -0.49 -0.00    +0.005 A  ATOM      4  C   UNL     1      39.231  46.860  16.806 -0.43 +0.01    -0.026 A  ATOM      5  C   UNL     1      38.334  46.227  17.688 -0.34 +0.01    -0.023 A  ATOM      6  C   UNL     1      38.815  45.483  18.778 -0.40 -0.00    +0.009 A  ATOM      7  C   UNL     1      36.866  46.224  17.356 -0.23 -0.08    +0.171 C  ATOM      8  N   UNL     1      36.645  45.408  16.154 -0.16 +0.12    -0.261 N  ATOM      9  C   UNL     1      36.924  45.930  14.821 -0.35 -0.03    +0.057 A  ATOM     10  C   UNL     1      36.193  45.413  13.729 -0.39 -0.01    +0.027 A  ATOM     11  C   UNL     1      36.367  45.871  12.423 -0.60 -0.00    +0.002 A  ATOM     12  C   UNL     1      37.272  46.882  12.173 -0.62 -0.00    +0.000 A  ATOM     13  C   UNL     1      37.997  47.427  13.230 -0.48 -0.00    +0.007 A  ATOM     14  C   UNL     1      37.869  46.969  14.569 -0.44 +0.00    -0.007 A  ATOM     15  C   UNL     1      38.667  47.714  15.664 -0.44 -0.06    +0.141 C  ENDROOTBRANCH   1  16ATOM     16  C   UNL     1      40.702  44.548  20.183 -0.39 +0.00    +0.054 C  BRANCH  16  17ATOM     17  C   UNL     1      39.585  44.090  21.156 -0.27 +0.00    +0.060 C  ATOM     18  N   UNL     1      38.810  45.221  21.717 -0.18 -0.02    -0.303 NA ATOM     19  C   UNL     1      37.669  44.765  22.532 -0.33 +0.01    +0.084 C  ATOM     20  C   UNL     1      37.724  43.301  22.982 -0.40 +0.00    +0.016 C  ATOM     21  C   UNL     1      40.136  43.160  22.260 -0.25 +0.00    +0.019 C  ATOM     22  C   UNL     1      39.135  42.910  23.392 -0.31 +0.00    +0.003 C  ATOM     23  C   UNL     1      39.618  46.202  22.441 -0.23 +0.01    +0.105 C  ENDBRANCH  16  17ENDBRANCH   1  16BRANCH  15  24ATOM     24  C   UNL     1      39.735  48.718  15.159 -0.42 -0.09    +0.229 C  ATOM     25  N   UNL     1      39.675  49.973  15.710 -0.01 +0.23    -0.369 N  ATOM     26  O   UNL     1      40.618  48.470  14.342 -0.37 +0.05    -0.274 OA ATOM     27  H   UNL     1      40.452  50.579  15.471 -0.17 -0.09    +0.159 HD ATOM     28  H   UNL     1      39.272  50.105  16.629 +0.15 -0.10    +0.159 HD ENDBRANCH  15  24BRANCH   8  29ATOM     29  S   UNL     1      36.065  43.826  16.434 -0.36 -0.10    +0.267 S  ATOM     30  O   UNL     1      36.303  43.490  17.825 -0.23 +0.05    -0.201 OA ATOM     31  O   UNL     1      36.499  42.956  15.362 -0.40 +0.07    -0.201 OA BRANCH  29  32ATOM     32  C   UNL     1      34.301  43.969  16.296 -0.25 -0.06    +0.123 A  ATOM     33  C   UNL     1      33.668  45.116  15.802 -0.31 -0.02    +0.028 A  ATOM     34  C   UNL     1      33.543  42.876  16.710 -0.25 -0.06    +0.146 A  ATOM     35  C   UNL     1      32.274  45.149  15.722 -0.34 -0.03    +0.041 A  ATOM     36  C   UNL     1      32.154  42.908  16.632 -0.26 -0.03    +0.080 A  ATOM     37  C   UNL     1      31.532  44.045  16.137 -0.25 -0.05    +0.126 A  ATOM     38  F   UNL     1      34.126  41.776  17.201 -0.13 +0.10    -0.205 F  ATOM     39  F   UNL     1      30.196  44.085  16.057 -0.04 +0.09    -0.207 F  ENDBRANCH  29  32ENDBRANCH   8  29TORSDOF 5TERENDMDL