REMARK SMILES CN1CCCC[C@@H]1Cc1ccc2c(c1)CN(S(=O)(=O)c1ccc(F)cc1F)c1ccccc1[C@@H]2C(N)=O
REMARK SMILES IDX 9 1 10 2 11 3 12 4 13 5 14 6 15 7 16 8 28 9 29 10 30 11
REMARK SMILES IDX 31 12 32 13 33 14 34 15 8 16 7 17 2 18 3 19 4 20 6 21 5 22
REMARK SMILES IDX 1 23 35 24 36 25 37 26 17 29 18 30 19 31 20 32 21 33 26 34
REMARK SMILES IDX 22 35 25 36 23 37 27 38 24 39
REMARK H PARENT 36 27 36 28
ROOT
ATOM      1  C   UNL     1       1.787   0.175   1.290  1.00  0.00    -0.046 A 
ATOM      2  C   UNL     1       1.849  -1.068   1.923  1.00  0.00     0.004 A 
ATOM      3  C   UNL     1       0.929  -2.073   1.612  1.00  0.00     0.005 A 
ATOM      4  C   UNL     1      -0.068  -1.870   0.643  1.00  0.00    -0.026 A 
ATOM      5  C   UNL     1      -0.141  -0.609   0.021  1.00  0.00    -0.023 A 
ATOM      6  C   UNL     1       0.781   0.400   0.346  1.00  0.00     0.009 A 
ATOM      7  C   UNL     1      -1.313  -0.305  -0.873  1.00  0.00     0.171 C 
ATOM      8  N   UNL     1      -2.537  -0.250  -0.061  1.00  0.00    -0.261 N 
ATOM      9  C   UNL     1      -3.213  -1.466   0.376  1.00  0.00     0.057 A 
ATOM     10  C   UNL     1      -4.605  -1.417   0.610  1.00  0.00     0.027 A 
ATOM     11  C   UNL     1      -5.342  -2.535   1.000  1.00  0.00     0.002 A 
ATOM     12  C   UNL     1      -4.706  -3.749   1.149  1.00  0.00     0.000 A 
ATOM     13  C   UNL     1      -3.337  -3.838   0.909  1.00  0.00     0.007 A 
ATOM     14  C   UNL     1      -2.546  -2.717   0.538  1.00  0.00    -0.007 A 
ATOM     15  C   UNL     1      -1.053  -2.964   0.217  1.00  0.00     0.141 C 
ENDROOT
BRANCH   1  16
ATOM     16  C   UNL     1       2.776   1.265   1.642  1.00  0.00     0.054 C 
BRANCH  16  17
ATOM     17  C   UNL     1       4.148   1.105   0.937  1.00  0.00     0.060 C 
ATOM     18  N   UNL     1       5.209   1.941   1.544  1.00  0.00    -0.303 NA
ATOM     19  C   UNL     1       6.534   1.678   0.952  1.00  0.00     0.084 C 
ATOM     20  C   UNL     1       6.519   0.944  -0.394  1.00  0.00     0.016 C 
ATOM     21  C   UNL     1       4.035   1.329  -0.588  1.00  0.00     0.019 C 
ATOM     22  C   UNL     1       5.395   1.455  -1.281  1.00  0.00     0.003 C 
ATOM     23  C   UNL     1       4.912   3.373   1.559  1.00  0.00     0.105 C 
ENDBRANCH  16  17
ENDBRANCH   1  16
BRANCH  15  24
ATOM     24  C   UNL     1      -0.503  -4.365   0.589  1.00  0.00     0.229 C 
ATOM     25  N   UNL     1       0.191  -5.011  -0.403  1.00  0.00    -0.369 N 
ATOM     26  O   UNL     1      -0.622  -4.911   1.683  1.00  0.00    -0.274 OA
ATOM     27  H   UNL     1       0.654  -5.864  -0.110  1.00  0.00     0.159 HD
ATOM     28  H   UNL     1       0.654  -4.478  -1.128  1.00  0.00     0.159 HD
ENDBRANCH  15  24
BRANCH   8  29
ATOM     29  S   UNL     1      -3.087   1.317   0.338  1.00  0.00     0.267 S 
ATOM     30  O   UNL     1      -1.989   2.248   0.158  1.00  0.00    -0.201 OA
ATOM     31  O   UNL     1      -3.838   1.265   1.574  1.00  0.00    -0.201 OA
BRANCH  29  32
ATOM     32  C   UNL     1      -4.242   1.723  -0.947  1.00  0.00     0.123 A 
ATOM     33  C   UNL     1      -4.441   0.915  -2.073  1.00  0.00     0.028 A 
ATOM     34  C   UNL     1      -4.963   2.906  -0.800  1.00  0.00     0.146 A 
ATOM     35  C   UNL     1      -5.372   1.304  -3.039  1.00  0.00     0.041 A 
ATOM     36  C   UNL     1      -5.890   3.295  -1.762  1.00  0.00     0.080 A 
ATOM     37  C   UNL     1      -6.087   2.488  -2.874  1.00  0.00     0.126 A 
ATOM     38  F   UNL     1      -4.777   3.703   0.260  1.00  0.00    -0.205 F 
ATOM     39  F   UNL     1      -6.977   2.853  -3.805  1.00  0.00    -0.207 F 
ENDBRANCH  29  32
ENDBRANCH   8  29
TORSDOF 5
