MODEL        4USER    Run = 4USERUSER    Estimated Free Energy of Binding    =  -9.99 kcal/mol  [=(1)+(2)+(3)-(4)]USERUSER    (1) Final Intermolecular Energy     = -11.18 kcal/molUSER        vdW + Hbond + desolv Energy     = -11.08 kcal/molUSER        Electrostatic Energy            =  -0.10 kcal/molUSER        Moving Ligand-Fixed Receptor    = -11.18 kcal/molUSER        Moving Ligand-Moving Receptor   =  +0.00 kcal/molUSER    (2) Final Total Internal Energy     =  -1.12 kcal/molUSER    (3) Torsional Free Energy           =  +1.19 kcal/molUSER    (4) Unbound System's Energy         =  -1.12 kcal/molUSERUSERREMARK SMILES Cc1cc(-c2nn(-c3ccc(O)cc3)c3c2CCN3c2ncncn2)ccc1FREMARK SMILES IDX 5 1 6 2 7 3 15 4 16 5 17 6 18 7 19 8 4 9 2 10 3 11 28 12REMARK SMILES IDX 27 13 26 14 1 15 29 16 8 17 9 18 14 19 10 20 13 21 11 22REMARK SMILES IDX 12 23 20 25 21 26 25 27 22 28 24 29 23 30REMARK H PARENT 12 24USER                              x       y       z     vdW  Elec       q    TypeUSER                           _______ _______ _______ _____ _____    ______ ____ROOTATOM      1  C   UNL     1      36.936  44.730  18.394 -0.28 -0.02    +0.098 A  ATOM      2  N   UNL     1      38.123  45.306  18.106 -0.28 +0.03    -0.166 NA ATOM      3  N   UNL     1      37.892  46.175  17.064 -0.25 +0.08    -0.216 N  ATOM      4  C   UNL     1      36.608  45.999  16.611 -0.26 -0.08    +0.143 A  ATOM      5  C   UNL     1      35.972  45.158  17.472 -0.32 -0.01    +0.025 A  ATOM      6  C   UNL     1      34.558  45.000  17.092 -0.34 -0.04    +0.064 C  ATOM      7  C   UNL     1      34.486  45.853  15.767 -0.18 -0.14    +0.132 C  ATOM      8  N   UNL     1      35.847  46.451  15.580 -0.17 +0.26    -0.294 N  ENDROOTBRANCH   1   9ATOM      9  C   UNL     1      36.804  43.804  19.525 -0.37 -0.00    +0.003 A  ATOM     10  C   UNL     1      37.480  43.127  21.781 -0.39 -0.00    -0.015 A  ATOM     11  C   UNL     1      37.581  43.994  20.683 -0.37 -0.00    +0.016 A  ATOM     12  C   UNL     1      36.570  42.073  21.717 -0.44 +0.01    +0.126 A  ATOM     13  C   UNL     1      35.793  41.862  20.581 -0.40 -0.00    +0.040 A  ATOM     14  C   UNL     1      35.912  42.722  19.487 -0.39 -0.00    +0.013 A  ATOM     15  C   UNL     1      38.288  43.356  23.021 -0.34 +0.00    +0.047 C  ATOM     16  F   UNL     1      36.433  41.240  22.758 -0.20 -0.01    -0.207 F  ENDBRANCH   1   9BRANCH   3  17ATOM     17  C   UNL     1      38.885  47.134  16.717 -0.38 -0.02    +0.067 A  ATOM     18  C   UNL     1      38.663  48.089  15.718 -0.46 -0.02    +0.032 A  ATOM     19  C   UNL     1      40.097  47.155  17.430 -0.45 -0.01    +0.032 A  ATOM     20  C   UNL     1      39.655  49.027  15.412 -0.46 -0.02    +0.048 A  ATOM     21  C   UNL     1      41.085  48.094  17.122 -0.49 -0.01    +0.048 A  ATOM     22  C   UNL     1      40.855  49.021  16.111 -0.49 -0.02    +0.115 A  BRANCH  22  23ATOM     23  O   UNL     1      41.790  49.954  15.778 -0.76 -0.01    -0.508 OA ATOM     24  H   UNL     1      41.642  50.746  16.318 -0.28 -0.06    +0.293 HD ENDBRANCH  22  23ENDBRANCH   3  17BRANCH   8  25ATOM     25  C   UNL     1      36.251  46.495  14.233 -0.26 -0.15    +0.234 A  ATOM     26  N   UNL     1      36.562  45.342  13.634 -0.30 +0.08    -0.201 NA ATOM     27  N   UNL     1      36.299  47.671  13.602 -0.41 +0.13    -0.201 NA ATOM     28  C   UNL     1      36.911  45.431  12.352 -0.37 -0.08    +0.227 A  ATOM     29  C   UNL     1      36.660  47.634  12.323 -0.44 -0.08    +0.227 A  ATOM     30  N   UNL     1      36.983  46.545  11.636 -0.54 +0.07    -0.225 NA ENDBRANCH   8  25TORSDOF 4TERENDMDL