MODEL        10USER    Run = 10USERUSER    Estimated Free Energy of Binding    =  -2.87 kcal/mol  [=(1)+(2)+(3)-(4)]USERUSER    (1) Final Intermolecular Energy     =  -6.75 kcal/molUSER        vdW + Hbond + desolv Energy     =  -8.12 kcal/molUSER        Electrostatic Energy            =  -0.04 kcal/molUSER        Moving Ligand-Fixed Receptor    =  -8.15 kcal/molUSER        Moving Ligand-Moving Receptor   =  +1.41 kcal/molUSER    (2) Final Total Internal Energy     =  -0.74 kcal/molUSER    (3) Torsional Free Energy           =  +3.88 kcal/molUSER    (4) Unbound System's Energy         =  -0.74 kcal/molUSERUSERREMARK SMILES CC=C1C(C)=C[C@@H](F)S(=O)(=O)N2C=CC(N3CCOCC3)=C(Cl)C(Cl)=C12REMARK SMILES IDX 13 1 12 2 26 3 3 5 2 6 1 7 4 8 5 9 9 11 10 12 11 13 7 14REMARK SMILES IDX 8 15 6 16 14 18 15 19 16 20 17 21 21 22 18 23 20 24 19 25REMARK SMILES IDX 22 26 23 27 24 28 25 29REMARK H PARENTREMARK Flexibility Score:   44.800USER                              x       y       z     vdW  Elec       q    TypeUSER                           _______ _______ _______ _____ _____    ______ ____ROOTATOM      1  C   UNL     1      37.582  43.473  22.275 -0.37 +0.01    +0.106 C  ENDROOTBRANCH   1   2ATOM      2  N   UNL     1      38.216  44.753  22.161 -0.23 -0.02    -0.241 N  BRANCH   2   3ATOM      3  C   UNL     1      39.293  44.835  21.194 -0.34 +0.00    +0.084 CG1ATOM      4  G   UNL     1      38.981  44.584  19.901 +0.00 +0.00    +0.000 G1 BRANCH   3   5ATOM      5  C   UNL     1      40.650  45.107  21.688 -0.32 -0.00    -0.001 C  BRANCH   5   6ATOM      6  C   UNL     1      41.254  46.266  21.344 -0.29 -0.00    -0.020 C  ATOM      7  C   UNL     1      42.690  46.651  21.516 -0.37 +0.01    +0.036 C  ENDBRANCH   5   6BRANCH   5   8ATOM      8  C   UNL     1      41.273  44.170  22.611 -0.25 -0.00    -0.042 CG0ATOM      9  C   UNL     1      42.355  43.293  22.033 -0.36 +0.00    +0.045 C  ATOM     10  G   UNL     1      40.869  44.052  23.887 +0.00 +0.00    +0.000 G0 ENDBRANCH   5   8ENDBRANCH   3   5ENDBRANCH   2   3BRANCH   2  11ATOM     11  S   UNL     1      38.445  45.569  23.654 -0.29 +0.03    +0.275 S  ATOM     12  O   UNL     1      37.174  45.473  24.360 -0.58 -0.05    -0.203 OA ATOM     13  O   UNL     1      38.982  46.890  23.382 -0.32 -0.03    -0.203 OA BRANCH  11  14ATOM     14  C   UNL     1      39.651  44.574  24.607 -0.05 +0.01    +0.329 C  ATOM     15  F   UNL     1      40.060  45.230  25.737 +0.00 -0.01    -0.223 F  BRANCH  14  16ATOM     16  C   UNL     1      40.862  44.046  23.886 -0.18 +0.00    +0.032 CG0ATOM     17  G   UNL     1      41.267  44.167  22.610 +0.00 +0.00    +0.000 G0 ENDBRANCH  14  16ENDBRANCH  11  14ENDBRANCH   2  11ENDBRANCH   1   2BRANCH   1  18ATOM     18  C   UNL     1      36.903  42.994  21.226 -0.46 +0.00    +0.046 C  BRANCH  18  19ATOM     19  C   UNL     1      36.645  43.664  19.951 -0.42 -0.00    +0.059 C  BRANCH  19  20ATOM     20  N   UNL     1      35.358  43.424  19.431 -0.14 +0.04    -0.366 N  ATOM     21  C   UNL     1      35.019  42.193  18.679 -0.36 -0.03    +0.145 C  ATOM     22  C   UNL     1      34.260  44.414  19.484 -0.34 -0.03    +0.145 C  ATOM     23  C   UNL     1      33.500  41.967  18.661 -0.33 -0.02    +0.181 C  ATOM     24  C   UNL     1      33.396  44.319  18.216 -0.28 -0.06    +0.181 C  ATOM     25  O   UNL     1      32.778  43.036  18.031 -0.10 +0.09    -0.378 OA ENDBRANCH  19  20BRANCH  19  26ATOM     26  C   UNL     1      37.617  44.420  19.378 -0.36 -0.01    +0.085 C  ATOM     27  Cl  UNL     1      37.265  45.400  17.965 -0.48 +0.02    -0.080 Cl BRANCH  26  28ATOM     28  C   UNL     1      38.972  44.585  19.903 -0.36 -0.00    +0.087 CG1ATOM     29  Cl  UNL     1      40.252  44.397  18.707 -0.54 +0.00    -0.080 Cl ATOM     30  G   UNL     1      39.295  44.838  21.193 +0.00 +0.00    +0.000 G1 ENDBRANCH  26  28ENDBRANCH  19  26ENDBRANCH  18  19ENDBRANCH   1  18TORSDOF 2TERENDMDL