REMARK SMILES CC=C1C(C)=C[C@@H](F)S(=O)(=O)N2C=CC(N3CCOCC3)=C(Cl)C(Cl)=C12
REMARK SMILES IDX 13 1 12 2 26 3 3 5 2 6 1 7 4 8 5 9 9 11 10 12 11 13 7 14
REMARK SMILES IDX 8 15 6 16 14 18 15 19 16 20 17 21 21 22 18 23 20 24 19 25
REMARK SMILES IDX 22 26 23 27 24 28 25 29
REMARK H PARENT
REMARK Flexibility Score:   44.800
ROOT
ATOM      1  C   UNL     1       0.124  -1.403  -0.403  1.00  0.00     0.106 C 
ENDROOT
BRANCH   1   2
ATOM      2  N   UNL     1      -0.673  -0.345  -0.949  1.00  0.00    -0.241 N 
BRANCH   2   3
ATOM      3  C   UNL     1      -1.248   0.569   0.019  1.00  0.00     0.084 CG1
ATOM      4  G   UNL     1      -0.386   1.272   0.790  1.00  0.00     0.000 G1
BRANCH   3   5
ATOM      5  C   UNL     1      -2.711   0.615   0.147  1.00  0.00    -0.001 C 
BRANCH   5   6
ATOM      6  C   UNL     1      -3.366   1.744  -0.202  1.00  0.00    -0.020 C 
ATOM      7  C   UNL     1      -4.843   1.978  -0.265  1.00  0.00     0.036 C 
ENDBRANCH   5   6
BRANCH   5   8
ATOM      8  C   UNL     1      -3.428  -0.585   0.553  1.00  0.00    -0.042 CG0
ATOM      9  C   UNL     1      -4.044  -0.553   1.929  1.00  0.00     0.045 C 
ATOM     10  G   UNL     1      -3.487  -1.678  -0.227  1.00  0.00     0.000 G0
ENDBRANCH   5   8
ENDBRANCH   3   5
ENDBRANCH   2   3
BRANCH   2  11
ATOM     11  S   UNL     1      -1.669  -0.812  -2.267  1.00  0.00     0.275 S 
ATOM     12  O   UNL     1      -0.816  -1.592  -3.155  1.00  0.00    -0.203 OA
ATOM     13  O   UNL     1      -2.316   0.373  -2.801  1.00  0.00    -0.203 OA
BRANCH  11  14
ATOM     14  C   UNL     1      -2.916  -1.969  -1.589  1.00  0.00     0.329 C 
ATOM     15  F   UNL     1      -3.947  -2.165  -2.468  1.00  0.00    -0.223 F 
BRANCH  14  16
ATOM     16  C   UNL     1      -3.487  -1.678  -0.227  1.00  0.00     0.032 CG0
ATOM     17  G   UNL     1      -3.428  -0.585   0.553  1.00  0.00     0.000 G0
ENDBRANCH  14  16
ENDBRANCH  11  14
ENDBRANCH   2  11
ENDBRANCH   1   2
BRANCH   1  18
ATOM     18  C   UNL     1       1.251  -1.092   0.248  1.00  0.00     0.046 C 
BRANCH  18  19
ATOM     19  C   UNL     1       1.857   0.232   0.396  1.00  0.00     0.059 C 
BRANCH  19  20
ATOM     20  N   UNL     1       3.261   0.231   0.290  1.00  0.00    -0.366 N 
ATOM     21  C   UNL     1       3.985  -0.595  -0.706  1.00  0.00     0.145 C 
ATOM     22  C   UNL     1       4.150   0.957   1.224  1.00  0.00     0.145 C 
ATOM     23  C   UNL     1       5.405  -0.056  -0.931  1.00  0.00     0.181 C 
ATOM     24  C   UNL     1       5.444   0.160   1.455  1.00  0.00     0.181 C 
ATOM     25  O   UNL     1       6.207  -0.065   0.260  1.00  0.00    -0.378 OA
ENDBRANCH  19  20
BRANCH  19  26
ATOM     26  C   UNL     1       1.067   1.312   0.628  1.00  0.00     0.085 C 
ATOM     27  Cl  UNL     1       1.750   2.930   0.626  1.00  0.00    -0.080 Cl
BRANCH  26  28
ATOM     28  C   UNL     1      -0.386   1.272   0.790  1.00  0.00     0.087 CG1
ATOM     29  Cl  UNL     1      -1.001   2.219   2.143  1.00  0.00    -0.080 Cl
ATOM     30  G   UNL     1      -1.248   0.569   0.019  1.00  0.00     0.000 G1
ENDBRANCH  26  28
ENDBRANCH  19  26
ENDBRANCH  18  19
ENDBRANCH   1  18
TORSDOF 2
