MODEL        7USER    Run = 7USERUSER    Estimated Free Energy of Binding    = -10.54 kcal/mol  [=(1)+(2)+(3)-(4)]USERUSER    (1) Final Intermolecular Energy     = -13.22 kcal/molUSER        vdW + Hbond + desolv Energy     = -12.90 kcal/molUSER        Electrostatic Energy            =  -0.33 kcal/molUSER        Moving Ligand-Fixed Receptor    = -13.22 kcal/molUSER        Moving Ligand-Moving Receptor   =  +0.00 kcal/molUSER    (2) Final Total Internal Energy     =  -1.64 kcal/molUSER    (3) Torsional Free Energy           =  +2.68 kcal/molUSER    (4) Unbound System's Energy         =  -1.64 kcal/molUSERUSERREMARK SMILES C=CC=Cc1[nH]c(-c2ccn[nH]2)nc1C(=O)N[C@H]1CC[C@](O)(CC(C)C)C[C@@H]1CREMARK SMILES IDX 5 1 6 2 7 3 13 4 14 5 4 7 3 8 2 9 1 10 15 11 17 12 16 13REMARK SMILES IDX 18 15 19 16 28 17 20 18 27 19 21 20 29 21 22 22 23 24 24 25REMARK SMILES IDX 25 26 26 27 8 28 9 29 12 30 10 31 11 32REMARK H PARENT 6 6 17 14 22 23 12 33USER                              x       y       z     vdW  Elec       q    TypeUSER                           _______ _______ _______ _____ _____    ______ ____ROOTATOM      1  C   UNL     1      41.270  48.107  17.294 -0.44 -0.01    +0.072 A  ATOM      2  N   UNL     1      42.196  48.167  18.311 -0.29 -0.00    -0.336 N  ATOM      3  C   UNL     1      42.062  47.050  19.085 -0.40 +0.01    +0.156 A  ATOM      4  N   UNL     1      41.083  46.293  18.652 -0.33 +0.00    -0.221 NA ATOM      5  C   UNL     1      40.546  46.941  17.541 -0.39 -0.02    +0.154 A  ATOM      6  H   UNL     1      42.894  48.883  18.441 -0.12 +0.01    +0.168 HD ENDROOTBRANCH   1   7ATOM      7  C   UNL     1      41.293  49.147  16.334 -0.50 -0.00    +0.028 C  BRANCH   7   8ATOM      8  C   UNL     1      41.085  48.888  15.034 -0.68 -0.00    +0.002 C  BRANCH   8   9ATOM      9  C   UNL     1      41.701  49.654  13.977 -0.72 +0.00    -0.008 C  ATOM     10  C   UNL     1      42.551  50.661  14.210 -0.71 -0.00    +0.008 C  ENDBRANCH   8   9ENDBRANCH   7   8ENDBRANCH   1   7BRANCH   5  11ATOM     11  C   UNL     1      39.380  46.385  16.831 -0.31 -0.06    +0.272 C  ATOM     12  N   UNL     1      38.314  46.025  17.633 -0.17 +0.09    -0.348 N  ATOM     13  O   UNL     1      39.366  46.216  15.616 -0.27 +0.06    -0.267 OA ATOM     14  H   UNL     1      38.474  46.000  18.631 +0.08 -0.03    +0.164 HD BRANCH  12  15ATOM     15  C   UNL     1      37.158  45.301  17.120 -0.35 -0.03    +0.085 C  ATOM     16  C   UNL     1      36.564  44.401  18.220 -0.37 -0.01    +0.028 C  ATOM     17  C   UNL     1      36.128  46.314  16.560 -0.42 -0.01    +0.011 C  ATOM     18  C   UNL     1      35.521  45.148  19.046 -0.26 -0.01    +0.037 C  ATOM     19  C   UNL     1      34.699  45.775  16.706 -0.36 -0.04    +0.040 C  ATOM     20  C   UNL     1      34.310  45.589  18.196 -0.47 -0.04    +0.065 C  ATOM     21  C   UNL     1      36.438  46.653  15.101 -0.45 -0.01    +0.010 C  BRANCH  20  22ATOM     22  O   UNL     1      33.914  46.878  18.685 -0.87 +0.29    -0.390 OA ATOM     23  H   UNL     1      33.617  47.410  17.928 -0.38 -0.34    +0.211 HD ENDBRANCH  20  22BRANCH  20  24ATOM     24  C   UNL     1      33.103  44.618  18.274 -0.40 -0.01    +0.038 C  BRANCH  24  25ATOM     25  C   UNL     1      33.374  43.112  18.509 -0.41 +0.00    -0.015 C  ATOM     26  C   UNL     1      32.170  42.341  19.047 -0.40 -0.00    +0.007 C  ATOM     27  C   UNL     1      33.839  42.475  17.193 -0.45 -0.00    +0.007 C  ENDBRANCH  24  25ENDBRANCH  20  24ENDBRANCH  12  15ENDBRANCH   5  11BRANCH   3  28ATOM     28  C   UNL     1      42.863  46.734  20.210 -0.33 +0.03    +0.100 A  ATOM     29  C   UNL     1      42.695  45.881  21.277 -0.26 +0.02    +0.053 A  ATOM     30  N   UNL     1      44.085  47.324  20.397 -0.16 -0.16    -0.275 N  ATOM     31  C   UNL     1      43.868  46.030  22.044 -0.18 +0.07    +0.135 A  ATOM     32  N   UNL     1      44.719  46.910  21.511 -0.71 -0.18    -0.184 NA ATOM     33  H   UNL     1      44.525  48.013  19.795 -0.41 +0.05    +0.190 HD ENDBRANCH   3  28TORSDOF 9TERENDMDL