MODEL        1USER    Run = 1USERUSER    Estimated Free Energy of Binding    =  -4.43 kcal/mol  [=(1)+(2)+(3)-(4)]USERUSER    (1) Final Intermolecular Energy     =  -8.31 kcal/molUSER        vdW + Hbond + desolv Energy     =  -9.29 kcal/molUSER        Electrostatic Energy            =  -0.04 kcal/molUSER        Moving Ligand-Fixed Receptor    =  -9.33 kcal/molUSER        Moving Ligand-Moving Receptor   =  +1.02 kcal/molUSER    (2) Final Total Internal Energy     =  -2.18 kcal/molUSER    (3) Torsional Free Energy           =  +3.88 kcal/molUSER    (4) Unbound System's Energy         =  -2.18 kcal/molUSERUSERREMARK SMILES CCN1C=C(N[C@@H](C)C(N)=O)C=CC=NC=C[C@]2(C)C1=CCN2CREMARK SMILES IDX 3 1 2 2 1 3 4 4 5 5 6 6 7 8 8 9 9 10 10 11 11 12 12 15 13 16REMARK SMILES IDX 20 18 18 19 21 20 23 21 22 22 19 23 24 24 17 25 16 26 15 27REMARK SMILES IDX 14 28REMARK H PARENT 6 7 10 13 10 14REMARK Flexibility Score:   28.900USER                              x       y       z     vdW  Elec       q    TypeUSER                           _______ _______ _______ _____ _____    ______ ____ROOTATOM      1  N   UNL     1      38.142  45.543  17.642 -0.16 +0.08    -0.348 N  ENDROOTBRANCH   1   2ATOM      2  C   UNL     1      39.370  44.787  17.943 -0.31 -0.01    +0.118 C  ATOM      3  C   UNL     1      40.165  45.430  19.070 -0.49 -0.00    +0.027 C  ENDBRANCH   1   2BRANCH   1   4ATOM      4  C   UNL     1      38.069  46.353  16.497 -0.37 -0.04    +0.111 C  BRANCH   4   5ATOM      5  C   UNL     1      38.895  46.685  15.478 -0.46 -0.02    +0.051 C  BRANCH   5   6ATOM      6  N   UNL     1      40.213  47.094  15.754 -0.20 +0.06    -0.373 N  ATOM      7  H   UNL     1      40.702  47.180  14.859 +0.12 -0.01    +0.161 HD BRANCH   6   8ATOM      8  C   UNL     1      40.459  48.397  16.456 -0.47 -0.04    +0.165 C  ATOM      9  C   UNL     1      41.442  48.261  17.612 -0.42 -0.00    +0.041 C  BRANCH   8  10ATOM     10  C   UNL     1      41.045  49.390  15.430 -0.52 -0.05    +0.239 C  ATOM     11  N   UNL     1      41.267  50.651  15.920 -0.19 +0.11    -0.368 N  ATOM     12  O   UNL     1      41.285  49.114  14.260 -0.48 +0.04    -0.273 OA ATOM     13  H   UNL     1      41.270  50.783  16.926 -0.42 -0.05    +0.159 HD ATOM     14  H   UNL     1      41.733  51.320  15.324 -0.23 -0.05    +0.159 HD ENDBRANCH   8  10ENDBRANCH   6   8ENDBRANCH   5   6BRANCH   5  15ATOM     15  C   UNL     1      38.576  46.715  14.054 -0.47 -0.01    +0.029 C  BRANCH  15  16ATOM     16  C   UNL     1      37.461  47.132  13.433 -0.59 -0.01    +0.022 CG0ATOM     17  G   UNL     1      36.145  46.669  13.892 +0.00 +0.00    +0.000 G0 ENDBRANCH  15  16ENDBRANCH   5  15ENDBRANCH   4   5ENDBRANCH   1   4BRANCH   1  18ATOM     18  C   UNL     1      36.938  45.171  18.274 -0.36 -0.01    +0.039 C  ATOM     19  C   UNL     1      35.559  45.213  17.544 -0.34 -0.04    +0.078 C  ATOM     20  C   UNL     1      36.786  44.546  19.449 -0.38 -0.00    +0.012 C  ATOM     21  N   UNL     1      34.792  44.180  18.284 -0.12 +0.09    -0.289 NA ATOM     22  C   UNL     1      35.379  44.092  19.630 -0.38 -0.02    +0.114 C  ATOM     23  C   UNL     1      34.982  46.638  17.703 -0.38 -0.04    +0.040 C  ATOM     24  C   UNL     1      33.349  44.306  18.292 -0.34 -0.03    +0.107 C  BRANCH  19  25ATOM     25  C   UNL     1      35.770  44.771  16.107 -0.38 -0.01    +0.021 C  BRANCH  25  26ATOM     26  C   UNL     1      35.041  45.201  15.060 -0.29 -0.07    +0.109 C  BRANCH  26  27ATOM     27  N   UNL     1      35.732  45.434  13.891 -0.19 +0.14    -0.265 NA BRANCH  27  28ATOM     28  C   UNL     1      36.143  46.665  13.891 -0.47 -0.07    +0.111 CG0ATOM     29  G   UNL     1      37.454  47.146  13.436 +0.00 +0.00    +0.000 G0 ENDBRANCH  27  28ENDBRANCH  26  27ENDBRANCH  25  26ENDBRANCH  19  25ENDBRANCH   1  18TORSDOF 4TERENDMDL