REMARK SMILES C[C@H]1C[C@H](NC(=O)Nc2cc(-c3ccnc(Cl)c3)cnc2N)CCN1C
REMARK SMILES IDX 9 1 10 2 11 3 19 4 20 5 21 6 8 7 5 8 6 9 7 11 4 13 2 14 3 15
REMARK SMILES IDX 25 16 24 17 23 18 1 19 26 20 22 21 12 24 13 25 18 26 14 27
REMARK SMILES IDX 16 28 15 29 17 30
REMARK H PARENT 5 10 8 12 22 22 22 23
ROOT
ATOM      1  C   UNL     1       2.351  -0.450  -1.455  1.00  0.00     0.086 A 
ATOM      2  C   UNL     1       3.024  -0.117  -0.280  1.00  0.00     0.040 A 
ATOM      3  C   UNL     1       4.421  -0.221  -0.208  1.00  0.00     0.002 A 
ATOM      4  C   UNL     1       5.068  -0.670  -1.361  1.00  0.00     0.122 A 
ATOM      5  N   UNL     1       4.454  -0.990  -2.526  1.00  0.00    -0.237 NA
ATOM      6  C   UNL     1       3.118  -0.867  -2.555  1.00  0.00     0.147 A 
ENDROOT
BRANCH   1   7
ATOM      7  N   UNL     1       0.947  -0.435  -1.600  1.00  0.00    -0.305 N 
ATOM      8  N   UNL     1      -1.267  -0.221  -1.165  1.00  0.00    -0.335 N 
ATOM      9  C   UNL     1       0.012   0.046  -0.718  1.00  0.00     0.319 C 
ATOM     10  H   UNL     1      -1.359  -1.061  -1.718  1.00  0.00     0.165 HD
ATOM     11  O   UNL     1       0.239   0.655   0.319  1.00  0.00    -0.248 OA
ATOM     12  H   UNL     1       0.613  -0.784  -2.489  1.00  0.00     0.172 HD
BRANCH   8  13
ATOM     13  C   UNL     1      -2.429   0.136  -0.355  1.00  0.00     0.086 C 
ATOM     14  C   UNL     1      -4.951   0.497  -0.412  1.00  0.00     0.055 C 
ATOM     15  C   UNL     1      -3.681   0.211  -1.232  1.00  0.00     0.043 C 
ATOM     16  N   UNL     1      -5.083  -0.512   0.654  1.00  0.00    -0.304 NA
ATOM     17  C   UNL     1      -3.924  -0.568   1.552  1.00  0.00     0.086 C 
ATOM     18  C   UNL     1      -2.642  -0.869   0.779  1.00  0.00     0.040 C 
ATOM     19  C   UNL     1      -4.991   1.960   0.057  1.00  0.00     0.024 C 
ATOM     20  C   UNL     1      -6.325  -0.383   1.413  1.00  0.00     0.105 C 
ENDBRANCH   8  13
ENDBRANCH   1   7
BRANCH   6  21
ATOM     21  N   UNL     1       2.504  -1.154  -3.787  1.00  0.00    -0.382 N 
ATOM     22  H   UNL     1       2.062  -0.311  -4.141  1.00  0.00     0.158 HD
ATOM     23  H   UNL     1       3.268  -1.427  -4.406  1.00  0.00     0.158 HD
ENDBRANCH   6  21
BRANCH   3  24
ATOM     24  C   UNL     1       5.162   0.114   1.019  1.00  0.00    -0.012 A 
ATOM     25  C   UNL     1       6.293   0.941   0.984  1.00  0.00     0.029 A 
ATOM     26  C   UNL     1       4.761  -0.382   2.266  1.00  0.00     0.049 A 
ATOM     27  C   UNL     1       6.961   1.227   2.167  1.00  0.00     0.113 A 
ATOM     28  C   UNL     1       5.499  -0.037   3.387  1.00  0.00     0.129 A 
ATOM     29  N   UNL     1       6.590   0.751   3.370  1.00  0.00    -0.245 NA
ATOM     30  Cl  UNL     1       5.063  -0.622   4.939  1.00  0.00    -0.062 Cl
ENDBRANCH   3  24
TORSDOF 4
