REMARK SMILES COC(=O)CC1=CC=Nc2cc(OC)c(OC)cc2C1
REMARK SMILES IDX 6 1 5 2 3 3 4 4 2 5 1 6 7 7 20 9 19 10 18 11 10 12 15 13
REMARK SMILES IDX 11 14 12 15 9 16 8 17 16 19 17 20 13 21 14 22
REMARK H PARENT
REMARK Flexibility Score:   35.900
ROOT
ATOM      1  C   UNL     1       1.850  -0.168  -1.145  1.00  0.00    -0.053 C 
ENDROOT
BRANCH   1   2
ATOM      2  C   UNL     1       3.022  -0.680  -0.331  1.00  0.00     0.154 C 
BRANCH   2   3
ATOM      3  C   UNL     1       4.313   0.135  -0.330  1.00  0.00     0.309 C 
ATOM      4  O   UNL     1       4.718   0.838  -1.246  1.00  0.00    -0.252 OA
BRANCH   3   5
ATOM      5  O   UNL     1       4.990  -0.089   0.834  1.00  0.00    -0.469 OA
ATOM      6  C   UNL     1       6.235   0.605   0.927  1.00  0.00     0.282 C 
ENDBRANCH   3   5
ENDBRANCH   2   3
ENDBRANCH   1   2
BRANCH   1   7
ATOM      7  C   UNL     1       1.737   1.082  -1.631  1.00  0.00     0.020 CG0
ATOM      8  G   UNL     1       0.559   1.498  -2.436  1.00  0.00     0.000 G0
ENDBRANCH   1   7
BRANCH   1   9
ATOM      9  C   UNL     1       0.740  -1.176  -1.359  1.00  0.00     0.069 C 
BRANCH   9  10
ATOM     10  C   UNL     1      -0.555  -0.705  -0.751  1.00  0.00    -0.014 A 
ATOM     11  C   UNL     1      -1.141  -1.424   0.301  1.00  0.00     0.056 A 
ATOM     12  C   UNL     1      -1.177   0.462  -1.214  1.00  0.00     0.070 A 
ATOM     13  C   UNL     1      -2.347  -1.011   0.878  1.00  0.00     0.161 A 
ATOM     14  C   UNL     1      -2.380   0.875  -0.622  1.00  0.00     0.079 A 
ATOM     15  C   UNL     1      -2.968   0.166   0.433  1.00  0.00     0.162 A 
BRANCH  12  16
ATOM     16  N   UNL     1      -0.697   1.239  -2.282  1.00  0.00    -0.256 NA
BRANCH  16  17
ATOM     17  C   UNL     1       0.559   1.498  -2.436  1.00  0.00     0.111 CG0
ATOM     18  G   UNL     1       1.737   1.082  -1.631  1.00  0.00     0.000 G0
ENDBRANCH  16  17
ENDBRANCH  12  16
BRANCH  13  19
ATOM     19  O   UNL     1      -2.773  -1.824   1.899  1.00  0.00    -0.493 OA
ATOM     20  C   UNL     1      -4.180  -2.028   1.976  1.00  0.00     0.278 C 
ENDBRANCH  13  19
BRANCH  15  21
ATOM     21  O   UNL     1      -4.110   0.565   1.077  1.00  0.00    -0.493 OA
ATOM     22  C   UNL     1      -4.694   1.800   0.685  1.00  0.00     0.278 C 
ENDBRANCH  15  21
ENDBRANCH   9  10
ENDBRANCH   1   9
TORSDOF 5
