MODEL        10USER    Run = 10USERUSER    Estimated Free Energy of Binding    =  -7.90 kcal/mol  [=(1)+(2)+(3)-(4)]USERUSER    (1) Final Intermolecular Energy     =  -9.39 kcal/molUSER        vdW + Hbond + desolv Energy     =  -9.39 kcal/molUSER        Electrostatic Energy            =  -0.00 kcal/molUSER        Moving Ligand-Fixed Receptor    =  -9.39 kcal/molUSER        Moving Ligand-Moving Receptor   =  +0.00 kcal/molUSER    (2) Final Total Internal Energy     =  -1.04 kcal/molUSER    (3) Torsional Free Energy           =  +1.49 kcal/molUSER    (4) Unbound System's Energy         =  -1.04 kcal/molUSERUSERREMARK SMILES C#Cc1cc(NC2CC2)nn1Cc1ccccc1ClREMARK SMILES IDX 3 1 4 2 5 3 10 4 11 5 2 6 1 7 12 8 13 9 14 10 18 11 15 12REMARK SMILES IDX 17 13 16 14 19 15 6 16 7 18 8 19 9 20REMARK H PARENT 6 17USER                              x       y       z     vdW  Elec       q    TypeUSER                           _______ _______ _______ _____ _____    ______ ____ROOTATOM      1  C   UNL     1      39.930  47.463  16.678 -0.41 -0.03    +0.113 A  ATOM      2  C   UNL     1      41.012  48.299  16.520 -0.48 -0.01    +0.085 A  ATOM      3  C   UNL     1      40.546  49.396  15.754 -0.49 -0.04    +0.149 A  ATOM      4  N   UNL     1      39.252  49.254  15.468 -0.36 +0.09    -0.154 NA ATOM      5  N   UNL     1      38.902  48.070  16.005 -0.30 +0.12    -0.250 N  ENDROOTBRANCH   1   6ATOM      6  C   UNL     1      39.883  46.232  17.385 -0.49 +0.01    -0.051 C  ATOM      7  C   UNL     1      39.845  45.196  17.989 -0.46 -0.00    +0.011 C  ENDBRANCH   1   6BRANCH   5   8ATOM      8  C   UNL     1      37.528  47.605  15.872 -0.31 -0.13    +0.182 C  BRANCH   8   9ATOM      9  C   UNL     1      37.277  46.979  14.520 -0.44 +0.00    -0.008 A  ATOM     10  C   UNL     1      37.188  47.812  13.387 -0.57 -0.00    +0.007 A  ATOM     11  C   UNL     1      37.099  45.597  14.344 -0.38 -0.02    +0.046 A  ATOM     12  C   UNL     1      36.932  47.281  12.121 -0.66 -0.00    +0.000 A  ATOM     13  C   UNL     1      36.842  45.071  13.073 -0.47 -0.01    +0.021 A  ATOM     14  C   UNL     1      36.759  45.910  11.963 -0.63 -0.00    +0.002 A  ATOM     15  Cl  UNL     1      37.209  44.476  15.653 -0.44 +0.03    -0.084 Cl ENDBRANCH   8   9ENDBRANCH   5   8BRANCH   3  16ATOM     16  N   UNL     1      41.374  50.413  15.416 -0.37 +0.09    -0.366 N  ATOM     17  H   UNL     1      41.377  51.234  16.011 -0.43 -0.08    +0.162 HD BRANCH  16  18ATOM     18  C   UNL     1      42.469  50.324  14.445 -0.61 -0.01    +0.080 C  ATOM     19  C   UNL     1      42.383  50.735  13.004 -0.67 -0.01    +0.027 C  ATOM     20  C   UNL     1      42.546  49.283  13.367 -0.42 -0.00    +0.027 C  ENDBRANCH  16  18ENDBRANCH   3  16TORSDOF 5TERENDMDL