REMARK SMILES CCCCC(=CNCCCCN)Nc1ccccn1
REMARK SMILES IDX 7 1 6 3 5 4 4 5 3 6 2 7 1 8 13 9 14 11 15 12 19 13 16 14
REMARK SMILES IDX 18 15 17 16 8 17 9 18 10 19 11 20 12 21
REMARK H PARENT 7 2 13 10 12 22 12 23
ROOT
ATOM      1  N   UNL     1       0.938  -0.821  -1.086  1.00  0.00    -0.390 N 
ATOM      2  H   UNL     1       1.237  -1.556  -1.729  1.00  0.00     0.160 HD
ENDROOT
BRANCH   1   3
ATOM      3  C   UNL     1      -0.358  -1.052  -0.660  1.00  0.00     0.099 C 
BRANCH   3   4
ATOM      4  C   UNL     1      -1.266  -0.205  -0.134  1.00  0.00     0.032 C 
BRANCH   4   5
ATOM      5  C   UNL     1      -0.961   1.287  -0.029  1.00  0.00     0.055 C 
BRANCH   5   6
ATOM      6  C   UNL     1      -1.632   2.092  -1.151  1.00  0.00     0.006 C 
BRANCH   6   7
ATOM      7  C   UNL     1      -1.231   3.570  -1.154  1.00  0.00    -0.003 C 
ATOM      8  C   UNL     1      -1.696   4.327   0.081  1.00  0.00     0.004 C 
ENDBRANCH   6   7
ENDBRANCH   5   6
ENDBRANCH   4   5
BRANCH   4   9
ATOM      9  N   UNL     1      -2.545  -0.544   0.280  1.00  0.00    -0.342 N 
ATOM     10  H   UNL     1      -3.265   0.137   0.060  1.00  0.00     0.168 HD
BRANCH   9  11
ATOM     11  C   UNL     1      -3.148  -1.772   0.547  1.00  0.00     0.130 A 
ATOM     12  C   UNL     1      -2.452  -2.882   1.015  1.00  0.00     0.047 A 
ATOM     13  N   UNL     1      -4.488  -1.805   0.376  1.00  0.00    -0.239 NA
ATOM     14  C   UNL     1      -3.138  -4.067   1.277  1.00  0.00     0.005 A 
ATOM     15  C   UNL     1      -5.135  -2.964   0.633  1.00  0.00     0.113 A 
ATOM     16  C   UNL     1      -4.509  -4.114   1.077  1.00  0.00     0.020 A 
ENDBRANCH   9  11
ENDBRANCH   4   9
ENDBRANCH   3   4
ENDBRANCH   1   3
BRANCH   1  17
ATOM     17  C   UNL     1       2.010  -0.536  -0.130  1.00  0.00     0.112 C 
BRANCH  17  18
ATOM     18  C   UNL     1       3.155   0.165  -0.860  1.00  0.00     0.022 C 
BRANCH  18  19
ATOM     19  C   UNL     1       4.281   0.623   0.072  1.00  0.00     0.017 C 
BRANCH  19  20
ATOM     20  C   UNL     1       5.016  -0.538   0.742  1.00  0.00     0.077 C 
BRANCH  20  21
ATOM     21  N   UNL     1       6.128  -0.054   1.551  1.00  0.00    -0.330 NA
ATOM     22  H   UNL     1       5.787   0.608   2.247  1.00  0.00     0.118 HD
ATOM     23  H   UNL     1       6.778   0.470   0.964  1.00  0.00     0.118 HD
ENDBRANCH  20  21
ENDBRANCH  19  20
ENDBRANCH  18  19
ENDBRANCH  17  18
ENDBRANCH   1  17
TORSDOF 12
