MODEL        4USER    Run = 4USERUSER    Estimated Free Energy of Binding    =  -9.37 kcal/mol  [=(1)+(2)+(3)-(4)]USERUSER    (1) Final Intermolecular Energy     = -10.56 kcal/molUSER        vdW + Hbond + desolv Energy     = -10.55 kcal/molUSER        Electrostatic Energy            =  -0.01 kcal/molUSER        Moving Ligand-Fixed Receptor    = -10.56 kcal/molUSER        Moving Ligand-Moving Receptor   =  +0.00 kcal/molUSER    (2) Final Total Internal Energy     =  -0.74 kcal/molUSER    (3) Torsional Free Energy           =  +1.19 kcal/molUSER    (4) Unbound System's Energy         =  -0.74 kcal/molUSERUSERREMARK SMILES C[C@H]1C[C@H](NC(=O)Nc2cc(-c3ccnc(Cl)c3)cnc2N)CCN1CREMARK SMILES IDX 9 1 10 2 11 3 19 4 20 5 21 6 8 7 5 8 6 9 7 11 4 13 2 14 3 15REMARK SMILES IDX 25 16 24 17 23 18 1 19 26 20 22 21 12 24 13 25 18 26 14 27REMARK SMILES IDX 16 28 15 29 17 30REMARK H PARENT 5 10 8 12 22 22 22 23USER                              x       y       z     vdW  Elec       q    TypeUSER                           _______ _______ _______ _____ _____    ______ ____ROOTATOM      1  C   UNL     1      40.263  46.864  17.708 -0.43 -0.01    +0.086 A  ATOM      2  C   UNL     1      39.281  46.760  16.723 -0.42 -0.01    +0.040 A  ATOM      3  C   UNL     1      39.356  47.542  15.561 -0.50 -0.00    +0.002 A  ATOM      4  C   UNL     1      40.448  48.407  15.466 -0.48 -0.03    +0.122 A  ATOM      5  N   UNL     1      41.430  48.528  16.392 -0.82 +0.01    -0.237 NA ATOM      6  C   UNL     1      41.325  47.755  17.484 -0.38 -0.01    +0.147 A  ENDROOTBRANCH   1   7ATOM      7  N   UNL     1      40.239  46.164  18.933 -0.24 +0.01    -0.305 N  ATOM      8  N   UNL     1      39.514  45.096  20.796 -0.16 -0.01    -0.335 N  ATOM      9  C   UNL     1      39.159  45.590  19.557 -0.22 -0.01    +0.319 C  ATOM     10  H   UNL     1      40.261  45.596  21.257 +0.09 +0.01    +0.165 HD ATOM     11  O   UNL     1      38.028  45.488  19.101 -0.27 +0.03    -0.248 OA ATOM     12  H   UNL     1      41.145  46.043  19.365 +0.11 +0.01    +0.172 HD BRANCH   8  13ATOM     13  C   UNL     1      38.512  44.501  21.676 -0.35 +0.00    +0.086 C  ATOM     14  C   UNL     1      37.962  42.452  23.089 -0.39 +0.00    +0.055 C  ATOM     15  C   UNL     1      38.942  43.091  22.089 -0.23 +0.00    +0.043 C  ATOM     16  N   UNL     1      37.799  43.342  24.252 -0.13 -0.02    -0.304 NA ATOM     17  C   UNL     1      37.328  44.686  23.897 -0.28 +0.01    +0.086 C  ATOM     18  C   UNL     1      38.284  45.365  22.918 -0.34 +0.00    +0.040 C  ATOM     19  C   UNL     1      36.658  42.029  22.395 -0.57 +0.00    +0.024 C  ATOM     20  C   UNL     1      36.971  42.761  25.306 -0.37 -0.00    +0.105 C  ENDBRANCH   8  13ENDBRANCH   1   7BRANCH   6  21ATOM     21  N   UNL     1      42.379  47.857  18.409 -0.30 -0.00    -0.382 N  ATOM     22  H   UNL     1      42.120  47.371  19.262 +0.08 +0.01    +0.158 HD ATOM     23  H   UNL     1      43.166  47.380  17.967 -0.49 -0.01    +0.158 HD ENDBRANCH   6  21BRANCH   3  24ATOM     24  C   UNL     1      38.332  47.463  14.505 -0.48 +0.00    -0.012 A  ATOM     25  C   UNL     1      37.536  48.569  14.179 -0.51 -0.02    +0.029 A  ATOM     26  C   UNL     1      38.119  46.278  13.790 -0.37 -0.01    +0.049 A  ATOM     27  C   UNL     1      36.582  48.446  13.178 -0.40 -0.05    +0.113 A  ATOM     28  C   UNL     1      37.139  46.260  12.810 -0.45 -0.05    +0.129 A  ATOM     29  N   UNL     1      36.363  47.312  12.488 -0.57 +0.12    -0.245 NA ATOM     30  Cl  UNL     1      36.826  44.836  11.908 -0.68 +0.02    -0.062 Cl ENDBRANCH   3  24TORSDOF 4TERENDMDL