REMARK SMILES Cc1nc2ccccc2nc1NCC[C@H](O)CCCCCN
REMARK SMILES IDX 17 1 15 2 14 3 13 4 12 5 11 7 2 8 3 9 4 10 10 11 5 12 9 13
REMARK SMILES IDX 6 14 8 15 7 16 1 17 16 18 18 20 19 21 20 22 21 23 22 24
REMARK H PARENT 12 6 16 19 22 25 22 26
ROOT
ATOM      1  C   UNL     1      -1.988   0.095   0.846  1.00  0.00     0.032 C 
ENDROOT
BRANCH   1   2
ATOM      2  C   UNL     1      -1.864  -1.095  -0.116  1.00  0.00     0.116 C 
BRANCH   2   3
ATOM      3  C   UNL     1      -0.538  -1.851   0.034  1.00  0.00     0.053 C 
BRANCH   3   4
ATOM      4  C   UNL     1       0.703  -0.983  -0.203  1.00  0.00     0.117 C 
BRANCH   4   5
ATOM      5  N   UNL     1       1.896  -1.827  -0.084  1.00  0.00    -0.368 N 
ATOM      6  H   UNL     1       1.895  -2.572  -0.776  1.00  0.00     0.162 HD
BRANCH   5   7
ATOM      7  C   UNL     1       3.118  -1.130  -0.188  1.00  0.00     0.148 A 
ATOM      8  C   UNL     1       4.339  -1.821  -0.107  1.00  0.00     0.080 A 
ATOM      9  N   UNL     1       5.542  -1.193  -0.201  1.00  0.00    -0.248 NA
ATOM     10  C   UNL     1       5.517   0.142  -0.352  1.00  0.00     0.089 A 
ATOM     11  N   UNL     1       3.110   0.212  -0.331  1.00  0.00    -0.227 NA
ATOM     12  C   UNL     1       6.711   0.846  -0.448  1.00  0.00     0.030 A 
ATOM     13  C   UNL     1       4.295   0.847  -0.415  1.00  0.00     0.091 A 
ATOM     14  C   UNL     1       6.726   2.233  -0.603  1.00  0.00     0.002 A 
ATOM     15  C   UNL     1       4.321   2.228  -0.569  1.00  0.00     0.031 A 
ATOM     16  C   UNL     1       5.526   2.927  -0.664  1.00  0.00     0.002 A 
ATOM     17  C   UNL     1       4.386  -3.306   0.097  1.00  0.00     0.071 C 
ENDBRANCH   5   7
ENDBRANCH   4   5
ENDBRANCH   3   4
ENDBRANCH   2   3
BRANCH   2  18
ATOM     18  O   UNL     1      -1.984  -0.632  -1.458  1.00  0.00    -0.393 OA
ATOM     19  H   UNL     1      -2.080  -1.410  -2.034  1.00  0.00     0.210 HD
ENDBRANCH   2  18
ENDBRANCH   1   2
BRANCH   1  20
ATOM     20  C   UNL     1      -3.425   0.603   1.037  1.00  0.00     0.003 C 
BRANCH  20  21
ATOM     21  C   UNL     1      -4.049   1.211  -0.221  1.00  0.00     0.001 C 
BRANCH  21  22
ATOM     22  C   UNL     1      -5.356   1.964   0.055  1.00  0.00     0.015 C 
BRANCH  22  23
ATOM     23  C   UNL     1      -6.479   1.057   0.559  1.00  0.00     0.077 C 
BRANCH  23  24
ATOM     24  N   UNL     1      -7.714   1.819   0.709  1.00  0.00    -0.330 NA
ATOM     25  H   UNL     1      -7.572   2.576   1.377  1.00  0.00     0.118 HD
ATOM     26  H   UNL     1      -8.436   1.219   1.105  1.00  0.00     0.118 HD
ENDBRANCH  23  24
ENDBRANCH  22  23
ENDBRANCH  21  22
ENDBRANCH  20  21
ENDBRANCH   1  20
TORSDOF 11
