MODEL        2USER    Run = 2USERUSER    Estimated Free Energy of Binding    =  -5.40 kcal/mol  [=(1)+(2)+(3)-(4)]USERUSER    (1) Final Intermolecular Energy     =  -8.39 kcal/molUSER        vdW + Hbond + desolv Energy     =  -8.51 kcal/molUSER        Electrostatic Energy            =  -0.27 kcal/molUSER        Moving Ligand-Fixed Receptor    =  -8.79 kcal/molUSER        Moving Ligand-Moving Receptor   =  +0.40 kcal/molUSER    (2) Final Total Internal Energy     =  -1.01 kcal/molUSER    (3) Torsional Free Energy           =  +2.98 kcal/molUSER    (4) Unbound System's Energy         =  -1.01 kcal/molUSERUSERREMARK SMILES COC(=O)CC1=CC=Nc2cc(OC)c(OC)cc2C1REMARK SMILES IDX 6 1 5 2 3 3 4 4 2 5 1 6 7 7 20 9 19 10 18 11 10 12 15 13REMARK SMILES IDX 11 14 12 15 9 16 8 17 16 19 17 20 13 21 14 22REMARK H PARENTREMARK Flexibility Score:   35.900USER                              x       y       z     vdW  Elec       q    TypeUSER                           _______ _______ _______ _____ _____    ______ ____ROOTATOM      1  C   UNL     1      36.801  46.164  14.944 -0.41 +0.03    -0.053 C  ENDROOTBRANCH   1   2ATOM      2  C   UNL     1      35.975  46.964  13.957 -0.42 -0.11    +0.154 C  BRANCH   2   3ATOM      3  C   UNL     1      36.672  48.057  13.150 -0.41 -0.14    +0.309 C  ATOM      4  O   UNL     1      36.806  49.225  13.491 -0.46 +0.13    -0.252 OA BRANCH   3   5ATOM      5  O   UNL     1      37.072  47.549  11.948 -0.90 +0.11    -0.469 OA ATOM      6  C   UNL     1      36.500  46.278  11.633 -0.42 -0.11    +0.282 C  ENDBRANCH   3   5ENDBRANCH   2   3ENDBRANCH   1   2BRANCH   1   7ATOM      7  C   UNL     1      36.354  45.705  16.128 -0.40 -0.01    +0.020 CG0ATOM      8  G   UNL     1      37.232  44.924  17.038 +0.00 +0.00    +0.000 G0 ENDBRANCH   1   7BRANCH   1   9ATOM      9  C   UNL     1      38.238  45.931  14.525 -0.42 -0.02    +0.069 C  BRANCH   9  10ATOM     10  C   UNL     1      39.202  46.558  15.497 -0.43 +0.00    -0.014 A  ATOM     11  C   UNL     1      40.048  47.596  15.078 -0.47 -0.01    +0.056 A  ATOM     12  C   UNL     1      39.253  46.128  16.829 -0.37 -0.02    +0.070 A  ATOM     13  C   UNL     1      40.957  48.190  15.960 -0.39 -0.02    +0.161 A  ATOM     14  C   UNL     1      40.160  46.737  17.709 -0.43 -0.01    +0.079 A  ATOM     15  C   UNL     1      41.003  47.778  17.300 -0.39 -0.02    +0.162 A  BRANCH  12  16ATOM     16  N   UNL     1      38.478  45.076  17.347 -0.20 +0.05    -0.256 NA BRANCH  16  17ATOM     17  C   UNL     1      37.233  44.921  17.038 -0.33 -0.03    +0.111 CG0ATOM     18  G   UNL     1      36.359  45.704  16.127 +0.00 +0.00    +0.000 G0 ENDBRANCH  16  17ENDBRANCH  12  16BRANCH  13  19ATOM     19  O   UNL     1      41.699  49.194  15.388 -0.60 -0.01    -0.493 OA ATOM     20  C   UNL     1      41.074  50.472  15.343 -0.38 -0.10    +0.278 C  ENDBRANCH  13  19BRANCH  15  21ATOM     21  O   UNL     1      41.862  48.439  18.140 -0.31 -0.00    -0.493 OA ATOM     22  C   UNL     1      42.745  47.657  18.932 -0.36 +0.02    +0.278 C  ENDBRANCH  15  21ENDBRANCH   9  10ENDBRANCH   1   9TORSDOF 5TERENDMDL