MODEL        9USER    Run = 9USERUSER    Estimated Free Energy of Binding    =  -3.87 kcal/mol  [=(1)+(2)+(3)-(4)]USERUSER    (1) Final Intermolecular Energy     =  -8.04 kcal/molUSER        vdW + Hbond + desolv Energy     =  -8.27 kcal/molUSER        Electrostatic Energy            =  -0.07 kcal/molUSER        Moving Ligand-Fixed Receptor    =  -8.34 kcal/molUSER        Moving Ligand-Moving Receptor   =  +0.30 kcal/molUSER    (2) Final Total Internal Energy     =  -1.02 kcal/molUSER    (3) Torsional Free Energy           =  +4.18 kcal/molUSER    (4) Unbound System's Energy         =  -1.02 kcal/molUSERUSERREMARK SMILES C[C@@H]1C=CC=CC(=O)OC=c2nc(NCc3ccccc3)ccc2=NC=C1REMARK SMILES IDX 11 1 12 2 13 3 22 4 23 5 24 6 25 7 26 8 27 9 2 10 1 11 3 12REMARK SMILES IDX 10 14 9 15 7 16 8 17 6 18 5 19 4 20 14 22 15 24 16 25 17 26REMARK SMILES IDX 21 27 18 28 20 29 19 30REMARK H PARENT 14 23REMARK Flexibility Score:   44.900USER                              x       y       z     vdW  Elec       q    TypeUSER                           _______ _______ _______ _____ _____    ______ ____ROOTATOM      1  C   UNL     1      29.575  42.865  17.292 -0.15 -0.03    +0.126 A  ATOM      2  N   UNL     1      28.430  42.125  17.518 -0.10 +0.03    -0.226 NA ATOM      3  C   UNL     1      28.514  40.825  17.484 -0.17 -0.00    +0.127 A  ATOM      4  C   UNL     1      29.798  40.109  17.250 -0.33 +0.00    +0.049 A  ATOM      5  C   UNL     1      30.943  40.789  17.334 -0.32 -0.01    +0.034 A  ATOM      6  C   UNL     1      30.921  42.247  17.626 -0.22 -0.02    +0.092 A  ENDROOTBRANCH   6   7ATOM      7  N   UNL     1      32.017  42.713  18.141 -0.15 +0.05    -0.255 NA BRANCH   7   8ATOM      8  C   UNL     1      32.014  43.277  19.377 -0.35 -0.00    +0.108 C  BRANCH   8   9ATOM      9  C   UNL     1      32.721  44.390  19.625 -0.45 -0.00    +0.000 C  BRANCH   9  10ATOM     10  C   UNL     1      33.904  44.845  18.803 -0.46 -0.01    +0.033 C  ATOM     11  C   UNL     1      34.003  46.369  18.749 -0.50 -0.01    +0.016 C  BRANCH  10  12ATOM     12  C   UNL     1      33.842  44.227  17.420 -0.35 +0.01    -0.020 CG0ATOM     13  G   UNL     1      33.421  44.921  16.349 +0.00 +0.00    +0.000 G0 ENDBRANCH  10  12ENDBRANCH   9  10ENDBRANCH   8   9ENDBRANCH   7   8ENDBRANCH   6   7BRANCH   1  14ATOM     14  C   UNL     1      29.406  44.063  16.700 -0.15 -0.06    +0.230 C  BRANCH  14  15ATOM     15  O   UNL     1      30.337  45.087  16.528 -0.47 +0.05    -0.429 OA BRANCH  15  16ATOM     16  C   UNL     1      30.479  45.454  15.213 -0.25 -0.17    +0.335 C  ATOM     17  O   UNL     1      29.697  46.114  14.537 -0.35 +0.12    -0.246 OA BRANCH  16  18ATOM     18  C   UNL     1      31.670  44.836  14.593 -0.34 -0.06    +0.094 C  BRANCH  18  19ATOM     19  C   UNL     1      32.743  44.337  15.222 -0.17 -0.00    +0.007 C  BRANCH  19  20ATOM     20  C   UNL     1      33.421  44.920  16.349 -0.39 +0.00    -0.003 CG0ATOM     21  G   UNL     1      33.847  44.228  17.420 +0.00 +0.00    +0.000 G0 ENDBRANCH  19  20ENDBRANCH  18  19ENDBRANCH  16  18ENDBRANCH  15  16ENDBRANCH  14  15ENDBRANCH   1  14BRANCH   3  22ATOM     22  N   UNL     1      27.382  40.071  17.659 -0.07 -0.05    -0.366 N  ATOM     23  H   UNL     1      27.452  39.062  17.700 +0.07 +0.08    +0.162 HD BRANCH  22  24ATOM     24  C   UNL     1      26.045  40.608  17.528 -0.24 -0.00    +0.150 C  BRANCH  24  25ATOM     25  C   UNL     1      25.640  41.265  18.825 -0.26 +0.00    -0.029 A  ATOM     26  C   UNL     1      25.041  40.515  19.848 -0.32 -0.00    +0.005 A  ATOM     27  C   UNL     1      25.816  42.645  19.006 -0.38 -0.00    +0.005 A  ATOM     28  C   UNL     1      24.645  41.132  21.037 -0.48 -0.00    +0.000 A  ATOM     29  C   UNL     1      25.417  43.259  20.194 -0.36 -0.00    +0.000 A  ATOM     30  C   UNL     1      24.834  42.502  21.210 -0.57 -0.00    +0.000 A  ENDBRANCH  24  25ENDBRANCH  22  24ENDBRANCH   3  22TORSDOF 3TERENDMDL