REMARK SMILES CCN1C=C(N[C@@H](C)C(N)=O)C=CC=NC=C[C@]2(C)C1=CCN2C
REMARK SMILES IDX 3 1 2 2 1 3 4 4 5 5 6 6 7 8 8 9 9 10 10 11 11 12 12 15 13 16
REMARK SMILES IDX 20 18 18 19 21 20 23 21 22 22 19 23 24 24 17 25 16 26 15 27
REMARK SMILES IDX 14 28
REMARK H PARENT 6 7 10 13 10 14
REMARK Flexibility Score:   28.900
ROOT
ATOM      1  N   UNL     1      -0.474   1.105  -0.635  1.00  0.00    -0.348 N 
ENDROOT
BRANCH   1   2
ATOM      2  C   UNL     1      -0.529   1.838  -1.912  1.00  0.00     0.118 C 
ATOM      3  C   UNL     1      -0.188   3.310  -1.730  1.00  0.00     0.027 C 
ENDBRANCH   1   2
BRANCH   1   4
ATOM      4  C   UNL     1       0.763   0.797  -0.046  1.00  0.00     0.111 C 
BRANCH   4   5
ATOM      5  C   UNL     1       1.922   0.223  -0.445  1.00  0.00     0.051 C 
BRANCH   5   6
ATOM      6  N   UNL     1       3.006   0.148   0.449  1.00  0.00    -0.373 N 
ATOM      7  H   UNL     1       2.891   0.899   1.135  1.00  0.00     0.161 HD
BRANCH   6   8
ATOM      8  C   UNL     1       3.216  -1.093   1.266  1.00  0.00     0.165 C 
ATOM      9  C   UNL     1       3.633  -2.287   0.416  1.00  0.00     0.041 C 
BRANCH   8  10
ATOM     10  C   UNL     1       4.335  -0.808   2.290  1.00  0.00     0.239 C 
ATOM     11  N   UNL     1       5.416  -0.137   1.780  1.00  0.00    -0.368 N 
ATOM     12  O   UNL     1       4.303  -1.157   3.465  1.00  0.00    -0.273 OA
ATOM     13  H   UNL     1       5.317   0.325   0.882  1.00  0.00     0.159 HD
ATOM     14  H   UNL     1       6.140   0.158   2.419  1.00  0.00     0.159 HD
ENDBRANCH   8  10
ENDBRANCH   6   8
ENDBRANCH   5   6
BRANCH   5  15
ATOM     15  C   UNL     1       2.231  -0.325  -1.762  1.00  0.00     0.029 C 
BRANCH  15  16
ATOM     16  C   UNL     1       1.550  -1.215  -2.502  1.00  0.00     0.022 CG0
ATOM     17  G   UNL     1       0.193  -1.615  -2.110  1.00  0.00     0.000 G0
ENDBRANCH  15  16
ENDBRANCH   5  15
ENDBRANCH   4   5
ENDBRANCH   1   4
BRANCH   1  18
ATOM     18  C   UNL     1      -1.629   1.048   0.171  1.00  0.00     0.039 C 
ATOM     19  C   UNL     1      -2.519  -0.230   0.274  1.00  0.00     0.078 C 
ATOM     20  C   UNL     1      -2.026   1.927   1.101  1.00  0.00     0.012 C 
ATOM     21  N   UNL     1      -3.126  -0.070   1.619  1.00  0.00    -0.289 NA
ATOM     22  C   UNL     1      -3.144   1.371   1.913  1.00  0.00     0.114 C 
ATOM     23  C   UNL     1      -3.552  -0.182  -0.875  1.00  0.00     0.040 C 
ATOM     24  C   UNL     1      -4.398  -0.722   1.853  1.00  0.00     0.107 C 
BRANCH  19  25
ATOM     25  C   UNL     1      -1.609  -1.444   0.257  1.00  0.00     0.021 C 
BRANCH  25  26
ATOM     26  C   UNL     1      -1.427  -2.249  -0.806  1.00  0.00     0.109 C 
BRANCH  26  27
ATOM     27  N   UNL     1      -0.122  -2.472  -1.187  1.00  0.00    -0.265 NA
BRANCH  27  28
ATOM     28  C   UNL     1       0.193  -1.615  -2.110  1.00  0.00     0.111 CG0
ATOM     29  G   UNL     1       1.550  -1.215  -2.502  1.00  0.00     0.000 G0
ENDBRANCH  27  28
ENDBRANCH  26  27
ENDBRANCH  25  26
ENDBRANCH  19  25
ENDBRANCH   1  18
TORSDOF 4
