MODEL        9USER    Run = 9USERUSER    Estimated Free Energy of Binding    =  -6.76 kcal/mol  [=(1)+(2)+(3)-(4)]USERUSER    (1) Final Intermolecular Energy     = -10.04 kcal/molUSER        vdW + Hbond + desolv Energy     =  -9.94 kcal/molUSER        Electrostatic Energy            =  -0.10 kcal/molUSER        Moving Ligand-Fixed Receptor    = -10.04 kcal/molUSER        Moving Ligand-Moving Receptor   =  +0.00 kcal/molUSER    (2) Final Total Internal Energy     =  -2.69 kcal/molUSER    (3) Torsional Free Energy           =  +3.28 kcal/molUSER    (4) Unbound System's Energy         =  -2.69 kcal/molUSERUSERREMARK SMILES Cc1nc2ccccc2nc1NCC[C@H](O)CCCCCNREMARK SMILES IDX 17 1 15 2 14 3 13 4 12 5 11 7 2 8 3 9 4 10 10 11 5 12 9 13REMARK SMILES IDX 6 14 8 15 7 16 1 17 16 18 18 20 19 21 20 22 21 23 22 24REMARK H PARENT 12 6 16 19 22 25 22 26USER                              x       y       z     vdW  Elec       q    TypeUSER                           _______ _______ _______ _____ _____    ______ ____ROOTATOM      1  C   UNL     1      39.779  46.945  16.723 -0.52 -0.01    +0.032 C  ENDROOTBRANCH   1   2ATOM      2  C   UNL     1      40.435  45.967  17.708 -0.45 -0.01    +0.116 C  BRANCH   2   3ATOM      3  C   UNL     1      39.477  45.492  18.808 -0.45 -0.00    +0.053 C  BRANCH   3   4ATOM      4  C   UNL     1      38.480  44.423  18.346 -0.32 -0.01    +0.117 C  BRANCH   4   5ATOM      5  N   UNL     1      37.175  45.058  18.136 -0.12 +0.09    -0.368 N  ATOM      6  H   UNL     1      37.088  45.916  18.674 +0.09 -0.03    +0.162 HD BRANCH   5   7ATOM      7  C   UNL     1      36.878  45.351  16.788 -0.25 -0.06    +0.148 A  ATOM      8  C   UNL     1      36.403  44.344  15.931 -0.31 -0.03    +0.080 A  ATOM      9  N   UNL     1      36.104  44.577  14.625 -0.19 +0.10    -0.248 NA ATOM     10  C   UNL     1      36.307  45.825  14.171 -0.36 -0.05    +0.089 A  ATOM     11  N   UNL     1      37.085  46.598  16.315 -0.24 +0.14    -0.227 NA ATOM     12  C   UNL     1      36.027  46.130  12.845 -0.54 -0.01    +0.030 A  ATOM     13  C   UNL     1      36.802  46.839  15.021 -0.34 -0.06    +0.091 A  ATOM     14  C   UNL     1      36.227  47.414  12.337 -0.70 -0.00    +0.002 A  ATOM     15  C   UNL     1      36.998  48.114  14.505 -0.49 -0.02    +0.031 A  ATOM     16  C   UNL     1      36.715  48.411  13.170 -0.50 -0.00    +0.002 A  ATOM     17  C   UNL     1      36.204  42.937  16.411 -0.39 -0.02    +0.071 C  ENDBRANCH   5   7ENDBRANCH   4   5ENDBRANCH   3   4ENDBRANCH   2   3BRANCH   2  18ATOM     18  O   UNL     1      41.563  46.592  18.313 -0.28 +0.01    -0.393 OA ATOM     19  H   UNL     1      42.185  46.833  17.606 -0.38 -0.04    +0.210 HD ENDBRANCH   2  18ENDBRANCH   1   2BRANCH   1  20ATOM     20  C   UNL     1      40.197  46.740  15.259 -0.53 -0.00    +0.003 C  BRANCH  20  21ATOM     21  C   UNL     1      40.542  48.033  14.517 -0.46 -0.00    +0.001 C  BRANCH  21  22ATOM     22  C   UNL     1      40.218  49.297  15.321 -0.62 -0.01    +0.015 C  BRANCH  22  23ATOM     23  C   UNL     1      41.416  49.836  16.105 -0.51 -0.01    +0.077 C  BRANCH  23  24ATOM     24  N   UNL     1      41.791  48.901  17.160 -0.68 -0.05    -0.330 NA ATOM     25  H   UNL     1      42.192  48.060  16.747 -0.44 -0.00    +0.118 HD ATOM     26  H   UNL     1      40.955  48.604  17.661 +0.05 -0.01    +0.118 HD ENDBRANCH  23  24ENDBRANCH  22  23ENDBRANCH  21  22ENDBRANCH  20  21ENDBRANCH   1  20TORSDOF 11TERENDMDL