REMARK SMILES Cc1c(C(C#N)=Cc2ccccn2)cccc1-c1ccc(CO)cc1
REMARK SMILES IDX 1 1 2 2 3 3 14 4 15 5 16 6 17 7 4 8 5 9 6 10 7 11 8 12 9 13
REMARK SMILES IDX 13 14 10 15 12 16 11 17 18 18 19 19 25 20 20 21 24 22 21 23
REMARK SMILES IDX 22 24 23 25
REMARK H PARENT 23 26
ROOT
ATOM      1  C   UNL     1       0.032   1.046  -0.286  1.00  0.00     0.046 C 
ATOM      2  C   UNL     1       0.043  -0.036   0.770  1.00  0.00    -0.035 A 
ATOM      3  C   UNL     1      -1.169  -0.503   1.339  1.00  0.00    -0.004 A 
ATOM      4  C   UNL     1      -1.142  -1.512   2.317  1.00  0.00     0.010 A 
ATOM      5  C   UNL     1       0.063  -2.070   2.727  1.00  0.00     0.001 A 
ATOM      6  C   UNL     1       1.255  -1.636   2.154  1.00  0.00     0.009 A 
ATOM      7  C   UNL     1       1.268  -0.629   1.170  1.00  0.00    -0.015 A 
ENDROOT
BRANCH   3   8
ATOM      8  C   UNL     1      -2.496   0.012   0.928  1.00  0.00     0.062 C 
BRANCH   8   9
ATOM      9  C   UNL     1      -3.117   0.993   1.764  1.00  0.00     0.100 C 
ATOM     10  N   UNL     1      -3.558   1.783   2.493  1.00  0.00    -0.192 NA
ENDBRANCH   8   9
BRANCH   8  11
ATOM     11  C   UNL     1      -3.031  -0.501  -0.200  1.00  0.00     0.048 C 
BRANCH  11  12
ATOM     12  C   UNL     1      -4.321  -0.181  -0.831  1.00  0.00     0.064 A 
ATOM     13  C   UNL     1      -4.700  -0.820  -2.009  1.00  0.00     0.028 A 
ATOM     14  N   UNL     1      -5.102   0.739  -0.231  1.00  0.00    -0.257 NA
ATOM     15  C   UNL     1      -5.926  -0.498  -2.587  1.00  0.00     0.004 A 
ATOM     16  C   UNL     1      -6.286   1.036  -0.810  1.00  0.00     0.111 A 
ATOM     17  C   UNL     1      -6.738   0.449  -1.978  1.00  0.00     0.020 A 
ENDBRANCH  11  12
ENDBRANCH   8  11
ENDBRANCH   3   8
BRANCH   7  18
ATOM     18  C   UNL     1       2.562  -0.238   0.592  1.00  0.00    -0.018 A 
ATOM     19  C   UNL     1       2.972  -0.739  -0.651  1.00  0.00     0.009 A 
ATOM     20  C   UNL     1       3.418   0.635   1.276  1.00  0.00     0.009 A 
ATOM     21  C   UNL     1       4.203  -0.367  -1.200  1.00  0.00     0.007 A 
ATOM     22  C   UNL     1       4.649   1.008   0.726  1.00  0.00     0.007 A 
ATOM     23  C   UNL     1       5.050   0.521  -0.525  1.00  0.00    -0.023 A 
BRANCH  23  24
ATOM     24  C   UNL     1       6.397   0.903  -1.081  1.00  0.00     0.191 C 
BRANCH  24  25
ATOM     25  O   UNL     1       6.391   0.883  -2.503  1.00  0.00    -0.392 OA
ATOM     26  H   UNL     1       7.272   1.178  -2.788  1.00  0.00     0.211 HD
ENDBRANCH  24  25
ENDBRANCH  23  24
ENDBRANCH   7  18
TORSDOF 7
