MODEL        7USER    Run = 7USERUSER    Estimated Free Energy of Binding    =  -9.27 kcal/mol  [=(1)+(2)+(3)-(4)]USERUSER    (1) Final Intermolecular Energy     = -11.36 kcal/molUSER        vdW + Hbond + desolv Energy     = -11.28 kcal/molUSER        Electrostatic Energy            =  -0.07 kcal/molUSER        Moving Ligand-Fixed Receptor    = -11.36 kcal/molUSER        Moving Ligand-Moving Receptor   =  +0.00 kcal/molUSER    (2) Final Total Internal Energy     =  -1.02 kcal/molUSER    (3) Torsional Free Energy           =  +2.09 kcal/molUSER    (4) Unbound System's Energy         =  -1.02 kcal/molUSERUSERREMARK SMILES Cc1c(C(C#N)=Cc2ccccn2)cccc1-c1ccc(CO)cc1REMARK SMILES IDX 1 1 2 2 3 3 14 4 15 5 16 6 17 7 4 8 5 9 6 10 7 11 8 12 9 13REMARK SMILES IDX 13 14 10 15 12 16 11 17 18 18 19 19 25 20 20 21 24 22 21 23REMARK SMILES IDX 22 24 23 25REMARK H PARENT 23 26USER                              x       y       z     vdW  Elec       q    TypeUSER                           _______ _______ _______ _____ _____    ______ ____ROOTATOM      1  C   UNL     1      38.184  45.185  18.107 -0.41 -0.01    +0.046 C  ATOM      2  C   UNL     1      39.454  46.001  18.197 -0.41 +0.00    -0.035 A  ATOM      3  C   UNL     1      40.326  45.861  19.307 -0.43 +0.00    -0.004 A  ATOM      4  C   UNL     1      41.504  46.624  19.373 -0.45 +0.00    +0.010 A  ATOM      5  C   UNL     1      41.834  47.510  18.354 -0.53 -0.00    +0.001 A  ATOM      6  C   UNL     1      40.997  47.633  17.249 -0.52 -0.00    +0.009 A  ATOM      7  C   UNL     1      39.810  46.884  17.146 -0.47 +0.00    -0.015 A  ENDROOTBRANCH   3   8ATOM      8  C   UNL     1      40.066  44.911  20.413 -0.38 +0.00    +0.062 C  BRANCH   8   9ATOM      9  C   UNL     1      41.121  44.020  20.787 -0.31 +0.01    +0.100 C  ATOM     10  N   UNL     1      41.936  43.280  21.158 -0.24 -0.02    -0.192 NA ENDBRANCH   8   9BRANCH   8  11ATOM     11  C   UNL     1      38.839  44.944  20.975 -0.38 +0.00    +0.048 C  BRANCH  11  12ATOM     12  C   UNL     1      37.919  43.826  21.235 -0.32 +0.00    +0.064 A  ATOM     13  C   UNL     1      38.162  42.953  22.293 -0.32 +0.00    +0.028 A  ATOM     14  N   UNL     1      36.854  43.688  20.421 -0.23 +0.01    -0.257 NA ATOM     15  C   UNL     1      37.275  41.902  22.517 -0.50 +0.00    +0.004 A  ATOM     16  C   UNL     1      36.008  42.661  20.657 -0.39 +0.00    +0.111 A  ATOM     17  C   UNL     1      36.175  41.749  21.684 -0.54 +0.00    +0.020 A  ENDBRANCH  11  12ENDBRANCH   8  11ENDBRANCH   3   8BRANCH   7  18ATOM     18  C   UNL     1      38.987  47.048  15.938 -0.44 +0.01    -0.018 A  ATOM     19  C   UNL     1      38.791  45.979  15.054 -0.39 -0.00    +0.009 A  ATOM     20  C   UNL     1      38.390  48.280  15.640 -0.47 -0.01    +0.009 A  ATOM     21  C   UNL     1      38.009  46.136  13.906 -0.42 -0.00    +0.007 A  ATOM     22  C   UNL     1      37.606  48.437  14.492 -0.54 -0.00    +0.007 A  ATOM     23  C   UNL     1      37.396  47.362  13.618 -0.52 +0.01    -0.023 A  BRANCH  23  24ATOM     24  C   UNL     1      36.582  47.563  12.366 -0.58 -0.08    +0.191 C  BRANCH  24  25ATOM     25  O   UNL     1      37.377  47.382  11.201 -0.79 +0.09    -0.392 OA ATOM     26  H   UNL     1      37.294  48.198  10.680 -0.30 -0.09    +0.211 HD ENDBRANCH  24  25ENDBRANCH  23  24ENDBRANCH   7  18TORSDOF 7TERENDMDL