MODEL        2USER    Run = 2USERUSER    Estimated Free Energy of Binding    =  -5.75 kcal/mol  [=(1)+(2)+(3)-(4)]USERUSER    (1) Final Intermolecular Energy     =  -9.33 kcal/molUSER        vdW + Hbond + desolv Energy     =  -9.25 kcal/molUSER        Electrostatic Energy            =  -0.08 kcal/molUSER        Moving Ligand-Fixed Receptor    =  -9.33 kcal/molUSER        Moving Ligand-Moving Receptor   =  +0.00 kcal/molUSER    (2) Final Total Internal Energy     =  -3.04 kcal/molUSER    (3) Torsional Free Energy           =  +3.58 kcal/molUSER    (4) Unbound System's Energy         =  -3.04 kcal/molUSERUSERREMARK SMILES CCCCC(=CNCCCCN)Nc1ccccn1REMARK SMILES IDX 7 1 6 3 5 4 4 5 3 6 2 7 1 8 13 9 14 11 15 12 19 13 16 14REMARK SMILES IDX 18 15 17 16 8 17 9 18 10 19 11 20 12 21REMARK H PARENT 7 2 13 10 12 22 12 23USER                              x       y       z     vdW  Elec       q    TypeUSER                           _______ _______ _______ _____ _____    ______ ____ROOTATOM      1  N   UNL     1      38.959  46.292  16.949 -0.15 +0.10    -0.390 N  ATOM      2  H   UNL     1      38.042  46.397  16.510 +0.10 -0.06    +0.160 HD ENDROOTBRANCH   1   3ATOM      3  C   UNL     1      39.759  47.383  16.660 -0.48 -0.03    +0.099 C  BRANCH   3   4ATOM      4  C   UNL     1      39.520  48.455  15.877 -0.57 -0.01    +0.032 C  BRANCH   4   5ATOM      5  C   UNL     1      40.593  49.524  15.683 -0.66 -0.02    +0.055 C  BRANCH   5   6ATOM      6  C   UNL     1      41.408  49.295  14.402 -0.70 -0.00    +0.006 C  BRANCH   6   7ATOM      7  C   UNL     1      42.438  50.397  14.139 -0.75 +0.00    -0.003 C  ATOM      8  C   UNL     1      42.892  50.469  12.688 -0.76 -0.00    +0.004 C  ENDBRANCH   6   7ENDBRANCH   5   6ENDBRANCH   4   5BRANCH   4   9ATOM      9  N   UNL     1      38.373  48.674  15.131 -0.26 +0.21    -0.342 N  ATOM     10  H   UNL     1      38.163  49.648  14.936 -0.45 -0.15    +0.168 HD BRANCH   9  11ATOM     11  C   UNL     1      37.674  47.870  14.231 -0.43 -0.06    +0.130 A  ATOM     12  C   UNL     1      36.863  48.377  13.221 -0.47 -0.02    +0.047 A  ATOM     13  N   UNL     1      37.881  46.541  14.365 -0.24 +0.09    -0.239 NA ATOM     14  C   UNL     1      36.216  47.501  12.350 -0.69 -0.00    +0.005 A  ATOM     15  C   UNL     1      37.243  45.708  13.513 -0.38 -0.04    +0.113 A  ATOM     16  C   UNL     1      36.404  46.136  12.501 -0.60 -0.01    +0.020 A  ENDBRANCH   9  11ENDBRANCH   4   9ENDBRANCH   3   4ENDBRANCH   1   3BRANCH   1  17ATOM     17  C   UNL     1      38.795  45.816  18.324 -0.38 -0.02    +0.112 C  BRANCH  17  18ATOM     18  C   UNL     1      37.799  44.657  18.334 -0.41 -0.00    +0.022 C  BRANCH  18  19ATOM     19  C   UNL     1      36.336  45.112  18.356 -0.38 -0.00    +0.017 C  BRANCH  19  20ATOM     20  C   UNL     1      35.786  45.431  16.966 -0.34 -0.04    +0.077 C  BRANCH  20  21ATOM     21  N   UNL     1      35.929  46.849  16.662 -0.14 +0.34    -0.330 NA ATOM     22  H   UNL     1      35.033  47.321  16.779 -0.20 -0.23    +0.118 HD ATOM     23  H   UNL     1      36.179  46.967  15.679 +0.08 -0.11    +0.118 HD ENDBRANCH  20  21ENDBRANCH  19  20ENDBRANCH  18  19ENDBRANCH  17  18ENDBRANCH   1  17TORSDOF 12TERENDMDL