REMARK SMILES C[C@@H]1C=CC=CC(=O)OC=c2nc(NCc3ccccc3)ccc2=NC=C1
REMARK SMILES IDX 11 1 12 2 13 3 22 4 23 5 24 6 25 7 26 8 27 9 2 10 1 11 3 12
REMARK SMILES IDX 10 14 9 15 7 16 8 17 6 18 5 19 4 20 14 22 15 24 16 25 17 26
REMARK SMILES IDX 21 27 18 28 20 29 19 30
REMARK H PARENT 14 23
REMARK Flexibility Score:   44.900
ROOT
ATOM      1  C   UNL     1       0.246  -0.115  -0.391  1.00  0.00     0.126 A 
ATOM      2  N   UNL     1      -1.061   0.083   0.015  1.00  0.00    -0.226 NA
ATOM      3  C   UNL     1      -1.898  -0.910  -0.083  1.00  0.00     0.127 A 
ATOM      4  C   UNL     1      -1.496  -2.255  -0.579  1.00  0.00     0.049 A 
ATOM      5  C   UNL     1      -0.198  -2.544  -0.683  1.00  0.00     0.034 A 
ATOM      6  C   UNL     1       0.822  -1.518  -0.337  1.00  0.00     0.092 A 
ENDROOT
BRANCH   6   7
ATOM      7  N   UNL     1       1.985  -1.997  -0.018  1.00  0.00    -0.255 NA
BRANCH   7   8
ATOM      8  C   UNL     1       2.978  -1.172   0.406  1.00  0.00     0.108 C 
BRANCH   8   9
ATOM      9  C   UNL     1       4.261  -1.561   0.356  1.00  0.00     0.000 C 
BRANCH   9  10
ATOM     10  C   UNL     1       5.437  -0.641   0.584  1.00  0.00     0.033 C 
ATOM     11  C   UNL     1       5.620  -0.312   2.065  1.00  0.00     0.016 C 
BRANCH  10  12
ATOM     12  C   UNL     1       5.290   0.607  -0.264  1.00  0.00    -0.020 CG0
ATOM     13  G   UNL     1       5.245   0.555  -1.606  1.00  0.00     0.000 G0
ENDBRANCH  10  12
ENDBRANCH   9  10
ENDBRANCH   8   9
ENDBRANCH   7   8
ENDBRANCH   6   7
BRANCH   1  14
ATOM     14  C   UNL     1       0.884   0.958  -0.896  1.00  0.00     0.230 C 
BRANCH  14  15
ATOM     15  O   UNL     1       2.139   1.018  -1.502  1.00  0.00    -0.429 OA
BRANCH  15  16
ATOM     16  C   UNL     1       2.686   2.277  -1.455  1.00  0.00     0.335 C 
ATOM     17  O   UNL     1       2.274   3.243  -0.823  1.00  0.00    -0.246 OA
BRANCH  16  18
ATOM     18  C   UNL     1       3.815   2.423  -2.397  1.00  0.00     0.094 C 
BRANCH  18  19
ATOM     19  C   UNL     1       4.926   1.675  -2.452  1.00  0.00     0.007 C 
BRANCH  19  20
ATOM     20  C   UNL     1       5.245   0.555  -1.606  1.00  0.00    -0.003 CG0
ATOM     21  G   UNL     1       5.290   0.607  -0.264  1.00  0.00     0.000 G0
ENDBRANCH  19  20
ENDBRANCH  18  19
ENDBRANCH  16  18
ENDBRANCH  15  16
ENDBRANCH  14  15
ENDBRANCH   1  14
BRANCH   3  22
ATOM     22  N   UNL     1      -3.210  -0.723   0.271  1.00  0.00    -0.366 N 
ATOM     23  H   UNL     1      -3.886  -1.457   0.100  1.00  0.00     0.162 HD
BRANCH  22  24
ATOM     24  C   UNL     1      -3.755   0.565   0.639  1.00  0.00     0.150 C 
BRANCH  24  25
ATOM     25  C   UNL     1      -5.226   0.418   0.942  1.00  0.00    -0.029 A 
ATOM     26  C   UNL     1      -5.663   0.155   2.249  1.00  0.00     0.005 A 
ATOM     27  C   UNL     1      -6.174   0.497  -0.089  1.00  0.00     0.005 A 
ATOM     28  C   UNL     1      -7.023  -0.005   2.521  1.00  0.00     0.000 A 
ATOM     29  C   UNL     1      -7.533   0.335   0.185  1.00  0.00     0.000 A 
ATOM     30  C   UNL     1      -7.957   0.086   1.490  1.00  0.00     0.000 A 
ENDBRANCH  24  25
ENDBRANCH  22  24
ENDBRANCH   3  22
TORSDOF 3
