REMARK SMILES C=CC=Cc1[nH]c(-c2ccn[nH]2)nc1C(=O)N[C@H]1CC[C@](O)(CC(C)C)C[C@@H]1C
REMARK SMILES IDX 5 1 6 2 7 3 13 4 14 5 4 7 3 8 2 9 1 10 15 11 17 12 16 13
REMARK SMILES IDX 18 15 19 16 28 17 20 18 27 19 21 20 29 21 22 22 23 24 24 25
REMARK SMILES IDX 25 26 26 27 8 28 9 29 12 30 10 31 11 32
REMARK H PARENT 6 6 17 14 22 23 12 33
ROOT
ATOM      1  C   UNL     1      -3.523   0.133  -0.123  1.00  0.00     0.072 A 
ATOM      2  N   UNL     1      -4.720  -0.363  -0.588  1.00  0.00    -0.336 N 
ATOM      3  C   UNL     1      -4.925  -1.592  -0.029  1.00  0.00     0.156 A 
ATOM      4  N   UNL     1      -3.918  -1.933   0.738  1.00  0.00    -0.221 NA
ATOM      5  C   UNL     1      -3.006  -0.881   0.682  1.00  0.00     0.154 A 
ATOM      6  H   UNL     1      -5.368   0.113  -1.197  1.00  0.00     0.168 HD
ENDROOT
BRANCH   1   7
ATOM      7  C   UNL     1      -3.159   1.438  -0.535  1.00  0.00     0.028 C 
BRANCH   7   8
ATOM      8  C   UNL     1      -2.675   2.327   0.346  1.00  0.00     0.002 C 
BRANCH   8   9
ATOM      9  C   UNL     1      -2.274   3.662  -0.032  1.00  0.00    -0.008 C 
ATOM     10  C   UNL     1      -1.787   4.549   0.844  1.00  0.00     0.008 C 
ENDBRANCH   8   9
ENDBRANCH   7   8
ENDBRANCH   1   7
BRANCH   5  11
ATOM     11  C   UNL     1      -1.718  -0.957   1.394  1.00  0.00     0.272 C 
ATOM     12  N   UNL     1      -0.724  -0.126   0.913  1.00  0.00    -0.348 N 
ATOM     13  O   UNL     1      -1.524  -1.732   2.326  1.00  0.00    -0.267 OA
ATOM     14  H   UNL     1      -0.890   0.326   0.024  1.00  0.00     0.164 HD
BRANCH  12  15
ATOM     15  C   UNL     1       0.654  -0.201   1.382  1.00  0.00     0.085 C 
ATOM     16  C   UNL     1       1.424  -1.280   0.597  1.00  0.00     0.028 C 
ATOM     17  C   UNL     1       1.309   1.198   1.268  1.00  0.00     0.011 C 
ATOM     18  C   UNL     1       2.059  -0.702  -0.664  1.00  0.00     0.037 C 
ATOM     19  C   UNL     1       2.817   1.075   1.013  1.00  0.00     0.040 C 
ATOM     20  C   UNL     1       3.110   0.383  -0.344  1.00  0.00     0.065 C 
ATOM     21  C   UNL     1       1.033   2.031   2.522  1.00  0.00     0.010 C 
BRANCH  20  22
ATOM     22  O   UNL     1       2.983   1.389  -1.358  1.00  0.00    -0.390 OA
ATOM     23  H   UNL     1       3.679   2.052  -1.215  1.00  0.00     0.211 HD
ENDBRANCH  20  22
BRANCH  20  24
ATOM     24  C   UNL     1       4.569  -0.144  -0.325  1.00  0.00     0.038 C 
BRANCH  24  25
ATOM     25  C   UNL     1       5.105  -0.893  -1.569  1.00  0.00    -0.015 C 
ATOM     26  C   UNL     1       5.031  -0.082  -2.862  1.00  0.00     0.007 C 
ATOM     27  C   UNL     1       6.558  -1.314  -1.315  1.00  0.00     0.007 C 
ENDBRANCH  24  25
ENDBRANCH  20  24
ENDBRANCH  12  15
ENDBRANCH   5  11
BRANCH   3  28
ATOM     28  C   UNL     1      -6.067  -2.405  -0.237  1.00  0.00     0.100 A 
ATOM     29  C   UNL     1      -7.182  -2.277  -1.033  1.00  0.00     0.053 A 
ATOM     30  N   UNL     1      -6.219  -3.594   0.425  1.00  0.00    -0.275 N 
ATOM     31  C   UNL     1      -7.939  -3.439  -0.779  1.00  0.00     0.135 A 
ATOM     32  N   UNL     1      -7.356  -4.245   0.111  1.00  0.00    -0.184 NA
ATOM     33  H   UNL     1      -5.577  -4.000   1.099  1.00  0.00     0.190 HD
ENDBRANCH   3  28
TORSDOF 9
