REMARK SMILES C#Cc1cc(NC2CC2)nn1Cc1ccccc1Cl
REMARK SMILES IDX 3 1 4 2 5 3 10 4 11 5 2 6 1 7 12 8 13 9 14 10 18 11 15 12
REMARK SMILES IDX 17 13 16 14 19 15 6 16 7 18 8 19 9 20
REMARK H PARENT 6 17
ROOT
ATOM      1  C   UNL     1       0.142  -1.513   1.722  1.00  0.00     0.113 A 
ATOM      2  C   UNL     1       1.386  -1.924   1.300  1.00  0.00     0.085 A 
ATOM      3  C   UNL     1       1.942  -0.823   0.603  1.00  0.00     0.149 A 
ATOM      4  N   UNL     1       1.100   0.210   0.607  1.00  0.00    -0.154 NA
ATOM      5  N   UNL     1       0.007  -0.231   1.258  1.00  0.00    -0.250 N 
ENDROOT
BRANCH   1   6
ATOM      6  C   UNL     1      -0.805  -2.255   2.477  1.00  0.00    -0.051 C 
ATOM      7  C   UNL     1      -1.600  -2.887   3.117  1.00  0.00     0.011 C 
ENDBRANCH   1   6
BRANCH   5   8
ATOM      8  C   UNL     1      -1.124   0.669   1.442  1.00  0.00     0.182 C 
BRANCH   8   9
ATOM      9  C   UNL     1      -2.032   0.681   0.235  1.00  0.00    -0.008 A 
ATOM     10  C   UNL     1      -3.022  -0.315   0.115  1.00  0.00     0.007 A 
ATOM     11  C   UNL     1      -1.916   1.629  -0.795  1.00  0.00     0.046 A 
ATOM     12  C   UNL     1      -3.868  -0.360  -0.995  1.00  0.00     0.000 A 
ATOM     13  C   UNL     1      -2.766   1.579  -1.905  1.00  0.00     0.021 A 
ATOM     14  C   UNL     1      -3.740   0.587  -2.006  1.00  0.00     0.002 A 
ATOM     15  Cl  UNL     1      -0.757   2.909  -0.747  1.00  0.00    -0.084 Cl
ENDBRANCH   8   9
ENDBRANCH   5   8
BRANCH   3  16
ATOM     16  N   UNL     1       3.177  -0.898   0.052  1.00  0.00    -0.366 N 
ATOM     17  H   UNL     1       3.646  -1.797   0.070  1.00  0.00     0.162 HD
BRANCH  16  18
ATOM     18  C   UNL     1       3.777   0.119  -0.818  1.00  0.00     0.080 C 
ATOM     19  C   UNL     1       3.584   1.601  -0.677  1.00  0.00     0.027 C 
ATOM     20  C   UNL     1       3.015   0.875  -1.867  1.00  0.00     0.027 C 
ENDBRANCH  16  18
ENDBRANCH   3  16
TORSDOF 5
