
     RDKit          3D

 46 47  0  0  0  0  0  0  0  0999 V2000
    5.4597   -0.3170    0.3937 C   0  0  0  0  0  0  0  0  0  0  0  0
    4.7909    0.9535    0.6565 N   0  0  0  0  0  0  0  0  0  0  0  0
    4.6889    1.2083    2.0905 C   0  0  0  0  0  0  0  0  0  0  0  0
    3.5030    1.0810   -0.0428 C   0  0  0  0  0  0  0  0  0  0  0  0
    2.3955    0.0845    0.3477 C   0  0  0  0  0  0  0  0  0  0  0  0
    1.1270    0.3536   -0.4247 C   0  0  0  0  0  0  0  0  0  0  0  0
    0.6215   -0.3169   -1.4747 C   0  0  0  0  0  0  0  0  0  0  0  0
    0.9764   -1.7495   -1.7588 C   0  0  0  0  0  0  0  0  0  0  0  0
    0.0576   -2.7016   -0.9424 C   0  0  0  0  0  0  0  0  0  0  0  0
   -0.4036   -2.1101    0.3394 N   0  0  0  0  0  0  0  0  0  0  0  0
   -1.5740   -1.3558    0.3536 C   0  0  0  0  0  0  0  0  0  0  0  0
   -1.8364   -0.0412    0.5250 C   0  0  0  0  0  0  0  0  0  0  0  0
   -3.2866    0.2935    0.5444 C   0  0  0  0  0  0  0  0  0  0  0  0
   -3.9812    0.1451    1.7591 C   0  0  0  0  0  0  0  0  0  0  0  0
   -5.3392    0.4488    1.8487 C   0  0  0  0  0  0  0  0  0  0  0  0
   -6.0206    0.9096    0.7276 C   0  0  0  0  0  0  0  0  0  0  0  0
   -5.3435    1.0685   -0.4822 C   0  0  0  0  0  0  0  0  0  0  0  0
   -3.9715    0.7656   -0.5926 C   0  0  0  0  0  0  0  0  0  0  0  0
   -3.2719    0.9431   -1.9158 C   0  0  0  0  0  0  0  0  0  0  0  0
   -2.7226   -0.2131   -2.3890 F   0  0  0  0  0  0  0  0  0  0  0  0
   -2.2678    1.8623   -1.8981 F   0  0  0  0  0  0  0  0  0  0  0  0
   -4.1137    1.3594   -2.9105 F   0  0  0  0  0  0  0  0  0  0  0  0
   -1.0317    1.0580    0.7175 N   0  0  0  0  0  0  0  0  0  0  0  0
    0.1715    1.2494    0.2843 C   0  0  0  0  0  0  0  0  0  0  0  0
    4.9349   -1.1696    0.8377 H   0  0  0  0  0  0  0  0  0  0  0  0
    5.5545   -0.4908   -0.6838 H   0  0  0  0  0  0  0  0  0  0  0  0
    6.4782   -0.3008    0.7980 H   0  0  0  0  0  0  0  0  0  0  0  0
    4.1262    0.4308    2.6179 H   0  0  0  0  0  0  0  0  0  0  0  0
    4.2080    2.1742    2.2803 H   0  0  0  0  0  0  0  0  0  0  0  0
    5.6877    1.2637    2.5382 H   0  0  0  0  0  0  0  0  0  0  0  0
    3.1377    2.1063    0.1041 H   0  0  0  0  0  0  0  0  0  0  0  0
    3.6906    1.0017   -1.1224 H   0  0  0  0  0  0  0  0  0  0  0  0
    2.7412   -0.9396    0.1838 H   0  0  0  0  0  0  0  0  0  0  0  0
    2.1812    0.1553    1.4211 H   0  0  0  0  0  0  0  0  0  0  0  0
   -0.3208    0.0050   -1.9156 H   0  0  0  0  0  0  0  0  0  0  0  0
    0.8680   -1.9576   -2.8292 H   0  0  0  0  0  0  0  0  0  0  0  0
    2.0242   -1.9590   -1.5216 H   0  0  0  0  0  0  0  0  0  0  0  0
   -0.8105   -2.9869   -1.5501 H   0  0  0  0  0  0  0  0  0  0  0  0
    0.6050   -3.6249   -0.7230 H   0  0  0  0  0  0  0  0  0  0  0  0
    0.3474   -1.5945    0.7921 H   0  0  0  0  0  0  0  0  0  0  0  0
   -2.4105   -2.0309    0.1627 H   0  0  0  0  0  0  0  0  0  0  0  0
   -3.4533   -0.2025    2.6456 H   0  0  0  0  0  0  0  0  0  0  0  0
   -5.8603    0.3307    2.7953 H   0  0  0  0  0  0  0  0  0  0  0  0
   -7.0788    1.1505    0.7953 H   0  0  0  0  0  0  0  0  0  0  0  0
   -5.8950    1.4351   -1.3474 H   0  0  0  0  0  0  0  0  0  0  0  0
    0.6166    2.2247    0.5519 H   0  0  0  0  0  0  0  0  0  0  0  0
  1  2  1  0
  2  3  1  0
  2  4  1  0
  4  5  1  0
  5  6  1  0
  6  7  2  3
  7  8  1  0
  8  9  1  0
  9 10  1  0
 10 11  1  0
 11 12  2  3
 12 13  1  0
 13 14  2  0
 14 15  1  0
 15 16  2  0
 16 17  1  0
 17 18  2  0
 18 19  1  0
 19 20  1  0
 19 21  1  0
 19 22  1  0
 12 23  1  0
 23 24  2  3
 24  6  1  0
 18 13  1  0
  1 25  1  0
  1 26  1  0
  1 27  1  0
  3 28  1  0
  3 29  1  0
  3 30  1  0
  4 31  1  0
  4 32  1  0
  5 33  1  0
  5 34  1  0
  7 35  1  0
  8 36  1  0
  8 37  1  0
  9 38  1  0
  9 39  1  0
 10 40  1  0
 11 41  1  0
 14 42  1  0
 15 43  1  0
 16 44  1  0
 17 45  1  0
 24 46  1  0
M  END
$$$$
