
     RDKit          3D

 38 40  0  0  0  0  0  0  0  0999 V2000
   -3.6114    0.2225    2.4767 O   0  0  0  0  0  0  0  0  0  0  0  0
   -3.3956   -0.9945    1.7233 S   0  0  0  0  0  0  0  0  0  0  0  0
   -4.1912   -2.1720    2.0069 O   0  0  0  0  0  0  0  0  0  0  0  0
   -3.4980   -0.6694   -0.0531 C   0  0  0  0  0  0  0  0  0  0  0  0
   -2.8471    0.6470   -0.3780 C   0  0  0  0  0  0  0  0  0  0  0  0
   -1.8432    0.8872   -1.2342 C   0  0  0  0  0  0  0  0  0  0  0  0
   -1.1459   -0.0717   -2.0517 C   0  0  0  0  0  0  0  0  0  0  0  0
   -0.3686   -1.1009   -1.6773 C   0  0  0  0  0  0  0  0  0  0  0  0
    0.1584   -1.8203   -2.7020 F   0  0  0  0  0  0  0  0  0  0  0  0
    0.0316   -1.5690   -0.3022 C   0  0  0  0  0  0  0  0  0  0  0  0
    0.1494   -0.5396    0.8002 C   0  0  0  0  0  0  0  0  0  0  0  0
   -0.7511   -0.5231    1.8800 C   0  0  0  0  0  0  0  0  0  0  0  0
   -0.6207    0.4066    2.9033 C   0  0  0  0  0  0  0  0  0  0  0  0
    0.3926    1.3295    2.7909 C   0  0  0  0  0  0  0  0  0  0  0  0
    0.6244    2.5353    3.9871 Cl  0  0  0  0  0  0  0  0  0  0  0  0
    1.2724    1.3728    1.7763 N   0  0  0  0  0  0  0  0  0  0  0  0
    1.1574    0.4383    0.8003 C   0  0  0  0  0  0  0  0  0  0  0  0
    2.1838    0.5604   -0.2447 C   0  0  0  0  0  0  0  0  0  0  0  0
    3.2223   -0.3777   -0.3635 C   0  0  0  0  0  0  0  0  0  0  0  0
    4.1888   -0.2539   -1.3648 C   0  0  0  0  0  0  0  0  0  0  0  0
    4.1379    0.8166   -2.2546 C   0  0  0  0  0  0  0  0  0  0  0  0
    3.1279    1.7688   -2.1393 C   0  0  0  0  0  0  0  0  0  0  0  0
    2.1622    1.6440   -1.1381 C   0  0  0  0  0  0  0  0  0  0  0  0
   -1.7943   -1.5012    1.9399 N   0  0  0  0  0  0  0  0  0  0  0  0
   -4.5653   -0.6137   -0.2916 H   0  0  0  0  0  0  0  0  0  0  0  0
   -3.0779   -1.5300   -0.5779 H   0  0  0  0  0  0  0  0  0  0  0  0
   -3.2760    1.5085    0.1374 H   0  0  0  0  0  0  0  0  0  0  0  0
   -1.5356    1.9220   -1.3907 H   0  0  0  0  0  0  0  0  0  0  0  0
   -1.2363    0.1098   -3.1229 H   0  0  0  0  0  0  0  0  0  0  0  0
   -0.6526   -2.3785   -0.0233 H   0  0  0  0  0  0  0  0  0  0  0  0
    1.0010   -2.0763   -0.3858 H   0  0  0  0  0  0  0  0  0  0  0  0
   -1.2978    0.4288    3.7491 H   0  0  0  0  0  0  0  0  0  0  0  0
    3.2903   -1.2098    0.3338 H   0  0  0  0  0  0  0  0  0  0  0  0
    4.9854   -0.9891   -1.4449 H   0  0  0  0  0  0  0  0  0  0  0  0
    4.8921    0.9152   -3.0311 H   0  0  0  0  0  0  0  0  0  0  0  0
    3.0949    2.6131   -2.8229 H   0  0  0  0  0  0  0  0  0  0  0  0
    1.3873    2.4029   -1.0496 H   0  0  0  0  0  0  0  0  0  0  0  0
   -1.7514   -2.1384    2.7391 H   0  0  0  0  0  0  0  0  0  0  0  0
  1  2  2  0
  2  3  2  0
  2  4  1  0
  4  5  1  0
  5  6  2  3
  6  7  1  0
  7  8  2  3
  8  9  1  0
  8 10  1  0
 10 11  1  0
 11 12  2  0
 12 13  1  0
 13 14  2  0
 14 15  1  0
 14 16  1  0
 16 17  2  0
 17 18  1  0
 18 19  2  0
 19 20  1  0
 20 21  2  0
 21 22  1  0
 22 23  2  0
 12 24  1  0
 24  2  1  0
 17 11  1  0
 23 18  1  0
  4 25  1  0
  4 26  1  0
  5 27  1  0
  6 28  1  0
  7 29  1  0
 10 30  1  0
 10 31  1  0
 13 32  1  0
 19 33  1  0
 20 34  1  0
 21 35  1  0
 22 36  1  0
 23 37  1  0
 24 38  1  0
M  END
$$$$
