
     RDKit          3D

 54 55  0  0  0  0  0  0  0  0999 V2000
   -6.5327    1.8488   -1.8298 C   0  0  0  0  0  0  0  0  0  0  0  0
   -7.2142    0.9497   -0.8176 C   0  0  0  0  0  0  0  0  0  0  0  0
   -6.1843    0.1683   -0.0514 C   0  0  0  0  0  0  0  0  0  0  0  0
   -6.1792   -1.1228   -0.0915 N   0  0  0  0  0  0  0  0  0  0  0  0
   -5.1840   -1.7083    0.6366 C   0  0  0  0  0  0  0  0  0  0  0  0
   -5.5836   -2.3919    1.7403 N   0  0  0  0  0  0  0  0  0  0  0  0
   -3.9853   -1.5743    0.1802 N   0  0  0  0  0  0  0  0  0  0  0  0
   -2.9138   -2.1602    0.7867 C   0  0  0  0  0  0  0  0  0  0  0  0
   -3.1100   -3.1974    1.5405 N   0  0  0  0  0  0  0  0  0  0  0  0
   -1.6466   -1.6590    0.5862 N   0  0  0  0  0  0  0  0  0  0  0  0
   -1.5149   -0.3437   -0.0747 C   0  0  0  0  0  0  0  0  0  0  0  0
   -0.1137    0.2593    0.1748 C   0  0  0  0  0  0  0  0  0  0  0  0
    0.9919   -0.6379   -0.2265 N   0  0  0  0  0  0  0  0  0  0  0  0
    2.3178   -0.0790    0.1355 C   0  0  0  0  0  0  0  0  0  0  0  0
    2.7520    1.1892   -0.6562 C   0  0  0  0  0  0  0  0  0  0  0  0
    2.8665    0.9152   -2.0539 O   0  0  0  0  0  0  0  0  0  0  0  0
    4.0641    1.7521   -0.1276 C   0  0  0  0  0  0  0  0  0  0  0  0
    4.0317    2.9596    0.5949 C   0  0  0  0  0  0  0  0  0  0  0  0
    5.1971    3.5051    1.1284 C   0  0  0  0  0  0  0  0  0  0  0  0
    6.4117    2.8535    0.9454 C   0  0  0  0  0  0  0  0  0  0  0  0
    6.4653    1.6574    0.2259 C   0  0  0  0  0  0  0  0  0  0  0  0
    5.3005    1.0981   -0.3100 C   0  0  0  0  0  0  0  0  0  0  0  0
    5.2619   -0.0683   -1.0320 O   0  0  0  0  0  0  0  0  0  0  0  0
    6.4794   -0.7967   -1.1620 C   0  0  0  0  0  0  0  0  0  0  0  0
    0.8085   -1.9575    0.4154 C   0  0  0  0  0  0  0  0  0  0  0  0
   -0.5783   -2.5755    0.1414 C   0  0  0  0  0  0  0  0  0  0  0  0
   -5.8817    2.5751   -1.3327 H   0  0  0  0  0  0  0  0  0  0  0  0
   -7.2769    2.4001   -2.4131 H   0  0  0  0  0  0  0  0  0  0  0  0
   -5.9126    1.2654   -2.5195 H   0  0  0  0  0  0  0  0  0  0  0  0
   -7.7902    1.5502   -0.1045 H   0  0  0  0  0  0  0  0  0  0  0  0
   -7.8993    0.2620   -1.3240 H   0  0  0  0  0  0  0  0  0  0  0  0
   -5.4533    0.7482    0.5421 H   0  0  0  0  0  0  0  0  0  0  0  0
   -4.8452   -3.0592    1.9867 H   0  0  0  0  0  0  0  0  0  0  0  0
   -6.4734   -2.8437    1.5835 H   0  0  0  0  0  0  0  0  0  0  0  0
   -2.2003   -3.4411    1.9358 H   0  0  0  0  0  0  0  0  0  0  0  0
   -2.2571    0.3594    0.3236 H   0  0  0  0  0  0  0  0  0  0  0  0
   -1.6935   -0.4487   -1.1528 H   0  0  0  0  0  0  0  0  0  0  0  0
   -0.0588    1.1969   -0.3877 H   0  0  0  0  0  0  0  0  0  0  0  0
   -0.0257    0.5078    1.2414 H   0  0  0  0  0  0  0  0  0  0  0  0
    3.0600   -0.8644   -0.0556 H   0  0  0  0  0  0  0  0  0  0  0  0
    2.3520    0.1313    1.2132 H   0  0  0  0  0  0  0  0  0  0  0  0
    1.9811    1.9615   -0.5651 H   0  0  0  0  0  0  0  0  0  0  0  0
    3.6125    0.2920   -2.1381 H   0  0  0  0  0  0  0  0  0  0  0  0
    3.0908    3.4874    0.7435 H   0  0  0  0  0  0  0  0  0  0  0  0
    5.1578    4.4406    1.6812 H   0  0  0  0  0  0  0  0  0  0  0  0
    7.3226    3.2798    1.3575 H   0  0  0  0  0  0  0  0  0  0  0  0
    7.4371    1.1917    0.0990 H   0  0  0  0  0  0  0  0  0  0  0  0
    6.8864   -1.0726   -0.1818 H   0  0  0  0  0  0  0  0  0  0  0  0
    6.2556   -1.7227   -1.6994 H   0  0  0  0  0  0  0  0  0  0  0  0
    7.2120   -0.2353   -1.7535 H   0  0  0  0  0  0  0  0  0  0  0  0
    1.5686   -2.6523    0.0384 H   0  0  0  0  0  0  0  0  0  0  0  0
    0.9492   -1.8717    1.5010 H   0  0  0  0  0  0  0  0  0  0  0  0
   -0.6296   -3.5380    0.6622 H   0  0  0  0  0  0  0  0  0  0  0  0
   -0.6961   -2.7835   -0.9302 H   0  0  0  0  0  0  0  0  0  0  0  0
  1  2  1  0
  2  3  1  0
  3  4  2  3
  4  5  1  0
  5  6  1  0
  5  7  2  3
  7  8  1  0
  8  9  2  3
  8 10  1  0
 10 11  1  0
 11 12  1  0
 12 13  1  0
 13 14  1  0
 14 15  1  0
 15 16  1  0
 15 17  1  0
 17 18  2  0
 18 19  1  0
 19 20  2  0
 20 21  1  0
 21 22  2  0
 22 23  1  0
 23 24  1  0
 13 25  1  0
 25 26  1  0
 26 10  1  0
 22 17  1  0
  1 27  1  0
  1 28  1  0
  1 29  1  0
  2 30  1  0
  2 31  1  0
  3 32  1  0
  6 33  1  0
  6 34  1  0
  9 35  1  0
 11 36  1  0
 11 37  1  0
 12 38  1  0
 12 39  1  0
 14 40  1  0
 14 41  1  0
 15 42  1  0
 16 43  1  0
 18 44  1  0
 19 45  1  0
 20 46  1  0
 21 47  1  0
 24 48  1  0
 24 49  1  0
 24 50  1  0
 25 51  1  0
 25 52  1  0
 26 53  1  0
 26 54  1  0
M  END
$$$$
