MODEL        2USER    Run = 2USERUSER    Estimated Free Energy of Binding    = -10.07 kcal/mol  [=(1)+(2)+(3)-(4)]USERUSER    (1) Final Intermolecular Energy     = -11.26 kcal/molUSER        vdW + Hbond + desolv Energy     = -11.19 kcal/molUSER        Electrostatic Energy            =  -0.07 kcal/molUSER        Moving Ligand-Fixed Receptor    = -11.26 kcal/molUSER        Moving Ligand-Moving Receptor   =  +0.00 kcal/molUSER    (2) Final Total Internal Energy     =  -1.33 kcal/molUSER    (3) Torsional Free Energy           =  +1.19 kcal/molUSER    (4) Unbound System's Energy         =  -1.33 kcal/molUSERUSERREMARK SMILES CN1CCN(C(=O)c2ccc([C@@H](c3ccccc3)c3ccncc3)cc2)CC1REMARK SMILES IDX 8 1 9 2 10 3 11 4 25 5 26 6 6 7 2 8 3 9 28 10 4 11 27 12REMARK SMILES IDX 5 13 1 14 7 15 12 16 13 17 14 18 18 19 15 20 17 21 16 22REMARK SMILES IDX 19 23 20 24 24 25 21 26 23 27 22 28REMARK H PARENTUSER                              x       y       z     vdW  Elec       q    TypeUSER                           _______ _______ _______ _____ _____    ______ ____ROOTATOM      1  C   UNL     1      34.580  43.990  18.214 -0.30 -0.01    +0.040 A  ATOM      2  C   UNL     1      34.297  45.353  18.302 -0.43 -0.01    +0.014 A  ATOM      3  C   UNL     1      35.078  46.262  17.586 -0.41 -0.00    +0.005 A  ATOM      4  C   UNL     1      36.147  45.818  16.782 -0.33 +0.02    -0.036 A  ATOM      5  C   UNL     1      36.396  44.436  16.692 -0.33 -0.00    +0.005 A  ATOM      6  C   UNL     1      35.612  43.522  17.403 -0.33 -0.00    +0.014 A  ENDROOTBRANCH   1   7ATOM      7  C   UNL     1      33.769  43.029  18.984 -0.27 -0.03    +0.253 C  ATOM      8  N   UNL     1      30.826  40.613  16.867 -0.18 +0.08    -0.303 NA ATOM      9  C   UNL     1      30.991  42.051  16.586 -0.29 -0.04    +0.105 C  ATOM     10  C   UNL     1      31.543  40.185  18.088 -0.39 -0.01    +0.105 C  ATOM     11  C   UNL     1      32.401  42.574  16.907 -0.27 -0.06    +0.135 C  ATOM     12  C   UNL     1      32.005  41.323  19.020 -0.32 -0.00    +0.135 C  ATOM     13  N   UNL     1      32.773  42.343  18.311 -0.13 +0.06    -0.336 N  ATOM     14  C   UNL     1      29.410  40.254  16.909 -0.35 +0.00    +0.105 C  ATOM     15  O   UNL     1      34.022  42.889  20.175 -0.72 -0.04    -0.269 OA ENDBRANCH   1   7BRANCH   4  16ATOM     16  C   UNL     1      36.969  46.852  16.000 -0.39 -0.05    +0.079 C  BRANCH  16  17ATOM     17  C   UNL     1      38.410  47.006  16.506 -0.38 +0.02    -0.036 A  ATOM     18  C   UNL     1      38.831  46.249  17.616 -0.41 -0.00    +0.005 A  ATOM     19  C   UNL     1      39.344  47.855  15.887 -0.50 -0.00    +0.005 A  ATOM     20  C   UNL     1      40.137  46.352  18.099 -0.47 -0.00    +0.000 A  ATOM     21  C   UNL     1      40.650  47.956  16.371 -0.56 -0.00    +0.000 A  ATOM     22  C   UNL     1      41.045  47.208  17.479 -0.51 -0.00    +0.000 A  ENDBRANCH  16  17BRANCH  16  23ATOM     23  C   UNL     1      36.854  46.741  14.475 -0.41 +0.02    -0.033 A  ATOM     24  C   UNL     1      36.616  47.899  13.719 -0.53 -0.01    +0.025 A  ATOM     25  C   UNL     1      37.010  45.534  13.782 -0.43 -0.01    +0.025 A  ATOM     26  C   UNL     1      36.547  47.803  12.336 -0.55 -0.04    +0.111 A  ATOM     27  C   UNL     1      36.919  45.540  12.396 -0.47 -0.04    +0.111 A  ATOM     28  N   UNL     1      36.697  46.651  11.657 -0.51 +0.10    -0.265 NA ENDBRANCH  16  23ENDBRANCH   4  16TORSDOF 4TERENDMDL