MODEL        1USER    Run = 1USERUSER    Estimated Free Energy of Binding    =  -9.78 kcal/mol  [=(1)+(2)+(3)-(4)]USERUSER    (1) Final Intermolecular Energy     = -12.17 kcal/molUSER        vdW + Hbond + desolv Energy     = -11.88 kcal/molUSER        Electrostatic Energy            =  -0.29 kcal/molUSER        Moving Ligand-Fixed Receptor    = -12.17 kcal/molUSER        Moving Ligand-Moving Receptor   =  +0.00 kcal/molUSER    (2) Final Total Internal Energy     =  -2.97 kcal/molUSER    (3) Torsional Free Energy           =  +2.39 kcal/molUSER    (4) Unbound System's Energy         =  -2.97 kcal/molUSERUSERREMARK SMILES COc1cc(O)c(C(=O)c2ccc(C(=O)N[C@@H]3CCNC[C@@H]3NC(=O)c3ccncc3)cc2)cc1FREMARK SMILES IDX 10 1 11 2 12 3 13 4 32 5 33 6 8 7 9 8 7 9 3 10 4 11 35 12REMARK SMILES IDX 5 13 34 14 36 15 2 16 1 17 6 18 14 20 16 21 15 22 17 24REMARK SMILES IDX 18 25 22 26 19 27 21 28 20 29 23 31 24 32 25 34 26 35 27 36REMARK SMILES IDX 31 37 28 38 30 39 29 40REMARK H PARENT 6 19 16 23 20 30 23 33USER                              x       y       z     vdW  Elec       q    TypeUSER                           _______ _______ _______ _____ _____    ______ ____ROOTATOM      1  C   UNL     1      41.850  46.994  19.186 -0.47 +0.00    +0.023 A  ATOM      2  C   UNL     1      40.902  46.034  18.812 -0.47 -0.00    +0.013 A  ATOM      3  C   UNL     1      40.227  46.158  17.592 -0.47 -0.00    +0.014 A  ATOM      4  C   UNL     1      40.514  47.232  16.735 -0.48 -0.01    +0.039 A  ATOM      5  C   UNL     1      41.470  48.184  17.113 -0.41 -0.00    +0.014 A  ATOM      6  C   UNL     1      42.146  48.059  18.330 -0.40 -0.00    +0.013 A  ENDROOTBRANCH   1   7ATOM      7  C   UNL     1      42.598  46.883  20.459 -0.33 +0.04    +0.196 C  ATOM      8  O   UNL     1      43.826  46.819  20.425 -0.33 -0.20    -0.288 OA BRANCH   7   9ATOM      9  C   UNL     1      41.919  46.827  21.780 -0.19 +0.01    +0.067 A  ATOM     10  C   UNL     1      40.677  46.773  24.311 -0.13 +0.01    +0.158 A  ATOM     11  C   UNL     1      41.660  47.723  24.036 -0.23 +0.01    +0.096 A  ATOM     12  C   UNL     1      40.315  45.872  23.304 -0.14 +0.01    +0.166 A  ATOM     13  C   UNL     1      42.265  47.754  22.776 -0.20 +0.02    +0.130 A  ATOM     14  C   UNL     1      40.918  45.893  22.047 -0.23 +0.01    +0.059 A  ATOM     15  F   UNL     1      39.364  44.954  23.534 -0.02 -0.01    -0.203 F  BRANCH  10  16ATOM     16  O   UNL     1      40.010  46.637  25.499 +0.00 -0.03    -0.494 OA ATOM     17  C   UNL     1      38.703  47.194  25.576 -0.19 +0.02    +0.278 C  ENDBRANCH  10  16BRANCH  13  18ATOM     18  O   UNL     1      43.202  48.735  22.582 -0.59 -0.11    -0.507 OA ATOM     19  H   UNL     1      43.692  48.527  21.753 -0.44 -0.02    +0.293 HD ENDBRANCH  13  18ENDBRANCH   7   9ENDBRANCH   1   7BRANCH   4  20ATOM     20  C   UNL     1      39.819  47.410  15.429 -0.38 -0.06    +0.251 C  ATOM     21  N   UNL     1      38.740  46.584  15.191 -0.16 +0.11    -0.347 N  ATOM     22  O   UNL     1      40.229  48.237  14.623 -0.38 +0.06    -0.269 OA ATOM     23  H   UNL     1      38.624  45.762  15.771 +0.11 -0.04    +0.164 HD BRANCH  21  24ATOM     24  C   UNL     1      38.059  46.569  13.891 -0.44 -0.03    +0.107 C  ATOM     25  C   UNL     1      37.346  47.905  13.620 -0.60 -0.02    +0.042 C  ATOM     26  C   UNL     1      37.061  45.388  13.816 -0.42 -0.04    +0.118 C  ATOM     27  C   UNL     1      36.536  47.849  12.329 -0.64 -0.03    +0.083 C  ATOM     28  C   UNL     1      36.261  45.454  12.500 -0.45 -0.04    +0.108 C  ATOM     29  N   UNL     1      35.576  46.743  12.323 -0.34 +0.20    -0.315 NA ATOM     30  H   UNL     1      34.900  46.864  13.076 -0.08 -0.10    +0.122 HD BRANCH  26  31ATOM     31  N   UNL     1      36.168  45.378  14.987 -0.13 +0.18    -0.346 N  ATOM     32  C   UNL     1      36.448  44.611  16.097 -0.24 -0.10    +0.251 C  ATOM     33  H   UNL     1      35.298  45.886  14.917 +0.12 -0.13    +0.164 HD ATOM     34  O   UNL     1      37.496  43.992  16.231 -0.23 +0.07    -0.269 OA BRANCH  32  35ATOM     35  C   UNL     1      35.427  44.592  17.177 -0.28 -0.02    +0.042 A  ATOM     36  C   UNL     1      35.126  43.439  17.902 -0.31 -0.01    +0.034 A  ATOM     37  C   UNL     1      34.774  45.787  17.480 -0.37 -0.02    +0.034 A  ATOM     38  C   UNL     1      34.155  43.531  18.885 -0.29 -0.02    +0.112 A  ATOM     39  C   UNL     1      33.820  45.773  18.480 -0.40 -0.06    +0.112 A  ATOM     40  N   UNL     1      33.491  44.667  19.180 -0.25 +0.07    -0.265 NA ENDBRANCH  32  35ENDBRANCH  26  31ENDBRANCH  21  24ENDBRANCH   4  20TORSDOF 8TERENDMDL