MODEL        10USER    Run = 10USERUSER    Estimated Free Energy of Binding    = -10.31 kcal/mol  [=(1)+(2)+(3)-(4)]USERUSER    (1) Final Intermolecular Energy     = -12.70 kcal/molUSER        vdW + Hbond + desolv Energy     = -12.37 kcal/molUSER        Electrostatic Energy            =  -0.33 kcal/molUSER        Moving Ligand-Fixed Receptor    = -12.70 kcal/molUSER        Moving Ligand-Moving Receptor   =  +0.00 kcal/molUSER    (2) Final Total Internal Energy     =  -3.02 kcal/molUSER    (3) Torsional Free Energy           =  +2.39 kcal/molUSER    (4) Unbound System's Energy         =  -3.02 kcal/molUSERUSERREMARK SMILES COc1ccc(O)c(C(=O)c2ccc(C(=O)N[C@@H]3CCNC[C@@H]3NC(=O)c3cccc(F)c3)cc2)c1FREMARK SMILES IDX 11 1 12 2 13 3 14 4 34 5 35 6 9 7 10 8 8 9 3 10 4 11 36 12REMARK SMILES IDX 5 13 6 14 37 15 2 16 1 17 7 18 15 20 17 21 16 22 18 24 19 25REMARK SMILES IDX 23 26 20 27 22 28 21 29 24 31 25 32 26 34 27 35 28 36 33 37REMARK SMILES IDX 29 38 31 39 30 40 32 41REMARK H PARENT 7 19 17 23 21 30 24 33USER                              x       y       z     vdW  Elec       q    TypeUSER                           _______ _______ _______ _____ _____    ______ ____ROOTATOM      1  C   UNL     1      41.997  46.981  19.247 -0.48 +0.00    +0.023 A  ATOM      2  C   UNL     1      42.178  48.096  18.422 -0.35 -0.00    +0.013 A  ATOM      3  C   UNL     1      41.499  48.174  17.202 -0.41 -0.00    +0.014 A  ATOM      4  C   UNL     1      40.636  47.145  16.800 -0.48 -0.01    +0.039 A  ATOM      5  C   UNL     1      40.430  46.049  17.647 -0.47 -0.00    +0.014 A  ATOM      6  C   UNL     1      41.106  45.970  18.869 -0.47 +0.00    +0.013 A  ENDROOTBRANCH   1   7ATOM      7  C   UNL     1      42.672  46.869  20.561 -0.32 +0.05    +0.199 C  ATOM      8  O   UNL     1      43.892  46.708  20.589 -0.37 -0.22    -0.288 OA BRANCH   7   9ATOM      9  C   UNL     1      41.944  46.891  21.849 -0.16 +0.01    +0.104 A  ATOM     10  C   UNL     1      40.246  46.015  23.366 -0.16 +0.01    +0.155 A  ATOM     11  C   UNL     1      40.603  46.974  24.316 -0.19 +0.00    +0.053 A  ATOM     12  C   UNL     1      40.919  45.987  22.135 -0.16 +0.02    +0.179 A  ATOM     13  C   UNL     1      41.606  47.904  24.028 -0.27 +0.01    +0.051 A  ATOM     14  C   UNL     1      42.259  47.870  22.799 -0.19 +0.02    +0.130 A  ATOM     15  F   UNL     1      40.538  45.086  21.216 -0.06 -0.01    -0.202 F  BRANCH  10  16ATOM     16  O   UNL     1      39.270  45.068  23.526 -0.02 -0.03    -0.494 OA ATOM     17  C   UNL     1      38.174  45.396  24.371 -0.19 +0.03    +0.278 C  ENDBRANCH  10  16BRANCH  14  18ATOM     18  O   UNL     1      43.204  48.838  22.589 -0.61 -0.12    -0.507 OA ATOM     19  H   UNL     1      43.748  48.566  21.813 -0.44 -0.01    +0.293 HD ENDBRANCH  14  18ENDBRANCH   7   9ENDBRANCH   1   7BRANCH   4  20ATOM     20  C   UNL     1      39.940  47.280  15.488 -0.37 -0.05    +0.251 C  ATOM     21  N   UNL     1      38.739  46.621  15.359 -0.16 +0.11    -0.347 N  ATOM     22  O   UNL     1      40.452  47.926  14.580 -0.36 +0.04    -0.269 OA ATOM     23  H   UNL     1      38.462  45.944  16.070 +0.11 -0.05    +0.164 HD BRANCH  21  24ATOM     24  C   UNL     1      37.979  46.605  14.113 -0.43 -0.04    +0.107 C  ATOM     25  C   UNL     1      37.030  47.808  14.006 -0.58 -0.02    +0.042 C  ATOM     26  C   UNL     1      37.182  45.286  13.926 -0.41 -0.04    +0.118 C  ATOM     27  C   UNL     1      36.222  47.756  12.709 -0.66 -0.04    +0.083 C  ATOM     28  C   UNL     1      36.455  45.352  12.568 -0.48 -0.04    +0.108 C  ATOM     29  N   UNL     1      35.510  46.483  12.541 -0.33 +0.19    -0.315 NA ATOM     30  H   UNL     1      35.032  46.494  11.637 -0.21 -0.10    +0.122 HD BRANCH  26  31ATOM     31  N   UNL     1      36.186  45.065  14.989 -0.13 +0.17    -0.346 N  ATOM     32  C   UNL     1      36.498  44.574  16.232 -0.23 -0.10    +0.251 C  ATOM     33  H   UNL     1      35.264  45.423  14.777 +0.11 -0.11    +0.164 HD ATOM     34  O   UNL     1      37.638  44.235  16.540 -0.23 +0.07    -0.269 OA BRANCH  32  35ATOM     35  C   UNL     1      35.397  44.476  17.231 -0.28 -0.02    +0.042 A  ATOM     36  C   UNL     1      34.726  45.659  17.586 -0.38 -0.01    +0.014 A  ATOM     37  C   UNL     1      34.995  43.263  17.796 -0.31 -0.02    +0.053 A  ATOM     38  C   UNL     1      33.678  45.632  18.510 -0.47 -0.00    +0.004 A  ATOM     39  C   UNL     1      33.951  43.252  18.717 -0.28 -0.02    +0.124 A  ATOM     40  C   UNL     1      33.293  44.422  19.081 -0.41 -0.01    +0.039 A  ATOM     41  F   UNL     1      33.570  42.088  19.261 -0.10 +0.00    -0.207 F  ENDBRANCH  32  35ENDBRANCH  26  31ENDBRANCH  21  24ENDBRANCH   4  20TORSDOF 8TERENDMDL