REMARK SMILES CN1CCN(C(=O)c2ccc([C@@H](c3ccncc3)c3ccc(F)cc3)cc2)CC1
REMARK SMILES IDX 8 1 9 2 10 3 11 4 26 5 27 6 6 7 2 8 3 9 29 10 4 11 28 12
REMARK SMILES IDX 5 13 1 14 7 15 12 16 13 17 14 18 18 19 15 20 17 21 16 22
REMARK SMILES IDX 19 23 20 24 25 25 21 26 24 27 22 28 23 29
REMARK H PARENT
ROOT
ATOM      1  C   UNL     1       1.150  -0.547   1.368  1.00  0.00     0.040 A 
ATOM      2  C   UNL     1       0.666   0.648   1.902  1.00  0.00     0.014 A 
ATOM      3  C   UNL     1      -0.650   1.041   1.649  1.00  0.00     0.005 A 
ATOM      4  C   UNL     1      -1.509   0.235   0.876  1.00  0.00    -0.036 A 
ATOM      5  C   UNL     1      -1.008  -0.972   0.355  1.00  0.00     0.005 A 
ATOM      6  C   UNL     1       0.309  -1.366   0.609  1.00  0.00     0.014 A 
ENDROOT
BRANCH   1   7
ATOM      7  C   UNL     1       2.542  -0.958   1.672  1.00  0.00     0.253 C 
ATOM      8  N   UNL     1       5.679  -0.226  -0.553  1.00  0.00    -0.303 NA
ATOM      9  C   UNL     1       4.310   0.218  -0.897  1.00  0.00     0.105 C 
ATOM     10  C   UNL     1       5.706  -0.788   0.819  1.00  0.00     0.105 C 
ATOM     11  C   UNL     1       3.270  -0.912  -0.723  1.00  0.00     0.135 C 
ATOM     12  C   UNL     1       4.676  -1.923   0.988  1.00  0.00     0.135 C 
ATOM     13  N   UNL     1       3.332  -1.462   0.637  1.00  0.00    -0.336 N 
ATOM     14  C   UNL     1       6.627   0.881  -0.671  1.00  0.00     0.105 C 
ATOM     15  O   UNL     1       2.930  -0.855   2.834  1.00  0.00    -0.269 OA
ENDBRANCH   1   7
BRANCH   4  16
ATOM     16  C   UNL     1      -2.943   0.715   0.612  1.00  0.00     0.079 C 
BRANCH  16  17
ATOM     17  C   UNL     1      -3.051   1.770  -0.492  1.00  0.00    -0.033 A 
ATOM     18  C   UNL     1      -4.074   2.729  -0.429  1.00  0.00     0.025 A 
ATOM     19  C   UNL     1      -2.192   1.807  -1.597  1.00  0.00     0.025 A 
ATOM     20  C   UNL     1      -4.179   3.668  -1.443  1.00  0.00     0.111 A 
ATOM     21  C   UNL     1      -2.377   2.788  -2.559  1.00  0.00     0.111 A 
ATOM     22  N   UNL     1      -3.351   3.720  -2.506  1.00  0.00    -0.265 NA
ENDBRANCH  16  17
BRANCH  16  23
ATOM     23  C   UNL     1      -3.969  -0.421   0.501  1.00  0.00    -0.036 A 
ATOM     24  C   UNL     1      -4.399  -1.069   1.677  1.00  0.00     0.008 A 
ATOM     25  C   UNL     1      -4.476  -0.870  -0.733  1.00  0.00     0.008 A 
ATOM     26  C   UNL     1      -5.317  -2.119   1.621  1.00  0.00     0.039 A 
ATOM     27  C   UNL     1      -5.396  -1.920  -0.785  1.00  0.00     0.039 A 
ATOM     28  C   UNL     1      -5.809  -2.533   0.390  1.00  0.00     0.123 A 
ATOM     29  F   UNL     1      -6.689  -3.541   0.336  1.00  0.00    -0.207 F 
ENDBRANCH  16  23
ENDBRANCH   4  16
TORSDOF 4
