REMARK SMILES CCN[C@H]1CNC(c2ccnc(-c3ccnc(F)c3)c2)=CC1=O
REMARK SMILES IDX 4 1 5 2 6 3 7 4 21 5 22 6 23 7 3 9 2 11 1 12 8 13 9 14 20 15
REMARK SMILES IDX 10 16 12 17 11 18 13 19 14 20 19 21 15 22 17 23 16 24 18 25
REMARK H PARENT 6 8 3 10
ROOT
ATOM      1  C   UNL     1       3.477  -0.868  -0.832  1.00  0.00     0.145 C 
ATOM      2  C   UNL     1       2.859  -1.201   0.537  1.00  0.00     0.140 C 
ATOM      3  N   UNL     1       1.497  -1.702   0.363  1.00  0.00    -0.382 N 
ATOM      4  C   UNL     1       0.628  -1.053  -0.494  1.00  0.00     0.045 C 
ATOM      5  C   UNL     1       1.039  -0.231  -1.470  1.00  0.00     0.075 C 
ATOM      6  C   UNL     1       2.496  -0.019  -1.658  1.00  0.00     0.176 C 
ATOM      7  O   UNL     1       2.867   0.783  -2.518  1.00  0.00    -0.293 OA
ATOM      8  H   UNL     1       1.057  -2.019   1.227  1.00  0.00     0.160 HD
ENDROOT
BRANCH   1   9
ATOM      9  N   UNL     1       4.837  -0.271  -0.838  1.00  0.00    -0.306 NA
ATOM     10  H   UNL     1       4.974   0.144  -1.767  1.00  0.00     0.123 HD
BRANCH   9  11
ATOM     11  C   UNL     1       5.131   0.736   0.177  1.00  0.00     0.078 C 
ATOM     12  C   UNL     1       4.368   2.044   0.029  1.00  0.00     0.020 C 
ENDBRANCH   9  11
ENDBRANCH   1   9
BRANCH   4  13
ATOM     13  C   UNL     1      -0.812  -1.313  -0.314  1.00  0.00     0.001 A 
ATOM     14  C   UNL     1      -1.290  -2.622  -0.342  1.00  0.00     0.030 A 
ATOM     15  C   UNL     1      -1.717  -0.269  -0.088  1.00  0.00     0.039 A 
ATOM     16  C   UNL     1      -2.642  -2.829  -0.150  1.00  0.00     0.112 A 
ATOM     17  C   UNL     1      -3.070  -0.557   0.092  1.00  0.00     0.071 A 
ATOM     18  N   UNL     1      -3.529  -1.834   0.069  1.00  0.00    -0.256 NA
BRANCH  17  19
ATOM     19  C   UNL     1      -4.094   0.480   0.335  1.00  0.00     0.006 A 
ATOM     20  C   UNL     1      -5.259   0.181   1.058  1.00  0.00     0.030 A 
ATOM     21  C   UNL     1      -3.969   1.789  -0.146  1.00  0.00     0.070 A 
ATOM     22  C   UNL     1      -6.206   1.170   1.275  1.00  0.00     0.115 A 
ATOM     23  C   UNL     1      -4.971   2.707   0.122  1.00  0.00     0.213 A 
ATOM     24  N   UNL     1      -6.084   2.433   0.826  1.00  0.00    -0.228 NA
ATOM     25  F   UNL     1      -4.828   3.955  -0.348  1.00  0.00    -0.185 F 
ENDBRANCH  17  19
ENDBRANCH   4  13
TORSDOF 4
