REMARK SMILES Cc1cc(NC2=NC=C3C2=CN=C3C=C2C=CC(NC(=O)N3CCNCC3)=C2)ccn1
REMARK SMILES IDX 14 1 13 2 5 3 6 4 7 5 10 6 8 7 9 8 11 9 12 10 4 12 2 13 3 14
REMARK SMILES IDX 31 15 30 16 29 17 1 18 15 19 16 20 28 21 17 22 18 23 19 24
REMARK SMILES IDX 20 25 22 26 23 27 27 28 24 29 26 30 25 31 21 33
REMARK H PARENT 5 11 19 32 25 34
ROOT
ATOM      1  C   UNL     1       0.419  -0.255   1.991  1.00  0.00     0.037 C 
ENDROOT
BRANCH   1   2
ATOM      2  C   UNL     1       1.229   0.153   0.829  1.00  0.00     0.073 C 
ATOM      3  N   UNL     1       5.401   0.638  -1.423  1.00  0.00    -0.340 N 
ATOM      4  C   UNL     1       4.594   0.228  -0.394  1.00  0.00     0.139 C 
ATOM      5  N   UNL     1       4.928  -0.393   0.726  1.00  0.00    -0.238 NA
ATOM      6  C   UNL     1       3.133   0.452  -0.384  1.00  0.00     0.046 C 
ATOM      7  C   UNL     1       3.754  -0.573   1.456  1.00  0.00     0.124 C 
ATOM      8  C   UNL     1       2.676  -0.091   0.847  1.00  0.00     0.031 C 
ATOM      9  C   UNL     1       2.058   0.932  -1.006  1.00  0.00     0.124 C 
ATOM     10  N   UNL     1       0.876   0.763  -0.280  1.00  0.00    -0.255 NA
ATOM     11  H   UNL     1       4.957   1.163  -2.166  1.00  0.00     0.168 HD
BRANCH   3  12
ATOM     12  C   UNL     1       6.789   0.472  -1.584  1.00  0.00     0.043 A 
ATOM     13  C   UNL     1       8.954  -0.410  -0.982  1.00  0.00     0.039 A 
ATOM     14  C   UNL     1       7.581  -0.323  -0.754  1.00  0.00     0.049 A 
ATOM     15  N   UNL     1       9.574   0.253  -1.985  1.00  0.00    -0.261 NA
ATOM     16  C   UNL     1       8.802   1.021  -2.777  1.00  0.00     0.113 A 
ATOM     17  C   UNL     1       7.432   1.160  -2.619  1.00  0.00     0.046 A 
ATOM     18  C   UNL     1       9.806  -1.269  -0.096  1.00  0.00     0.067 C 
ENDBRANCH   3  12
ENDBRANCH   1   2
BRANCH   1  19
ATOM     19  C   UNL     1      -0.918  -0.322   1.999  1.00  0.00    -0.021 C 
ATOM     20  C   UNL     1      -1.694  -0.713   3.165  1.00  0.00     0.010 C 
ATOM     21  C   UNL     1      -1.859  -0.052   0.925  1.00  0.00     0.034 C 
ATOM     22  C   UNL     1      -2.989  -0.675   2.804  1.00  0.00     0.027 C 
ATOM     23  C   UNL     1      -3.091  -0.273   1.414  1.00  0.00     0.043 C 
BRANCH  23  24
ATOM     24  N   UNL     1      -4.241  -0.129   0.691  1.00  0.00    -0.308 N 
ATOM     25  C   UNL     1      -5.528  -0.427   1.081  1.00  0.00     0.321 C 
ATOM     26  N   UNL     1      -6.503  -0.106   0.145  1.00  0.00    -0.322 N 
ATOM     27  C   UNL     1      -7.884  -0.510   0.412  1.00  0.00     0.136 C 
ATOM     28  C   UNL     1      -6.299   0.709  -1.059  1.00  0.00     0.136 C 
ATOM     29  C   UNL     1      -8.665  -0.786  -0.887  1.00  0.00     0.102 C 
ATOM     30  C   UNL     1      -7.611   1.299  -1.608  1.00  0.00     0.102 C 
ATOM     31  N   UNL     1      -8.641   0.291  -1.893  1.00  0.00    -0.313 NA
ATOM     32  H   UNL     1      -4.112   0.105  -0.279  1.00  0.00     0.171 HD
ATOM     33  O   UNL     1      -5.824  -0.942   2.158  1.00  0.00    -0.248 OA
ATOM     34  H   UNL     1      -9.553   0.747  -1.936  1.00  0.00     0.122 HD
ENDBRANCH  23  24
ENDBRANCH   1  19
TORSDOF 4
