MODEL        5USER    Run = 5USERUSER    Estimated Free Energy of Binding    = -11.24 kcal/mol  [=(1)+(2)+(3)-(4)]USERUSER    (1) Final Intermolecular Energy     = -12.73 kcal/molUSER        vdW + Hbond + desolv Energy     = -12.60 kcal/molUSER        Electrostatic Energy            =  -0.13 kcal/molUSER        Moving Ligand-Fixed Receptor    = -12.73 kcal/molUSER        Moving Ligand-Moving Receptor   =  +0.00 kcal/molUSER    (2) Final Total Internal Energy     =  -1.31 kcal/molUSER    (3) Torsional Free Energy           =  +1.49 kcal/molUSER    (4) Unbound System's Energy         =  -1.31 kcal/molUSERUSERREMARK SMILES Oc1nc2ccccc2n1C1CCN(Cc2ccc(-c3ncnc4ccccc34)cc2)CC1REMARK SMILES IDX 11 1 12 2 13 3 14 4 32 5 33 6 10 7 2 8 3 9 4 10 9 11 5 12REMARK SMILES IDX 8 13 6 14 7 15 1 16 15 18 16 19 17 20 31 21 18 22 30 23REMARK SMILES IDX 19 24 20 25 21 26 29 27 22 28 28 29 24 30 23 31 27 32 25 33REMARK SMILES IDX 26 34REMARK H PARENT 1 17USER                              x       y       z     vdW  Elec       q    TypeUSER                           _______ _______ _______ _____ _____    ______ ____ROOTATOM      1  C   UNL     1      39.250  47.010  14.472 -0.44 -0.02    +0.095 C  ATOM      2  C   UNL     1      38.562  45.715  14.914 -0.40 -0.01    +0.041 C  ATOM      3  C   UNL     1      37.628  45.205  13.814 -0.40 -0.03    +0.087 C  ATOM      4  N   UNL     1      36.648  46.198  13.356 -0.25 +0.13    -0.299 NA ATOM      5  C   UNL     1      37.312  47.438  12.924 -0.58 -0.03    +0.087 C  ATOM      6  C   UNL     1      38.237  48.049  13.979 -0.56 -0.02    +0.041 C  ENDROOTBRANCH   1   7ATOM      7  N   UNL     1      40.161  47.542  15.477 -0.28 +0.06    -0.291 N  ATOM      8  C   UNL     1      40.754  48.776  15.414 -0.35 -0.06    +0.295 A  ATOM      9  N   UNL     1      41.475  49.058  16.460 -1.00 -0.01    -0.195 NA ATOM     10  C   UNL     1      41.368  47.943  17.255 -0.40 -0.01    +0.092 A  ATOM     11  C   UNL     1      40.567  46.962  16.662 -0.43 -0.01    +0.072 A  ATOM     12  C   UNL     1      41.943  47.700  18.513 -0.43 -0.00    +0.031 A  ATOM     13  C   UNL     1      40.323  45.727  17.278 -0.36 -0.00    +0.029 A  ATOM     14  C   UNL     1      41.704  46.474  19.142 -0.49 +0.00    +0.002 A  ATOM     15  C   UNL     1      40.908  45.505  18.531 -0.47 +0.00    +0.002 A  BRANCH   8  16ATOM     16  O   UNL     1      40.622  49.622  14.412 -0.21 +0.19    -0.480 OA ATOM     17  H   UNL     1      40.062  50.308  14.817 -0.09 -0.24    +0.296 HD ENDBRANCH   8  16ENDBRANCH   1   7BRANCH   4  18ATOM     18  C   UNL     1      35.580  46.416  14.346 -0.39 -0.09    +0.120 C  BRANCH  18  19ATOM     19  C   UNL     1      35.780  45.651  15.638 -0.33 +0.02    -0.034 A  ATOM     20  C   UNL     1      35.558  44.268  15.686 -0.35 -0.00    +0.006 A  ATOM     21  C   UNL     1      36.137  46.318  16.819 -0.35 -0.00    +0.006 A  ATOM     22  C   UNL     1      35.703  43.565  16.886 -0.36 -0.00    +0.011 A  ATOM     23  C   UNL     1      36.288  45.612  18.017 -0.28 -0.00    +0.011 A  ATOM     24  C   UNL     1      36.076  44.225  18.065 -0.32 -0.00    +0.001 A  BRANCH  24  25ATOM     25  C   UNL     1      36.229  43.481  19.323 -0.32 -0.01    +0.081 A  ATOM     26  N   UNL     1      35.322  42.493  19.484 -0.26 +0.02    -0.236 NA ATOM     27  C   UNL     1      37.234  43.763  20.262 -0.36 -0.00    +0.027 A  ATOM     28  C   UNL     1      35.427  41.780  20.608 -0.13 +0.00    +0.223 A  ATOM     29  C   UNL     1      38.211  44.785  20.143 -0.34 -0.00    +0.012 A  ATOM     30  C   UNL     1      37.233  42.933  21.392 -0.36 +0.00    +0.074 A  ATOM     31  N   UNL     1      36.341  41.951  21.570 -0.35 -0.01    -0.236 NA ATOM     32  C   UNL     1      39.172  44.971  21.133 -0.35 +0.00    +0.001 A  ATOM     33  C   UNL     1      38.203  43.139  22.365 -0.32 +0.00    +0.029 A  ATOM     34  C   UNL     1      39.170  44.141  22.247 -0.28 +0.00    +0.002 A  ENDBRANCH  24  25ENDBRANCH  18  19ENDBRANCH   4  18TORSDOF 5TERENDMDL