REMARK SMILES CN1CCN(C(=O)c2ccc([C@@H](c3ccccc3)c3ccncc3)cc2)CC1
REMARK SMILES IDX 8 1 9 2 10 3 11 4 25 5 26 6 6 7 2 8 3 9 28 10 4 11 27 12
REMARK SMILES IDX 5 13 1 14 7 15 12 16 13 17 14 18 18 19 15 20 17 21 16 22
REMARK SMILES IDX 19 23 20 24 24 25 21 26 23 27 22 28
REMARK H PARENT
ROOT
ATOM      1  C   UNL     1       1.111  -1.195   0.704  1.00  0.00     0.040 A 
ATOM      2  C   UNL     1       0.541  -0.574   1.816  1.00  0.00     0.014 A 
ATOM      3  C   UNL     1      -0.766  -0.091   1.735  1.00  0.00     0.005 A 
ATOM      4  C   UNL     1      -1.512  -0.221   0.546  1.00  0.00    -0.036 A 
ATOM      5  C   UNL     1      -0.921  -0.873  -0.553  1.00  0.00     0.005 A 
ATOM      6  C   UNL     1       0.385  -1.363  -0.474  1.00  0.00     0.014 A 
ENDROOT
BRANCH   1   7
ATOM      7  C   UNL     1       2.498  -1.689   0.780  1.00  0.00     0.253 C 
ATOM      8  N   UNL     1       5.758   1.183   0.460  1.00  0.00    -0.303 NA
ATOM      9  C   UNL     1       4.582   1.248  -0.426  1.00  0.00     0.105 C 
ATOM     10  C   UNL     1       5.822  -0.078   1.231  1.00  0.00     0.105 C 
ATOM     11  C   UNL     1       3.318   0.630   0.196  1.00  0.00     0.135 C 
ATOM     12  C   UNL     1       4.905  -1.211   0.728  1.00  0.00     0.135 C 
ATOM     13  N   UNL     1       3.518  -0.776   0.578  1.00  0.00    -0.336 N 
ATOM     14  C   UNL     1       6.986   1.427  -0.293  1.00  0.00     0.105 C 
ATOM     15  O   UNL     1       2.671  -2.879   1.020  1.00  0.00    -0.269 OA
ENDBRANCH   1   7
BRANCH   4  16
ATOM     16  C   UNL     1      -2.951   0.310   0.508  1.00  0.00     0.079 C 
BRANCH  16  17
ATOM     17  C   UNL     1      -3.357   0.898  -0.851  1.00  0.00    -0.036 A 
ATOM     18  C   UNL     1      -2.941   2.201  -1.185  1.00  0.00     0.005 A 
ATOM     19  C   UNL     1      -4.107   0.176  -1.795  1.00  0.00     0.005 A 
ATOM     20  C   UNL     1      -3.279   2.767  -2.416  1.00  0.00     0.000 A 
ATOM     21  C   UNL     1      -4.444   0.744  -3.026  1.00  0.00     0.000 A 
ATOM     22  C   UNL     1      -4.034   2.040  -3.334  1.00  0.00     0.000 A 
ENDBRANCH  16  17
BRANCH  16  23
ATOM     23  C   UNL     1      -3.997  -0.631   1.116  1.00  0.00    -0.033 A 
ATOM     24  C   UNL     1      -5.190  -0.094   1.625  1.00  0.00     0.025 A 
ATOM     25  C   UNL     1      -3.841  -2.022   1.160  1.00  0.00     0.025 A 
ATOM     26  C   UNL     1      -6.152  -0.950   2.143  1.00  0.00     0.111 A 
ATOM     27  C   UNL     1      -4.860  -2.794   1.703  1.00  0.00     0.111 A 
ATOM     28  N   UNL     1      -6.016  -2.288   2.190  1.00  0.00    -0.265 NA
ENDBRANCH  16  23
ENDBRANCH   4  16
TORSDOF 4
