MODEL        4USER    Run = 4USERUSER    Estimated Free Energy of Binding    =  -8.90 kcal/mol  [=(1)+(2)+(3)-(4)]USERUSER    (1) Final Intermolecular Energy     = -10.09 kcal/molUSER        vdW + Hbond + desolv Energy     =  -9.93 kcal/molUSER        Electrostatic Energy            =  -0.16 kcal/molUSER        Moving Ligand-Fixed Receptor    = -10.09 kcal/molUSER        Moving Ligand-Moving Receptor   =  +0.00 kcal/molUSER    (2) Final Total Internal Energy     =  -1.22 kcal/molUSER    (3) Torsional Free Energy           =  +1.19 kcal/molUSER    (4) Unbound System's Energy         =  -1.22 kcal/molUSERUSERREMARK SMILES CCN[C@H]1CNC(c2ccnc(-c3ccnc(F)c3)c2)=CC1=OREMARK SMILES IDX 4 1 5 2 6 3 7 4 21 5 22 6 23 7 3 9 2 11 1 12 8 13 9 14 20 15REMARK SMILES IDX 10 16 12 17 11 18 13 19 14 20 19 21 15 22 17 23 16 24 18 25REMARK H PARENT 6 8 3 10USER                              x       y       z     vdW  Elec       q    TypeUSER                           _______ _______ _______ _____ _____    ______ ____ROOTATOM      1  C   UNL     1      33.084  43.319  15.865 -0.25 -0.07    +0.145 C  ATOM      2  C   UNL     1      32.779  44.827  15.849 -0.30 -0.09    +0.140 C  ATOM      3  N   UNL     1      33.712  45.516  14.960 -0.09 +0.34    -0.382 N  ATOM      4  C   UNL     1      35.062  45.225  15.017 -0.34 -0.03    +0.045 C  ATOM      5  C   UNL     1      35.545  44.092  15.547 -0.33 -0.03    +0.075 C  ATOM      6  C   UNL     1      34.589  43.090  16.082 -0.31 -0.08    +0.176 C  ATOM      7  O   UNL     1      35.040  42.077  16.621 -0.34 +0.14    -0.293 OA ATOM      8  H   UNL     1      33.514  46.510  14.840 -0.26 -0.26    +0.160 HD ENDROOTBRANCH   1   9ATOM      9  N   UNL     1      32.277  42.471  16.780 -0.12 +0.14    -0.306 NA ATOM     10  H   UNL     1      32.771  41.575  16.866 -0.34 -0.07    +0.123 HD BRANCH   9  11ATOM     11  C   UNL     1      32.009  42.994  18.116 -0.32 -0.01    +0.078 C  ATOM     12  C   UNL     1      33.140  42.813  19.118 -0.44 -0.00    +0.020 C  ENDBRANCH   9  11ENDBRANCH   1   9BRANCH   4  13ATOM     13  C   UNL     1      35.989  46.217  14.442 -0.42 -0.00    +0.001 A  ATOM     14  C   UNL     1      35.696  46.810  13.215 -0.53 -0.02    +0.030 A  ATOM     15  C   UNL     1      37.154  46.600  15.116 -0.37 -0.02    +0.039 A  ATOM     16  C   UNL     1      36.577  47.750  12.717 -0.57 -0.05    +0.112 A  ATOM     17  C   UNL     1      37.999  47.552  14.545 -0.44 -0.03    +0.071 A  ATOM     18  N   UNL     1      37.706  48.131  13.353 -0.74 +0.07    -0.256 NA BRANCH  17  19ATOM     19  C   UNL     1      39.248  48.015  15.185 -0.53 -0.00    +0.006 A  ATOM     20  C   UNL     1      39.582  47.604  16.484 -0.47 -0.01    +0.030 A  ATOM     21  C   UNL     1      40.142  48.885  14.548 -0.45 -0.02    +0.070 A  ATOM     22  C   UNL     1      40.760  48.050  17.064 -0.41 -0.02    +0.115 A  ATOM     23  C   UNL     1      41.294  49.275  15.211 -0.44 -0.03    +0.213 A  ATOM     24  N   UNL     1      41.629  48.875  16.451 -0.87 -0.02    -0.228 NA ATOM     25  F   UNL     1      42.135  50.107  14.581 -0.26 +0.02    -0.185 F  ENDBRANCH  17  19ENDBRANCH   4  13TORSDOF 4TERENDMDL