REMARK SMILES Cc1cc(NC2=NC=C3C2=CN=C3C=C2C=CC(NC(=O)NCCN)=C2)ccn1
REMARK SMILES IDX 15 1 16 2 17 3 18 4 26 5 14 6 13 7 5 8 6 9 7 10 10 11 8 12
REMARK SMILES IDX 9 13 11 14 12 15 4 17 2 18 3 19 29 20 28 21 27 22 1 23 19 24
REMARK SMILES IDX 20 25 22 26 21 28 23 30 24 31 25 32
REMARK H PARENT 5 16 19 27 22 29 25 33 25 34
ROOT
ATOM      1  C   UNL     1      -1.828  -0.482  -0.680  1.00  0.00    -0.021 C 
ATOM      2  C   UNL     1      -2.232   0.871  -1.010  1.00  0.00     0.010 C 
ATOM      3  C   UNL     1      -3.574   0.880  -1.064  1.00  0.00     0.027 C 
ATOM      4  C   UNL     1      -4.078  -0.449  -0.777  1.00  0.00     0.043 C 
ATOM      5  C   UNL     1      -3.042  -1.273  -0.544  1.00  0.00     0.034 C 
ENDROOT
BRANCH   1   6
ATOM      6  C   UNL     1      -0.596  -0.979  -0.510  1.00  0.00     0.037 C 
BRANCH   6   7
ATOM      7  C   UNL     1       0.647  -0.200  -0.644  1.00  0.00     0.073 C 
ATOM      8  N   UNL     1       5.356   0.328  -0.141  1.00  0.00    -0.340 N 
ATOM      9  C   UNL     1       4.171  -0.351  -0.023  1.00  0.00     0.139 C 
ATOM     10  N   UNL     1       3.947  -1.555   0.480  1.00  0.00    -0.238 NA
ATOM     11  C   UNL     1       2.881   0.207  -0.479  1.00  0.00     0.046 C 
ATOM     12  C   UNL     1       2.579  -1.794   0.370  1.00  0.00     0.124 C 
ATOM     13  C   UNL     1       1.911  -0.788  -0.185  1.00  0.00     0.031 C 
ATOM     14  C   UNL     1       2.224   1.222  -1.037  1.00  0.00     0.124 C 
ATOM     15  N   UNL     1       0.851   0.994  -1.153  1.00  0.00    -0.255 NA
ATOM     16  H   UNL     1       5.310   1.236  -0.583  1.00  0.00     0.168 HD
BRANCH   8  17
ATOM     17  C   UNL     1       6.644  -0.045   0.286  1.00  0.00     0.043 A 
ATOM     18  C   UNL     1       9.009   0.461   0.399  1.00  0.00     0.039 A 
ATOM     19  C   UNL     1       7.720   0.803  -0.009  1.00  0.00     0.049 A 
ATOM     20  N   UNL     1       9.279  -0.678   1.070  1.00  0.00    -0.261 NA
ATOM     21  C   UNL     1       8.237  -1.490   1.342  1.00  0.00     0.113 A 
ATOM     22  C   UNL     1       6.927  -1.220   0.977  1.00  0.00     0.046 A 
ATOM     23  C   UNL     1      10.165   1.360   0.077  1.00  0.00     0.067 C 
ENDBRANCH   8  17
ENDBRANCH   6   7
ENDBRANCH   1   6
BRANCH   4  24
ATOM     24  N   UNL     1      -5.388  -0.826  -0.736  1.00  0.00    -0.308 N 
ATOM     25  C   UNL     1      -6.497  -0.055  -1.012  1.00  0.00     0.319 C 
ATOM     26  N   UNL     1      -7.659  -0.779  -0.810  1.00  0.00    -0.337 N 
ATOM     27  H   UNL     1      -5.575  -1.801  -0.560  1.00  0.00     0.171 HD
ATOM     28  O   UNL     1      -6.498   1.106  -1.402  1.00  0.00    -0.249 OA
ATOM     29  H   UNL     1      -7.613  -1.424  -0.036  1.00  0.00     0.165 HD
BRANCH  26  30
ATOM     30  C   UNL     1      -8.951  -0.129  -0.979  1.00  0.00     0.132 C 
BRANCH  30  31
ATOM     31  C   UNL     1      -9.478   0.523   0.316  1.00  0.00     0.099 C 
BRANCH  31  32
ATOM     32  N   UNL     1      -8.459   1.250   1.073  1.00  0.00    -0.329 NA
ATOM     33  H   UNL     1      -7.852   1.752   0.416  1.00  0.00     0.118 HD
ATOM     34  H   UNL     1      -8.900   1.961   1.654  1.00  0.00     0.118 HD
ENDBRANCH  31  32
ENDBRANCH  30  31
ENDBRANCH  26  30
ENDBRANCH   4  24
TORSDOF 7
