MODEL        8USER    Run = 8USERUSER    Estimated Free Energy of Binding    =  -9.92 kcal/mol  [=(1)+(2)+(3)-(4)]USERUSER    (1) Final Intermolecular Energy     = -12.30 kcal/molUSER        vdW + Hbond + desolv Energy     = -12.42 kcal/molUSER        Electrostatic Energy            =  +0.12 kcal/molUSER        Moving Ligand-Fixed Receptor    = -12.30 kcal/molUSER        Moving Ligand-Moving Receptor   =  +0.00 kcal/molUSER    (2) Final Total Internal Energy     =  -2.84 kcal/molUSER    (3) Torsional Free Energy           =  +2.39 kcal/molUSER    (4) Unbound System's Energy         =  -2.84 kcal/molUSERUSERREMARK SMILES COc1ccc(O)c(C(=O)c2ccc(C(=O)N[C@@H]3CCNC[C@@H]3NC(=O)c3ccncc3)cc2)c1FREMARK SMILES IDX 11 1 12 2 13 3 14 4 33 5 34 6 9 7 10 8 8 9 3 10 4 11 35 12REMARK SMILES IDX 5 13 6 14 36 15 2 16 1 17 7 18 15 20 17 21 16 22 18 24 19 25REMARK SMILES IDX 23 26 20 27 22 28 21 29 24 31 25 32 26 34 27 35 28 36 32 37REMARK SMILES IDX 29 38 31 39 30 40REMARK H PARENT 7 19 17 23 21 30 24 33USER                              x       y       z     vdW  Elec       q    TypeUSER                           _______ _______ _______ _____ _____    ______ ____ROOTATOM      1  C   UNL     1      36.749  43.481  20.366 -0.39 -0.00    +0.023 A  ATOM      2  C   UNL     1      35.439  43.731  19.943 -0.41 -0.00    +0.013 A  ATOM      3  C   UNL     1      35.205  44.519  18.813 -0.36 -0.00    +0.014 A  ATOM      4  C   UNL     1      36.281  45.059  18.097 -0.31 -0.01    +0.039 A  ATOM      5  C   UNL     1      37.593  44.775  18.499 -0.36 -0.00    +0.014 A  ATOM      6  C   UNL     1      37.828  43.982  19.627 -0.32 -0.00    +0.013 A  ENDROOTBRANCH   1   7ATOM      7  C   UNL     1      36.954  42.620  21.556 -0.38 +0.01    +0.199 C  ATOM      8  O   UNL     1      37.176  41.420  21.388 -0.39 -0.01    -0.288 OA BRANCH   7   9ATOM      9  C   UNL     1      36.960  43.139  22.942 -0.32 +0.01    +0.104 A  ATOM     10  C   UNL     1      37.368  44.915  24.564 -0.21 +0.02    +0.155 A  ATOM     11  C   UNL     1      36.973  44.061  25.596 -0.31 -0.00    +0.053 A  ATOM     12  C   UNL     1      37.349  44.445  23.243 -0.20 +0.02    +0.179 A  ATOM     13  C   UNL     1      36.550  42.762  25.304 -0.36 -0.00    +0.051 A  ATOM     14  C   UNL     1      36.531  42.311  23.987 -0.29 +0.01    +0.130 A  ATOM     15  F   UNL     1      37.696  45.290  22.257 -0.10 -0.02    -0.202 F  BRANCH  10  16ATOM     16  O   UNL     1      37.788  46.208  24.724 -0.56 -0.09    -0.494 OA ATOM     17  C   UNL     1      37.314  46.913  25.865 -0.25 +0.00    +0.278 C  ENDBRANCH  10  16BRANCH  14  18ATOM     18  O   UNL     1      36.075  41.035  23.788 -0.04 +0.06    -0.507 OA ATOM     19  H   UNL     1      36.345  40.755  22.882 +0.20 -0.00    +0.293 HD ENDBRANCH  14  18ENDBRANCH   7   9ENDBRANCH   1   7BRANCH   4  20ATOM     20  C   UNL     1      35.991  45.902  16.904 -0.24 -0.16    +0.251 C  ATOM     21  N   UNL     1      36.324  45.354  15.681 -0.11 +0.18    -0.347 N  ATOM     22  O   UNL     1      35.519  47.024  17.039 -0.25 +0.33    -0.269 OA ATOM     23  H   UNL     1      37.014  44.612  15.687 +0.11 -0.06    +0.164 HD BRANCH  21  24ATOM     24  C   UNL     1      36.262  46.145  14.448 -0.40 -0.06    +0.107 C  ATOM     25  C   UNL     1      36.993  45.471  13.283 -0.53 -0.02    +0.042 C  ATOM     26  C   UNL     1      36.840  47.572  14.669 -0.43 -0.09    +0.118 C  ATOM     27  C   UNL     1      36.775  46.263  11.990 -0.66 -0.03    +0.083 C  ATOM     28  C   UNL     1      37.400  48.173  13.357 -0.43 -0.04    +0.108 C  ATOM     29  N   UNL     1      36.696  47.718  12.159 -0.89 +0.11    -0.315 NA ATOM     30  H   UNL     1      35.717  48.003  12.212 -0.01 -0.07    +0.122 HD BRANCH  26  31ATOM     31  N   UNL     1      37.885  47.564  15.705 -0.19 +0.21    -0.346 N  ATOM     32  C   UNL     1      39.161  47.119  15.441 -0.34 -0.08    +0.251 C  ATOM     33  H   UNL     1      37.588  47.752  16.653 +0.10 -0.12    +0.164 HD ATOM     34  O   UNL     1      39.550  46.826  14.317 -0.31 +0.05    -0.269 OA BRANCH  32  35ATOM     35  C   UNL     1      40.093  47.044  16.595 -0.47 -0.01    +0.042 A  ATOM     36  C   UNL     1      40.215  45.898  17.381 -0.42 -0.00    +0.034 A  ATOM     37  C   UNL     1      40.879  48.162  16.875 -0.51 -0.00    +0.034 A  ATOM     38  C   UNL     1      41.108  45.934  18.438 -0.41 -0.00    +0.112 A  ATOM     39  C   UNL     1      41.738  48.097  17.955 -0.34 -0.00    +0.112 A  ATOM     40  N   UNL     1      41.860  47.011  18.749 -0.35 -0.01    -0.265 NA ENDBRANCH  32  35ENDBRANCH  26  31ENDBRANCH  21  24ENDBRANCH   4  20TORSDOF 8TERENDMDL