MODEL        7USER    Run = 7USERUSER    Estimated Free Energy of Binding    = -10.45 kcal/mol  [=(1)+(2)+(3)-(4)]USERUSER    (1) Final Intermolecular Energy     = -12.83 kcal/molUSER        vdW + Hbond + desolv Energy     = -12.48 kcal/molUSER        Electrostatic Energy            =  -0.36 kcal/molUSER        Moving Ligand-Fixed Receptor    = -12.83 kcal/molUSER        Moving Ligand-Moving Receptor   =  +0.00 kcal/molUSER    (2) Final Total Internal Energy     =  -2.46 kcal/molUSER    (3) Torsional Free Energy           =  +2.39 kcal/molUSER    (4) Unbound System's Energy         =  -2.46 kcal/molUSERUSERREMARK SMILES COc1ccc(O)c(C(=O)c2ccc(C(=O)N[C@@H]3CCNC[C@@H]3NC(=O)c3ccc(F)cc3)cc2)c1FREMARK SMILES IDX 11 1 12 2 13 3 14 4 34 5 35 6 9 7 10 8 8 9 3 10 4 11 36 12REMARK SMILES IDX 5 13 6 14 37 15 2 16 1 17 7 18 15 20 17 21 16 22 18 24 19 25REMARK SMILES IDX 23 26 20 27 22 28 21 29 24 31 25 32 26 34 27 35 28 36 33 37REMARK SMILES IDX 29 38 32 39 30 40 31 41REMARK H PARENT 7 19 17 23 21 30 24 33USER                              x       y       z     vdW  Elec       q    TypeUSER                           _______ _______ _______ _____ _____    ______ ____ROOTATOM      1  C   UNL     1      41.431  46.071  19.537 -0.43 +0.00    +0.023 A  ATOM      2  C   UNL     1      41.893  47.171  18.809 -0.51 +0.00    +0.013 A  ATOM      3  C   UNL     1      41.289  47.503  17.593 -0.49 -0.00    +0.014 A  ATOM      4  C   UNL     1      40.221  46.741  17.101 -0.47 -0.01    +0.039 A  ATOM      5  C   UNL     1      39.736  45.663  17.852 -0.43 -0.00    +0.014 A  ATOM      6  C   UNL     1      40.338  45.332  19.069 -0.44 -0.00    +0.013 A  ENDROOTBRANCH   1   7ATOM      7  C   UNL     1      42.022  45.702  20.845 -0.26 +0.04    +0.199 C  ATOM      8  O   UNL     1      42.333  44.526  21.044 -0.18 -0.07    -0.288 OA BRANCH   7   9ATOM      9  C   UNL     1      42.213  46.669  21.948 -0.24 +0.02    +0.104 A  ATOM     10  C   UNL     1      41.409  47.837  23.934 -0.22 +0.02    +0.155 A  ATOM     11  C   UNL     1      42.630  48.508  24.028 -0.34 +0.01    +0.053 A  ATOM     12  C   UNL     1      41.210  46.925  22.886 -0.13 +0.02    +0.179 A  ATOM     13  C   UNL     1      43.629  48.284  23.078 -0.29 +0.01    +0.051 A  ATOM     14  C   UNL     1      43.414  47.381  22.039 -0.28 +0.03    +0.130 A  ATOM     15  F   UNL     1      40.018  46.315  22.781 -0.07 -0.02    -0.202 F  BRANCH  10  16ATOM     16  O   UNL     1      40.352  47.985  24.792 -0.08 -0.06    -0.494 OA ATOM     17  C   UNL     1      39.140  48.496  24.251 -0.26 +0.04    +0.278 C  ENDBRANCH  10  16BRANCH  14  18ATOM     18  O   UNL     1      44.432  47.244  21.134 -0.51 -0.38    -0.507 OA ATOM     19  H   UNL     1      44.462  48.061  20.585 -0.37 +0.03    +0.293 HD ENDBRANCH  14  18ENDBRANCH   7   9ENDBRANCH   1   7BRANCH   4  20ATOM     20  C   UNL     1      39.612  47.136  15.802 -0.36 -0.06    +0.251 C  ATOM     21  N   UNL     1      38.532  46.389  15.379 -0.15 +0.11    -0.347 N  ATOM     22  O   UNL     1      40.088  48.060  15.152 -0.36 +0.07    -0.269 OA ATOM     23  H   UNL     1      38.353  45.499  15.829 +0.11 -0.05    +0.164 HD BRANCH  21  24ATOM     24  C   UNL     1      37.926  46.592  14.060 -0.43 -0.04    +0.107 C  ATOM     25  C   UNL     1      37.249  47.970  13.966 -0.59 -0.02    +0.042 C  ATOM     26  C   UNL     1      36.918  45.461  13.742 -0.43 -0.05    +0.118 C  ATOM     27  C   UNL     1      36.515  48.138  12.638 -0.60 -0.03    +0.083 C  ATOM     28  C   UNL     1      36.202  45.753  12.409 -0.54 -0.05    +0.108 C  ATOM     29  N   UNL     1      35.544  47.070  12.401 -0.32 +0.20    -0.315 NA ATOM     30  H   UNL     1      34.829  47.081  13.129 -0.10 -0.10    +0.122 HD BRANCH  26  31ATOM     31  N   UNL     1      35.957  45.287  14.843 -0.13 +0.18    -0.346 N  ATOM     32  C   UNL     1      36.235  44.465  15.914 -0.25 -0.10    +0.251 C  ATOM     33  H   UNL     1      35.051  45.723  14.751 +0.11 -0.13    +0.164 HD ATOM     34  O   UNL     1      37.324  43.927  16.075 -0.25 +0.08    -0.269 OA BRANCH  32  35ATOM     35  C   UNL     1      35.151  44.278  16.918 -0.28 -0.02    +0.040 A  ATOM     36  C   UNL     1      34.783  45.381  17.703 -0.37 -0.01    +0.017 A  ATOM     37  C   UNL     1      34.515  43.044  17.114 -0.37 -0.01    +0.017 A  ATOM     38  C   UNL     1      33.771  45.258  18.659 -0.42 -0.02    +0.040 A  ATOM     39  C   UNL     1      33.503  42.926  18.072 -0.32 -0.01    +0.040 A  ATOM     40  C   UNL     1      33.140  44.032  18.831 -0.31 -0.02    +0.123 A  ATOM     41  F   UNL     1      32.171  43.912  19.748 -0.15 +0.00    -0.207 F  ENDBRANCH  32  35ENDBRANCH  26  31ENDBRANCH  21  24ENDBRANCH   4  20TORSDOF 8TERENDMDL