MODEL        7USER    Run = 7USERUSER    Estimated Free Energy of Binding    =  -9.87 kcal/mol  [=(1)+(2)+(3)-(4)]USERUSER    (1) Final Intermolecular Energy     = -11.06 kcal/molUSER        vdW + Hbond + desolv Energy     = -10.97 kcal/molUSER        Electrostatic Energy            =  -0.09 kcal/molUSER        Moving Ligand-Fixed Receptor    = -11.06 kcal/molUSER        Moving Ligand-Moving Receptor   =  +0.00 kcal/molUSER    (2) Final Total Internal Energy     =  -0.95 kcal/molUSER    (3) Torsional Free Energy           =  +1.19 kcal/molUSER    (4) Unbound System's Energy         =  -0.95 kcal/molUSERUSERREMARK SMILES CN1CCN(C(=O)c2ccc([C@@H](c3ccncc3)c3ccc(F)cc3)cc2)CC1REMARK SMILES IDX 8 1 9 2 10 3 11 4 26 5 27 6 6 7 2 8 3 9 29 10 4 11 28 12REMARK SMILES IDX 5 13 1 14 7 15 12 16 13 17 14 18 18 19 15 20 17 21 16 22REMARK SMILES IDX 19 23 20 24 25 25 21 26 24 27 22 28 23 29REMARK H PARENTUSER                              x       y       z     vdW  Elec       q    TypeUSER                           _______ _______ _______ _____ _____    ______ ____ROOTATOM      1  C   UNL     1      36.653  44.072  18.950 -0.33 -0.01    +0.040 A  ATOM      2  C   UNL     1      35.720  45.054  18.615 -0.32 -0.00    +0.014 A  ATOM      3  C   UNL     1      36.081  46.094  17.756 -0.23 -0.00    +0.005 A  ATOM      4  C   UNL     1      37.375  46.156  17.201 -0.33 +0.02    -0.036 A  ATOM      5  C   UNL     1      38.300  45.151  17.540 -0.38 -0.00    +0.005 A  ATOM      6  C   UNL     1      37.937  44.110  18.400 -0.21 -0.00    +0.014 A  ENDROOTBRANCH   1   7ATOM      7  C   UNL     1      36.239  42.962  19.842 -0.29 -0.02    +0.253 C  ATOM      8  N   UNL     1      37.135  42.626  23.638 -0.22 -0.02    -0.303 NA ATOM      9  C   UNL     1      37.565  43.763  22.794 -0.35 +0.01    +0.105 C  ATOM     10  C   UNL     1      36.172  41.774  22.900 -0.40 +0.01    +0.105 C  ATOM     11  C   UNL     1      38.140  43.296  21.437 -0.23 +0.00    +0.135 C  ATOM     12  C   UNL     1      36.752  41.299  21.552 -0.52 +0.00    +0.135 C  ATOM     13  N   UNL     1      37.174  42.439  20.738 -0.13 +0.00    -0.336 N  ATOM     14  C   UNL     1      36.543  43.105  24.887 -0.35 +0.00    +0.105 C  ATOM     15  O   UNL     1      35.090  42.538  19.736 -0.32 +0.01    -0.269 OA ENDBRANCH   1   7BRANCH   4  16ATOM     16  C   UNL     1      37.732  47.326  16.273 -0.34 -0.05    +0.079 C  BRANCH  16  17ATOM     17  C   UNL     1      39.156  47.856  16.462 -0.40 +0.01    -0.033 A  ATOM     18  C   UNL     1      39.653  48.822  15.573 -0.53 -0.01    +0.025 A  ATOM     19  C   UNL     1      40.013  47.394  17.468 -0.40 -0.01    +0.025 A  ATOM     20  C   UNL     1      40.951  49.281  15.737 -0.55 -0.02    +0.111 A  ATOM     21  C   UNL     1      41.294  47.918  17.551 -0.41 -0.01    +0.111 A  ATOM     22  N   UNL     1      41.782  48.852  16.709 -0.78 -0.04    -0.265 NA ENDBRANCH  16  17BRANCH  16  23ATOM     23  C   UNL     1      37.331  47.103  14.808 -0.41 +0.02    -0.036 A  ATOM     24  C   UNL     1      36.929  48.211  14.035 -0.54 -0.01    +0.008 A  ATOM     25  C   UNL     1      37.314  45.829  14.210 -0.41 -0.00    +0.008 A  ATOM     26  C   UNL     1      36.540  48.051  12.704 -0.60 -0.02    +0.039 A  ATOM     27  C   UNL     1      36.925  45.673  12.878 -0.51 -0.01    +0.039 A  ATOM     28  C   UNL     1      36.544  46.784  12.137 -0.58 -0.05    +0.123 A  ATOM     29  F   UNL     1      36.169  46.630  10.861 +0.09 +0.10    -0.207 F  ENDBRANCH  16  23ENDBRANCH   4  16TORSDOF 4TERENDMDL