MODEL        4USER    Run = 4USERUSER    Estimated Free Energy of Binding    = -11.96 kcal/mol  [=(1)+(2)+(3)-(4)]USERUSER    (1) Final Intermolecular Energy     = -14.05 kcal/molUSER        vdW + Hbond + desolv Energy     = -13.94 kcal/molUSER        Electrostatic Energy            =  -0.11 kcal/molUSER        Moving Ligand-Fixed Receptor    = -14.05 kcal/molUSER        Moving Ligand-Moving Receptor   =  +0.00 kcal/molUSER    (2) Final Total Internal Energy     =  -2.08 kcal/molUSER    (3) Torsional Free Energy           =  +2.09 kcal/molUSER    (4) Unbound System's Energy         =  -2.08 kcal/molUSERUSERREMARK SMILES Cc1cc(NC2=NC=C3C2=CN=C3C=C2C=CC(NC(=O)NCCN)=C2)ccn1REMARK SMILES IDX 15 1 16 2 17 3 18 4 26 5 14 6 13 7 5 8 6 9 7 10 10 11 8 12REMARK SMILES IDX 9 13 11 14 12 15 4 17 2 18 3 19 29 20 28 21 27 22 1 23 19 24REMARK SMILES IDX 20 25 22 26 21 28 23 30 24 31 25 32REMARK H PARENT 5 16 19 27 22 29 25 33 25 34USER                              x       y       z     vdW  Elec       q    TypeUSER                           _______ _______ _______ _____ _____    ______ ____ROOTATOM      1  C   UNL     1      40.338  48.432  14.885 -0.62 +0.01    -0.021 C  ATOM      2  C   UNL     1      40.172  49.381  15.969 -0.56 -0.00    +0.010 C  ATOM      3  C   UNL     1      41.094  50.343  15.797 -0.64 -0.01    +0.027 C  ATOM      4  C   UNL     1      41.879  50.053  14.613 -0.73 -0.01    +0.043 C  ATOM      5  C   UNL     1      41.435  48.912  14.057 -0.30 -0.00    +0.034 C  ENDROOTBRANCH   1   6ATOM      6  C   UNL     1      39.649  47.314  14.627 -0.51 -0.01    +0.037 C  BRANCH   6   7ATOM      7  C   UNL     1      38.328  47.275  13.975 -0.49 -0.02    +0.073 C  ATOM      8  N   UNL     1      33.666  46.291  13.972 -0.10 +0.34    -0.340 N  ATOM      9  C   UNL     1      34.918  46.333  14.529 -0.27 -0.13    +0.139 C  ATOM     10  N   UNL     1      35.309  45.936  15.730 -0.20 +0.21    -0.238 NA ATOM     11  C   UNL     1      36.094  46.871  13.814 -0.53 -0.03    +0.046 C  ATOM     12  C   UNL     1      36.676  46.192  15.818 -0.34 -0.08    +0.124 C  ATOM     13  C   UNL     1      37.181  46.739  14.718 -0.46 -0.02    +0.031 C  ATOM     14  C   UNL     1      36.587  47.419  12.706 -0.64 -0.05    +0.124 C  ATOM     15  N   UNL     1      37.957  47.681  12.782 -0.79 +0.03    -0.255 NA ATOM     16  H   UNL     1      33.577  46.673  13.040 -0.46 -0.17    +0.168 HD BRANCH   8  17ATOM     17  C   UNL     1      32.471  45.769  14.502 -0.27 -0.04    +0.043 A  ATOM     18  C   UNL     1      31.385  44.202  15.994 -0.31 -0.02    +0.039 A  ATOM     19  C   UNL     1      32.551  44.741  15.451 -0.31 -0.03    +0.049 A  ATOM     20  N   UNL     1      30.155  44.623  15.633 -0.21 +0.13    -0.261 NA ATOM     21  C   UNL     1      30.090  45.608  14.713 -0.35 -0.07    +0.113 A  ATOM     22  C   UNL     1      31.200  46.200  14.131 -0.54 -0.03    +0.046 A  ATOM     23  C   UNL     1      31.465  43.095  17.002 -0.31 -0.02    +0.067 C  ENDBRANCH   8  17ENDBRANCH   6   7ENDBRANCH   1   6BRANCH   4  24ATOM     24  N   UNL     1      42.903  50.805  14.117 -0.38 +0.07    -0.308 N  ATOM     25  C   UNL     1      43.200  51.060  12.795 -0.35 -0.14    +0.319 C  ATOM     26  N   UNL     1      44.349  51.824  12.690 -0.17 +0.17    -0.337 N  ATOM     27  H   UNL     1      43.470  51.300  14.788 -0.13 -0.02    +0.171 HD ATOM     28  O   UNL     1      42.554  50.696  11.821 -0.55 +0.12    -0.249 OA ATOM     29  H   UNL     1      45.050  51.611  13.383 -0.44 -0.12    +0.165 HD BRANCH  26  30ATOM     30  C   UNL     1      44.879  52.150  11.374 -0.32 -0.06    +0.132 C  BRANCH  30  31ATOM     31  C   UNL     1      43.846  52.832  10.454 -0.46 -0.06    +0.099 C  BRANCH  31  32ATOM     32  N   UNL     1      43.013  51.896   9.698 -0.29 +0.05    -0.329 NA ATOM     33  H   UNL     1      43.379  50.947   9.828 -0.52 -0.06    +0.118 HD ATOM     34  H   UNL     1      42.067  51.891  10.076 -0.40 -0.04    +0.118 HD ENDBRANCH  31  32ENDBRANCH  30  31ENDBRANCH  26  30ENDBRANCH   4  24TORSDOF 7TERENDMDL