REMARK SMILES COc1cc(O)c(C(=O)c2ccc(C(=O)N[C@@H]3CCNC[C@@H]3NC(=O)c3ccncc3)cc2)cc1F
REMARK SMILES IDX 10 1 11 2 12 3 13 4 32 5 33 6 8 7 9 8 7 9 3 10 4 11 35 12
REMARK SMILES IDX 5 13 34 14 36 15 2 16 1 17 6 18 14 20 16 21 15 22 17 24
REMARK SMILES IDX 18 25 22 26 19 27 21 28 20 29 23 31 24 32 25 34 26 35 27 36
REMARK SMILES IDX 31 37 28 38 30 39 29 40
REMARK H PARENT 6 19 16 23 20 30 23 33
ROOT
ATOM      1  C   UNL     1       3.227  -1.270  -0.701  1.00  0.00     0.023 A 
ATOM      2  C   UNL     1       2.154  -0.489  -0.255  1.00  0.00     0.013 A 
ATOM      3  C   UNL     1       0.855  -0.775  -0.689  1.00  0.00     0.014 A 
ATOM      4  C   UNL     1       0.624  -1.855  -1.554  1.00  0.00     0.039 A 
ATOM      5  C   UNL     1       1.702  -2.637  -1.990  1.00  0.00     0.014 A 
ATOM      6  C   UNL     1       2.999  -2.354  -1.554  1.00  0.00     0.013 A 
ENDROOT
BRANCH   1   7
ATOM      7  C   UNL     1       4.612  -1.009  -0.246  1.00  0.00     0.196 C 
ATOM      8  O   UNL     1       5.315  -1.959   0.095  1.00  0.00    -0.288 OA
BRANCH   7   9
ATOM      9  C   UNL     1       5.180   0.361  -0.167  1.00  0.00     0.067 A 
ATOM     10  C   UNL     1       6.301   2.941   0.039  1.00  0.00     0.158 A 
ATOM     11  C   UNL     1       6.795   1.900   0.824  1.00  0.00     0.096 A 
ATOM     12  C   UNL     1       5.260   2.670  -0.856  1.00  0.00     0.166 A 
ATOM     13  C   UNL     1       6.245   0.620   0.710  1.00  0.00     0.130 A 
ATOM     14  C   UNL     1       4.702   1.397  -0.971  1.00  0.00     0.059 A 
ATOM     15  F   UNL     1       4.771   3.647  -1.634  1.00  0.00    -0.203 F 
BRANCH  10  16
ATOM     16  O   UNL     1       6.750   4.234   0.054  1.00  0.00    -0.494 OA
ATOM     17  C   UNL     1       7.827   4.536   0.933  1.00  0.00     0.278 C 
ENDBRANCH  10  16
BRANCH  13  18
ATOM     18  O   UNL     1       6.807  -0.349   1.500  1.00  0.00    -0.507 OA
ATOM     19  H   UNL     1       6.467  -1.223   1.196  1.00  0.00     0.293 HD
ENDBRANCH  13  18
ENDBRANCH   7   9
ENDBRANCH   1   7
BRANCH   4  20
ATOM     20  C   UNL     1      -0.740  -2.196  -2.048  1.00  0.00     0.251 C 
ATOM     21  N   UNL     1      -1.794  -1.847  -1.230  1.00  0.00    -0.347 N 
ATOM     22  O   UNL     1      -0.878  -2.781  -3.116  1.00  0.00    -0.269 OA
ATOM     23  H   UNL     1      -1.599  -1.614  -0.264  1.00  0.00     0.164 HD
BRANCH  21  24
ATOM     24  C   UNL     1      -3.171  -2.248  -1.540  1.00  0.00     0.107 C 
ATOM     25  C   UNL     1      -3.737  -1.435  -2.716  1.00  0.00     0.042 C 
ATOM     26  C   UNL     1      -4.072  -2.106  -0.289  1.00  0.00     0.118 C 
ATOM     27  C   UNL     1      -5.207  -1.762  -2.961  1.00  0.00     0.083 C 
ATOM     28  C   UNL     1      -5.538  -2.409  -0.656  1.00  0.00     0.108 C 
ATOM     29  N   UNL     1      -6.025  -1.571  -1.762  1.00  0.00    -0.315 NA
ATOM     30  H   UNL     1      -5.998  -0.594  -1.473  1.00  0.00     0.122 HD
BRANCH  26  31
ATOM     31  N   UNL     1      -3.934  -0.768   0.310  1.00  0.00    -0.346 N 
ATOM     32  C   UNL     1      -4.200  -0.548   1.644  1.00  0.00     0.251 C 
ATOM     33  H   UNL     1      -3.721   0.002  -0.307  1.00  0.00     0.164 HD
ATOM     34  O   UNL     1      -4.447  -1.453   2.432  1.00  0.00    -0.269 OA
BRANCH  32  35
ATOM     35  C   UNL     1      -4.132   0.858   2.121  1.00  0.00     0.042 A 
ATOM     36  C   UNL     1      -4.393   1.945   1.286  1.00  0.00     0.034 A 
ATOM     37  C   UNL     1      -3.817   1.079   3.462  1.00  0.00     0.034 A 
ATOM     38  C   UNL     1      -4.298   3.214   1.831  1.00  0.00     0.112 A 
ATOM     39  C   UNL     1      -3.747   2.385   3.908  1.00  0.00     0.112 A 
ATOM     40  N   UNL     1      -3.970   3.456   3.117  1.00  0.00    -0.265 NA
ENDBRANCH  32  35
ENDBRANCH  26  31
ENDBRANCH  21  24
ENDBRANCH   4  20
TORSDOF 8
