MODEL        6USER    Run = 6USERUSER    Estimated Free Energy of Binding    = -11.13 kcal/mol  [=(1)+(2)+(3)-(4)]USERUSER    (1) Final Intermolecular Energy     = -12.32 kcal/molUSER        vdW + Hbond + desolv Energy     = -12.24 kcal/molUSER        Electrostatic Energy            =  -0.09 kcal/molUSER        Moving Ligand-Fixed Receptor    = -12.32 kcal/molUSER        Moving Ligand-Moving Receptor   =  +0.00 kcal/molUSER    (2) Final Total Internal Energy     =  -0.84 kcal/molUSER    (3) Torsional Free Energy           =  +1.19 kcal/molUSER    (4) Unbound System's Energy         =  -0.84 kcal/molUSERUSERREMARK SMILES Cc1cc(NC2=NC=C3C2=CN=C3C=C2C=CC(NC(=O)N3CCNCC3)=C2)ccn1REMARK SMILES IDX 14 1 13 2 5 3 6 4 7 5 10 6 8 7 9 8 11 9 12 10 4 12 2 13 3 14REMARK SMILES IDX 31 15 30 16 29 17 1 18 15 19 16 20 28 21 17 22 18 23 19 24REMARK SMILES IDX 20 25 22 26 23 27 27 28 24 29 26 30 25 31 21 33REMARK H PARENT 5 11 19 32 25 34USER                              x       y       z     vdW  Elec       q    TypeUSER                           _______ _______ _______ _____ _____    ______ ____ROOTATOM      1  C   UNL     1      32.657  43.903  16.300 -0.36 -0.02    +0.037 C  ENDROOTBRANCH   1   2ATOM      2  C   UNL     1      34.115  43.735  16.432 -0.35 -0.03    +0.073 C  ATOM      3  N   UNL     1      38.536  45.488  16.748 -0.14 +0.08    -0.340 N  ATOM      4  C   UNL     1      37.170  45.587  16.682 -0.32 -0.06    +0.139 C  ATOM      5  N   UNL     1      36.416  46.675  16.666 -0.22 +0.18    -0.238 NA ATOM      6  C   UNL     1      36.285  44.406  16.596 -0.36 -0.02    +0.046 C  ATOM      7  C   UNL     1      35.092  46.249  16.570 -0.26 -0.13    +0.124 C  ATOM      8  C   UNL     1      34.965  44.928  16.522 -0.35 -0.02    +0.031 C  ATOM      9  C   UNL     1      36.169  43.080  16.557 -0.35 -0.04    +0.124 C  ATOM     10  N   UNL     1      34.845  42.643  16.453 -0.28 +0.11    -0.255 NA ATOM     11  H   UNL     1      38.927  44.557  16.677 +0.13 -0.03    +0.168 HD BRANCH   3  12ATOM     12  C   UNL     1      39.496  46.510  16.860 -0.42 -0.01    +0.043 A  ATOM     13  C   UNL     1      40.655  48.492  16.113 -0.56 -0.01    +0.039 A  ATOM     14  C   UNL     1      39.660  47.532  15.924 -0.47 -0.01    +0.049 A  ATOM     15  N   UNL     1      41.490  48.482  17.177 -0.74 +0.00    -0.261 NA ATOM     16  C   UNL     1      41.326  47.490  18.072 -0.42 -0.01    +0.113 A  ATOM     17  C   UNL     1      40.363  46.500  17.959 -0.46 -0.00    +0.046 A  ATOM     18  C   UNL     1      40.829  49.595  15.112 -0.64 -0.02    +0.067 C  ENDBRANCH   3  12ENDBRANCH   1   2BRANCH   1  19ATOM     19  C   UNL     1      32.061  44.695  15.400 -0.42 +0.01    -0.021 C  ATOM     20  C   UNL     1      32.776  45.676  14.599 -0.28 -0.01    +0.010 C  ATOM     21  C   UNL     1      30.658  44.776  15.031 -0.43 -0.02    +0.034 C  ATOM     22  C   UNL     1      31.864  46.285  13.820 -0.46 -0.02    +0.027 C  ATOM     23  C   UNL     1      30.550  45.733  14.094 -0.56 -0.03    +0.043 C  BRANCH  23  24ATOM     24  N   UNL     1      29.374  46.102  13.506 -0.15 +0.29    -0.308 N  ATOM     25  C   UNL     1      29.198  46.840  12.356 -0.33 -0.19    +0.321 C  ATOM     26  N   UNL     1      27.874  46.996  11.968 -0.30 +0.18    -0.322 N  ATOM     27  C   UNL     1      27.579  47.878  10.838 -0.32 -0.08    +0.136 C  ATOM     28  C   UNL     1      26.727  46.267  12.523 -0.34 -0.07    +0.136 C  ATOM     29  C   UNL     1      26.193  48.538  10.968 -0.37 -0.06    +0.102 C  ATOM     30  C   UNL     1      25.506  46.275  11.585 -0.28 -0.01    +0.102 C  ATOM     31  N   UNL     1      25.063  47.621  11.199 -0.12 +0.17    -0.313 NA ATOM     32  H   UNL     1      28.546  45.916  14.047 -0.10 -0.15    +0.171 HD ATOM     33  O   UNL     1      30.115  47.339  11.706 -1.09 +0.06    -0.248 OA ATOM     34  H   UNL     1      24.489  47.557  10.357 -0.09 -0.13    +0.122 HD ENDBRANCH  23  24ENDBRANCH   1  19TORSDOF 4TERENDMDL