REMARK SMILES Oc1nc2ccccc2n1C1CCN(Cc2ccc(-c3ncnc4ccccc34)cc2)CC1
REMARK SMILES IDX 11 1 12 2 13 3 14 4 32 5 33 6 10 7 2 8 3 9 4 10 9 11 5 12
REMARK SMILES IDX 8 13 6 14 7 15 1 16 15 18 16 19 17 20 31 21 18 22 30 23
REMARK SMILES IDX 19 24 20 25 21 26 29 27 22 28 28 29 24 30 23 31 27 32 25 33
REMARK SMILES IDX 26 34
REMARK H PARENT 1 17
ROOT
ATOM      1  C   UNL     1      -3.555  -0.729  -1.005  1.00  0.00     0.095 C 
ATOM      2  C   UNL     1      -3.210   0.058  -2.273  1.00  0.00     0.041 C 
ATOM      3  C   UNL     1      -1.984  -0.548  -2.960  1.00  0.00     0.087 C 
ATOM      4  N   UNL     1      -0.814  -0.682  -2.083  1.00  0.00    -0.299 NA
ATOM      5  C   UNL     1      -1.146  -1.445  -0.869  1.00  0.00     0.087 C 
ATOM      6  C   UNL     1      -2.337  -0.886  -0.088  1.00  0.00     0.041 C 
ENDROOT
BRANCH   1   7
ATOM      7  N   UNL     1      -4.722  -0.203  -0.309  1.00  0.00    -0.291 N 
ATOM      8  C   UNL     1      -5.899  -0.884  -0.139  1.00  0.00     0.295 A 
ATOM      9  N   UNL     1      -6.774  -0.236   0.574  1.00  0.00    -0.195 NA
ATOM     10  C   UNL     1      -6.150   0.949   0.881  1.00  0.00     0.092 A 
ATOM     11  C   UNL     1      -4.867   1.014   0.327  1.00  0.00     0.072 A 
ATOM     12  C   UNL     1      -6.634   2.029   1.637  1.00  0.00     0.031 A 
ATOM     13  C   UNL     1      -4.041   2.134   0.491  1.00  0.00     0.029 A 
ATOM     14  C   UNL     1      -5.818   3.152   1.813  1.00  0.00     0.002 A 
ATOM     15  C   UNL     1      -4.544   3.201   1.247  1.00  0.00     0.002 A 
BRANCH   8  16
ATOM     16  O   UNL     1      -6.150  -2.082  -0.627  1.00  0.00    -0.480 OA
ATOM     17  H   UNL     1      -7.059  -2.228  -0.312  1.00  0.00     0.296 HD
ENDBRANCH   8  16
ENDBRANCH   1   7
BRANCH   4  18
ATOM     18  C   UNL     1      -0.181   0.618  -1.806  1.00  0.00     0.120 C 
BRANCH  18  19
ATOM     19  C   UNL     1       1.201   0.506  -1.195  1.00  0.00    -0.034 A 
ATOM     20  C   UNL     1       1.531   1.241  -0.048  1.00  0.00     0.006 A 
ATOM     21  C   UNL     1       2.188  -0.289  -1.795  1.00  0.00     0.006 A 
ATOM     22  C   UNL     1       2.817   1.171   0.496  1.00  0.00     0.011 A 
ATOM     23  C   UNL     1       3.473  -0.362  -1.246  1.00  0.00     0.011 A 
ATOM     24  C   UNL     1       3.803   0.364  -0.091  1.00  0.00     0.001 A 
BRANCH  24  25
ATOM     25  C   UNL     1       5.152   0.293   0.486  1.00  0.00     0.081 A 
ATOM     26  N   UNL     1       5.973   1.283   0.073  1.00  0.00    -0.236 NA
ATOM     27  C   UNL     1       5.546  -0.704   1.393  1.00  0.00     0.027 A 
ATOM     28  C   UNL     1       7.209   1.268   0.579  1.00  0.00     0.223 A 
ATOM     29  C   UNL     1       4.726  -1.763   1.861  1.00  0.00     0.012 A 
ATOM     30  C   UNL     1       6.867  -0.596   1.850  1.00  0.00     0.074 A 
ATOM     31  N   UNL     1       7.695   0.376   1.450  1.00  0.00    -0.236 NA
ATOM     32  C   UNL     1       5.216  -2.695   2.772  1.00  0.00     0.001 A 
ATOM     33  C   UNL     1       7.331  -1.538   2.759  1.00  0.00     0.029 A 
ATOM     34  C   UNL     1       6.524  -2.579   3.226  1.00  0.00     0.002 A 
ENDBRANCH  24  25
ENDBRANCH  18  19
ENDBRANCH   4  18
TORSDOF 5
