REMARK SMILES COc1ccc2nc(-c3ccc(C(F)(F)F)cc3)c(-c3ccc(CN4CCC(n5c(O)nc6ccccc65)CC4)cc3)nc2c1
REMARK SMILES IDX 20 1 21 2 22 3 23 4 41 5 42 6 19 7 3 8 4 9 45 10 5 11 44 12
REMARK SMILES IDX 6 13 43 14 7 15 8 16 2 17 1 18 9 19 10 20 18 21 11 22 17 23
REMARK SMILES IDX 12 24 13 25 14 26 15 27 16 28 24 29 25 30 26 31 40 32 27 33
REMARK SMILES IDX 39 34 28 35 29 36 30 37 38 38 32 39 37 40 33 41 36 42 34 43
REMARK SMILES IDX 35 44 31 45
REMARK H PARENT 31 46
ROOT
ATOM      1  C   UNL     1      -2.243   0.196  -0.242  1.00  0.00     0.002 A 
ATOM      2  C   UNL     1      -1.977   1.307   0.576  1.00  0.00     0.011 A 
ATOM      3  C   UNL     1      -0.769   2.006   0.479  1.00  0.00     0.006 A 
ATOM      4  C   UNL     1       0.216   1.602  -0.430  1.00  0.00    -0.034 A 
ATOM      5  C   UNL     1      -0.028   0.479  -1.232  1.00  0.00     0.006 A 
ATOM      6  C   UNL     1      -1.237  -0.216  -1.133  1.00  0.00     0.011 A 
ENDROOT
BRANCH   1   7
ATOM      7  C   UNL     1      -3.526  -0.526  -0.178  1.00  0.00     0.097 A 
ATOM      8  C   UNL     1      -5.587  -4.748   0.502  1.00  0.00     0.121 A 
ATOM      9  C   UNL     1      -6.835  -4.141   0.410  1.00  0.00     0.049 A 
ATOM     10  C   UNL     1      -4.442  -3.962   0.370  1.00  0.00     0.077 A 
ATOM     11  C   UNL     1      -6.933  -2.767   0.188  1.00  0.00     0.034 A 
ATOM     12  C   UNL     1      -4.528  -2.591   0.149  1.00  0.00     0.093 A 
ATOM     13  C   UNL     1      -5.798  -1.982   0.056  1.00  0.00     0.090 A 
ATOM     14  N   UNL     1      -3.399  -1.868   0.032  1.00  0.00    -0.244 NA
ATOM     15  N   UNL     1      -5.930  -0.663  -0.163  1.00  0.00    -0.244 NA
ATOM     16  C   UNL     1      -4.791   0.072  -0.300  1.00  0.00     0.097 A 
BRANCH   8  17
ATOM     17  O   UNL     1      -5.620  -6.097   0.721  1.00  0.00    -0.497 OA
ATOM     18  C   UNL     1      -4.368  -6.767   0.810  1.00  0.00     0.278 C 
ENDBRANCH   8  17
BRANCH  16  19
ATOM     19  C   UNL     1      -5.036   1.494  -0.605  1.00  0.00     0.002 A 
ATOM     20  C   UNL     1      -4.436   2.133  -1.703  1.00  0.00     0.011 A 
ATOM     21  C   UNL     1      -5.913   2.249   0.192  1.00  0.00     0.011 A 
ATOM     22  C   UNL     1      -4.681   3.484  -1.977  1.00  0.00     0.014 A 
ATOM     23  C   UNL     1      -6.163   3.599  -0.080  1.00  0.00     0.014 A 
ATOM     24  C   UNL     1      -5.551   4.229  -1.171  1.00  0.00     0.056 A 
BRANCH  24  25
ATOM     25  C   UNL     1      -5.801   5.691  -1.449  1.00  0.00     0.416 C 
ATOM     26  F   UNL     1      -4.994   6.502  -0.710  1.00  0.00    -0.166 F 
ATOM     27  F   UNL     1      -5.587   6.037  -2.749  1.00  0.00    -0.166 F 
ATOM     28  F   UNL     1      -7.077   6.078  -1.168  1.00  0.00    -0.166 F 
ENDBRANCH  24  25
ENDBRANCH  16  19
ENDBRANCH   1   7
BRANCH   4  29
ATOM     29  C   UNL     1       1.509   2.380  -0.562  1.00  0.00     0.120 C 
BRANCH  29  30
ATOM     30  N   UNL     1       2.718   1.567  -0.328  1.00  0.00    -0.299 NA
ATOM     31  C   UNL     1       3.909   2.320  -0.751  1.00  0.00     0.087 C 
ATOM     32  C   UNL     1       2.824   1.163   1.084  1.00  0.00     0.087 C 
ATOM     33  C   UNL     1       5.175   1.479  -0.603  1.00  0.00     0.041 C 
ATOM     34  C   UNL     1       4.048   0.276   1.313  1.00  0.00     0.041 C 
ATOM     35  C   UNL     1       5.322   0.979   0.837  1.00  0.00     0.095 C 
BRANCH  35  36
ATOM     36  N   UNL     1       6.522   0.179   1.038  1.00  0.00    -0.291 N 
ATOM     37  C   UNL     1       7.562   0.525   1.857  1.00  0.00     0.295 A 
ATOM     38  C   UNL     1       6.853  -1.031   0.463  1.00  0.00     0.072 A 
ATOM     39  N   UNL     1       8.529  -0.348   1.867  1.00  0.00    -0.195 NA
ATOM     40  C   UNL     1       6.214  -1.884  -0.448  1.00  0.00     0.029 A 
ATOM     41  C   UNL     1       8.108  -1.329   1.003  1.00  0.00     0.092 A 
ATOM     42  C   UNL     1       6.881  -3.061  -0.807  1.00  0.00     0.002 A 
ATOM     43  C   UNL     1       8.759  -2.516   0.631  1.00  0.00     0.031 A 
ATOM     44  C   UNL     1       8.132  -3.376  -0.278  1.00  0.00     0.002 A 
BRANCH  37  45
ATOM     45  O   UNL     1       7.617   1.627   2.577  1.00  0.00    -0.480 OA
ATOM     46  H   UNL     1       8.483   1.522   3.013  1.00  0.00     0.296 HD
ENDBRANCH  37  45
ENDBRANCH  35  36
ENDBRANCH  29  30
ENDBRANCH   4  29
TORSDOF 8
