MODEL        4USER    Run = 4USERUSER    Estimated Free Energy of Binding    = -12.08 kcal/mol  [=(1)+(2)+(3)-(4)]USERUSER    (1) Final Intermolecular Energy     = -14.47 kcal/molUSER        vdW + Hbond + desolv Energy     = -14.05 kcal/molUSER        Electrostatic Energy            =  -0.42 kcal/molUSER        Moving Ligand-Fixed Receptor    = -14.47 kcal/molUSER        Moving Ligand-Moving Receptor   =  +0.00 kcal/molUSER    (2) Final Total Internal Energy     =  -1.84 kcal/molUSER    (3) Torsional Free Energy           =  +2.39 kcal/molUSER    (4) Unbound System's Energy         =  -1.84 kcal/molUSERUSERREMARK SMILES COc1ccc2nc(-c3ccc(C(F)(F)F)cc3)c(-c3ccc(CN4CCC(n5c(O)nc6ccccc65)CC4)cc3)nc2c1REMARK SMILES IDX 20 1 21 2 22 3 23 4 41 5 42 6 19 7 3 8 4 9 45 10 5 11 44 12REMARK SMILES IDX 6 13 43 14 7 15 8 16 2 17 1 18 9 19 10 20 18 21 11 22 17 23REMARK SMILES IDX 12 24 13 25 14 26 15 27 16 28 24 29 25 30 26 31 40 32 27 33REMARK SMILES IDX 39 34 28 35 29 36 30 37 38 38 32 39 37 40 33 41 36 42 34 43REMARK SMILES IDX 35 44 31 45REMARK H PARENT 31 46USER                              x       y       z     vdW  Elec       q    TypeUSER                           _______ _______ _______ _____ _____    ______ ____ROOTATOM      1  C   UNL     1      34.257  44.217  17.565 -0.30 -0.00    +0.002 A  ATOM      2  C   UNL     1      33.848  42.941  17.141 -0.36 -0.00    +0.011 A  ATOM      3  C   UNL     1      32.635  42.754  16.469 -0.26 -0.00    +0.006 A  ATOM      4  C   UNL     1      31.788  43.839  16.216 -0.31 +0.01    -0.034 A  ATOM      5  C   UNL     1      32.173  45.112  16.658 -0.25 -0.00    +0.006 A  ATOM      6  C   UNL     1      33.386  45.294  17.328 -0.34 -0.01    +0.011 A  ENDROOTBRANCH   1   7ATOM      7  C   UNL     1      35.549  44.434  18.239 -0.26 -0.03    +0.097 A  ATOM      8  C   UNL     1      38.025  43.733  22.228 -0.28 +0.01    +0.121 A  ATOM      9  C   UNL     1      39.139  44.307  21.624 -0.28 +0.00    +0.049 A  ATOM     10  C   UNL     1      36.839  43.633  21.501 -0.35 +0.00    +0.077 A  ATOM     11  C   UNL     1      39.064  44.774  20.311 -0.35 -0.00    +0.034 A  ATOM     12  C   UNL     1      36.753  44.095  20.191 -0.33 -0.00    +0.093 A  ATOM     13  C   UNL     1      37.887  44.676  19.585 -0.30 -0.01    +0.090 A  ATOM     14  N   UNL     1      35.591  43.975  19.523 -0.23 +0.03    -0.244 NA ATOM     15  N   UNL     1      37.849  45.142  18.325 -0.22 +0.05    -0.244 NA ATOM     16  C   UNL     1      36.671  45.039  17.649 -0.27 -0.03    +0.097 A  BRANCH   8  17ATOM     17  O   UNL     1      38.222  43.314  23.514 -0.05 -0.03    -0.497 OA ATOM     18  C   UNL     1      37.259  42.417  24.055 -0.27 +0.01    +0.278 C  ENDBRANCH   8  17BRANCH  16  19ATOM     19  C   UNL     1      36.707  45.637  16.301 -0.36 -0.00    +0.002 A  ATOM     20  C   UNL     1      37.136  46.958  16.085 -0.38 -0.01    +0.011 A  ATOM     21  C   UNL     1      36.334  44.879  15.179 -0.36 -0.00    +0.011 A  ATOM     22  C   UNL     1      37.164  47.508  14.798 -0.46 -0.01    +0.014 A  ATOM     23  C   UNL     1      36.363  45.424  13.890 -0.42 -0.01    +0.014 A  ATOM     24  C   UNL     1      36.782  46.745  13.687 -0.46 -0.03    +0.056 A  BRANCH  24  25ATOM     25  C   UNL     1      36.789  47.341  12.301 -0.37 -0.15    +0.416 C  ATOM     26  F   UNL     1      36.337  48.626  12.289 -0.22 +0.06    -0.166 F  ATOM     27  F   UNL     1      38.028  47.376  11.735 -0.12 -0.00    -0.166 F  ATOM     28  F   UNL     1      36.000  46.660  11.422 -0.26 +0.09    -0.166 F  ENDBRANCH  24  25ENDBRANCH  16  19ENDBRANCH   1   7BRANCH   4  29ATOM     29  C   UNL     1      30.492  43.644  15.457 -0.30 -0.07    +0.120 C  BRANCH  29  30ATOM     30  N   UNL     1      29.513  42.792  16.160 -0.11 +0.13    -0.299 NA ATOM     31  C   UNL     1      28.154  43.305  15.928 -0.24 -0.05    +0.087 C  ATOM     32  C   UNL     1      29.626  41.387  15.733 -0.38 -0.03    +0.087 C  ATOM     33  C   UNL     1      27.119  42.499  16.708 -0.25 -0.01    +0.041 C  ATOM     34  C   UNL     1      28.649  40.497  16.502 -0.36 +0.00    +0.041 C  ATOM     35  C   UNL     1      27.215  41.013  16.351 -0.27 -0.01    +0.095 C  BRANCH  35  36ATOM     36  N   UNL     1      26.240  40.196  17.060 -0.16 -0.02    -0.291 N  ATOM     37  C   UNL     1      25.547  39.154  16.508 -0.08 +0.07    +0.295 A  ATOM     38  C   UNL     1      25.820  40.305  18.370 -0.23 -0.01    +0.072 A  ATOM     39  N   UNL     1      24.723  38.579  17.339 -0.71 +0.03    -0.195 NA ATOM     40  C   UNL     1      26.148  41.162  19.430 -0.26 -0.00    +0.029 A  ATOM     41  C   UNL     1      24.877  39.282  18.508 -0.30 -0.02    +0.092 A  ATOM     42  C   UNL     1      25.493  40.959  20.651 -0.40 -0.00    +0.002 A  ATOM     43  C   UNL     1      24.233  39.094  19.742 -0.33 -0.02    +0.031 A  ATOM     44  C   UNL     1      24.551  39.943  20.808 -0.38 -0.00    +0.002 A  BRANCH  37  45ATOM     45  O   UNL     1      25.670  38.745  15.262 -0.67 -0.21    -0.480 OA ATOM     46  H   UNL     1      24.787  38.364  15.102 -0.22 -0.14    +0.296 HD ENDBRANCH  37  45ENDBRANCH  35  36ENDBRANCH  29  30ENDBRANCH   4  29TORSDOF 8TERENDMDL