REMARK SMILES N#Cc1ccc(-c2nc3ccccc3nc2-c2ccc(CN3CCC(n4c(O)nc5ccccc54)CC3)cc2)cc1
REMARK SMILES IDX 17 1 18 2 19 3 20 4 38 5 39 6 16 7 7 8 8 9 9 10 15 11 10 12
REMARK SMILES IDX 14 13 11 14 13 15 12 16 6 17 3 18 4 19 41 20 5 21 40 22 2 23
REMARK SMILES IDX 1 24 21 25 22 26 23 27 37 28 24 29 36 30 25 31 26 32 27 33
REMARK SMILES IDX 35 34 29 35 34 36 30 37 33 38 31 39 32 40 28 41
REMARK H PARENT 28 42
ROOT
ATOM      1  C   UNL     1       2.862  -0.599   1.504  1.00  0.00     0.002 A 
ATOM      2  C   UNL     1       2.334  -1.894   1.629  1.00  0.00     0.011 A 
ATOM      3  C   UNL     1       0.958  -2.102   1.744  1.00  0.00     0.006 A 
ATOM      4  C   UNL     1       0.072  -1.016   1.754  1.00  0.00    -0.034 A 
ATOM      5  C   UNL     1       0.591   0.281   1.658  1.00  0.00     0.006 A 
ATOM      6  C   UNL     1       1.969   0.485   1.536  1.00  0.00     0.011 A 
ENDROOT
BRANCH   1   7
ATOM      7  C   UNL     1       4.312  -0.398   1.350  1.00  0.00     0.097 A 
ATOM      8  C   UNL     1       4.918   0.282   0.281  1.00  0.00     0.097 A 
ATOM      9  N   UNL     1       6.265   0.486   0.255  1.00  0.00    -0.244 NA
ATOM     10  C   UNL     1       6.992  -0.019   1.269  1.00  0.00     0.089 A 
ATOM     11  N   UNL     1       5.052  -0.920   2.367  1.00  0.00    -0.244 NA
ATOM     12  C   UNL     1       8.370   0.155   1.280  1.00  0.00     0.030 A 
ATOM     13  C   UNL     1       6.383  -0.732   2.326  1.00  0.00     0.089 A 
ATOM     14  C   UNL     1       9.161  -0.361   2.309  1.00  0.00     0.002 A 
ATOM     15  C   UNL     1       7.178  -1.243   3.345  1.00  0.00     0.030 A 
ATOM     16  C   UNL     1       8.562  -1.065   3.345  1.00  0.00     0.002 A 
BRANCH   8  17
ATOM     17  C   UNL     1       4.209   0.807  -0.903  1.00  0.00     0.002 A 
ATOM     18  C   UNL     1       2.881   1.845  -3.176  1.00  0.00     0.052 A 
ATOM     19  C   UNL     1       2.656   0.527  -2.771  1.00  0.00     0.020 A 
ATOM     20  C   UNL     1       3.774   2.643  -2.460  1.00  0.00     0.020 A 
ATOM     21  C   UNL     1       3.320   0.014  -1.651  1.00  0.00     0.012 A 
ATOM     22  C   UNL     1       4.433   2.127  -1.338  1.00  0.00     0.012 A 
BRANCH  18  23
ATOM     23  C   UNL     1       2.204   2.369  -4.326  1.00  0.00     0.099 C 
ATOM     24  N   UNL     1       1.652   2.792  -5.257  1.00  0.00    -0.192 NA
ENDBRANCH  18  23
ENDBRANCH   8  17
ENDBRANCH   1   7
BRANCH   4  25
ATOM     25  C   UNL     1      -1.419  -1.249   1.869  1.00  0.00     0.120 C 
BRANCH  25  26
ATOM     26  N   UNL     1      -1.991  -1.975   0.723  1.00  0.00    -0.299 NA
ATOM     27  C   UNL     1      -1.883  -1.260  -0.554  1.00  0.00     0.087 C 
ATOM     28  C   UNL     1      -3.358  -2.440   1.007  1.00  0.00     0.087 C 
ATOM     29  C   UNL     1      -2.846  -0.080  -0.681  1.00  0.00     0.041 C 
ATOM     30  C   UNL     1      -4.422  -1.958   0.017  1.00  0.00     0.041 C 
ATOM     31  C   UNL     1      -4.267  -0.451  -0.223  1.00  0.00     0.095 C 
BRANCH  31  32
ATOM     32  N   UNL     1      -5.301   0.086  -1.096  1.00  0.00    -0.291 N 
ATOM     33  C   UNL     1      -5.524  -0.263  -2.399  1.00  0.00     0.295 A 
ATOM     34  C   UNL     1      -6.250   1.031  -0.766  1.00  0.00     0.072 A 
ATOM     35  N   UNL     1      -6.538   0.359  -2.936  1.00  0.00    -0.195 NA
ATOM     36  C   UNL     1      -6.528   1.757   0.401  1.00  0.00     0.029 A 
ATOM     37  C   UNL     1      -7.003   1.176  -1.934  1.00  0.00     0.092 A 
ATOM     38  C   UNL     1      -7.606   2.650   0.358  1.00  0.00     0.002 A 
ATOM     39  C   UNL     1      -8.081   2.076  -1.955  1.00  0.00     0.031 A 
ATOM     40  C   UNL     1      -8.371   2.809  -0.798  1.00  0.00     0.002 A 
BRANCH  33  41
ATOM     41  O   UNL     1      -4.812  -1.139  -3.079  1.00  0.00    -0.480 OA
ATOM     42  H   UNL     1      -5.278  -1.129  -3.937  1.00  0.00     0.296 HD
ENDBRANCH  33  41
ENDBRANCH  31  32
ENDBRANCH  25  26
ENDBRANCH   4  25
TORSDOF 7
