MODEL        7USER    Run = 7USERUSER    Estimated Free Energy of Binding    = -13.59 kcal/mol  [=(1)+(2)+(3)-(4)]USERUSER    (1) Final Intermolecular Energy     = -15.68 kcal/molUSER        vdW + Hbond + desolv Energy     = -15.52 kcal/molUSER        Electrostatic Energy            =  -0.16 kcal/molUSER        Moving Ligand-Fixed Receptor    = -15.68 kcal/molUSER        Moving Ligand-Moving Receptor   =  +0.00 kcal/molUSER    (2) Final Total Internal Energy     =  -2.88 kcal/molUSER    (3) Torsional Free Energy           =  +2.09 kcal/molUSER    (4) Unbound System's Energy         =  -2.88 kcal/molUSERUSERREMARK SMILES Oc1nc2ccccc2n1[C@@H]1CCN(Cc2ccc(-c3nc4ccccc4nc3-c3ccc(C(F)(F)F)cc3)cc2)[C@@H](F)C1REMARK SMILES IDX 16 1 17 2 18 3 19 4 40 5 41 6 15 7 14 8 11 9 12 10 44 11REMARK SMILES IDX 13 12 42 13 43 14 10 15 2 16 3 17 4 18 9 19 5 20 8 21 6 22REMARK SMILES IDX 7 23 1 24 20 26 21 27 29 28 22 29 28 30 23 31 27 32 24 33REMARK SMILES IDX 26 34 25 35 30 36 31 37 39 38 32 39 38 40 33 41 34 42 35 43REMARK SMILES IDX 36 44 37 45REMARK H PARENT 1 25USER                              x       y       z     vdW  Elec       q    TypeUSER                           _______ _______ _______ _____ _____    ______ ____ROOTATOM      1  C   UNL     1      35.520  45.850  15.377 -0.34 +0.03    -0.034 A  ATOM      2  C   UNL     1      35.551  44.450  15.346 -0.32 -0.00    +0.006 A  ATOM      3  C   UNL     1      35.598  43.710  16.532 -0.37 -0.00    +0.011 A  ATOM      4  C   UNL     1      35.619  44.350  17.782 -0.31 -0.00    +0.002 A  ATOM      5  C   UNL     1      35.609  45.754  17.803 -0.36 -0.01    +0.011 A  ATOM      6  C   UNL     1      35.551  46.497  16.618 -0.32 -0.01    +0.006 A  ENDROOTBRANCH   1   7ATOM      7  C   UNL     1      35.481  46.644  14.089 -0.41 -0.10    +0.122 C  BRANCH   7   8ATOM      8  N   UNL     1      36.770  47.248  13.714 -0.31 +0.14    -0.270 NA ATOM      9  C   UNL     1      39.256  48.388  14.923 -0.53 -0.04    +0.098 C  ATOM     10  C   UNL     1      37.851  48.846  15.334 -0.52 -0.03    +0.041 C  ATOM     11  C   UNL     1      39.236  47.126  14.055 -0.30 -0.02    +0.080 C  ATOM     12  C   UNL     1      36.872  48.635  14.183 -0.47 -0.07    +0.090 C  ATOM     13  C   UNL     1      37.897  46.404  14.128 -0.32 -0.08    +0.239 C  ATOM     14  F   UNL     1      37.985  45.347  13.273 -0.05 +0.06    -0.230 F  BRANCH   9  15ATOM     15  N   UNL     1      40.156  48.281  16.065 -0.32 +0.08    -0.291 N  ATOM     16  C   UNL     1      41.135  49.168  16.415 -0.20 -0.03    +0.295 A  ATOM     17  N   UNL     1      41.794  48.819  17.485 -0.69 -0.02    -0.195 NA ATOM     18  C   UNL     1      41.216  47.633  17.868 -0.44 -0.01    +0.092 A  ATOM     19  C   UNL     1      40.182  47.268  17.002 -0.45 -0.01    +0.072 A  ATOM     20  C   UNL     1      41.528  46.807  18.958 -0.46 +0.00    +0.031 A  ATOM     21  C   UNL     1      39.430  46.099  17.185 -0.42 -0.01    +0.029 A  ATOM     22  C   UNL     1      40.790  45.634  19.152 -0.45 +0.00    +0.002 A  ATOM     23  C   UNL     1      39.756  45.290  18.280 -0.43 -0.00    +0.002 A  BRANCH  16  24ATOM     24  O   UNL     1      41.422  50.273  15.758 -0.68 +0.09    -0.480 OA ATOM     25  H   UNL     1      41.412  50.927  16.482 -0.34 -0.11    +0.296 HD ENDBRANCH  16  24ENDBRANCH   9  15ENDBRANCH   7   8ENDBRANCH   1   7BRANCH   4  26ATOM     26  C   UNL     1      35.679  43.586  19.039 -0.30 -0.02    +0.097 A  ATOM     27  N   UNL     1      36.766  43.867  19.811 -0.22 +0.02    -0.244 NA ATOM     28  C   UNL     1      34.733  42.631  19.439 -0.36 -0.01    +0.097 A  ATOM     29  C   UNL     1      36.911  43.173  20.954 -0.36 +0.00    +0.089 A  ATOM     30  N   UNL     1      34.889  41.922  20.593 -0.15 -0.02    -0.244 NA ATOM     31  C   UNL     1      38.009  43.419  21.770 -0.33 +0.00    +0.030 A  ATOM     32  C   UNL     1      35.969  42.196  21.347 -0.40 +0.00    +0.089 A  ATOM     33  C   UNL     1      38.197  42.723  22.966 -0.35 +0.00    +0.002 A  ATOM     34  C   UNL     1      36.166  41.509  22.539 -0.47 +0.00    +0.030 A  ATOM     35  C   UNL     1      37.269  41.763  23.353 -0.40 +0.00    +0.002 A  BRANCH  28  36ATOM     36  C   UNL     1      33.488  42.322  18.715 -0.40 -0.00    +0.002 A  ATOM     37  C   UNL     1      33.144  41.004  18.370 -0.30 -0.00    +0.011 A  ATOM     38  C   UNL     1      32.625  43.354  18.310 -0.33 -0.00    +0.011 A  ATOM     39  C   UNL     1      31.971  40.725  17.662 -0.36 -0.00    +0.014 A  ATOM     40  C   UNL     1      31.449  43.079  17.603 -0.28 -0.00    +0.014 A  ATOM     41  C   UNL     1      31.106  41.759  17.278 -0.27 -0.02    +0.056 A  BRANCH  41  42ATOM     42  C   UNL     1      29.858  41.466  16.484 -0.14 -0.12    +0.416 C  ATOM     43  F   UNL     1      28.734  41.394  17.253 -0.04 +0.02    -0.166 F  ATOM     44  F   UNL     1      29.596  42.410  15.536 -0.09 +0.10    -0.166 F  ATOM     45  F   UNL     1      29.932  40.279  15.820 -0.18 +0.02    -0.166 F  ENDBRANCH  41  42ENDBRANCH  28  36ENDBRANCH   4  26TORSDOF 7TERENDMDL