REMARK SMILES Oc1nc2ccccc2n1[C@@H]1CCN(Cc2ccc(-c3nc4ccccc4nc3-c3ccc(C(F)(F)F)cc3)cc2)[C@@H](F)C1
REMARK SMILES IDX 16 1 17 2 18 3 19 4 40 5 41 6 15 7 14 8 11 9 12 10 44 11
REMARK SMILES IDX 13 12 42 13 43 14 10 15 2 16 3 17 4 18 9 19 5 20 8 21 6 22
REMARK SMILES IDX 7 23 1 24 20 26 21 27 29 28 22 29 28 30 23 31 27 32 24 33
REMARK SMILES IDX 26 34 25 35 30 36 31 37 39 38 32 39 38 40 33 41 34 42 35 43
REMARK SMILES IDX 36 44 37 45
REMARK H PARENT 1 25
ROOT
ATOM      1  C   UNL     1      -0.225  -0.801  -0.630  1.00  0.00    -0.034 A 
ATOM      2  C   UNL     1      -1.060  -1.168   0.434  1.00  0.00     0.006 A 
ATOM      3  C   UNL     1      -2.259  -0.486   0.669  1.00  0.00     0.011 A 
ATOM      4  C   UNL     1      -2.654   0.584  -0.151  1.00  0.00     0.002 A 
ATOM      5  C   UNL     1      -1.801   0.958  -1.202  1.00  0.00     0.011 A 
ATOM      6  C   UNL     1      -0.606   0.271  -1.446  1.00  0.00     0.006 A 
ENDROOT
BRANCH   1   7
ATOM      7  C   UNL     1       1.075  -1.536  -0.871  1.00  0.00     0.122 C 
BRANCH   7   8
ATOM      8  N   UNL     1       2.109  -1.280   0.146  1.00  0.00    -0.270 NA
ATOM      9  C   UNL     1       5.008  -0.600   0.411  1.00  0.00     0.098 C 
ATOM     10  C   UNL     1       4.508  -1.769  -0.447  1.00  0.00     0.041 C 
ATOM     11  C   UNL     1       3.875   0.319   0.876  1.00  0.00     0.080 C 
ATOM     12  C   UNL     1       3.177  -2.285   0.093  1.00  0.00     0.090 C 
ATOM     13  C   UNL     1       2.598   0.102   0.076  1.00  0.00     0.239 C 
ATOM     14  F   UNL     1       1.659   0.923   0.623  1.00  0.00    -0.230 F 
BRANCH   9  15
ATOM     15  N   UNL     1       6.103   0.121  -0.227  1.00  0.00    -0.291 N 
ATOM     16  C   UNL     1       6.033   0.853  -1.379  1.00  0.00     0.295 A 
ATOM     17  N   UNL     1       7.171   1.389  -1.724  1.00  0.00    -0.195 NA
ATOM     18  C   UNL     1       8.045   0.991  -0.742  1.00  0.00     0.092 A 
ATOM     19  C   UNL     1       7.408   0.198   0.216  1.00  0.00     0.072 A 
ATOM     20  C   UNL     1       9.412   1.276  -0.604  1.00  0.00     0.031 A 
ATOM     21  C   UNL     1       8.085  -0.325   1.326  1.00  0.00     0.029 A 
ATOM     22  C   UNL     1      10.104   0.758   0.496  1.00  0.00     0.002 A 
ATOM     23  C   UNL     1       9.448  -0.027   1.445  1.00  0.00     0.002 A 
BRANCH  16  24
ATOM     24  O   UNL     1       4.945   1.017  -2.104  1.00  0.00    -0.480 OA
ATOM     25  H   UNL     1       5.282   1.594  -2.815  1.00  0.00     0.296 HD
ENDBRANCH  16  24
ENDBRANCH   9  15
ENDBRANCH   7   8
ENDBRANCH   1   7
BRANCH   4  26
ATOM     26  C   UNL     1      -3.907   1.318   0.090  1.00  0.00     0.097 A 
ATOM     27  N   UNL     1      -3.737   2.649   0.325  1.00  0.00    -0.244 NA
ATOM     28  C   UNL     1      -5.184   0.737   0.103  1.00  0.00     0.097 A 
ATOM     29  C   UNL     1      -4.835   3.376   0.599  1.00  0.00     0.089 A 
ATOM     30  N   UNL     1      -6.293   1.475   0.391  1.00  0.00    -0.244 NA
ATOM     31  C   UNL     1      -4.710   4.736   0.855  1.00  0.00     0.030 A 
ATOM     32  C   UNL     1      -6.119   2.787   0.633  1.00  0.00     0.089 A 
ATOM     33  C   UNL     1      -5.824   5.528   1.141  1.00  0.00     0.002 A 
ATOM     34  C   UNL     1      -7.221   3.584   0.919  1.00  0.00     0.030 A 
ATOM     35  C   UNL     1      -7.087   4.949   1.172  1.00  0.00     0.002 A 
BRANCH  28  36
ATOM     36  C   UNL     1      -5.473  -0.670  -0.222  1.00  0.00     0.002 A 
ATOM     37  C   UNL     1      -5.078  -1.240  -1.444  1.00  0.00     0.011 A 
ATOM     38  C   UNL     1      -6.196  -1.475   0.675  1.00  0.00     0.011 A 
ATOM     39  C   UNL     1      -5.378  -2.571  -1.752  1.00  0.00     0.014 A 
ATOM     40  C   UNL     1      -6.496  -2.807   0.372  1.00  0.00     0.014 A 
ATOM     41  C   UNL     1      -6.084  -3.372  -0.843  1.00  0.00     0.056 A 
BRANCH  41  42
ATOM     42  C   UNL     1      -6.440  -4.797  -1.185  1.00  0.00     0.416 C 
ATOM     43  F   UNL     1      -5.580  -5.369  -2.075  1.00  0.00    -0.166 F 
ATOM     44  F   UNL     1      -6.448  -5.619  -0.098  1.00  0.00    -0.166 F 
ATOM     45  F   UNL     1      -7.678  -4.902  -1.743  1.00  0.00    -0.166 F 
ENDBRANCH  41  42
ENDBRANCH  28  36
ENDBRANCH   4  26
TORSDOF 7
