MODEL        4USER    Run = 4USERUSER    Estimated Free Energy of Binding    = -13.58 kcal/mol  [=(1)+(2)+(3)-(4)]USERUSER    (1) Final Intermolecular Energy     = -15.67 kcal/molUSER        vdW + Hbond + desolv Energy     = -15.51 kcal/molUSER        Electrostatic Energy            =  -0.16 kcal/molUSER        Moving Ligand-Fixed Receptor    = -15.67 kcal/molUSER        Moving Ligand-Moving Receptor   =  +0.00 kcal/molUSER    (2) Final Total Internal Energy     =  -2.71 kcal/molUSER    (3) Torsional Free Energy           =  +2.09 kcal/molUSER    (4) Unbound System's Energy         =  -2.71 kcal/molUSERUSERREMARK SMILES N#Cc1ccc(-c2nc3ccccc3nc2-c2ccc(CN3CCC(n4c(O)nc5ccccc54)CC3)cc2)cc1REMARK SMILES IDX 17 1 18 2 19 3 20 4 38 5 39 6 16 7 7 8 8 9 9 10 15 11 10 12REMARK SMILES IDX 14 13 11 14 13 15 12 16 6 17 3 18 4 19 41 20 5 21 40 22 2 23REMARK SMILES IDX 1 24 21 25 22 26 23 27 37 28 24 29 36 30 25 31 26 32 27 33REMARK SMILES IDX 35 34 29 35 34 36 30 37 33 38 31 39 32 40 28 41REMARK H PARENT 28 42USER                              x       y       z     vdW  Elec       q    TypeUSER                           _______ _______ _______ _____ _____    ______ ____ROOTATOM      1  C   UNL     1      36.045  44.535  17.284 -0.31 -0.00    +0.002 A  ATOM      2  C   UNL     1      35.364  45.741  17.057 -0.35 -0.01    +0.011 A  ATOM      3  C   UNL     1      35.293  46.297  15.778 -0.25 -0.01    +0.006 A  ATOM      4  C   UNL     1      35.919  45.669  14.692 -0.36 +0.02    -0.034 A  ATOM      5  C   UNL     1      36.624  44.480  14.914 -0.37 -0.00    +0.006 A  ATOM      6  C   UNL     1      36.687  43.922  16.195 -0.37 -0.00    +0.011 A  ENDROOTBRANCH   1   7ATOM      7  C   UNL     1      36.082  43.944  18.632 -0.27 -0.02    +0.097 A  ATOM      8  C   UNL     1      35.108  43.077  19.154 -0.33 -0.01    +0.097 A  ATOM      9  N   UNL     1      35.258  42.517  20.387 -0.33 -0.01    -0.244 NA ATOM     10  C   UNL     1      36.352  42.853  21.096 -0.39 +0.00    +0.089 A  ATOM     11  N   UNL     1      37.180  44.293  19.357 -0.21 +0.03    -0.244 NA ATOM     12  C   UNL     1      36.543  42.315  22.362 -0.46 +0.00    +0.030 A  ATOM     13  C   UNL     1      37.314  43.751  20.581 -0.33 -0.00    +0.089 A  ATOM     14  C   UNL     1      37.660  42.645  23.133 -0.39 +0.00    +0.002 A  ATOM     15  C   UNL     1      38.421  44.075  21.355 -0.32 +0.00    +0.030 A  ATOM     16  C   UNL     1      38.602  43.531  22.627 -0.30 +0.00    +0.002 A  BRANCH   8  17ATOM     17  C   UNL     1      33.848  42.709  18.478 -0.38 -0.00    +0.002 A  ATOM     18  C   UNL     1      31.436  41.963  17.199 -0.27 -0.02    +0.052 A  ATOM     19  C   UNL     1      31.725  43.311  17.423 -0.29 -0.01    +0.020 A  ATOM     20  C   UNL     1      32.339  40.985  17.621 -0.34 -0.01    +0.020 A  ATOM     21  C   UNL     1      32.915  43.677  18.063 -0.32 -0.00    +0.012 A  ATOM     22  C   UNL     1      33.529  41.356  18.257 -0.35 -0.00    +0.012 A  BRANCH  18  23ATOM     23  C   UNL     1      30.215  41.588  16.548 -0.33 -0.03    +0.099 C  ATOM     24  N   UNL     1      29.225  41.288  16.020 -0.25 +0.06    -0.192 NA ENDBRANCH  18  23ENDBRANCH   8  17ENDBRANCH   1   7BRANCH   4  25ATOM     25  C   UNL     1      35.830  46.272  13.307 -0.50 -0.07    +0.120 C  BRANCH  25  26ATOM     26  N   UNL     1      36.721  47.427  13.110 -0.46 +0.13    -0.299 NA ATOM     27  C   UNL     1      38.127  47.069  12.886 -0.24 -0.02    +0.087 C  ATOM     28  C   UNL     1      36.547  48.430  14.173 -0.30 -0.07    +0.087 C  ATOM     29  C   UNL     1      38.847  46.589  14.145 -0.44 -0.01    +0.041 C  ATOM     30  C   UNL     1      37.823  48.782  14.943 -0.55 -0.03    +0.041 C  ATOM     31  C   UNL     1      38.558  47.499  15.351 -0.47 -0.04    +0.095 C  BRANCH  31  32ATOM     32  N   UNL     1      39.741  47.764  16.157 -0.28 +0.09    -0.291 N  ATOM     33  C   UNL     1      40.639  48.778  15.970 -0.34 -0.06    +0.295 A  ATOM     34  C   UNL     1      40.164  47.052  17.260 -0.45 -0.01    +0.072 A  ATOM     35  N   UNL     1      41.594  48.795  16.860 -0.89 -0.01    -0.195 NA ATOM     36  C   UNL     1      39.672  45.922  17.929 -0.43 -0.00    +0.029 A  ATOM     37  C   UNL     1      41.319  47.722  17.672 -0.44 -0.01    +0.092 A  ATOM     38  C   UNL     1      40.390  45.477  19.047 -0.45 -0.00    +0.002 A  ATOM     39  C   UNL     1      42.022  47.259  18.796 -0.51 +0.00    +0.031 A  ATOM     40  C   UNL     1      41.545  46.132  19.475 -0.45 +0.00    +0.002 A  BRANCH  33  41ATOM     41  O   UNL     1      40.578  49.673  15.005 -0.26 +0.19    -0.480 OA ATOM     42  H   UNL     1      39.863  50.250  15.333 -0.18 -0.22    +0.296 HD ENDBRANCH  33  41ENDBRANCH  31  32ENDBRANCH  25  26ENDBRANCH   4  25TORSDOF 7TERENDMDL