REMARK SMILES COc1ccc(O)c(C(=O)c2ccc(COc3ccccc3NC(=O)c3ccncc3)cc2)c1F
REMARK SMILES IDX 11 1 12 2 13 3 14 4 32 5 33 6 9 7 10 8 8 9 3 10 4 11 34 12
REMARK SMILES IDX 5 13 6 14 35 15 2 16 1 17 7 18 15 20 16 21 17 22 18 23 22 24
REMARK SMILES IDX 19 25 21 26 20 27 23 28 24 29 25 31 26 32 27 33 31 34 28 35
REMARK SMILES IDX 30 36 29 37
REMARK H PARENT 7 19 23 30
ROOT
ATOM      1  C   UNL     1       2.930   0.982  -0.933  1.00  0.00     0.023 A 
ATOM      2  C   UNL     1       2.343   2.216  -1.230  1.00  0.00     0.012 A 
ATOM      3  C   UNL     1       1.000   2.449  -0.922  1.00  0.00     0.008 A 
ATOM      4  C   UNL     1       0.219   1.443  -0.336  1.00  0.00    -0.011 A 
ATOM      5  C   UNL     1       0.814   0.206  -0.045  1.00  0.00     0.008 A 
ATOM      6  C   UNL     1       2.158  -0.029  -0.352  1.00  0.00     0.012 A 
ENDROOT
BRANCH   1   7
ATOM      7  C   UNL     1       4.347   0.767  -1.317  1.00  0.00     0.199 C 
ATOM      8  O   UNL     1       4.768   1.280  -2.357  1.00  0.00    -0.288 OA
BRANCH   7   9
ATOM      9  C   UNL     1       5.277  -0.090  -0.550  1.00  0.00     0.104 A 
ATOM     10  C   UNL     1       6.099  -1.014   1.552  1.00  0.00     0.155 A 
ATOM     11  C   UNL     1       7.063  -1.744   0.851  1.00  0.00     0.053 A 
ATOM     12  C   UNL     1       5.216  -0.186   0.842  1.00  0.00     0.179 A 
ATOM     13  C   UNL     1       7.153  -1.631  -0.539  1.00  0.00     0.051 A 
ATOM     14  C   UNL     1       6.276  -0.798  -1.230  1.00  0.00     0.130 A 
ATOM     15  F   UNL     1       4.320   0.541   1.530  1.00  0.00    -0.202 F 
BRANCH  10  16
ATOM     16  O   UNL     1       5.924  -1.035   2.911  1.00  0.00    -0.494 OA
ATOM     17  C   UNL     1       6.847  -1.801   3.675  1.00  0.00     0.278 C 
ENDBRANCH  10  16
BRANCH  14  18
ATOM     18  O   UNL     1       6.454  -0.719  -2.586  1.00  0.00    -0.507 OA
ATOM     19  H   UNL     1       5.939   0.057  -2.910  1.00  0.00     0.293 HD
ENDBRANCH  14  18
ENDBRANCH   7   9
ENDBRANCH   1   7
BRANCH   4  20
ATOM     20  C   UNL     1      -1.229   1.714   0.006  1.00  0.00     0.265 C 
BRANCH  20  21
ATOM     21  O   UNL     1      -2.058   0.557  -0.189  1.00  0.00    -0.487 OA
BRANCH  21  22
ATOM     22  C   UNL     1      -2.835   0.617  -1.324  1.00  0.00     0.143 A 
ATOM     23  C   UNL     1      -2.288   0.875  -2.585  1.00  0.00     0.049 A 
ATOM     24  C   UNL     1      -4.208   0.345  -1.182  1.00  0.00     0.084 A 
ATOM     25  C   UNL     1      -3.116   0.905  -3.705  1.00  0.00     0.004 A 
ATOM     26  C   UNL     1      -5.026   0.378  -2.312  1.00  0.00     0.030 A 
ATOM     27  C   UNL     1      -4.481   0.663  -3.568  1.00  0.00     0.002 A 
BRANCH  24  28
ATOM     28  N   UNL     1      -4.673   0.044   0.118  1.00  0.00    -0.319 N 
ATOM     29  C   UNL     1      -5.979  -0.136   0.528  1.00  0.00     0.255 C 
ATOM     30  H   UNL     1      -3.939   0.035   0.815  1.00  0.00     0.170 HD
ATOM     31  O   UNL     1      -6.989   0.013  -0.148  1.00  0.00    -0.269 OA
BRANCH  29  32
ATOM     32  C   UNL     1      -6.143  -0.513   1.958  1.00  0.00     0.043 A 
ATOM     33  C   UNL     1      -5.224  -1.335   2.614  1.00  0.00     0.034 A 
ATOM     34  C   UNL     1      -7.272  -0.054   2.640  1.00  0.00     0.034 A 
ATOM     35  C   UNL     1      -5.468  -1.641   3.942  1.00  0.00     0.112 A 
ATOM     36  C   UNL     1      -7.421  -0.416   3.965  1.00  0.00     0.112 A 
ATOM     37  N   UNL     1      -6.539  -1.193   4.632  1.00  0.00    -0.265 NA
ENDBRANCH  29  32
ENDBRANCH  24  28
ENDBRANCH  21  22
ENDBRANCH  20  21
ENDBRANCH   4  20
TORSDOF 9
