MODEL        6USER    Run = 6USERUSER    Estimated Free Energy of Binding    = -10.35 kcal/mol  [=(1)+(2)+(3)-(4)]USERUSER    (1) Final Intermolecular Energy     = -13.04 kcal/molUSER        vdW + Hbond + desolv Energy     = -12.90 kcal/molUSER        Electrostatic Energy            =  -0.14 kcal/molUSER        Moving Ligand-Fixed Receptor    = -13.04 kcal/molUSER        Moving Ligand-Moving Receptor   =  +0.00 kcal/molUSER    (2) Final Total Internal Energy     =  -2.58 kcal/molUSER    (3) Torsional Free Energy           =  +2.68 kcal/molUSER    (4) Unbound System's Energy         =  -2.58 kcal/molUSERUSERREMARK SMILES COc1ccc(O)c(C(=O)c2ccc(COc3ccccc3NC(=O)c3ccncc3)cc2)c1FREMARK SMILES IDX 11 1 12 2 13 3 14 4 32 5 33 6 9 7 10 8 8 9 3 10 4 11 34 12REMARK SMILES IDX 5 13 6 14 35 15 2 16 1 17 7 18 15 20 16 21 17 22 18 23 22 24REMARK SMILES IDX 19 25 21 26 20 27 23 28 24 29 25 31 26 32 27 33 31 34 28 35REMARK SMILES IDX 30 36 29 37REMARK H PARENT 7 19 23 30USER                              x       y       z     vdW  Elec       q    TypeUSER                           _______ _______ _______ _____ _____    ______ ____ROOTATOM      1  C   UNL     1      33.573  43.112  17.478 -0.32 -0.01    +0.023 A  ATOM      2  C   UNL     1      34.783  42.850  16.828 -0.41 -0.00    +0.012 A  ATOM      3  C   UNL     1      35.960  43.468  17.256 -0.33 -0.00    +0.008 A  ATOM      4  C   UNL     1      35.940  44.376  18.324 -0.32 +0.00    -0.011 A  ATOM      5  C   UNL     1      34.721  44.638  18.968 -0.39 -0.00    +0.008 A  ATOM      6  C   UNL     1      33.541  44.019  18.541 -0.36 -0.00    +0.012 A  ENDROOTBRANCH   1   7ATOM      7  C   UNL     1      32.342  42.464  16.960 -0.22 -0.08    +0.199 C  ATOM      8  O   UNL     1      31.775  42.956  15.981 -0.23 +0.15    -0.288 OA BRANCH   7   9ATOM      9  C   UNL     1      31.712  41.287  17.597 -0.28 -0.03    +0.104 A  ATOM     10  C   UNL     1      31.545  39.667  19.413 -0.29 +0.02    +0.155 A  ATOM     11  C   UNL     1      30.468  39.057  18.765 -0.35 +0.01    +0.053 A  ATOM     12  C   UNL     1      32.163  40.778  18.817 -0.26 -0.00    +0.179 A  ATOM     13  C   UNL     1      30.029  39.539  17.529 -0.31 +0.01    +0.051 A  ATOM     14  C   UNL     1      30.658  40.637  16.945 -0.26 -0.03    +0.130 A  ATOM     15  F   UNL     1      33.223  41.331  19.430 -0.09 -0.02    -0.202 F  BRANCH  10  16ATOM     16  O   UNL     1      32.069  39.276  20.617 -1.00 -0.21    -0.494 OA ATOM     17  C   UNL     1      31.344  38.302  21.358 -0.35 +0.04    +0.278 C  ENDBRANCH  10  16BRANCH  14  18ATOM     18  O   UNL     1      30.187  41.025  15.718 -0.19 +0.19    -0.507 OA ATOM     19  H   UNL     1      30.967  41.247  15.156 -0.38 -0.21    +0.293 HD ENDBRANCH  14  18ENDBRANCH   7   9ENDBRANCH   1   7BRANCH   4  20ATOM     20  C   UNL     1      37.224  45.027  18.787 -0.18 -0.05    +0.265 C  BRANCH  20  21ATOM     21  O   UNL     1      38.341  44.673  17.956 -0.10 +0.08    -0.487 OA BRANCH  21  22ATOM     22  C   UNL     1      39.436  45.492  18.121 -0.33 -0.02    +0.143 A  ATOM     23  C   UNL     1      40.292  45.374  19.220 -0.41 -0.00    +0.049 A  ATOM     24  C   UNL     1      39.705  46.424  17.102 -0.40 -0.02    +0.084 A  ATOM     25  C   UNL     1      41.398  46.214  19.329 -0.46 +0.00    +0.004 A  ATOM     26  C   UNL     1      40.815  47.260  17.223 -0.49 -0.00    +0.030 A  ATOM     27  C   UNL     1      41.655  47.158  18.337 -0.54 -0.00    +0.002 A  BRANCH  24  28ATOM     28  N   UNL     1      38.819  46.446  16.001 -0.18 +0.10    -0.319 N  ATOM     29  C   UNL     1      38.754  47.381  14.988 -0.35 -0.09    +0.255 C  ATOM     30  H   UNL     1      38.123  45.711  16.030 +0.12 -0.06    +0.170 HD ATOM     31  O   UNL     1      39.402  48.416  14.900 -0.37 +0.10    -0.269 OA BRANCH  29  32ATOM     32  C   UNL     1      37.752  47.090  13.927 -0.46 -0.02    +0.043 A  ATOM     33  C   UNL     1      36.980  48.098  13.344 -0.56 -0.01    +0.034 A  ATOM     34  C   UNL     1      37.564  45.762  13.538 -0.42 -0.01    +0.034 A  ATOM     35  C   UNL     1      36.065  47.728  12.373 -0.53 -0.06    +0.112 A  ATOM     36  C   UNL     1      36.626  45.499  12.559 -0.47 -0.04    +0.112 A  ATOM     37  N   UNL     1      35.879  46.455  11.963 -0.44 +0.14    -0.265 NA ENDBRANCH  29  32ENDBRANCH  24  28ENDBRANCH  21  22ENDBRANCH  20  21ENDBRANCH   4  20TORSDOF 9TERENDMDL