MODEL        7USER    Run = 7USERUSER    Estimated Free Energy of Binding    =  -9.53 kcal/mol  [=(1)+(2)+(3)-(4)]USERUSER    (1) Final Intermolecular Energy     = -12.21 kcal/molUSER        vdW + Hbond + desolv Energy     = -12.06 kcal/molUSER        Electrostatic Energy            =  -0.15 kcal/molUSER        Moving Ligand-Fixed Receptor    = -12.21 kcal/molUSER        Moving Ligand-Moving Receptor   =  +0.00 kcal/molUSER    (2) Final Total Internal Energy     =  -2.50 kcal/molUSER    (3) Torsional Free Energy           =  +2.68 kcal/molUSER    (4) Unbound System's Energy         =  -2.50 kcal/molUSERUSERREMARK SMILES COc1ccc(O)c(C(=O)c2ccc(CO[C@@H]3CCN(C)C[C@@H]3NC(=O)c3ccncc3)cc2)c1FREMARK SMILES IDX 11 1 12 2 13 3 14 4 33 5 34 6 9 7 10 8 8 9 3 10 4 11 35 12REMARK SMILES IDX 5 13 6 14 36 15 2 16 1 17 7 18 15 20 16 21 17 22 18 23 23 24REMARK SMILES IDX 19 25 22 26 20 27 21 28 24 29 25 30 26 32 27 33 28 34 32 35REMARK SMILES IDX 29 36 31 37 30 38REMARK H PARENT 7 19 24 31USER                              x       y       z     vdW  Elec       q    TypeUSER                           _______ _______ _______ _____ _____    ______ ____ROOTATOM      1  C   UNL     1      39.713  45.421  18.740 -0.42 -0.00    +0.023 A  ATOM      2  C   UNL     1      38.373  45.063  18.560 -0.39 -0.00    +0.012 A  ATOM      3  C   UNL     1      37.641  44.561  19.638 -0.34 -0.00    +0.007 A  ATOM      4  C   UNL     1      38.235  44.419  20.900 -0.36 -0.00    -0.022 A  ATOM      5  C   UNL     1      39.564  44.836  21.079 -0.33 +0.00    +0.007 A  ATOM      6  C   UNL     1      40.300  45.336  20.005 -0.39 +0.00    +0.012 A  ENDROOTBRANCH   1   7ATOM      7  C   UNL     1      40.531  45.926  17.618 -0.39 -0.01    +0.199 C  ATOM      8  O   UNL     1      41.728  45.630  17.580 -0.25 +0.00    -0.288 OA BRANCH   7   9ATOM      9  C   UNL     1      39.985  46.790  16.543 -0.41 -0.02    +0.104 A  ATOM     10  C   UNL     1      38.429  47.215  14.706 -0.35 -0.06    +0.155 A  ATOM     11  C   UNL     1      39.004  48.470  14.507 -0.47 -0.02    +0.053 A  ATOM     12  C   UNL     1      38.932  46.381  15.720 -0.29 -0.05    +0.179 A  ATOM     13  C   UNL     1      40.079  48.878  15.301 -0.54 -0.02    +0.051 A  ATOM     14  C   UNL     1      40.572  48.039  16.299 -0.45 -0.02    +0.130 A  ATOM     15  F   UNL     1      38.403  45.153  15.853 -0.06 +0.05    -0.202 F  BRANCH  10  16ATOM     16  O   UNL     1      37.389  46.694  13.982 -0.10 +0.21    -0.494 OA ATOM     17  C   UNL     1      36.521  47.615  13.330 -0.43 -0.15    +0.278 C  ENDBRANCH  10  16BRANCH  14  18ATOM     18  O   UNL     1      41.657  48.506  16.993 -0.63 -0.02    -0.507 OA ATOM     19  H   UNL     1      42.230  47.736  17.207 -0.35 -0.04    +0.293 HD ENDBRANCH  14  18ENDBRANCH   7   9ENDBRANCH   1   7BRANCH   4  20ATOM     20  C   UNL     1      37.462  43.821  22.051 -0.31 +0.01    +0.196 C  BRANCH  20  21ATOM     21  O   UNL     1      37.830  44.426  23.294 -0.17 -0.04    -0.371 OA BRANCH  21  22ATOM     22  C   UNL     1      37.910  43.487  24.385 -0.26 +0.01    +0.143 C  ATOM     23  C   UNL     1      36.538  42.836  24.561 -0.38 +0.00    +0.050 C  ATOM     24  C   UNL     1      38.344  44.237  25.663 -0.19 -0.00    +0.125 C  ATOM     25  C   UNL     1      36.522  41.926  25.786 -0.42 -0.01    +0.087 C  ATOM     26  C   UNL     1      38.223  43.286  26.880 -0.25 -0.01    +0.111 C  ATOM     27  N   UNL     1      36.935  42.581  27.027 -0.17 +0.06    -0.304 NA ATOM     28  C   UNL     1      35.892  43.436  27.583 -0.47 -0.03    +0.105 C  BRANCH  24  29ATOM     29  N   UNL     1      37.587  45.486  25.810 -0.13 +0.00    -0.345 N  ATOM     30  C   UNL     1      38.034  46.513  26.610 -0.21 -0.01    +0.251 C  ATOM     31  H   UNL     1      37.011  45.724  25.012 +0.04 +0.03    +0.164 HD ATOM     32  O   UNL     1      39.044  46.446  27.298 -0.21 +0.01    -0.269 OA BRANCH  30  33ATOM     33  C   UNL     1      37.233  47.766  26.580 -0.34 -0.00    +0.042 A  ATOM     34  C   UNL     1      36.516  48.211  27.690 -0.32 -0.01    +0.034 A  ATOM     35  C   UNL     1      37.238  48.530  25.414 -0.43 +0.00    +0.034 A  ATOM     36  C   UNL     1      35.817  49.400  27.573 -0.26 -0.00    +0.112 A  ATOM     37  C   UNL     1      36.504  49.702  25.400 -0.38 -0.00    +0.112 A  ATOM     38  N   UNL     1      35.788  50.149  26.452 -0.22 -0.00    -0.265 NA ENDBRANCH  30  33ENDBRANCH  24  29ENDBRANCH  21  22ENDBRANCH  20  21ENDBRANCH   4  20TORSDOF 9TERENDMDL