REMARK SMILES COc1ccc(O)c(C(=O)c2ccc(CO[C@@H]3CCN(C)C[C@@H]3NC(=O)c3ccncc3)cc2)c1F
REMARK SMILES IDX 11 1 12 2 13 3 14 4 33 5 34 6 9 7 10 8 8 9 3 10 4 11 35 12
REMARK SMILES IDX 5 13 6 14 36 15 2 16 1 17 7 18 15 20 16 21 17 22 18 23 23 24
REMARK SMILES IDX 19 25 22 26 20 27 21 28 24 29 25 30 26 32 27 33 28 34 32 35
REMARK SMILES IDX 29 36 31 37 30 38
REMARK H PARENT 7 19 24 31
ROOT
ATOM      1  C   UNL     1       2.422  -1.286   2.095  1.00  0.00     0.023 A 
ATOM      2  C   UNL     1       2.691   0.043   2.435  1.00  0.00     0.012 A 
ATOM      3  C   UNL     1       1.636   0.908   2.733  1.00  0.00     0.007 A 
ATOM      4  C   UNL     1       0.310   0.453   2.701  1.00  0.00    -0.022 A 
ATOM      5  C   UNL     1       0.059  -0.898   2.414  1.00  0.00     0.007 A 
ATOM      6  C   UNL     1       1.110  -1.765   2.113  1.00  0.00     0.012 A 
ENDROOT
BRANCH   1   7
ATOM      7  C   UNL     1       3.508  -2.225   1.742  1.00  0.00     0.199 C 
ATOM      8  O   UNL     1       3.521  -3.338   2.272  1.00  0.00    -0.288 OA
BRANCH   7   9
ATOM      9  C   UNL     1       4.596  -1.884   0.793  1.00  0.00     0.104 A 
ATOM     10  C   UNL     1       5.488  -0.599  -1.085  1.00  0.00     0.155 A 
ATOM     11  C   UNL     1       6.694  -1.294  -0.990  1.00  0.00     0.053 A 
ATOM     12  C   UNL     1       4.445  -0.907  -0.195  1.00  0.00     0.179 A 
ATOM     13  C   UNL     1       6.847  -2.296  -0.028  1.00  0.00     0.051 A 
ATOM     14  C   UNL     1       5.802  -2.595   0.845  1.00  0.00     0.130 A 
ATOM     15  F   UNL     1       3.272  -0.268  -0.345  1.00  0.00    -0.202 F 
BRANCH  10  16
ATOM     16  O   UNL     1       5.209   0.386  -1.996  1.00  0.00    -0.494 OA
ATOM     17  C   UNL     1       6.218   0.698  -2.950  1.00  0.00     0.278 C 
ENDBRANCH  10  16
BRANCH  14  18
ATOM     18  O   UNL     1       6.029  -3.624   1.721  1.00  0.00    -0.507 OA
ATOM     19  H   UNL     1       5.183  -3.816   2.183  1.00  0.00     0.293 HD
ENDBRANCH  14  18
ENDBRANCH   7   9
ENDBRANCH   1   7
BRANCH   4  20
ATOM     20  C   UNL     1      -0.834   1.402   2.965  1.00  0.00     0.196 C 
BRANCH  20  21
ATOM     21  O   UNL     1      -1.842   1.294   1.956  1.00  0.00    -0.371 OA
BRANCH  21  22
ATOM     22  C   UNL     1      -1.455   1.877   0.696  1.00  0.00     0.143 C 
ATOM     23  C   UNL     1      -2.286   3.141   0.475  1.00  0.00     0.050 C 
ATOM     24  C   UNL     1      -1.692   0.846  -0.429  1.00  0.00     0.125 C 
ATOM     25  C   UNL     1      -2.016   3.735  -0.904  1.00  0.00     0.087 C 
ATOM     26  C   UNL     1      -1.486   1.532  -1.803  1.00  0.00     0.111 C 
ATOM     27  N   UNL     1      -2.214   2.799  -2.011  1.00  0.00    -0.304 NA
ATOM     28  C   UNL     1      -3.624   2.588  -2.320  1.00  0.00     0.105 C 
BRANCH  24  29
ATOM     29  N   UNL     1      -3.005   0.208  -0.276  1.00  0.00    -0.345 N 
ATOM     30  C   UNL     1      -3.353  -0.912  -0.995  1.00  0.00     0.251 C 
ATOM     31  H   UNL     1      -3.432   0.340   0.632  1.00  0.00     0.164 HD
ATOM     32  O   UNL     1      -2.636  -1.421  -1.847  1.00  0.00    -0.269 OA
BRANCH  30  33
ATOM     33  C   UNL     1      -4.667  -1.526  -0.661  1.00  0.00     0.042 A 
ATOM     34  C   UNL     1      -5.707  -0.785  -0.103  1.00  0.00     0.034 A 
ATOM     35  C   UNL     1      -4.864  -2.874  -0.955  1.00  0.00     0.034 A 
ATOM     36  C   UNL     1      -6.900  -1.438   0.154  1.00  0.00     0.112 A 
ATOM     37  C   UNL     1      -6.093  -3.432  -0.657  1.00  0.00     0.112 A 
ATOM     38  N   UNL     1      -7.112  -2.745  -0.102  1.00  0.00    -0.265 NA
ENDBRANCH  30  33
ENDBRANCH  24  29
ENDBRANCH  21  22
ENDBRANCH  20  21
ENDBRANCH   4  20
TORSDOF 9
