MODEL        9USER    Run = 9USERUSER    Estimated Free Energy of Binding    =  -9.03 kcal/mol  [=(1)+(2)+(3)-(4)]USERUSER    (1) Final Intermolecular Energy     = -11.72 kcal/molUSER        vdW + Hbond + desolv Energy     = -11.74 kcal/molUSER        Electrostatic Energy            =  +0.03 kcal/molUSER        Moving Ligand-Fixed Receptor    = -11.72 kcal/molUSER        Moving Ligand-Moving Receptor   =  +0.00 kcal/molUSER    (2) Final Total Internal Energy     =  -2.63 kcal/molUSER    (3) Torsional Free Energy           =  +2.68 kcal/molUSER    (4) Unbound System's Energy         =  -2.63 kcal/molUSERUSERREMARK SMILES CC(C)C(=O)Sc1[nH]nccc(N2CCC(C(F)(F)F)CC2)ccc1C=CS(N)(=O)=OREMARK SMILES IDX 7 1 8 2 9 3 10 4 11 5 12 6 23 7 24 8 25 9 6 11 4 12 5 13REMARK SMILES IDX 2 14 1 15 3 16 26 17 27 18 28 19 30 20 31 21 29 22 13 25REMARK SMILES IDX 14 26 22 27 15 28 21 29 16 30 17 31 18 32 19 33 20 34REMARK H PARENT 8 10 29 23 29 24USER                              x       y       z     vdW  Elec       q    TypeUSER                           _______ _______ _______ _____ _____    ______ ____ROOTATOM      1  C   UNL     1      39.190  46.278  15.943 -0.35 -0.03    +0.104 A  ATOM      2  N   UNL     1      40.197  45.615  16.615 -0.03 +0.02    -0.271 N  ATOM      3  N   UNL     1      41.048  46.423  17.443 -0.34 +0.01    -0.183 NA ATOM      4  C   UNL     1      40.768  46.262  18.743 -0.39 -0.00    +0.135 A  ATOM      5  C   UNL     1      39.869  45.655  19.536 -0.37 -0.00    +0.048 A  ATOM      6  C   UNL     1      38.678  45.021  19.469 -0.36 -0.00    +0.038 A  ATOM      7  C   UNL     1      37.725  45.000  18.506 -0.35 -0.00    +0.026 A  ATOM      8  C   UNL     1      37.371  45.460  17.298 -0.35 -0.00    +0.013 A  ATOM      9  C   UNL     1      37.874  46.114  16.234 -0.37 -0.00    +0.007 A  ATOM     10  H   UNL     1      39.836  44.836  17.160 +0.14 -0.02    +0.191 HD ENDROOTBRANCH   1  11ATOM     11  S   UNL     1      39.653  47.286  14.541 -0.60 +0.01    -0.032 SA BRANCH  11  12ATOM     12  C   UNL     1      39.430  48.864  15.284 -0.42 -0.09    +0.197 C  ATOM     13  O   UNL     1      38.325  49.208  15.710 -0.33 +0.22    -0.286 OA BRANCH  12  14ATOM     14  C   UNL     1      40.698  49.667  15.527 -0.66 -0.02    +0.062 C  ATOM     15  C   UNL     1      41.592  49.550  14.293 -0.72 -0.00    +0.016 C  ATOM     16  C   UNL     1      41.420  49.150  16.770 -0.27 +0.00    +0.016 C  ENDBRANCH  12  14ENDBRANCH  11  12ENDBRANCH   1  11BRANCH   9  17ATOM     17  C   UNL     1      36.857  46.625  15.296 -0.44 -0.02    +0.024 C  BRANCH  17  18ATOM     18  C   UNL     1      36.784  46.242  14.013 -0.42 -0.06    +0.123 C  BRANCH  18  19ATOM     19  S   UNL     1      36.821  47.430  12.770 -0.69 -0.09    +0.231 S  ATOM     20  O   UNL     1      38.050  47.336  12.008 -0.88 +0.00    -0.208 OA ATOM     21  O   UNL     1      35.545  47.468  12.083 -0.50 +0.14    -0.208 OA BRANCH  19  22ATOM     22  N   UNL     1      36.930  48.913  13.561 -0.53 +0.11    -0.225 NA ATOM     23  H   UNL     1      37.903  49.209  13.573 -0.28 -0.06    +0.137 HD ATOM     24  H   UNL     1      36.570  48.817  14.513 +0.09 -0.13    +0.137 HD ENDBRANCH  19  22ENDBRANCH  18  19ENDBRANCH  17  18ENDBRANCH   9  17BRANCH   6  25ATOM     25  N   UNL     1      38.354  44.299  20.691 -0.13 +0.00    -0.371 N  ATOM     26  C   UNL     1      37.145  43.481  20.858 -0.38 +0.00    +0.117 C  ATOM     27  C   UNL     1      39.358  44.175  21.755 -0.27 +0.00    +0.117 C  ATOM     28  C   UNL     1      36.939  43.052  22.310 -0.45 +0.00    +0.034 C  ATOM     29  C   UNL     1      38.758  44.657  23.071 -0.32 +0.00    +0.034 C  ATOM     30  C   UNL     1      37.318  44.157  23.302 -0.33 +0.01    +0.098 C  BRANCH  30  31ATOM     31  C   UNL     1      37.146  43.678  24.729 -0.15 +0.02    +0.391 C  ATOM     32  F   UNL     1      36.399  42.552  24.789 -0.13 -0.00    -0.171 F  ATOM     33  F   UNL     1      38.340  43.407  25.306 -0.04 -0.00    -0.171 F  ATOM     34  F   UNL     1      36.534  44.613  25.492 -0.14 +0.00    -0.171 F  ENDBRANCH  30  31ENDBRANCH   6  25TORSDOF 9TERENDMDL