MODEL        5USER    Run = 5USERUSER    Estimated Free Energy of Binding    = -12.24 kcal/mol  [=(1)+(2)+(3)-(4)]USERUSER    (1) Final Intermolecular Energy     = -14.03 kcal/molUSER        vdW + Hbond + desolv Energy     = -13.82 kcal/molUSER        Electrostatic Energy            =  -0.21 kcal/molUSER        Moving Ligand-Fixed Receptor    = -14.03 kcal/molUSER        Moving Ligand-Moving Receptor   =  +0.00 kcal/molUSER    (2) Final Total Internal Energy     =  -1.98 kcal/molUSER    (3) Torsional Free Energy           =  +1.79 kcal/molUSER    (4) Unbound System's Energy         =  -1.98 kcal/molUSERUSERREMARK SMILES Oc1nc2ccccc2n1C1CCN(Cc2ccc(-c3cc4ccccc4nc3-c3ccccc3)cc2)CC1REMARK SMILES IDX 11 1 12 2 13 3 14 4 38 5 39 6 10 7 2 8 3 9 4 10 9 11 5 12REMARK SMILES IDX 8 13 6 14 7 15 1 16 15 18 16 19 17 20 37 21 18 22 36 23REMARK SMILES IDX 19 24 20 25 21 26 29 27 22 28 28 29 23 30 27 31 24 32 26 33REMARK SMILES IDX 25 34 30 35 31 36 35 37 32 38 34 39 33 40REMARK H PARENT 1 17USER                              x       y       z     vdW  Elec       q    TypeUSER                           _______ _______ _______ _____ _____    ______ ____ROOTATOM      1  C   UNL     1      28.045  40.957  16.086 -0.31 -0.01    +0.095 C  ATOM      2  C   UNL     1      29.414  40.284  16.257 -0.43 -0.00    +0.041 C  ATOM      3  C   UNL     1      30.335  40.964  17.265 -0.32 -0.01    +0.087 C  ATOM      4  N   UNL     1      30.395  42.422  17.134 -0.10 +0.08    -0.299 NA ATOM      5  C   UNL     1      29.060  43.010  17.276 -0.21 -0.02    +0.087 C  ATOM      6  C   UNL     1      28.028  42.480  16.283 -0.26 -0.02    +0.041 C  ENDROOTBRANCH   1   7ATOM      7  N   UNL     1      26.945  40.252  16.742 -0.14 -0.04    -0.291 N  ATOM      8  C   UNL     1      26.017  39.500  16.061 -0.06 +0.10    +0.295 A  ATOM      9  N   UNL     1      25.103  38.976  16.826 -0.74 -0.01    -0.195 NA ATOM     10  C   UNL     1      25.440  39.393  18.085 -0.29 -0.01    +0.092 A  ATOM     11  C   UNL     1      26.596  40.187  18.075 -0.21 +0.00    +0.072 A  ATOM     12  C   UNL     1      24.786  39.119  19.298 -0.32 -0.01    +0.031 A  ATOM     13  C   UNL     1      27.124  40.709  19.263 -0.10 -0.00    +0.029 A  ATOM     14  C   UNL     1      25.306  39.643  20.484 -0.32 -0.00    +0.002 A  ATOM     15  C   UNL     1      26.458  40.423  20.462 -0.29 -0.00    +0.002 A  BRANCH   8  16ATOM     16  O   UNL     1      26.014  39.302  14.758 -0.74 -0.16    -0.480 OA ATOM     17  H   UNL     1      25.076  39.087  14.605 -0.08 -0.04    +0.296 HD ENDBRANCH   8  16ENDBRANCH   1   7BRANCH   4  18ATOM     18  C   UNL     1      31.105  42.843  15.915 -0.32 -0.06    +0.120 C  BRANCH  18  19ATOM     19  C   UNL     1      32.492  43.383  16.190 -0.31 +0.02    -0.034 A  ATOM     20  C   UNL     1      32.767  44.752  16.082 -0.33 -0.00    +0.006 A  ATOM     21  C   UNL     1      33.529  42.514  16.557 -0.28 -0.00    +0.006 A  ATOM     22  C   UNL     1      34.052  45.241  16.336 -0.31 -0.01    +0.009 A  ATOM     23  C   UNL     1      34.814  43.004  16.801 -0.40 -0.00    +0.009 A  ATOM     24  C   UNL     1      35.096  44.372  16.690 -0.30 +0.01    -0.016 A  BRANCH  24  25ATOM     25  C   UNL     1      36.447  44.886  16.956 -0.33 -0.00    +0.009 A  ATOM     26  C   UNL     1      37.008  44.709  18.230 -0.33 -0.00    +0.021 A  ATOM     27  C   UNL     1      37.246  45.526  15.994 -0.30 -0.03    +0.079 A  ATOM     28  C   UNL     1      38.309  45.142  18.511 -0.39 -0.00    +0.001 A  ATOM     29  N   UNL     1      38.520  45.940  16.250 -0.21 +0.07    -0.247 NA ATOM     30  C   UNL     1      38.891  44.971  19.779 -0.37 -0.00    +0.010 A  ATOM     31  C   UNL     1      39.035  45.756  17.475 -0.37 -0.01    +0.071 A  ATOM     32  C   UNL     1      40.191  45.409  20.024 -0.39 +0.00    +0.001 A  ATOM     33  C   UNL     1      40.329  46.183  17.744 -0.46 -0.00    +0.029 A  ATOM     34  C   UNL     1      40.913  46.016  19.003 -0.47 +0.00    +0.002 A  BRANCH  27  35ATOM     35  C   UNL     1      36.803  45.818  14.617 -0.40 -0.00    +0.001 A  ATOM     36  C   UNL     1      36.974  44.866  13.596 -0.42 -0.00    +0.010 A  ATOM     37  C   UNL     1      36.221  47.051  14.274 -0.44 -0.01    +0.010 A  ATOM     38  C   UNL     1      36.557  45.127  12.288 -0.53 -0.00    +0.001 A  ATOM     39  C   UNL     1      35.803  47.314  12.966 -0.59 -0.00    +0.001 A  ATOM     40  C   UNL     1      35.968  46.349  11.974 -0.63 -0.00    +0.000 A  ENDBRANCH  27  35ENDBRANCH  24  25ENDBRANCH  18  19ENDBRANCH   4  18TORSDOF 6TERENDMDL