MODEL        3USER    Run = 3USERUSER    Estimated Free Energy of Binding    =  -5.40 kcal/mol  [=(1)+(2)+(3)-(4)]USERUSER    (1) Final Intermolecular Energy     =  -9.87 kcal/molUSER        vdW + Hbond + desolv Energy     = -10.13 kcal/molUSER        Electrostatic Energy            =  -0.26 kcal/molUSER        Moving Ligand-Fixed Receptor    = -10.39 kcal/molUSER        Moving Ligand-Moving Receptor   =  +0.52 kcal/molUSER    (2) Final Total Internal Energy     =  -4.10 kcal/molUSER    (3) Torsional Free Energy           =  +4.47 kcal/molUSER    (4) Unbound System's Energy         =  -4.10 kcal/molUSERUSERREMARK SMILES COc1ccc(O)c(C(=O)c2ccc(CO[C@@H]3CCCNC[C@@H]3NC(=O)c3ccncc3)cc2)c1FREMARK SMILES IDX 16 1 15 2 14 3 11 4 12 5 34 6 13 7 33 8 9 9 10 10 8 11 3 12REMARK SMILES IDX 4 13 35 14 5 15 6 16 36 17 2 18 1 19 7 20 17 22 18 23 23 25REMARK SMILES IDX 22 26 21 27 20 29 19 30 24 32 25 33 26 35 27 36 28 37 32 38REMARK SMILES IDX 29 39 31 40 30 41REMARK H PARENT 7 21 21 28 24 34REMARK Flexibility Score:   99.900USER                              x       y       z     vdW  Elec       q    TypeUSER                           _______ _______ _______ _____ _____    ______ ____ROOTATOM      1  O   UNL     1      40.105  48.135  27.095 -0.16 -0.02    -0.371 OA ENDROOTBRANCH   1   2ATOM      2  C   UNL     1      41.450  48.572  26.910 -0.19 +0.02    +0.196 C  BRANCH   2   3ATOM      3  C   UNL     1      41.917  48.103  25.557 -0.22 -0.00    -0.022 A  ATOM      4  C   UNL     1      42.813  47.212  23.047 -0.25 +0.00    +0.023 A  ATOM      5  C   UNL     1      42.604  46.294  24.081 -0.11 +0.00    +0.012 A  ATOM      6  C   UNL     1      42.544  48.568  23.258 -0.37 +0.00    +0.012 A  ATOM      7  C   UNL     1      42.165  46.741  25.329 -0.10 +0.00    +0.007 A  ATOM      8  C   UNL     1      42.104  49.012  24.506 -0.38 +0.00    +0.007 A  BRANCH   4   9ATOM      9  C   UNL     1      43.246  46.781  21.696 -0.28 +0.06    +0.199 C  ATOM     10  O   UNL     1      44.448  46.798  21.418 -0.66 -0.25    -0.288 OA BRANCH   9  11ATOM     11  C   UNL     1      42.301  46.387  20.629 -0.31 +0.02    +0.104 A  ATOM     12  C   UNL     1      40.383  45.111  19.832 -0.31 +0.00    +0.155 A  ATOM     13  C   UNL     1      40.527  45.689  18.568 -0.43 -0.00    +0.053 A  ATOM     14  C   UNL     1      41.280  45.462  20.851 -0.23 +0.02    +0.179 A  ATOM     15  C   UNL     1      41.566  46.591  18.326 -0.47 -0.00    +0.051 A  ATOM     16  C   UNL     1      42.454  46.925  19.346 -0.42 +0.02    +0.130 A  ATOM     17  F   UNL     1      41.154  44.873  22.051 -0.03 -0.02    -0.202 F  BRANCH  12  18ATOM     18  O   UNL     1      39.418  44.206  20.183 -0.06 -0.00    -0.494 OA ATOM     19  C   UNL     1      38.157  44.721  20.591 -0.22 -0.00    +0.278 C  ENDBRANCH  12  18BRANCH  16  20ATOM     20  O   UNL     1      43.461  47.792  19.015 -0.25 -0.06    -0.507 OA ATOM     21  H   UNL     1      43.842  48.144  19.853 -0.39 -0.03    +0.293 HD ENDBRANCH  16  20ENDBRANCH   9  11ENDBRANCH   4   9ENDBRANCH   2   3ENDBRANCH   1   2BRANCH   1  22ATOM     22  C   UNL     1      39.129  49.012  26.491 -0.19 +0.02    +0.142 C  BRANCH  22  23ATOM     23  C   UNL     1      37.965  49.043  27.493 -0.27 +0.00    +0.035 CG0ATOM     24  G   UNL     1      36.712  48.224  27.205 +0.00 +0.00    +0.000 G0 ENDBRANCH  22  23BRANCH  22  25ATOM     25  C   UNL     1      38.788  48.498  25.072 -0.34 +0.01    +0.125 C  BRANCH  25  26ATOM     26  C   UNL     1      37.694  49.374  24.413 -0.17 +0.01    +0.108 C  BRANCH  26  27ATOM     27  N   UNL     1      36.541  49.721  25.242 -0.27 +0.01    -0.315 NA ATOM     28  H   UNL     1      35.848  50.184  24.651 -0.53 -0.04    +0.122 HD BRANCH  27  29ATOM     29  C   UNL     1      35.945  48.598  25.951 -0.42 -0.01    +0.081 C  BRANCH  29  30ATOM     30  C   UNL     1      36.715  48.224  27.209 -0.39 -0.00    +0.018 CG0ATOM     31  G   UNL     1      37.968  49.042  27.498 +0.00 +0.00    +0.000 G0 ENDBRANCH  29  30ENDBRANCH  27  29ENDBRANCH  26  27ENDBRANCH  25  26BRANCH  25  32ATOM     32  N   UNL     1      38.483  47.060  25.086 -0.13 -0.03    -0.345 N  ATOM     33  C   UNL     1      38.662  46.279  23.963 -0.22 +0.03    +0.251 C  ATOM     34  H   UNL     1      38.655  46.603  25.973 +0.07 +0.00    +0.164 HD ATOM     35  O   UNL     1      38.977  46.724  22.868 -0.26 -0.03    -0.269 OA BRANCH  33  36ATOM     36  C   UNL     1      38.492  44.812  24.150 -0.24 +0.00    +0.042 A  ATOM     37  C   UNL     1      37.224  44.263  23.953 -0.29 +0.00    +0.034 A  ATOM     38  C   UNL     1      39.545  43.989  24.545 -0.16 +0.00    +0.034 A  ATOM     39  C   UNL     1      37.068  42.903  24.145 -0.31 +0.01    +0.112 A  ATOM     40  C   UNL     1      39.285  42.640  24.712 -0.08 +0.01    +0.112 A  ATOM     41  N   UNL     1      38.072  42.080  24.516 -0.08 -0.02    -0.265 NA ENDBRANCH  33  36ENDBRANCH  25  32ENDBRANCH  22  25ENDBRANCH   1  22TORSDOF 9TERENDMDL