MODEL        10USER    Run = 10USERUSER    Estimated Free Energy of Binding    =  -6.24 kcal/mol  [=(1)+(2)+(3)-(4)]USERUSER    (1) Final Intermolecular Energy     = -10.71 kcal/molUSER        vdW + Hbond + desolv Energy     = -11.13 kcal/molUSER        Electrostatic Energy            =  +0.12 kcal/molUSER        Moving Ligand-Fixed Receptor    = -11.01 kcal/molUSER        Moving Ligand-Moving Receptor   =  +0.30 kcal/molUSER    (2) Final Total Internal Energy     =  -2.75 kcal/molUSER    (3) Torsional Free Energy           =  +4.47 kcal/molUSER    (4) Unbound System's Energy         =  -2.75 kcal/molUSERUSERREMARK SMILES COc1ccc(O)c(C(=O)c2ccc(CN[C@@H]3CCCNC[C@H]3NC(=O)c3ccncc3)cc2)c1FREMARK SMILES IDX 16 1 15 3 14 4 11 5 12 6 34 7 13 8 33 9 9 10 10 11 8 12 3 13REMARK SMILES IDX 4 14 35 15 5 16 6 17 36 18 2 19 1 20 7 21 17 23 18 24 23 26REMARK SMILES IDX 22 27 21 28 20 30 19 31 24 33 25 34 26 36 27 37 28 38 32 39REMARK SMILES IDX 29 40 31 41 30 42REMARK H PARENT 16 2 7 22 21 29 24 35REMARK Flexibility Score:   99.900USER                              x       y       z     vdW  Elec       q    TypeUSER                           _______ _______ _______ _____ _____    ______ ____ROOTATOM      1  N   UNL     1      37.420  44.931  18.126 -0.16 +0.07    -0.308 NA ATOM      2  H   UNL     1      37.225  44.905  17.123 +0.08 -0.04    +0.123 HD ENDROOTBRANCH   1   3ATOM      3  C   UNL     1      36.906  43.701  18.735 -0.21 -0.02    +0.117 C  BRANCH   3   4ATOM      4  C   UNL     1      35.544  43.298  18.227 -0.32 +0.01    -0.034 A  ATOM      5  C   UNL     1      32.994  42.560  17.297 -0.33 -0.01    +0.023 A  ATOM      6  C   UNL     1      33.139  43.123  18.569 -0.35 -0.00    +0.012 A  ATOM      7  C   UNL     1      34.125  42.343  16.502 -0.30 -0.01    +0.012 A  ATOM      8  C   UNL     1      34.406  43.497  19.025 -0.38 -0.00    +0.006 A  ATOM      9  C   UNL     1      35.391  42.715  16.962 -0.43 -0.00    +0.006 A  BRANCH   5  10ATOM     10  C   UNL     1      31.677  42.110  16.784 -0.16 -0.09    +0.199 C  ATOM     11  O   UNL     1      31.227  42.626  15.759 -0.25 +0.16    -0.288 OA BRANCH  10  12ATOM     12  C   UNL     1      30.893  41.022  17.407 -0.26 -0.02    +0.104 A  ATOM     13  C   UNL     1      30.712  38.780  18.347 -0.32 +0.03    +0.155 A  ATOM     14  C   UNL     1      29.351  38.988  18.575 -0.30 +0.01    +0.053 A  ATOM     15  C   UNL     1      31.474  39.806  17.769 -0.26 -0.02    +0.179 A  ATOM     16  C   UNL     1      28.765  40.214  18.249 -0.20 +0.00    +0.051 A  ATOM     17  C   UNL     1      29.536  41.227  17.685 -0.14 -0.01    +0.130 A  ATOM     18  F   UNL     1      32.791  39.609  17.590 -0.18 +0.06    -0.202 F  BRANCH  13  19ATOM     19  O   UNL     1      31.399  37.632  18.645 -0.42 -0.15    -0.494 OA ATOM     20  C   UNL     1      31.900  37.498  19.968 -0.35 +0.07    +0.278 C  ENDBRANCH  13  19BRANCH  17  21ATOM     21  O   UNL     1      28.894  42.410  17.429 +0.01 +0.09    -0.507 OA ATOM     22  H   UNL     1      29.248  42.766  16.581 +0.18 -0.10    +0.293 HD ENDBRANCH  17  21ENDBRANCH  10  12ENDBRANCH   5  10ENDBRANCH   3   4ENDBRANCH   1   3BRANCH   1  23ATOM     23  C   UNL     1      38.884  45.126  18.313 -0.41 -0.01    +0.077 C  BRANCH  23  24ATOM     24  C   UNL     1      39.130  45.308  19.816 -0.42 -0.00    +0.022 CG0ATOM     25  G   UNL     1      40.355  46.145  20.181 +0.00 +0.00    +0.000 G0 ENDBRANCH  23  24BRANCH  23  26ATOM     26  C   UNL     1      39.372  46.333  17.452 -0.42 -0.02    +0.113 C  BRANCH  26  27ATOM     27  C   UNL     1      40.917  46.396  17.372 -0.44 -0.01    +0.107 C  BRANCH  27  28ATOM     28  N   UNL     1      41.701  45.451  18.161 -0.18 -0.02    -0.315 NA ATOM     29  H   UNL     1      42.679  45.502  17.865 -0.21 +0.01    +0.122 HD BRANCH  28  30ATOM     30  C   UNL     1      41.652  45.579  19.610 -0.39 +0.01    +0.081 C  BRANCH  30  31ATOM     31  C   UNL     1      40.356  46.147  20.182 -0.18 +0.00    +0.017 CG0ATOM     32  G   UNL     1      39.129  45.311  19.819 +0.00 +0.00    +0.000 G0 ENDBRANCH  30  31ENDBRANCH  28  30ENDBRANCH  27  28ENDBRANCH  26  27BRANCH  26  33ATOM     33  N   UNL     1      38.811  46.227  16.091 -0.15 +0.10    -0.346 N  ATOM     34  C   UNL     1      37.522  46.627  15.810 -0.27 -0.13    +0.251 C  ATOM     35  H   UNL     1      39.433  45.934  15.352 +0.11 -0.03    +0.164 HD ATOM     36  O   UNL     1      36.732  47.002  16.668 -0.26 +0.21    -0.269 OA BRANCH  34  37ATOM     37  C   UNL     1      37.095  46.560  14.388 -0.40 -0.02    +0.042 A  ATOM     38  C   UNL     1      36.625  47.729  13.789 -0.52 -0.02    +0.034 A  ATOM     39  C   UNL     1      37.181  45.386  13.640 -0.43 -0.01    +0.034 A  ATOM     40  C   UNL     1      36.229  47.668  12.467 -0.57 -0.06    +0.112 A  ATOM     41  C   UNL     1      36.762  45.431  12.321 -0.47 -0.04    +0.112 A  ATOM     42  N   UNL     1      36.279  46.540  11.724 -0.46 +0.12    -0.265 NA ENDBRANCH  34  37ENDBRANCH  26  33ENDBRANCH  23  26ENDBRANCH   1  23TORSDOF 9TERENDMDL