MODEL        8USER    Run = 8USERUSER    Estimated Free Energy of Binding    =  -8.24 kcal/mol  [=(1)+(2)+(3)-(4)]USERUSER    (1) Final Intermolecular Energy     = -12.72 kcal/molUSER        vdW + Hbond + desolv Energy     = -12.72 kcal/molUSER        Electrostatic Energy            =  -0.08 kcal/molUSER        Moving Ligand-Fixed Receptor    = -12.80 kcal/molUSER        Moving Ligand-Moving Receptor   =  +0.09 kcal/molUSER    (2) Final Total Internal Energy     =  -1.91 kcal/molUSER    (3) Torsional Free Energy           =  +4.47 kcal/molUSER    (4) Unbound System's Energy         =  -1.91 kcal/molUSERUSERREMARK SMILES COc1ccc(O)c(C(=O)c2ccc(C(=O)O[C@@H]3CCCNC[C@H]3NC(=O)c3ccncc3)cc2)c1FREMARK SMILES IDX 17 1 15 2 16 3 14 4 11 5 12 6 35 7 13 8 34 9 9 10 10 11 8 12REMARK SMILES IDX 3 13 4 14 36 15 5 16 6 17 37 18 2 19 1 20 7 21 18 23 24 25REMARK SMILES IDX 23 26 22 27 21 29 20 30 19 31 25 33 26 34 27 36 28 37 29 38REMARK SMILES IDX 33 39 30 40 32 41 31 42REMARK H PARENT 7 22 22 28 25 35REMARK Flexibility Score:   99.900USER                              x       y       z     vdW  Elec       q    TypeUSER                           _______ _______ _______ _____ _____    ______ ____ROOTATOM      1  O   UNL     1      36.404  44.696  19.508 -0.13 +0.06    -0.457 OA ENDROOTBRANCH   1   2ATOM      2  C   UNL     1      36.298  43.367  19.762 -0.22 -0.03    +0.338 C  ATOM      3  O   UNL     1      36.077  42.481  18.949 -0.23 +0.03    -0.246 OA BRANCH   2   4ATOM      4  C   UNL     1      36.541  43.114  21.204 -0.40 +0.00    +0.060 A  ATOM      5  C   UNL     1      36.959  42.569  23.926 -0.40 +0.00    +0.023 A  ATOM      6  C   UNL     1      37.290  43.825  23.401 -0.34 +0.00    +0.013 A  ATOM      7  C   UNL     1      36.414  41.590  23.083 -0.45 +0.00    +0.013 A  ATOM      8  C   UNL     1      37.082  44.097  22.044 -0.35 +0.00    +0.016 A  ATOM      9  C   UNL     1      36.197  41.863  21.729 -0.53 +0.00    +0.016 A  BRANCH   5  10ATOM     10  C   UNL     1      37.185  42.219  25.355 -0.30 -0.01    +0.199 C  ATOM     11  O   UNL     1      38.056  41.419  25.679 -0.18 +0.01    -0.288 OA BRANCH  10  12ATOM     12  C   UNL     1      36.365  42.824  26.412 -0.35 -0.01    +0.104 A  ATOM     13  C   UNL     1      35.869  44.749  27.801 -0.30 -0.04    +0.155 A  ATOM     14  C   UNL     1      34.878  44.004  28.452 -0.57 -0.02    +0.053 A  ATOM     15  C   UNL     1      36.614  44.143  26.782 -0.27 -0.03    +0.179 A  ATOM     16  C   UNL     1      34.617  42.683  28.069 -0.40 -0.02    +0.051 A  ATOM     17  C   UNL     1      35.356  42.097  27.043 -0.46 -0.03    +0.130 A  ATOM     18  F   UNL     1      37.545  44.857  26.128 -0.05 +0.01    -0.202 F  BRANCH  13  19ATOM     19  O   UNL     1      36.174  46.060  28.055 -0.17 +0.14    -0.494 OA ATOM     20  C   UNL     1      35.276  46.792  28.881 -0.26 -0.06    +0.278 C  ENDBRANCH  13  19BRANCH  17  21ATOM     21  O   UNL     1      35.092  40.817  26.649 -0.27 +0.24    -0.507 OA ATOM     22  H   UNL     1      35.879  40.425  26.238 -0.26 -0.18    +0.293 HD ENDBRANCH  17  21ENDBRANCH  10  12ENDBRANCH   5  10ENDBRANCH   2   4ENDBRANCH   1   2BRANCH   1  23ATOM     23  C   UNL     1      35.472  45.250  18.542 -0.25 -0.07    +0.200 CG0ATOM     24  G   UNL     1      34.192  44.420  18.626 +0.00 +0.00    +0.000 G0 BRANCH  23  25ATOM     25  C   UNL     1      36.167  45.208  17.165 -0.30 -0.06    +0.137 C  BRANCH  25  26ATOM     26  C   UNL     1      35.276  45.640  15.984 -0.32 -0.08    +0.109 C  BRANCH  26  27ATOM     27  N   UNL     1      34.150  44.742  15.717 -0.12 +0.20    -0.315 NA ATOM     28  H   UNL     1      34.441  43.791  15.946 +0.08 -0.06    +0.122 HD BRANCH  27  29ATOM     29  C   UNL     1      32.909  45.037  16.439 -0.33 -0.05    +0.081 C  BRANCH  29  30ATOM     30  C   UNL     1      32.944  45.026  17.973 -0.37 -0.01    +0.019 C  BRANCH  30  31ATOM     31  C   UNL     1      34.192  44.419  18.625 -0.40 -0.01    +0.049 CG0ATOM     32  G   UNL     1      35.473  45.249  18.542 +0.00 +0.00    +0.000 G0 ENDBRANCH  30  31ENDBRANCH  29  30ENDBRANCH  27  29ENDBRANCH  26  27ENDBRANCH  25  26BRANCH  25  33ATOM     33  N   UNL     1      37.380  46.035  17.213 -0.15 +0.14    -0.344 N  ATOM     34  C   UNL     1      38.103  46.345  16.087 -0.27 -0.10    +0.251 C  ATOM     35  H   UNL     1      37.485  46.615  18.035 +0.08 -0.06    +0.164 HD ATOM     36  O   UNL     1      37.836  45.928  14.968 -0.23 +0.10    -0.269 OA BRANCH  34  37ATOM     37  C   UNL     1      39.258  47.251  16.289 -0.44 -0.01    +0.042 A  ATOM     38  C   UNL     1      39.479  48.267  15.361 -0.52 -0.01    +0.034 A  ATOM     39  C   UNL     1      40.136  47.078  17.357 -0.47 -0.01    +0.034 A  ATOM     40  C   UNL     1      40.569  49.094  15.558 -0.53 -0.03    +0.112 A  ATOM     41  C   UNL     1      41.200  47.956  17.460 -0.40 -0.01    +0.112 A  ATOM     42  N   UNL     1      41.431  48.963  16.589 -0.92 -0.00    -0.265 NA ENDBRANCH  34  37ENDBRANCH  25  33ENDBRANCH  23  25ENDBRANCH   1  23TORSDOF 9TERENDMDL