MODEL        10USER    Run = 10USERUSER    Estimated Free Energy of Binding    =  -7.30 kcal/mol  [=(1)+(2)+(3)-(4)]USERUSER    (1) Final Intermolecular Energy     = -11.77 kcal/molUSER        vdW + Hbond + desolv Energy     = -11.91 kcal/molUSER        Electrostatic Energy            =  -0.27 kcal/molUSER        Moving Ligand-Fixed Receptor    = -12.18 kcal/molUSER        Moving Ligand-Moving Receptor   =  +0.40 kcal/molUSER    (2) Final Total Internal Energy     =  -2.96 kcal/molUSER    (3) Torsional Free Energy           =  +4.47 kcal/molUSER    (4) Unbound System's Energy         =  -2.96 kcal/molUSERUSERREMARK SMILES COc1ccc(O)c(C(=O)c2ccc(/C=C/[C@@H]3CCCNC[C@H]3NC(=O)c3ccncc3)cc2)c1FREMARK SMILES IDX 16 1 15 2 14 3 11 4 12 5 34 6 13 7 33 8 9 9 10 10 8 11 3 12REMARK SMILES IDX 4 13 35 14 5 15 6 16 36 17 2 18 1 19 7 20 17 22 18 23 23 25REMARK SMILES IDX 22 26 21 27 20 29 19 30 24 32 25 33 26 35 27 36 28 37 32 38REMARK SMILES IDX 29 39 31 40 30 41REMARK H PARENT 7 21 21 28 24 34REMARK Flexibility Score:   99.900USER                              x       y       z     vdW  Elec       q    TypeUSER                           _______ _______ _______ _____ _____    ______ ____ROOTATOM      1  C   UNL     1      36.085  42.043  22.131 -0.45 -0.00    -0.021 C  ENDROOTBRANCH   1   2ATOM      2  C   UNL     1      36.355  41.907  20.824 -0.57 -0.00    +0.004 C  BRANCH   2   3ATOM      3  C   UNL     1      35.769  42.760  19.783 -0.42 +0.00    -0.026 A  ATOM      4  C   UNL     1      34.689  44.455  17.822 -0.30 -0.01    +0.023 A  ATOM      5  C   UNL     1      34.953  44.949  19.103 -0.37 -0.00    +0.013 A  ATOM      6  C   UNL     1      35.000  43.129  17.506 -0.36 -0.00    +0.013 A  ATOM      7  C   UNL     1      35.495  44.101  20.076 -0.38 -0.00    +0.009 A  ATOM      8  C   UNL     1      35.529  42.285  18.485 -0.29 -0.00    +0.009 A  BRANCH   4   9ATOM      9  C   UNL     1      34.146  45.327  16.760 -0.25 -0.15    +0.199 C  ATOM     10  O   UNL     1      32.944  45.598  16.770 -0.29 +0.23    -0.288 OA BRANCH   9  11ATOM     11  C   UNL     1      34.972  45.851  15.649 -0.25 -0.10    +0.104 A  ATOM     12  C   UNL     1      37.128  46.508  14.715 -0.29 -0.08    +0.155 A  ATOM     13  C   UNL     1      36.500  46.848  13.516 -0.50 -0.03    +0.053 A  ATOM     14  C   UNL     1      36.354  46.013  15.775 -0.24 -0.11    +0.179 A  ATOM     15  C   UNL     1      35.114  46.718  13.389 -0.40 -0.04    +0.051 A  ATOM     16  C   UNL     1      34.358  46.236  14.452 -0.13 -0.14    +0.130 A  ATOM     17  F   UNL     1      36.964  45.725  16.937 -0.07 +0.09    -0.202 F  BRANCH  12  18ATOM     18  O   UNL     1      38.470  46.610  14.964 -0.08 +0.17    -0.494 OA ATOM     19  C   UNL     1      38.934  47.820  15.551 -0.34 -0.12    +0.278 C  ENDBRANCH  12  18BRANCH  16  20ATOM     20  O   UNL     1      33.004  46.169  14.253 -0.13 +0.51    -0.507 OA ATOM     21  H   UNL     1      32.570  46.706  14.955 -0.33 -0.50    +0.293 HD ENDBRANCH  16  20ENDBRANCH   9  11ENDBRANCH   4   9ENDBRANCH   2   3ENDBRANCH   1   2BRANCH   1  22ATOM     22  C   UNL     1      36.928  42.809  23.148 -0.45 +0.00    +0.035 C  BRANCH  22  23ATOM     23  C   UNL     1      36.532  42.283  24.542 -0.45 +0.00    +0.011 CG0ATOM     24  G   UNL     1      37.273  42.825  25.759 +0.00 +0.00    +0.000 G0 ENDBRANCH  22  23BRANCH  22  25ATOM     25  C   UNL     1      36.926  44.363  23.027 -0.11 +0.02    +0.103 C  BRANCH  25  26ATOM     26  C   UNL     1      37.572  45.026  24.278 -0.27 +0.01    +0.106 C  BRANCH  26  27ATOM     27  N   UNL     1      36.740  45.221  25.460 -0.41 -0.00    -0.315 NA ATOM     28  H   UNL     1      35.800  45.494  25.170 -0.51 +0.00    +0.122 HD BRANCH  27  29ATOM     29  C   UNL     1      36.682  44.088  26.371 -0.37 -0.01    +0.081 C  BRANCH  29  30ATOM     30  C   UNL     1      37.272  42.825  25.760 -0.39 -0.00    +0.016 CG0ATOM     31  G   UNL     1      36.535  42.277  24.543 +0.00 +0.00    +0.000 G0 ENDBRANCH  29  30ENDBRANCH  27  29ENDBRANCH  26  27ENDBRANCH  25  26BRANCH  25  32ATOM     32  N   UNL     1      37.661  44.807  21.834 -0.17 -0.02    -0.347 N  ATOM     33  C   UNL     1      38.962  44.420  21.596 -0.22 +0.01    +0.251 C  ATOM     34  H   UNL     1      37.132  45.247  21.093 +0.10 +0.01    +0.164 HD ATOM     35  O   UNL     1      39.601  43.693  22.345 -0.15 -0.01    -0.269 OA BRANCH  33  36ATOM     36  C   UNL     1      39.568  44.910  20.333 -0.34 +0.00    +0.042 A  ATOM     37  C   UNL     1      40.841  45.479  20.303 -0.36 +0.00    +0.034 A  ATOM     38  C   UNL     1      38.848  44.759  19.149 -0.36 -0.00    +0.034 A  ATOM     39  C   UNL     1      41.329  45.900  19.080 -0.39 +0.01    +0.112 A  ATOM     40  C   UNL     1      39.423  45.216  17.979 -0.33 -0.01    +0.112 A  ATOM     41  N   UNL     1      40.644  45.792  17.921 -0.27 +0.01    -0.265 NA ENDBRANCH  33  36ENDBRANCH  25  32ENDBRANCH  22  25ENDBRANCH   1  22TORSDOF 9TERENDMDL