MODEL        1USER    Run = 1USERUSER    Estimated Free Energy of Binding    =  -6.79 kcal/mol  [=(1)+(2)+(3)-(4)]USERUSER    (1) Final Intermolecular Energy     = -11.27 kcal/molUSER        vdW + Hbond + desolv Energy     = -11.20 kcal/molUSER        Electrostatic Energy            =  -0.26 kcal/molUSER        Moving Ligand-Fixed Receptor    = -11.46 kcal/molUSER        Moving Ligand-Moving Receptor   =  +0.20 kcal/molUSER    (2) Final Total Internal Energy     =  -3.15 kcal/molUSER    (3) Torsional Free Energy           =  +4.47 kcal/molUSER    (4) Unbound System's Energy         =  -3.15 kcal/molUSERUSERREMARK SMILES COc1ccc(O)c(C(=O)c2ccc(NC[C@@H]3CCCNC[C@@H]3NC(=O)c3ccncc3)cc2)c1FREMARK SMILES IDX 16 1 15 2 14 4 11 5 12 6 34 7 13 8 33 9 9 10 10 11 8 12 3 13REMARK SMILES IDX 4 14 35 15 5 16 6 17 36 18 2 19 1 20 7 21 17 23 18 24 23 26REMARK SMILES IDX 22 27 21 28 20 30 19 31 24 33 25 34 26 36 27 37 28 38 32 39REMARK SMILES IDX 29 40 31 41 30 42REMARK H PARENT 15 3 7 22 21 29 24 35REMARK Flexibility Score:   99.900USER                              x       y       z     vdW  Elec       q    TypeUSER                           _______ _______ _______ _____ _____    ______ ____ROOTATOM      1  C   UNL     1      37.768  46.442  16.362 -0.36 -0.05    +0.118 C  ENDROOTBRANCH   1   2ATOM      2  N   UNL     1      38.568  45.472  17.116 -0.13 +0.09    -0.385 N  ATOM      3  H   UNL     1      38.021  44.700  17.483 +0.10 -0.03    +0.160 HD BRANCH   2   4ATOM      4  C   UNL     1      39.626  45.849  17.938 -0.42 -0.00    +0.034 A  ATOM      5  C   UNL     1      41.752  46.466  19.702 -0.42 +0.00    +0.023 A  ATOM      6  C   UNL     1      41.884  46.688  18.330 -0.46 -0.00    +0.014 A  ATOM      7  C   UNL     1      40.582  45.884  20.191 -0.35 +0.00    +0.014 A  ATOM      8  C   UNL     1      40.832  46.374  17.459 -0.46 -0.00    +0.026 A  ATOM      9  C   UNL     1      39.537  45.577  19.310 -0.39 -0.00    +0.026 A  BRANCH   5  10ATOM     10  C   UNL     1      42.902  46.781  20.583 -0.32 +0.06    +0.199 C  ATOM     11  O   UNL     1      43.888  47.344  20.103 -0.38 -0.14    -0.288 OA BRANCH  10  12ATOM     12  C   UNL     1      42.956  46.406  22.013 -0.24 +0.03    +0.104 A  ATOM     13  C   UNL     1      42.851  44.747  23.799 -0.06 +0.02    +0.155 A  ATOM     14  C   UNL     1      43.083  45.752  24.741 -0.05 +0.00    +0.053 A  ATOM     15  C   UNL     1      42.782  45.088  22.439 -0.13 +0.04    +0.179 A  ATOM     16  C   UNL     1      43.226  47.079  24.329 -0.13 +0.01    +0.051 A  ATOM     17  C   UNL     1      43.147  47.403  22.977 -0.23 +0.03    +0.130 A  ATOM     18  F   UNL     1      42.516  44.120  21.547 -0.09 -0.04    -0.202 F  BRANCH  13  19ATOM     19  O   UNL     1      42.678  43.419  24.083 -0.03 -0.00    -0.494 OA ATOM     20  C   UNL     1      42.084  43.091  25.333 -0.09 -0.01    +0.278 C  ENDBRANCH  13  19BRANCH  17  21ATOM     21  O   UNL     1      43.265  48.730  22.662 -0.60 -0.12    -0.507 OA ATOM     22  H   UNL     1      43.610  48.793  21.742 -0.43 -0.04    +0.293 HD ENDBRANCH  17  21ENDBRANCH  10  12ENDBRANCH   5  10ENDBRANCH   2   4ENDBRANCH   1   2BRANCH   1  23ATOM     23  C   UNL     1      38.056  46.374  14.841 -0.45 -0.01    +0.032 C  BRANCH  23  24ATOM     24  C   UNL     1      37.838  47.760  14.199 -0.59 -0.00    +0.009 CG0ATOM     25  G   UNL     1      36.513  48.039  13.489 +0.00 +0.00    +0.000 G0 ENDBRANCH  23  24BRANCH  23  26ATOM     26  C   UNL     1      37.266  45.212  14.196 -0.40 -0.04    +0.101 C  BRANCH  26  27ATOM     27  C   UNL     1      37.279  45.303  12.652 -0.41 -0.03    +0.106 C  BRANCH  27  28ATOM     28  N   UNL     1      36.159  46.048  12.062 -0.37 +0.14    -0.315 NA ATOM     29  H   UNL     1      36.074  45.751  11.087 +0.10 -0.05    +0.122 HD BRANCH  28  30ATOM     30  C   UNL     1      36.368  47.497  12.073 -0.62 -0.04    +0.081 C  BRANCH  30  31ATOM     31  C   UNL     1      36.514  48.039  13.489 -0.62 -0.01    +0.016 CG0ATOM     32  G   UNL     1      37.839  47.757  14.198 +0.00 +0.00    +0.000 G0 ENDBRANCH  30  31ENDBRANCH  28  30ENDBRANCH  27  28ENDBRANCH  26  27BRANCH  26  33ATOM     33  N   UNL     1      35.886  45.124  14.668 -0.13 +0.18    -0.348 N  ATOM     34  C   UNL     1      35.515  44.419  15.787 -0.23 -0.12    +0.251 C  ATOM     35  H   UNL     1      35.197  45.524  14.042 +0.11 -0.10    +0.164 HD ATOM     36  O   UNL     1      36.313  43.798  16.480 -0.24 +0.09    -0.269 OA BRANCH  34  37ATOM     37  C   UNL     1      34.068  44.412  16.127 -0.29 -0.02    +0.042 A  ATOM     38  C   UNL     1      33.601  43.418  16.989 -0.31 -0.01    +0.034 A  ATOM     39  C   UNL     1      33.179  45.373  15.643 -0.28 -0.03    +0.034 A  ATOM     40  C   UNL     1      32.257  43.413  17.311 -0.23 -0.03    +0.112 A  ATOM     41  C   UNL     1      31.853  45.280  16.027 -0.26 -0.06    +0.112 A  ATOM     42  N   UNL     1      31.372  44.320  16.844 -0.31 +0.07    -0.265 NA ENDBRANCH  34  37ENDBRANCH  26  33ENDBRANCH  23  26ENDBRANCH   1  23TORSDOF 9TERENDMDL