MODEL        10USER    Run = 10USERUSER    Estimated Free Energy of Binding    = -12.71 kcal/mol  [=(1)+(2)+(3)-(4)]USERUSER    (1) Final Intermolecular Energy     = -14.50 kcal/molUSER        vdW + Hbond + desolv Energy     = -14.44 kcal/molUSER        Electrostatic Energy            =  -0.05 kcal/molUSER        Moving Ligand-Fixed Receptor    = -14.50 kcal/molUSER        Moving Ligand-Moving Receptor   =  +0.00 kcal/molUSER    (2) Final Total Internal Energy     =  -0.99 kcal/molUSER    (3) Torsional Free Energy           =  +1.79 kcal/molUSER    (4) Unbound System's Energy         =  -0.99 kcal/molUSERUSERREMARK SMILES Cn1ccc2ccc3c4[nH]c5c(CCCN[C@H]6CC[C@H](O)CC6)cccc5c4c4c(c3c21)C(=O)NC4=OREMARK SMILES IDX 15 1 14 2 13 3 12 4 2 5 3 6 32 7 4 8 31 9 5 10 30 11 8 12REMARK SMILES IDX 6 13 29 14 33 15 7 16 9 17 28 18 36 19 35 20 10 21 27 22REMARK SMILES IDX 11 23 26 24 25 25 24 26 1 27 34 28 37 29 16 32 17 34 23 35REMARK SMILES IDX 18 36 22 37 19 38 20 39 21 40REMARK H PARENT 35 30 10 31 16 33 21 41USER                              x       y       z     vdW  Elec       q    TypeUSER                           _______ _______ _______ _____ _____    ______ ____ROOTATOM      1  C   UNL     1      38.094  45.825  25.318 -0.29 +0.00    +0.081 C  ENDROOTBRANCH   1   2ATOM      2  C   UNL     1      38.591  45.606  23.886 -0.32 +0.00    +0.020 C  BRANCH   2   3ATOM      3  C   UNL     1      38.911  44.139  23.579 -0.26 +0.00    +0.039 C  BRANCH   3   4ATOM      4  C   UNL     1      37.932  43.478  22.639 -0.34 -0.00    -0.024 A  ATOM      5  N   UNL     1      37.644  46.886  14.669 -0.15 +0.16    -0.350 N  ATOM      6  C   UNL     1      38.515  47.718  14.005 -0.42 -0.03    +0.086 A  ATOM      7  C   UNL     1      38.197  46.461  15.872 -0.36 -0.02    +0.057 A  ATOM      8  C   UNL     1      39.541  48.017  14.859 -0.51 -0.01    +0.028 A  ATOM      9  C   UNL     1      37.811  45.487  16.867 -0.35 -0.01    +0.022 A  ATOM     10  C   UNL     1      39.313  47.298  16.061 -0.48 -0.00    +0.000 A  ATOM     11  C   UNL     1      36.888  44.435  16.753 -0.30 -0.02    +0.063 A  ATOM     12  C   UNL     1      38.469  45.604  18.131 -0.39 -0.00    +0.009 A  ATOM     13  C   UNL     1      39.991  47.298  17.291 -0.46 -0.00    +0.011 A  ATOM     14  C   UNL     1      36.509  43.643  17.843 -0.21 -0.02    +0.063 A  ATOM     15  C   UNL     1      36.253  43.810  15.580 -0.28 -0.09    +0.259 C  ATOM     16  C   UNL     1      39.536  46.494  18.332 -0.36 -0.00    +0.012 A  ATOM     17  C   UNL     1      38.054  44.783  19.225 -0.33 -0.01    +0.055 A  ATOM     18  C   UNL     1      37.056  43.805  19.118 -0.28 -0.00    +0.022 A  ATOM     19  C   UNL     1      35.554  42.645  17.364 -0.23 -0.09    +0.259 C  ATOM     20  N   UNL     1      35.366  42.894  16.046 -0.28 +0.11    -0.288 N  ATOM     21  N   UNL     1      38.487  44.743  20.533 -0.16 +0.00    -0.354 N  ATOM     22  C   UNL     1      36.894  43.201  20.410 -0.40 -0.00    +0.008 A  ATOM     23  C   UNL     1      37.803  43.812  21.276 -0.34 +0.00    +0.050 A  ATOM     24  C   UNL     1      36.061  42.192  20.935 -0.49 +0.00    +0.011 A  ATOM     25  C   UNL     1      36.163  41.833  22.283 -0.49 +0.00    +0.001 A  ATOM     26  C   UNL     1      37.081  42.464  23.115 -0.44 +0.00    +0.006 A  ATOM     27  C   UNL     1      36.272  46.757  14.226 -0.40 -0.10    +0.149 C  ATOM     28  O   UNL     1      36.534  43.979  14.412 -0.28 +0.09    -0.269 OA ATOM     29  O   UNL     1      35.063  41.726  17.988 -0.48 +0.08    -0.269 OA ATOM     30  H   UNL     1      34.904  42.234  15.440 +0.00 -0.07    +0.173 HD ATOM     31  H   UNL     1      39.204  45.341  20.914 +0.09 +0.00    +0.167 HD ENDBRANCH   3   4ENDBRANCH   2   3ENDBRANCH   1   2BRANCH   1  32ATOM     32  N   UNL     1      36.897  45.011  25.541 -0.30 +0.00    -0.314 NA ATOM     33  H   UNL     1      36.073  45.609  25.596 -0.50 -0.02    +0.122 HD BRANCH  32  34ATOM     34  C   UNL     1      36.993  44.177  26.748 -0.38 -0.01    +0.053 C  ATOM     35  C   UNL     1      35.615  43.736  27.287 -0.55 -0.00    +0.021 C  ATOM     36  C   UNL     1      37.888  42.973  26.393 -0.32 -0.00    +0.021 C  ATOM     37  C   UNL     1      35.197  42.363  26.762 -0.55 -0.01    +0.033 C  ATOM     38  C   UNL     1      37.630  41.800  27.329 -0.48 -0.01    +0.033 C  ATOM     39  C   UNL     1      36.197  41.279  27.184 -0.55 -0.04    +0.114 C  BRANCH  39  40ATOM     40  O   UNL     1      35.806  40.725  28.440 -0.38 +0.21    -0.393 OA ATOM     41  H   UNL     1      36.145  41.312  29.138 -0.44 -0.19    +0.210 HD ENDBRANCH  39  40ENDBRANCH  32  34ENDBRANCH   1  32TORSDOF 6TERENDMDL