MODEL        7USER    Run = 7USERUSER    Estimated Free Energy of Binding    = -12.28 kcal/mol  [=(1)+(2)+(3)-(4)]USERUSER    (1) Final Intermolecular Energy     = -14.67 kcal/molUSER        vdW + Hbond + desolv Energy     = -14.61 kcal/molUSER        Electrostatic Energy            =  -0.06 kcal/molUSER        Moving Ligand-Fixed Receptor    = -14.67 kcal/molUSER        Moving Ligand-Moving Receptor   =  +0.00 kcal/molUSER    (2) Final Total Internal Energy     =  -1.52 kcal/molUSER    (3) Torsional Free Energy           =  +2.39 kcal/molUSER    (4) Unbound System's Energy         =  -1.52 kcal/molUSERUSERREMARK SMILES N#Cc1cnc(-c2ccc(CNCc3ccc(-c4csnn4)cc3)cc2)c(-c2ccccc2)c1REMARK SMILES IDX 11 1 10 2 7 3 8 4 26 5 9 6 25 7 6 8 3 9 4 10 34 11 5 12REMARK SMILES IDX 27 13 2 14 1 15 28 16 29 17 33 18 30 19 32 20 31 21 12 22REMARK SMILES IDX 13 24 14 25 15 26 24 27 16 28 23 29 17 30 18 31 19 32 22 33REMARK SMILES IDX 20 34 21 35REMARK H PARENT 12 23USER                              x       y       z     vdW  Elec       q    TypeUSER                           _______ _______ _______ _____ _____    ______ ____ROOTATOM      1  C   UNL     1      41.791  45.672  18.484 -0.34 +0.01    +0.117 C  ENDROOTBRANCH   1   2ATOM      2  C   UNL     1      41.000  45.626  19.769 -0.39 -0.00    -0.034 A  ATOM      3  C   UNL     1      39.537  45.510  22.201 -0.31 +0.00    +0.001 A  ATOM      4  C   UNL     1      38.907  45.306  20.960 -0.32 +0.00    +0.011 A  ATOM      5  C   UNL     1      40.913  45.791  22.195 -0.25 +0.00    +0.011 A  ATOM      6  C   UNL     1      39.627  45.356  19.761 -0.39 -0.00    +0.006 A  ATOM      7  C   UNL     1      41.636  45.840  20.998 -0.33 +0.00    +0.006 A  BRANCH   3   8ATOM      8  C   UNL     1      38.754  45.450  23.452 -0.26 +0.01    +0.078 A  ATOM      9  C   UNL     1      37.474  45.549  25.902 -0.28 -0.00    +0.071 A  ATOM     10  C   UNL     1      38.445  46.459  25.534 -0.21 +0.01    +0.131 A  ATOM     11  C   UNL     1      37.130  44.556  24.986 -0.30 +0.00    +0.032 A  ATOM     12  N   UNL     1      39.080  46.434  24.341 -0.17 -0.02    -0.254 NA ATOM     13  C   UNL     1      37.764  44.485  23.730 -0.31 +0.00    +0.009 A  BRANCH   9  14ATOM     14  C   UNL     1      36.841  45.636  27.179 -0.32 -0.02    +0.101 C  ATOM     15  N   UNL     1      36.328  45.707  28.216 -0.30 +0.05    -0.192 NA ENDBRANCH   9  14BRANCH  13  16ATOM     16  C   UNL     1      37.334  43.445  22.778 -0.37 -0.00    -0.016 A  ATOM     17  C   UNL     1      36.539  43.773  21.666 -0.33 +0.00    +0.009 A  ATOM     18  C   UNL     1      37.720  42.105  22.944 -0.39 +0.00    +0.009 A  ATOM     19  C   UNL     1      36.134  42.792  20.758 -0.46 +0.00    +0.001 A  ATOM     20  C   UNL     1      37.314  41.123  22.037 -0.50 +0.00    +0.001 A  ATOM     21  C   UNL     1      36.520  41.467  20.945 -0.50 -0.00    +0.000 A  ENDBRANCH  13  16ENDBRANCH   3   8ENDBRANCH   1   2BRANCH   1  22ATOM     22  N   UNL     1      42.518  46.937  18.375 -0.24 -0.00    -0.309 NA ATOM     23  H   UNL     1      43.187  46.854  17.611 -0.51 -0.05    +0.123 HD BRANCH  22  24ATOM     24  C   UNL     1      41.627  48.065  18.105 -0.29 -0.00    +0.117 C  BRANCH  24  25ATOM     25  C   UNL     1      40.668  47.814  16.965 -0.51 +0.01    -0.034 A  ATOM     26  C   UNL     1      40.953  48.276  15.674 -0.53 -0.00    +0.006 A  ATOM     27  C   UNL     1      39.466  47.131  17.184 -0.44 -0.00    +0.006 A  ATOM     28  C   UNL     1      40.058  48.050  14.622 -0.50 -0.00    +0.011 A  ATOM     29  C   UNL     1      38.571  46.906  16.134 -0.42 -0.00    +0.011 A  ATOM     30  C   UNL     1      38.858  47.356  14.837 -0.48 -0.00    +0.003 A  BRANCH  30  31ATOM     31  C   UNL     1      37.903  47.103  13.762 -0.41 -0.04    +0.105 A  ATOM     32  C   UNL     1      37.265  45.893  13.543 -0.38 -0.04    +0.118 A  ATOM     33  N   UNL     1      37.545  48.110  12.867 -0.92 +0.02    -0.138 NA ATOM     34  S   UNL     1      36.238  46.090  12.182 -0.85 +0.01    -0.020 S  ATOM     35  N   UNL     1      36.667  47.691  11.972 -1.10 +0.03    -0.091 NA ENDBRANCH  30  31ENDBRANCH  24  25ENDBRANCH  22  24ENDBRANCH   1  22TORSDOF 8TERENDMDL