REMARK SMILES CNC(=O)c1ccc(Nc2nccc(-c3ccc4c(cnn4C)c3F)n2)cc1N
REMARK SMILES IDX 9 1 8 3 5 4 6 5 28 6 7 7 27 8 3 9 2 10 1 11 4 13 29 14 10 17
REMARK SMILES IDX 11 18 26 19 12 20 14 21 13 22 15 23 16 24 24 25 17 26 19 27
REMARK SMILES IDX 18 28 20 29 22 30 21 31 25 32 23 33
REMARK H PARENT 9 2 2 12 29 15 29 16
ROOT
ATOM      1  N   UNL     1      -0.968  -0.272   0.198  1.00  0.00    -0.324 N 
ATOM      2  H   UNL     1      -0.493  -0.991   0.726  1.00  0.00     0.170 HD
ENDROOT
BRANCH   1   3
ATOM      3  C   UNL     1      -2.365  -0.325   0.166  1.00  0.00     0.043 A 
ATOM      4  C   UNL     1      -5.196  -0.580   0.137  1.00  0.00     0.062 A 
ATOM      5  C   UNL     1      -4.563   0.535  -0.432  1.00  0.00     0.018 A 
ATOM      6  C   UNL     1      -4.408  -1.582   0.739  1.00  0.00     0.046 A 
ATOM      7  C   UNL     1      -3.167   0.650  -0.426  1.00  0.00     0.027 A 
ATOM      8  C   UNL     1      -3.010  -1.427   0.753  1.00  0.00     0.052 A 
BRANCH   4   9
ATOM      9  C   UNL     1      -6.689  -0.720   0.070  1.00  0.00     0.253 C 
ATOM     10  N   UNL     1      -7.336  -0.016  -0.933  1.00  0.00    -0.355 N 
ATOM     11  C   UNL     1      -8.751  -0.187  -1.145  1.00  0.00     0.143 C 
ATOM     12  H   UNL     1      -6.790   0.331  -1.709  1.00  0.00     0.163 HD
ATOM     13  O   UNL     1      -7.293  -1.471   0.831  1.00  0.00    -0.269 OA
ENDBRANCH   4   9
BRANCH   6  14
ATOM     14  N   UNL     1      -4.956  -2.641   1.483  1.00  0.00    -0.398 N 
ATOM     15  H   UNL     1      -4.451  -3.517   1.444  1.00  0.00     0.156 HD
ATOM     16  H   UNL     1      -5.970  -2.738   1.355  1.00  0.00     0.156 HD
ENDBRANCH   6  14
ENDBRANCH   1   3
BRANCH   1  17
ATOM     17  C   UNL     1      -0.018   0.629  -0.275  1.00  0.00     0.227 A 
ATOM     18  N   UNL     1      -0.355   1.714  -0.986  1.00  0.00    -0.221 NA
ATOM     19  N   UNL     1       1.251   0.316   0.028  1.00  0.00    -0.213 NA
ATOM     20  C   UNL     1       0.639   2.523  -1.389  1.00  0.00     0.117 A 
ATOM     21  C   UNL     1       2.228   1.149  -0.390  1.00  0.00     0.079 A 
ATOM     22  C   UNL     1       1.962   2.287  -1.120  1.00  0.00     0.049 A 
BRANCH  21  23
ATOM     23  C   UNL     1       3.594   0.753  -0.038  1.00  0.00     0.037 A 
ATOM     24  C   UNL     1       4.545   0.481  -1.038  1.00  0.00     0.015 A 
ATOM     25  C   UNL     1       3.983   0.634   1.307  1.00  0.00     0.143 A 
ATOM     26  C   UNL     1       5.861   0.098  -0.735  1.00  0.00     0.029 A 
ATOM     27  C   UNL     1       5.293   0.254   1.638  1.00  0.00     0.056 A 
ATOM     28  C   UNL     1       6.206  -0.008   0.619  1.00  0.00     0.071 A 
ATOM     29  C   UNL     1       6.016   0.051   2.830  1.00  0.00     0.147 A 
ATOM     30  N   UNL     1       7.370  -0.352   1.264  1.00  0.00    -0.268 N 
ATOM     31  N   UNL     1       7.283  -0.308   2.609  1.00  0.00    -0.180 NA
ATOM     32  F   UNL     1       3.114   0.912   2.292  1.00  0.00    -0.205 F 
ATOM     33  C   UNL     1       8.631  -0.718   0.662  1.00  0.00     0.174 C 
ENDBRANCH  21  23
ENDBRANCH   1  17
TORSDOF 5
