REMARK SMILES Cn1cncc1-c1cccc(-c2ccnc(NC(=O)c3cc(N4CCOCC4)nn3C)c2F)n1
REMARK SMILES IDX 12 1 13 2 14 3 15 4 16 5 32 6 33 7 11 8 7 9 8 10 34 11 9 12
REMARK SMILES IDX 10 13 6 14 2 15 3 16 4 17 5 18 1 19 17 20 18 21 19 23 20 24
REMARK SMILES IDX 21 25 30 26 22 27 29 28 31 29 23 30 24 31 28 32 25 33 27 34
REMARK SMILES IDX 26 35
REMARK H PARENT 17 22
ROOT
ATOM      1  C   UNL     1       2.770   2.044   1.084  1.00  0.00     0.041 A 
ATOM      2  C   UNL     1       2.706   2.812   2.254  1.00  0.00     0.033 A 
ATOM      3  C   UNL     1       1.489   2.943   2.904  1.00  0.00     0.114 A 
ATOM      4  N   UNL     1       0.345   2.372   2.476  1.00  0.00    -0.236 NA
ATOM      5  C   UNL     1       0.396   1.640   1.349  1.00  0.00     0.169 A 
ATOM      6  C   UNL     1       1.582   1.456   0.637  1.00  0.00     0.175 A 
ATOM      7  F   UNL     1       1.556   0.726  -0.492  1.00  0.00    -0.202 F 
ENDROOT
BRANCH   1   8
ATOM      8  C   UNL     1       4.033   1.846   0.368  1.00  0.00     0.074 A 
ATOM      9  C   UNL     1       5.511   0.313  -0.552  1.00  0.00     0.089 A 
ATOM     10  C   UNL     1       6.382   1.314  -0.956  1.00  0.00     0.031 A 
ATOM     11  N   UNL     1       4.353   0.558   0.098  1.00  0.00    -0.246 NA
ATOM     12  C   UNL     1       6.051   2.633  -0.668  1.00  0.00     0.005 A 
ATOM     13  C   UNL     1       4.863   2.905   0.006  1.00  0.00     0.029 A 
BRANCH   9  14
ATOM     14  C   UNL     1       5.756  -1.093  -0.817  1.00  0.00     0.086 A 
ATOM     15  N   UNL     1       6.886  -1.809  -0.491  1.00  0.00    -0.332 N 
ATOM     16  C   UNL     1       6.709  -3.096  -0.916  1.00  0.00     0.199 A 
ATOM     17  N   UNL     1       5.531  -3.267  -1.466  1.00  0.00    -0.244 NA
ATOM     18  C   UNL     1       4.922  -2.041  -1.383  1.00  0.00     0.141 A 
ATOM     19  C   UNL     1       8.038  -1.340   0.238  1.00  0.00     0.151 C 
ENDBRANCH   9  14
ENDBRANCH   1   8
BRANCH   5  20
ATOM     20  N   UNL     1      -0.748   1.003   0.844  1.00  0.00    -0.303 N 
ATOM     21  C   UNL     1      -2.025   1.119   1.346  1.00  0.00     0.275 C 
ATOM     22  H   UNL     1      -0.610   0.484  -0.013  1.00  0.00     0.172 HD
ATOM     23  O   UNL     1      -2.380   1.887   2.230  1.00  0.00    -0.267 OA
BRANCH  21  24
ATOM     24  C   UNL     1      -2.979   0.271   0.669  1.00  0.00     0.128 A 
ATOM     25  C   UNL     1      -4.273   0.584   0.291  1.00  0.00     0.082 A 
ATOM     26  N   UNL     1      -2.843  -1.050   0.334  1.00  0.00    -0.261 N 
ATOM     27  C   UNL     1      -4.794  -0.564  -0.349  1.00  0.00     0.151 A 
ATOM     28  N   UNL     1      -3.889  -1.544  -0.348  1.00  0.00    -0.155 NA
ATOM     29  C   UNL     1      -1.764  -1.947   0.676  1.00  0.00     0.174 C 
BRANCH  27  30
ATOM     30  N   UNL     1      -6.032  -0.656  -0.894  1.00  0.00    -0.351 N 
ATOM     31  C   UNL     1      -6.540  -1.952  -1.367  1.00  0.00     0.146 C 
ATOM     32  C   UNL     1      -7.012   0.432  -0.843  1.00  0.00     0.146 C 
ATOM     33  C   UNL     1      -8.034  -2.080  -1.039  1.00  0.00     0.181 C 
ATOM     34  C   UNL     1      -8.146   0.172  -1.848  1.00  0.00     0.181 C 
ATOM     35  O   UNL     1      -8.853  -1.055  -1.623  1.00  0.00    -0.378 OA
ENDBRANCH  27  30
ENDBRANCH  21  24
ENDBRANCH   5  20
TORSDOF 5
