MODEL        2USER    Run = 2USERUSER    Estimated Free Energy of Binding    =  -9.50 kcal/mol  [=(1)+(2)+(3)-(4)]USERUSER    (1) Final Intermolecular Energy     = -10.99 kcal/molUSER        vdW + Hbond + desolv Energy     = -10.87 kcal/molUSER        Electrostatic Energy            =  -0.12 kcal/molUSER        Moving Ligand-Fixed Receptor    = -10.99 kcal/molUSER        Moving Ligand-Moving Receptor   =  +0.00 kcal/molUSER    (2) Final Total Internal Energy     =  -1.18 kcal/molUSER    (3) Torsional Free Energy           =  +1.49 kcal/molUSER    (4) Unbound System's Energy         =  -1.18 kcal/molUSERUSERREMARK SMILES CNC(=O)c1ccc(Nc2nccc(-c3ccc4c(cnn4C)c3F)n2)cc1NREMARK SMILES IDX 9 1 8 3 5 4 6 5 28 6 7 7 27 8 3 9 2 10 1 11 4 13 29 14 10 17REMARK SMILES IDX 11 18 26 19 12 20 14 21 13 22 15 23 16 24 24 25 17 26 19 27REMARK SMILES IDX 18 28 20 29 22 30 21 31 25 32 23 33REMARK H PARENT 9 2 2 12 29 15 29 16USER                              x       y       z     vdW  Elec       q    TypeUSER                           _______ _______ _______ _____ _____    ______ ____ROOTATOM      1  N   UNL     1      38.629  48.380  14.871 -0.27 +0.16    -0.324 N  ATOM      2  H   UNL     1      38.732  49.335  14.559 -0.34 -0.13    +0.170 HD ENDROOTBRANCH   1   3ATOM      3  C   UNL     1      39.466  47.957  15.908 -0.48 -0.02    +0.043 A  ATOM      4  C   UNL     1      41.052  47.011  18.069 -0.48 -0.00    +0.062 A  ATOM      5  C   UNL     1      41.443  48.130  17.319 -0.47 -0.00    +0.018 A  ATOM      6  C   UNL     1      39.856  46.345  17.734 -0.43 -0.01    +0.046 A  ATOM      7  C   UNL     1      40.651  48.599  16.263 -0.55 -0.01    +0.027 A  ATOM      8  C   UNL     1      39.095  46.823  16.652 -0.40 -0.02    +0.052 A  BRANCH   4   9ATOM      9  C   UNL     1      41.878  46.555  19.237 -0.37 +0.02    +0.253 C  ATOM     10  N   UNL     1      42.885  47.409  19.658 -0.30 -0.05    -0.355 N  ATOM     11  C   UNL     1      43.646  47.107  20.844 -0.28 +0.06    +0.143 C  ATOM     12  H   UNL     1      42.857  48.374  19.360 -0.35 -0.02    +0.163 HD ATOM     13  O   UNL     1      41.629  45.505  19.822 -0.27 -0.04    -0.269 OA ENDBRANCH   4   9BRANCH   6  14ATOM     14  N   UNL     1      39.475  45.121  18.311 -0.15 +0.04    -0.398 N  ATOM     15  H   UNL     1      38.826  45.180  19.085 +0.09 -0.01    +0.156 HD ATOM     16  H   UNL     1      40.269  44.493  18.480 +0.09 -0.00    +0.156 HD ENDBRANCH   6  14ENDBRANCH   1   3BRANCH   1  17ATOM     17  C   UNL     1      37.569  47.801  14.179 -0.35 -0.11    +0.227 A  ATOM     18  N   UNL     1      37.285  48.121  12.909 -0.92 +0.05    -0.221 NA ATOM     19  N   UNL     1      36.855  46.914  14.889 -0.25 +0.14    -0.213 NA ATOM     20  C   UNL     1      36.244  47.499  12.332 -0.58 -0.06    +0.117 A  ATOM     21  C   UNL     1      35.815  46.304  14.281 -0.38 -0.05    +0.079 A  ATOM     22  C   UNL     1      35.463  46.574  12.976 -0.50 -0.03    +0.049 A  BRANCH  21  23ATOM     23  C   UNL     1      35.066  45.351  15.106 -0.31 -0.03    +0.037 A  ATOM     24  C   UNL     1      33.673  45.471  15.259 -0.29 -0.01    +0.015 A  ATOM     25  C   UNL     1      35.725  44.299  15.764 -0.26 -0.06    +0.143 A  ATOM     26  C   UNL     1      32.927  44.577  16.043 -0.31 -0.02    +0.029 A  ATOM     27  C   UNL     1      35.003  43.390  16.553 -0.35 -0.02    +0.056 A  ATOM     28  C   UNL     1      33.624  43.542  16.681 -0.28 -0.03    +0.071 A  ATOM     29  C   UNL     1      35.312  42.250  17.320 -0.26 -0.06    +0.147 A  ATOM     30  N   UNL     1      33.228  42.516  17.505 -0.18 +0.09    -0.268 N  ATOM     31  N   UNL     1      34.235  41.708  17.894 -0.34 +0.06    -0.180 NA ATOM     32  F   UNL     1      37.050  44.132  15.620 -0.09 +0.07    -0.205 F  ATOM     33  C   UNL     1      31.888  42.221  17.956 -0.26 -0.04    +0.174 C  ENDBRANCH  21  23ENDBRANCH   1  17TORSDOF 5TERENDMDL