MODEL        2USER    Run = 2USERUSER    Estimated Free Energy of Binding    =  -9.17 kcal/mol  [=(1)+(2)+(3)-(4)]USERUSER    (1) Final Intermolecular Energy     = -12.15 kcal/molUSER        vdW + Hbond + desolv Energy     = -11.93 kcal/molUSER        Electrostatic Energy            =  -0.22 kcal/molUSER        Moving Ligand-Fixed Receptor    = -12.15 kcal/molUSER        Moving Ligand-Moving Receptor   =  +0.00 kcal/molUSER    (2) Final Total Internal Energy     =  -2.10 kcal/molUSER    (3) Torsional Free Energy           =  +2.98 kcal/molUSER    (4) Unbound System's Energy         =  -2.10 kcal/molUSERUSERREMARK SMILES OCCn1cc(-c2cc(O)cnc2-c2ccc(CN3CCC(n4c(O)nc5ccccc54)CC3)cc2)cn1REMARK SMILES IDX 7 1 8 2 9 3 11 4 12 5 13 6 6 7 4 8 5 9 38 10 37 11 3 12 2 13REMARK SMILES IDX 1 14 14 16 15 17 36 18 16 19 35 20 17 21 18 22 19 23 20 24REMARK SMILES IDX 34 25 21 26 33 27 22 28 23 29 24 30 32 31 26 32 31 33 27 34REMARK SMILES IDX 30 35 28 36 29 37 25 38 10 40REMARK H PARENT 1 15 25 39 10 41USER                              x       y       z     vdW  Elec       q    TypeUSER                           _______ _______ _______ _____ _____    ______ ____ROOTATOM      1  C   UNL     1      23.474  48.346  12.171 -0.19 -0.00    +0.015 A  ATOM      2  C   UNL     1      22.707  49.487  11.893 -0.20 -0.02    +0.059 A  ATOM      3  C   UNL     1      21.551  49.737  12.615 -0.13 -0.02    +0.134 A  ATOM      4  C   UNL     1      21.182  48.846  13.603 -0.06 -0.02    +0.157 A  ATOM      5  N   UNL     1      21.884  47.731  13.900 -0.15 -0.00    -0.252 NA ATOM      6  C   UNL     1      23.015  47.472  13.177 -0.18 -0.01    +0.078 A  ENDROOTBRANCH   1   7ATOM      7  C   UNL     1      24.699  48.148  11.417 -0.24 -0.01    +0.022 A  ATOM      8  N   UNL     1      26.570  48.537  10.336 -0.25 +0.20    -0.270 N  ATOM      9  C   UNL     1      25.546  49.152  10.998 -0.26 -0.07    +0.117 A  ATOM     10  N   UNL     1      26.416  47.202  10.238 -0.21 +0.14    -0.181 NA ATOM     11  C   UNL     1      25.279  46.968  10.900 -0.22 -0.07    +0.144 A  BRANCH   8  12ATOM     12  C   UNL     1      27.739  49.175   9.760 -0.11 -0.10    +0.172 C  BRANCH  12  13ATOM     13  C   UNL     1      27.532  49.548   8.299 -0.43 -0.16    +0.179 C  BRANCH  13  14ATOM     14  O   UNL     1      26.868  48.505   7.585 -0.18 +0.57    -0.394 OA ATOM     15  H   UNL     1      26.820  47.738   8.184 -0.41 -0.34    +0.210 HD ENDBRANCH  13  14ENDBRANCH  12  13ENDBRANCH   8  12ENDBRANCH   1   7BRANCH   6  16ATOM     16  C   UNL     1      23.661  46.196  13.551 -0.25 +0.00    +0.001 A  ATOM     17  C   UNL     1      23.036  44.972  13.260 -0.23 +0.00    +0.011 A  ATOM     18  C   UNL     1      24.920  46.154  14.174 -0.30 +0.00    +0.011 A  ATOM     19  C   UNL     1      23.632  43.752  13.597 -0.32 +0.00    +0.006 A  ATOM     20  C   UNL     1      25.516  44.938  14.519 -0.32 -0.00    +0.006 A  ATOM     21  C   UNL     1      24.880  43.724  14.230 -0.32 +0.00    -0.034 A  BRANCH  21  22ATOM     22  C   UNL     1      25.541  42.410  14.585 -0.30 -0.05    +0.120 C  BRANCH  22  23ATOM     23  N   UNL     1      26.181  42.411  15.914 -0.11 +0.08    -0.299 NA ATOM     24  C   UNL     1      25.271  42.924  16.951 -0.33 -0.00    +0.087 C  ATOM     25  C   UNL     1      26.756  41.094  16.224 -0.29 -0.01    +0.087 C  ATOM     26  C   UNL     1      25.831  42.713  18.357 -0.37 -0.01    +0.041 C  ATOM     27  C   UNL     1      26.081  40.367  17.381 -0.32 +0.00    +0.041 C  ATOM     28  C   UNL     1      26.118  41.231  18.648 -0.24 -0.01    +0.095 C  BRANCH  28  29ATOM     29  N   UNL     1      25.284  40.661  19.698 -0.12 +0.06    -0.291 N  ATOM     30  C   UNL     1      24.911  39.353  19.825 -0.13 -0.13    +0.295 A  ATOM     31  C   UNL     1      24.769  41.332  20.789 -0.42 -0.02    +0.072 A  ATOM     32  N   UNL     1      24.201  39.119  20.896 -0.23 +0.12    -0.195 NA ATOM     33  C   UNL     1      24.817  42.667  21.215 -0.51 -0.01    +0.029 A  ATOM     34  C   UNL     1      24.104  40.341  21.515 -0.38 -0.03    +0.092 A  ATOM     35  C   UNL     1      24.165  42.981  22.415 -0.71 -0.00    +0.002 A  ATOM     36  C   UNL     1      23.460  40.676  22.716 -0.41 -0.01    +0.031 A  ATOM     37  C   UNL     1      23.500  42.004  23.155 -0.60 -0.00    +0.002 A  BRANCH  30  38ATOM     38  O   UNL     1      25.224  38.393  18.981 -0.15 +0.25    -0.480 OA ATOM     39  H   UNL     1      24.792  37.627  19.398 -0.36 -0.48    +0.296 HD ENDBRANCH  30  38ENDBRANCH  28  29ENDBRANCH  22  23ENDBRANCH  21  22ENDBRANCH   6  16BRANCH   3  40ATOM     40  O   UNL     1      20.834  50.856  12.320 -0.53 -0.03    -0.506 OA ATOM     41  H   UNL     1      19.957  50.796  12.736 -0.49 -0.04    +0.293 HD ENDBRANCH   3  40TORSDOF 10TERENDMDL