REMARK SMILES CO[C@H]1CCCN(c2cc(Nc3cc(C)[nH]n3)nc(C)c2CCNC(=O)c2cc(C)no2)C1
REMARK SMILES IDX 22 1 21 2 8 3 9 4 10 5 19 6 18 7 20 8 7 9 3 10 4 11 33 12
REMARK SMILES IDX 5 13 6 14 2 15 1 16 11 17 12 19 13 20 17 21 14 22 16 23
REMARK SMILES IDX 15 24 23 26 24 27 25 28 26 30 27 31 28 32 32 33 29 34 31 35
REMARK SMILES IDX 30 36
REMARK H PARENT 11 18 16 25 24 29
ROOT
ATOM      1  C   UNL     1       1.349   0.809  -0.802  1.00  0.00     0.061 C 
ENDROOT
BRANCH   1   2
ATOM      2  C   UNL     1      -0.122   0.522  -0.600  1.00  0.00    -0.001 A 
ATOM      3  C   UNL     1      -0.560  -0.754  -0.191  1.00  0.00     0.046 A 
ATOM      4  C   UNL     1      -1.925  -0.933   0.043  1.00  0.00     0.073 A 
ATOM      5  C   UNL     1      -2.828   0.113  -0.132  1.00  0.00     0.133 A 
ATOM      6  C   UNL     1      -1.082   1.537  -0.727  1.00  0.00     0.045 A 
ATOM      7  N   UNL     1      -2.402   1.335  -0.499  1.00  0.00    -0.236 NA
ATOM      8  C   UNL     1      -0.719   2.941  -1.123  1.00  0.00     0.067 C 
BRANCH   3   9
ATOM      9  N   UNL     1       0.358  -1.802  -0.046  1.00  0.00    -0.369 N 
ATOM     10  C   UNL     1      -0.219  -3.998   1.137  1.00  0.00     0.137 C 
ATOM     11  C   UNL     1       0.203  -4.708  -0.152  1.00  0.00     0.036 C 
ATOM     12  C   UNL     1       0.372  -2.570   1.217  1.00  0.00     0.148 C 
ATOM     13  C   UNL     1      -0.090  -3.842  -1.373  1.00  0.00     0.024 C 
ATOM     14  C   UNL     1       0.669  -2.525  -1.284  1.00  0.00     0.117 C 
BRANCH  10  15
ATOM     15  O   UNL     1      -1.648  -3.939   1.241  1.00  0.00    -0.380 OA
ATOM     16  C   UNL     1      -2.239  -5.132   1.738  1.00  0.00     0.195 C 
ENDBRANCH  10  15
ENDBRANCH   3   9
BRANCH   5  17
ATOM     17  N   UNL     1      -4.188  -0.137   0.145  1.00  0.00    -0.323 N 
ATOM     18  H   UNL     1      -4.450  -1.082  -0.101  1.00  0.00     0.170 HD
BRANCH  17  19
ATOM     19  C   UNL     1      -5.233   0.712   0.201  1.00  0.00     0.153 A 
ATOM     20  C   UNL     1      -5.180   2.112   0.393  1.00  0.00     0.071 A 
ATOM     21  N   UNL     1      -6.498   0.288   0.112  1.00  0.00    -0.158 NA
ATOM     22  C   UNL     1      -6.489   2.538   0.397  1.00  0.00     0.034 A 
ATOM     23  N   UNL     1      -7.231   1.406   0.220  1.00  0.00    -0.281 N 
ATOM     24  C   UNL     1      -7.097   3.877   0.544  1.00  0.00     0.066 C 
ATOM     25  H   UNL     1      -8.241   1.323   0.169  1.00  0.00     0.190 HD
ENDBRANCH  17  19
ENDBRANCH   5  17
ENDBRANCH   1   2
BRANCH   1  26
ATOM     26  C   UNL     1       2.045   1.121   0.525  1.00  0.00     0.121 C 
BRANCH  26  27
ATOM     27  N   UNL     1       3.462   1.390   0.352  1.00  0.00    -0.349 N 
ATOM     28  C   UNL     1       3.916   2.608  -0.127  1.00  0.00     0.289 C 
ATOM     29  H   UNL     1       4.105   0.624   0.474  1.00  0.00     0.163 HD
ATOM     30  O   UNL     1       3.133   3.515  -0.398  1.00  0.00    -0.266 OA
BRANCH  28  31
ATOM     31  C   UNL     1       5.348   2.708  -0.287  1.00  0.00     0.224 A 
ATOM     32  C   UNL     1       6.410   1.877   0.003  1.00  0.00     0.083 A 
ATOM     33  O   UNL     1       5.841   3.854  -0.842  1.00  0.00    -0.351 OA
ATOM     34  C   UNL     1       7.554   2.595  -0.413  1.00  0.00     0.081 A 
ATOM     35  N   UNL     1       7.220   3.783  -0.925  1.00  0.00    -0.084 NA
ATOM     36  C   UNL     1       8.975   2.191  -0.339  1.00  0.00     0.070 C 
ENDBRANCH  28  31
ENDBRANCH  26  27
ENDBRANCH   1  26
TORSDOF 8
