REMARK SMILES C[C@H](O)NC[C@H]1C(=O)N[C@H](c2c(F)cccc2F)N1C(=O)CN1CCC(c2ccc(OC3CC3)c3c2CC[C@H]3F)CC1
REMARK SMILES IDX 6 1 7 2 8 3 9 4 10 5 19 6 5 8 4 9 2 11 1 12 3 13 20 15 21 16
REMARK SMILES IDX 22 17 23 18 24 19 42 20 25 21 41 22 26 23 27 24 28 25 36 26
REMARK SMILES IDX 29 27 35 28 37 29 30 30 39 31 38 32 40 33 31 34 32 35 33 36
REMARK SMILES IDX 34 37 11 38 12 39 17 40 14 41 16 42 15 43 13 44 18 45
REMARK H PARENT 9 7 4 10 3 14
ROOT
ATOM      1  C   UNL     1      -4.944   0.556   0.691  1.00  0.00     0.190 C 
ATOM      2  C   UNL     1      -6.147  -0.216   1.225  1.00  0.00     0.246 C 
ATOM      3  O   UNL     1      -7.006   0.197   1.987  1.00  0.00    -0.273 OA
ATOM      4  N   UNL     1      -6.154  -1.476   0.686  1.00  0.00    -0.330 N 
ATOM      5  C   UNL     1      -5.007  -1.733  -0.116  1.00  0.00     0.219 C 
ATOM      6  N   UNL     1      -4.290  -0.479  -0.129  1.00  0.00    -0.303 N 
ATOM      7  H   UNL     1      -6.872  -2.150   0.901  1.00  0.00     0.166 HD
ENDROOT
BRANCH   1   8
ATOM      8  C   UNL     1      -5.434   1.778  -0.119  1.00  0.00     0.118 C 
BRANCH   8   9
ATOM      9  N   UNL     1      -4.984   3.054   0.467  1.00  0.00    -0.290 NA
ATOM     10  H   UNL     1      -3.992   3.006   0.694  1.00  0.00     0.125 HD
BRANCH   9  11
ATOM     11  C   UNL     1      -5.126   4.193  -0.421  1.00  0.00     0.179 C 
ATOM     12  C   UNL     1      -6.504   4.368  -1.053  1.00  0.00     0.056 C 
BRANCH  11  13
ATOM     13  O   UNL     1      -4.135   4.085  -1.426  1.00  0.00    -0.379 OA
ATOM     14  H   UNL     1      -4.179   4.903  -1.948  1.00  0.00     0.212 HD
ENDBRANCH  11  13
ENDBRANCH   9  11
ENDBRANCH   8   9
ENDBRANCH   1   8
BRANCH   6  15
ATOM     15  C   UNL     1      -3.172  -0.346  -0.928  1.00  0.00     0.239 C 
ATOM     16  O   UNL     1      -2.872  -1.234  -1.732  1.00  0.00    -0.273 OA
BRANCH  15  17
ATOM     17  C   UNL     1      -2.326   0.930  -0.764  1.00  0.00     0.185 C 
BRANCH  17  18
ATOM     18  N   UNL     1      -0.878   0.652  -0.908  1.00  0.00    -0.294 NA
ATOM     19  C   UNL     1      -0.127   1.910  -1.003  1.00  0.00     0.085 C 
ATOM     20  C   UNL     1      -0.380  -0.189   0.191  1.00  0.00     0.085 C 
ATOM     21  C   UNL     1       1.361   1.646  -1.241  1.00  0.00     0.024 C 
ATOM     22  C   UNL     1       1.100  -0.525   0.001  1.00  0.00     0.024 C 
ATOM     23  C   UNL     1       1.939   0.752  -0.135  1.00  0.00     0.022 C 
BRANCH  23  24
ATOM     24  C   UNL     1       3.408   0.434  -0.344  1.00  0.00    -0.041 A 
ATOM     25  C   UNL     1       3.856  -0.203  -1.517  1.00  0.00     0.008 A 
ATOM     26  C   UNL     1       4.373   0.744   0.617  1.00  0.00    -0.035 A 
ATOM     27  C   UNL     1       5.214  -0.500  -1.721  1.00  0.00     0.047 A 
ATOM     28  C   UNL     1       5.732   0.444   0.412  1.00  0.00     0.032 A 
ATOM     29  C   UNL     1       4.202   1.445   1.935  1.00  0.00     0.039 C 
ATOM     30  C   UNL     1       6.155  -0.178  -0.746  1.00  0.00     0.126 A 
ATOM     31  C   UNL     1       6.568   0.925   1.556  1.00  0.00     0.201 C 
ATOM     32  C   UNL     1       5.509   1.086   2.650  1.00  0.00     0.047 C 
ATOM     33  F   UNL     1       7.518   0.057   1.990  1.00  0.00    -0.242 F 
BRANCH  30  34
ATOM     34  O   UNL     1       7.484  -0.419  -0.941  1.00  0.00    -0.490 OA
BRANCH  34  35
ATOM     35  C   UNL     1       7.791  -1.830  -0.900  1.00  0.00     0.173 C 
ATOM     36  C   UNL     1       9.228  -2.155  -0.588  1.00  0.00     0.049 C 
ATOM     37  C   UNL     1       8.707  -2.327  -1.987  1.00  0.00     0.049 C 
ENDBRANCH  34  35
ENDBRANCH  30  34
ENDBRANCH  23  24
ENDBRANCH  17  18
ENDBRANCH  15  17
ENDBRANCH   6  15
BRANCH   5  38
ATOM     38  C   UNL     1      -4.234  -2.899   0.439  1.00  0.00     0.066 A 
ATOM     39  C   UNL     1      -4.349  -4.154  -0.164  1.00  0.00     0.133 A 
ATOM     40  C   UNL     1      -3.411  -2.800   1.565  1.00  0.00     0.133 A 
ATOM     41  C   UNL     1      -3.656  -5.267   0.314  1.00  0.00     0.040 A 
ATOM     42  C   UNL     1      -2.711  -3.902   2.059  1.00  0.00     0.040 A 
ATOM     43  C   UNL     1      -2.830  -5.141   1.429  1.00  0.00     0.006 A 
ATOM     44  F   UNL     1      -5.155  -4.312  -1.225  1.00  0.00    -0.206 F 
ATOM     45  F   UNL     1      -3.273  -1.628   2.205  1.00  0.00    -0.206 F 
ENDBRANCH   5  38
TORSDOF 11
