REMARK SMILES C[C@H](O)NC[C@H]1C(=O)N[C@H](c2c(F)cc(N(C)C)cc2F)N1C(=O)CN1CCC(c2ccc(O)c3c2CCC3)CC1
REMARK SMILES IDX 6 1 7 2 8 3 9 4 10 5 22 6 5 8 4 9 2 11 1 12 3 13 23 15 24 16
REMARK SMILES IDX 25 17 26 18 27 19 41 20 28 21 40 22 29 23 30 24 31 25 36 26
REMARK SMILES IDX 32 27 35 28 37 29 33 30 39 31 38 32 34 33 11 35 12 36 20 37
REMARK SMILES IDX 14 38 19 39 15 40 13 41 21 42 16 43 17 44 18 45
REMARK H PARENT 9 7 4 10 3 14 34 34
ROOT
ATOM      1  C   UNL     1       3.274   2.689  -1.285  1.00  0.00     0.190 C 
ATOM      2  C   UNL     1       4.711   2.396  -1.690  1.00  0.00     0.246 C 
ATOM      3  O   UNL     1       5.314   2.887  -2.629  1.00  0.00    -0.273 OA
ATOM      4  N   UNL     1       5.277   1.563  -0.754  1.00  0.00    -0.330 N 
ATOM      5  C   UNL     1       4.300   1.002   0.119  1.00  0.00     0.219 C 
ATOM      6  N   UNL     1       3.071   1.664  -0.255  1.00  0.00    -0.303 N 
ATOM      7  H   UNL     1       6.212   1.199  -0.881  1.00  0.00     0.166 HD
ENDROOT
BRANCH   1   8
ATOM      8  C   UNL     1       3.264   4.144  -0.749  1.00  0.00     0.118 C 
BRANCH   8   9
ATOM      9  N   UNL     1       2.012   4.510  -0.072  1.00  0.00    -0.290 NA
ATOM     10  H   UNL     1       1.988   4.034   0.835  1.00  0.00     0.125 HD
BRANCH   9  11
ATOM     11  C   UNL     1       1.918   5.939   0.163  1.00  0.00     0.179 C 
ATOM     12  C   UNL     1       0.813   6.228   1.171  1.00  0.00     0.056 C 
BRANCH  11  13
ATOM     13  O   UNL     1       1.566   6.553  -1.054  1.00  0.00    -0.379 OA
ATOM     14  H   UNL     1       1.218   5.818  -1.583  1.00  0.00     0.212 HD
ENDBRANCH  11  13
ENDBRANCH   9  11
ENDBRANCH   8   9
ENDBRANCH   1   8
BRANCH   6  15
ATOM     15  C   UNL     1       1.888   1.322   0.366  1.00  0.00     0.239 C 
ATOM     16  O   UNL     1       1.911   0.750   1.457  1.00  0.00    -0.273 OA
BRANCH  15  17
ATOM     17  C   UNL     1       0.587   1.592  -0.426  1.00  0.00     0.185 C 
BRANCH  17  18
ATOM     18  N   UNL     1      -0.622   1.238   0.345  1.00  0.00    -0.294 NA
ATOM     19  C   UNL     1      -1.830   1.825  -0.237  1.00  0.00     0.085 C 
ATOM     20  C   UNL     1      -0.727  -0.206   0.609  1.00  0.00     0.085 C 
ATOM     21  C   UNL     1      -3.055   1.473   0.610  1.00  0.00     0.024 C 
ATOM     22  C   UNL     1      -2.058  -0.835   0.194  1.00  0.00     0.024 C 
ATOM     23  C   UNL     1      -3.250  -0.051   0.761  1.00  0.00     0.022 C 
BRANCH  23  24
ATOM     24  C   UNL     1      -4.545  -0.570   0.157  1.00  0.00    -0.041 A 
ATOM     25  C   UNL     1      -4.952  -0.200  -1.140  1.00  0.00     0.008 A 
ATOM     26  C   UNL     1      -5.365  -1.464   0.847  1.00  0.00    -0.038 A 
ATOM     27  C   UNL     1      -6.150  -0.676  -1.698  1.00  0.00     0.047 A 
ATOM     28  C   UNL     1      -6.559  -1.942   0.284  1.00  0.00    -0.003 A 
ATOM     29  C   UNL     1      -5.194  -2.017   2.232  1.00  0.00     0.036 C 
ATOM     30  C   UNL     1      -6.959  -1.545  -0.976  1.00  0.00     0.119 A 
ATOM     31  C   UNL     1      -7.284  -2.838   1.238  1.00  0.00     0.040 C 
ATOM     32  C   UNL     1      -6.161  -3.206   2.212  1.00  0.00     0.010 C 
BRANCH  30  33
ATOM     33  O   UNL     1      -8.129  -2.018  -1.481  1.00  0.00    -0.508 OA
ATOM     34  H   UNL     1      -8.285  -1.599  -2.342  1.00  0.00     0.293 HD
ENDBRANCH  30  33
ENDBRANCH  23  24
ENDBRANCH  17  18
ENDBRANCH  15  17
ENDBRANCH   6  15
BRANCH   5  35
ATOM     35  C   UNL     1       4.267  -0.494  -0.044  1.00  0.00     0.066 A 
ATOM     36  C   UNL     1       4.796  -1.320   0.940  1.00  0.00     0.135 A 
ATOM     37  C   UNL     1       3.743  -1.122  -1.168  1.00  0.00     0.135 A 
ATOM     38  C   UNL     1       4.790  -2.716   0.821  1.00  0.00     0.065 A 
ATOM     39  C   UNL     1       3.733  -2.514  -1.298  1.00  0.00     0.065 A 
ATOM     40  C   UNL     1       4.246  -3.356  -0.301  1.00  0.00     0.042 A 
ATOM     41  F   UNL     1       5.344  -0.780   2.037  1.00  0.00    -0.206 F 
ATOM     42  F   UNL     1       3.235  -0.391  -2.171  1.00  0.00    -0.206 F 
BRANCH  40  43
ATOM     43  N   UNL     1       4.247  -4.744  -0.456  1.00  0.00    -0.377 N 
ATOM     44  C   UNL     1       4.838  -5.598   0.572  1.00  0.00     0.143 C 
ATOM     45  C   UNL     1       3.142  -5.344  -1.211  1.00  0.00     0.143 C 
ENDBRANCH  40  43
ENDBRANCH   5  35
TORSDOF 11
