REMARK SMILES OCCn1cc(-c2cc(O)cnc2-c2ccc(CN3CCC(n4c(O)nc5ccccc54)CC3)cc2)cn1
REMARK SMILES IDX 7 1 8 2 9 3 11 4 12 5 13 6 6 7 4 8 5 9 38 10 37 11 3 12 2 13
REMARK SMILES IDX 1 14 14 16 15 17 36 18 16 19 35 20 17 21 18 22 19 23 20 24
REMARK SMILES IDX 34 25 21 26 33 27 22 28 23 29 24 30 32 31 26 32 31 33 27 34
REMARK SMILES IDX 30 35 28 36 29 37 25 38 10 40
REMARK H PARENT 1 15 25 39 10 41
ROOT
ATOM      1  C   UNL     1       5.465   0.174  -1.435  1.00  0.00     0.015 A 
ATOM      2  C   UNL     1       6.793   0.547  -1.688  1.00  0.00     0.059 A 
ATOM      3  C   UNL     1       7.187   0.877  -2.975  1.00  0.00     0.134 A 
ATOM      4  C   UNL     1       6.247   0.833  -3.986  1.00  0.00     0.157 A 
ATOM      5  N   UNL     1       4.960   0.472  -3.791  1.00  0.00    -0.252 NA
ATOM      6  C   UNL     1       4.574   0.128  -2.526  1.00  0.00     0.078 A 
ENDROOT
BRANCH   1   7
ATOM      7  C   UNL     1       5.090  -0.123  -0.064  1.00  0.00     0.022 A 
ATOM      8  N   UNL     1       4.018  -0.128   1.852  1.00  0.00    -0.270 N 
ATOM      9  C   UNL     1       4.011   0.419   0.601  1.00  0.00     0.117 A 
ATOM     10  N   UNL     1       5.067  -0.945   2.071  1.00  0.00    -0.181 NA
ATOM     11  C   UNL     1       5.715  -0.943   0.902  1.00  0.00     0.144 A 
BRANCH   8  12
ATOM     12  C   UNL     1       3.041   0.093   2.902  1.00  0.00     0.172 C 
BRANCH  12  13
ATOM     13  C   UNL     1       3.608   0.910   4.054  1.00  0.00     0.179 C 
BRANCH  13  14
ATOM     14  O   UNL     1       3.824   2.269   3.672  1.00  0.00    -0.394 OA
ATOM     15  H   UNL     1       4.637   2.285   3.133  1.00  0.00     0.210 HD
ENDBRANCH  13  14
ENDBRANCH  12  13
ENDBRANCH   8  12
ENDBRANCH   1   7
BRANCH   6  16
ATOM     16  C   UNL     1       3.163  -0.306  -2.450  1.00  0.00     0.001 A 
ATOM     17  C   UNL     1       2.143   0.498  -2.986  1.00  0.00     0.011 A 
ATOM     18  C   UNL     1       2.792  -1.534  -1.875  1.00  0.00     0.011 A 
ATOM     19  C   UNL     1       0.801   0.104  -2.933  1.00  0.00     0.006 A 
ATOM     20  C   UNL     1       1.452  -1.928  -1.813  1.00  0.00     0.006 A 
ATOM     21  C   UNL     1       0.444  -1.115  -2.345  1.00  0.00    -0.034 A 
BRANCH  21  22
ATOM     22  C   UNL     1      -1.002  -1.558  -2.296  1.00  0.00     0.120 C 
BRANCH  22  23
ATOM     23  N   UNL     1      -1.573  -1.562  -0.936  1.00  0.00    -0.299 NA
ATOM     24  C   UNL     1      -1.646  -0.202  -0.378  1.00  0.00     0.087 C 
ATOM     25  C   UNL     1      -2.849  -2.290  -0.901  1.00  0.00     0.087 C 
ATOM     26  C   UNL     1      -2.445  -0.161   0.924  1.00  0.00     0.041 C 
ATOM     27  C   UNL     1      -4.064  -1.420  -0.596  1.00  0.00     0.041 C 
ATOM     28  C   UNL     1      -3.876  -0.692   0.740  1.00  0.00     0.095 C 
BRANCH  28  29
ATOM     29  N   UNL     1      -4.911   0.314   0.942  1.00  0.00    -0.291 N 
ATOM     30  C   UNL     1      -5.029   1.507   0.286  1.00  0.00     0.295 A 
ATOM     31  C   UNL     1      -5.994   0.216   1.792  1.00  0.00     0.072 A 
ATOM     32  N   UNL     1      -6.086   2.188   0.636  1.00  0.00    -0.195 NA
ATOM     33  C   UNL     1      -6.423  -0.759   2.704  1.00  0.00     0.029 A 
ATOM     34  C   UNL     1      -6.706   1.398   1.573  1.00  0.00     0.092 A 
ATOM     35  C   UNL     1      -7.612  -0.506   3.400  1.00  0.00     0.002 A 
ATOM     36  C   UNL     1      -7.896   1.630   2.279  1.00  0.00     0.031 A 
ATOM     37  C   UNL     1      -8.339   0.666   3.192  1.00  0.00     0.002 A 
BRANCH  30  38
ATOM     38  O   UNL     1      -4.188   1.955  -0.622  1.00  0.00    -0.480 OA
ATOM     39  H   UNL     1      -4.590   2.815  -0.842  1.00  0.00     0.296 HD
ENDBRANCH  30  38
ENDBRANCH  28  29
ENDBRANCH  22  23
ENDBRANCH  21  22
ENDBRANCH   6  16
BRANCH   3  40
ATOM     40  O   UNL     1       8.483   1.237  -3.182  1.00  0.00    -0.506 OA
ATOM     41  H   UNL     1       8.614   1.441  -4.124  1.00  0.00     0.293 HD
ENDBRANCH   3  40
TORSDOF 10
