REMARK SMILES Cc1nc(-c2nc3cc(O)ccc3nc2-c2ccc(CN3CCC(n4c(O)nc5ccccc54)CC3)cc2)co1
REMARK SMILES IDX 20 1 19 2 16 3 17 4 38 5 18 6 37 7 15 8 5 9 6 10 7 11 14 12
REMARK SMILES IDX 8 13 13 14 9 15 12 16 11 17 4 18 2 19 3 20 40 21 39 22 1 23
REMARK SMILES IDX 10 24 21 26 22 27 36 28 23 29 35 30 24 31 25 32 26 33 34 34
REMARK SMILES IDX 28 35 33 36 29 37 32 38 30 39 31 40 27 41
REMARK H PARENT 10 25 27 42
ROOT
ATOM      1  C   UNL     1       1.262  -1.977   0.143  1.00  0.00     0.120 C 
ENDROOT
BRANCH   1   2
ATOM      2  C   UNL     1      -0.151  -1.518   0.437  1.00  0.00    -0.034 A 
ATOM      3  C   UNL     1      -2.796  -0.638   0.972  1.00  0.00     0.002 A 
ATOM      4  C   UNL     1      -2.526  -1.518  -0.087  1.00  0.00     0.011 A 
ATOM      5  C   UNL     1      -1.715  -0.231   1.775  1.00  0.00     0.011 A 
ATOM      6  C   UNL     1      -1.222  -1.948  -0.357  1.00  0.00     0.006 A 
ATOM      7  C   UNL     1      -0.411  -0.661   1.512  1.00  0.00     0.006 A 
BRANCH   3   8
ATOM      8  C   UNL     1      -4.156  -0.155   1.268  1.00  0.00     0.099 A 
ATOM      9  C   UNL     1      -4.995   0.504   0.364  1.00  0.00     0.119 A 
ATOM     10  N   UNL     1      -6.219   0.982   0.724  1.00  0.00    -0.242 NA
ATOM     11  C   UNL     1      -6.601   0.778   1.997  1.00  0.00     0.093 A 
ATOM     12  N   UNL     1      -4.542  -0.334   2.565  1.00  0.00    -0.244 NA
ATOM     13  C   UNL     1      -7.844   1.234   2.411  1.00  0.00     0.076 A 
ATOM     14  C   UNL     1      -5.757   0.120   2.924  1.00  0.00     0.090 A 
ATOM     15  C   UNL     1      -8.258   1.056   3.727  1.00  0.00     0.117 A 
ATOM     16  C   UNL     1      -6.192  -0.050   4.233  1.00  0.00     0.034 A 
ATOM     17  C   UNL     1      -7.439   0.418   4.644  1.00  0.00     0.048 A 
BRANCH   9  18
ATOM     18  C   UNL     1      -4.604   0.808  -0.993  1.00  0.00     0.130 A 
ATOM     19  C   UNL     1      -4.223   0.647  -3.071  1.00  0.00     0.191 A 
ATOM     20  N   UNL     1      -4.670  -0.067  -2.058  1.00  0.00    -0.212 NA
ATOM     21  O   UNL     1      -3.865   1.932  -2.750  1.00  0.00    -0.449 OA
ATOM     22  C   UNL     1      -4.126   2.026  -1.415  1.00  0.00     0.228 A 
ATOM     23  C   UNL     1      -4.052   0.251  -4.484  1.00  0.00     0.111 C 
ENDBRANCH   9  18
BRANCH  15  24
ATOM     24  O   UNL     1      -9.469   1.504   4.160  1.00  0.00    -0.508 OA
ATOM     25  H   UNL     1      -9.952   1.889   3.409  1.00  0.00     0.293 HD
ENDBRANCH  15  24
ENDBRANCH   3   8
ENDBRANCH   1   2
BRANCH   1  26
ATOM     26  N   UNL     1       1.736  -1.581  -1.196  1.00  0.00    -0.299 NA
ATOM     27  C   UNL     1       1.857  -0.125  -1.366  1.00  0.00     0.087 C 
ATOM     28  C   UNL     1       2.990  -2.260  -1.549  1.00  0.00     0.087 C 
ATOM     29  C   UNL     1       3.026   0.494  -0.600  1.00  0.00     0.041 C 
ATOM     30  C   UNL     1       4.215  -1.738  -0.795  1.00  0.00     0.041 C 
ATOM     31  C   UNL     1       4.338  -0.218  -0.955  1.00  0.00     0.095 C 
BRANCH  31  32
ATOM     32  N   UNL     1       5.480   0.336  -0.239  1.00  0.00    -0.291 N 
ATOM     33  C   UNL     1       5.679   0.329   1.114  1.00  0.00     0.295 A 
ATOM     34  C   UNL     1       6.552   1.003  -0.796  1.00  0.00     0.072 A 
ATOM     35  N   UNL     1       6.773   0.937   1.480  1.00  0.00    -0.195 NA
ATOM     36  C   UNL     1       6.911   1.327  -2.113  1.00  0.00     0.029 A 
ATOM     37  C   UNL     1       7.333   1.368   0.302  1.00  0.00     0.092 A 
ATOM     38  C   UNL     1       8.100   2.046  -2.294  1.00  0.00     0.002 A 
ATOM     39  C   UNL     1       8.520   2.088   0.098  1.00  0.00     0.031 A 
ATOM     40  C   UNL     1       8.892   2.423  -1.210  1.00  0.00     0.002 A 
BRANCH  33  41
ATOM     41  O   UNL     1       4.866  -0.217   1.995  1.00  0.00    -0.480 OA
ATOM     42  H   UNL     1       5.324  -0.005   2.829  1.00  0.00     0.296 HD
ENDBRANCH  33  41
ENDBRANCH  31  32
ENDBRANCH   1  26
TORSDOF 7
