MODEL        5USER    Run = 5USERUSER    Estimated Free Energy of Binding    =  -9.17 kcal/mol  [=(1)+(2)+(3)-(4)]USERUSER    (1) Final Intermolecular Energy     = -12.45 kcal/molUSER        vdW + Hbond + desolv Energy     = -11.99 kcal/molUSER        Electrostatic Energy            =  -0.46 kcal/molUSER        Moving Ligand-Fixed Receptor    = -12.45 kcal/molUSER        Moving Ligand-Moving Receptor   =  +0.00 kcal/molUSER    (2) Final Total Internal Energy     =  -2.92 kcal/molUSER    (3) Torsional Free Energy           =  +3.28 kcal/molUSER    (4) Unbound System's Energy         =  -2.92 kcal/molUSERUSERREMARK SMILES C[C@H](O)NC[C@H]1C(=O)N[C@H](c2c(F)cc(N(C)C)cc2F)N1C(=O)CN1CCC(c2ccc(O)c3c2CCC3)CC1REMARK SMILES IDX 6 1 7 2 8 3 9 4 10 5 22 6 5 8 4 9 2 11 1 12 3 13 23 15 24 16REMARK SMILES IDX 25 17 26 18 27 19 41 20 28 21 40 22 29 23 30 24 31 25 36 26REMARK SMILES IDX 32 27 35 28 37 29 33 30 39 31 38 32 34 33 11 35 12 36 20 37REMARK SMILES IDX 14 38 19 39 15 40 13 41 21 42 16 43 17 44 18 45REMARK H PARENT 9 7 4 10 3 14 34 34USER                              x       y       z     vdW  Elec       q    TypeUSER                           _______ _______ _______ _____ _____    ______ ____ROOTATOM      1  C   UNL     1      43.069  46.477  21.732 -0.26 +0.06    +0.190 C  ATOM      2  C   UNL     1      44.342  47.199  22.151 -0.23 +0.12    +0.246 C  ATOM      3  O   UNL     1      45.468  46.980  21.739 -0.77 -0.37    -0.273 OA ATOM      4  N   UNL     1      44.011  48.230  22.998 -0.18 -0.08    -0.330 N  ATOM      5  C   UNL     1      42.663  48.135  23.451 -0.28 +0.04    +0.219 C  ATOM      6  N   UNL     1      42.117  47.024  22.705 -0.12 -0.04    -0.303 N  ATOM      7  H   UNL     1      44.728  48.790  23.439 +0.02 +0.05    +0.166 HD ENDROOTBRANCH   1   8ATOM      8  C   UNL     1      42.797  46.899  20.265 -0.40 +0.03    +0.118 C  BRANCH   8   9ATOM      9  N   UNL     1      41.637  46.223  19.667 -0.24 -0.03    -0.290 NA ATOM     10  H   UNL     1      40.923  46.111  20.394 +0.07 +0.01    +0.125 HD BRANCH   9  11ATOM     11  C   UNL     1      41.059  46.992  18.580 -0.40 -0.01    +0.179 C  ATOM     12  C   UNL     1      40.648  46.061  17.447 -0.50 -0.00    +0.056 C  BRANCH  11  13ATOM     13  O   UNL     1      42.055  47.859  18.090 -0.43 +0.01    -0.379 OA ATOM     14  H   UNL     1      42.520  47.317  17.433 -0.44 -0.06    +0.212 HD ENDBRANCH  11  13ENDBRANCH   9  11ENDBRANCH   8   9ENDBRANCH   1   8BRANCH   6  15ATOM     15  C   UNL     1      40.821  46.613  22.932 -0.15 +0.02    +0.239 C  ATOM     16  O   UNL     1      40.450  45.507  22.536 -0.14 -0.02    -0.273 OA BRANCH  15  17ATOM     17  C   UNL     1      39.872  47.644  23.588 -0.16 +0.02    +0.185 C  BRANCH  17  18ATOM     18  N   UNL     1      39.624  47.349  25.014 -0.11 -0.02    -0.294 NA ATOM     19  C   UNL     1      38.733  48.335  25.627 -0.32 +0.01    +0.085 C  ATOM     20  C   UNL     1      39.219  45.953  25.245 -0.19 +0.00    +0.085 C  ATOM     21  C   UNL     1      38.532  48.022  27.111 -0.27 -0.00    +0.024 C  ATOM     22  C   UNL     1      37.926  45.788  26.046 -0.32 -0.00    +0.024 C  ATOM     23  C   UNL     1      37.963  46.606  27.344 -0.28 -0.00    +0.022 C  BRANCH  23  24ATOM     24  C   UNL     1      36.593  46.593  28.003 -0.30 +0.01    -0.041 A  ATOM     25  C   UNL     1      35.957  47.785  28.403 -0.35 -0.00    +0.008 A  ATOM     26  C   UNL     1      35.892  45.403  28.205 -0.32 +0.01    -0.038 A  ATOM     27  C   UNL     1      34.693  47.773  29.016 -0.37 -0.01    +0.047 A  ATOM     28  C   UNL     1      34.626  45.396  28.812 -0.46 +0.00    -0.003 A  ATOM     29  C   UNL     1      36.320  43.998  27.895 -0.48 -0.01    +0.036 C  ATOM     30  C   UNL     1      34.031  46.570  29.227 -0.34 -0.02    +0.119 A  ATOM     31  C   UNL     1      34.110  44.000  28.966 -0.57 -0.01    +0.040 C  ATOM     32  C   UNL     1      34.985  43.247  27.960 -0.65 -0.00    +0.010 C  BRANCH  30  33ATOM     33  O   UNL     1      32.811  46.521  29.824 -0.71 +0.01    -0.508 OA ATOM     34  H   UNL     1      32.780  45.740  30.398 -0.25 -0.12    +0.293 HD ENDBRANCH  30  33ENDBRANCH  23  24ENDBRANCH  17  18ENDBRANCH  15  17ENDBRANCH   6  15BRANCH   5  35ATOM     35  C   UNL     1      42.638  47.945  24.944 -0.20 +0.01    +0.066 A  ATOM     36  C   UNL     1      42.070  48.910  25.766 -0.24 +0.01    +0.135 A  ATOM     37  C   UNL     1      43.188  46.835  25.575 -0.04 +0.01    +0.135 A  ATOM     38  C   UNL     1      42.035  48.771  27.160 -0.18 +0.00    +0.065 A  ATOM     39  C   UNL     1      43.159  46.687  26.965 -0.05 +0.00    +0.065 A  ATOM     40  C   UNL     1      42.570  47.646  27.801 -0.12 +0.00    +0.042 A  ATOM     41  F   UNL     1      41.548  50.019  25.226 -0.03 -0.05    -0.206 F  ATOM     42  F   UNL     1      43.775  45.871  24.850 +0.01 -0.02    -0.206 F  BRANCH  40  43ATOM     43  N   UNL     1      42.568  47.493  29.190 -0.06 -0.03    -0.377 N  ATOM     44  C   UNL     1      41.636  48.260  30.013 -0.09 +0.00    +0.143 C  ATOM     45  C   UNL     1      42.950  46.183  29.729 -0.07 +0.01    +0.143 C  ENDBRANCH  40  43ENDBRANCH   5  35TORSDOF 11TERENDMDL