MODEL        8USER    Run = 8USERUSER    Estimated Free Energy of Binding    = -11.48 kcal/mol  [=(1)+(2)+(3)-(4)]USERUSER    (1) Final Intermolecular Energy     = -14.76 kcal/molUSER        vdW + Hbond + desolv Energy     = -14.41 kcal/molUSER        Electrostatic Energy            =  -0.35 kcal/molUSER        Moving Ligand-Fixed Receptor    = -14.76 kcal/molUSER        Moving Ligand-Moving Receptor   =  +0.00 kcal/molUSER    (2) Final Total Internal Energy     =  -3.13 kcal/molUSER    (3) Torsional Free Energy           =  +3.28 kcal/molUSER    (4) Unbound System's Energy         =  -3.13 kcal/molUSERUSERREMARK SMILES C[C@H](O)NC[C@H]1C(=O)N[C@H](c2c(F)cccc2F)N1C(=O)CN1CCC(c2ccc(OC3CC3)c3c2CC[C@H]3F)CC1REMARK SMILES IDX 6 1 7 2 8 3 9 4 10 5 19 6 5 8 4 9 2 11 1 12 3 13 20 15 21 16REMARK SMILES IDX 22 17 23 18 24 19 42 20 25 21 41 22 26 23 27 24 28 25 36 26REMARK SMILES IDX 29 27 35 28 37 29 30 30 39 31 38 32 40 33 31 34 32 35 33 36REMARK SMILES IDX 34 37 11 38 12 39 17 40 14 41 16 42 15 43 13 44 18 45REMARK H PARENT 9 7 4 10 3 14USER                              x       y       z     vdW  Elec       q    TypeUSER                           _______ _______ _______ _____ _____    ______ ____ROOTATOM      1  C   UNL     1      39.677  47.180  17.610 -0.27 -0.04    +0.190 C  ATOM      2  C   UNL     1      40.609  47.856  16.610 -0.41 -0.04    +0.246 C  ATOM      3  O   UNL     1      41.443  48.715  16.846 -0.96 -0.00    -0.273 OA ATOM      4  N   UNL     1      40.402  47.324  15.364 -0.24 +0.05    -0.330 N  ATOM      5  C   UNL     1      39.328  46.390  15.341 -0.34 -0.05    +0.219 C  ATOM      6  N   UNL     1      38.911  46.289  16.721 -0.21 +0.08    -0.303 N  ATOM      7  H   UNL     1      40.924  47.625  14.556 +0.13 -0.01    +0.166 HD ENDROOTBRANCH   1   8ATOM      8  C   UNL     1      40.515  46.433  18.673 -0.43 -0.01    +0.118 C  BRANCH   8   9ATOM      9  N   UNL     1      41.905  46.213  18.234 -0.24 -0.00    -0.290 NA ATOM     10  H   UNL     1      42.078  46.698  17.356 -0.41 -0.03    +0.125 HD BRANCH   9  11ATOM     11  C   UNL     1      42.902  46.718  19.161 -0.27 +0.05    +0.179 C  ATOM     12  C   UNL     1      42.459  46.814  20.618 -0.39 +0.01    +0.056 C  BRANCH  11  13ATOM     13  O   UNL     1      43.327  47.984  18.692 -0.30 -0.02    -0.379 OA ATOM     14  H   UNL     1      43.267  47.955  17.723 -0.27 -0.01    +0.212 HD ENDBRANCH  11  13ENDBRANCH   9  11ENDBRANCH   8   9ENDBRANCH   1   8BRANCH   6  15ATOM     15  C   UNL     1      37.951  45.362  17.072 -0.26 -0.07    +0.239 C  ATOM     16  O   UNL     1      38.282  44.221  17.411 -0.21 +0.05    -0.273 OA BRANCH  15  17ATOM     17  C   UNL     1      36.477  45.803  17.011 -0.29 -0.09    +0.185 C  BRANCH  17  18ATOM     18  N   UNL     1      35.555  44.681  17.304 -0.11 +0.12    -0.294 NA ATOM     19  C   UNL     1      34.216  45.194  17.618 -0.36 -0.05    +0.085 C  ATOM     20  C   UNL     1      35.514  43.715  16.195 -0.39 -0.03    +0.085 C  ATOM     21  C   UNL     1      33.269  44.058  18.010 -0.37 -0.01    +0.024 C  ATOM     22  C   UNL     1      34.610  42.528  16.532 -0.48 -0.01    +0.024 C  ATOM     23  C   UNL     1      33.197  43.001  16.899 -0.39 -0.01    +0.022 C  BRANCH  23  24ATOM     24  C   UNL     1      32.294  41.835  17.255 -0.25 +0.02    -0.041 A  ATOM     25  C   UNL     1      32.784  40.725  17.969 -0.42 -0.00    +0.008 A  ATOM     26  C   UNL     1      30.949  41.804  16.881 -0.29 +0.01    -0.035 A  ATOM     27  C   UNL     1      31.956  39.641  18.305 -0.42 -0.00    +0.047 A  ATOM     28  C   UNL     1      30.121  40.717  17.216 -0.32 -0.00    +0.032 A  ATOM     29  C   UNL     1      30.148  42.845  16.151 -0.33 -0.02    +0.039 C  ATOM     30  C   UNL     1      30.617  39.638  17.920 -0.29 +0.01    +0.126 A  ATOM     31  C   UNL     1      28.717  40.947  16.754 -0.23 -0.02    +0.201 C  ATOM     32  C   UNL     1      28.926  42.037  15.699 -0.29 -0.02    +0.047 C  ATOM     33  F   UNL     1      28.113  39.881  16.169 -0.03 -0.08    -0.242 F  BRANCH  30  34ATOM     34  O   UNL     1      29.784  38.615  18.272 -0.14 -0.16    -0.490 OA BRANCH  34  35ATOM     35  C   UNL     1      29.507  38.605  19.690 -0.28 +0.02    +0.173 C  ATOM     36  C   UNL     1      29.076  37.271  20.240 -0.35 +0.00    +0.049 C  ATOM     37  C   UNL     1      28.068  38.372  20.068 -0.30 -0.00    +0.049 C  ENDBRANCH  34  35ENDBRANCH  30  34ENDBRANCH  23  24ENDBRANCH  17  18ENDBRANCH  15  17ENDBRANCH   6  15BRANCH   5  38ATOM     38  C   UNL     1      38.258  46.850  14.388 -0.40 -0.02    +0.066 A  ATOM     39  C   UNL     1      37.818  48.176  14.431 -0.43 -0.07    +0.133 A  ATOM     40  C   UNL     1      37.647  46.000  13.461 -0.34 -0.04    +0.133 A  ATOM     41  C   UNL     1      36.827  48.651  13.571 -0.42 -0.02    +0.040 A  ATOM     42  C   UNL     1      36.653  46.456  12.594 -0.60 -0.02    +0.040 A  ATOM     43  C   UNL     1      36.243  47.788  12.645 -0.65 -0.00    +0.006 A  ATOM     44  F   UNL     1      38.345  49.024  15.327 -0.15 +0.15    -0.206 F  ATOM     45  F   UNL     1      38.008  44.709  13.383 -0.01 +0.06    -0.206 F  ENDBRANCH   5  38TORSDOF 11TERENDMDL