REMARK SMILES CO[C@H]1CCCN(c2cc(Nc3cc(C)[nH]n3)nc(C)c2CCNC(=O)N2CC2)C1
REMARK SMILES IDX 8 1 9 2 10 3 18 4 19 5 20 6 21 7 7 8 3 9 4 10 30 11 5 12
REMARK SMILES IDX 6 13 2 14 1 15 22 16 23 17 24 18 25 19 27 20 28 21 29 22
REMARK SMILES IDX 26 24 11 25 12 27 13 28 17 29 14 30 16 31 15 32
REMARK H PARENT 24 23 11 26 16 33
ROOT
ATOM      1  C   UNL     1      -0.847   0.814  -0.595  1.00  0.00     0.046 A 
ATOM      2  C   UNL     1      -2.243   0.818  -0.723  1.00  0.00     0.073 A 
ATOM      3  C   UNL     1      -2.999  -0.293  -0.371  1.00  0.00     0.133 A 
ATOM      4  N   UNL     1      -2.409  -1.382   0.148  1.00  0.00    -0.236 NA
ATOM      5  C   UNL     1      -1.060  -1.407   0.292  1.00  0.00     0.045 A 
ATOM      6  C   UNL     1      -0.530  -2.674   0.905  1.00  0.00     0.067 C 
ATOM      7  C   UNL     1      -0.224  -0.339  -0.082  1.00  0.00    -0.001 A 
ENDROOT
BRANCH   1   8
ATOM      8  N   UNL     1      -0.197   1.995  -0.969  1.00  0.00    -0.369 N 
ATOM      9  C   UNL     1       1.227   3.946  -0.271  1.00  0.00     0.137 C 
ATOM     10  C   UNL     1       0.890   4.468  -1.671  1.00  0.00     0.036 C 
ATOM     11  C   UNL     1       0.193   2.873   0.154  1.00  0.00     0.148 C 
ATOM     12  C   UNL     1       0.812   3.351  -2.721  1.00  0.00     0.024 C 
ATOM     13  C   UNL     1       0.700   1.949  -2.119  1.00  0.00     0.117 C 
BRANCH   9  14
ATOM     14  O   UNL     1       2.571   3.437  -0.323  1.00  0.00    -0.380 OA
ATOM     15  C   UNL     1       3.182   3.308   0.953  1.00  0.00     0.195 C 
ENDBRANCH   9  14
ENDBRANCH   1   8
BRANCH   7  16
ATOM     16  C   UNL     1       1.277  -0.451   0.073  1.00  0.00     0.061 C 
BRANCH  16  17
ATOM     17  C   UNL     1       1.934  -1.205  -1.088  1.00  0.00     0.122 C 
BRANCH  17  18
ATOM     18  N   UNL     1       3.378  -1.099  -1.067  1.00  0.00    -0.338 N 
ATOM     19  C   UNL     1       4.151  -1.761  -0.142  1.00  0.00     0.317 C 
ATOM     20  N   UNL     1       5.508  -1.566  -0.408  1.00  0.00    -0.321 N 
ATOM     21  C   UNL     1       6.432  -1.372   0.674  1.00  0.00     0.143 C 
ATOM     22  C   UNL     1       6.456  -2.611  -0.142  1.00  0.00     0.143 C 
ATOM     23  H   UNL     1       3.868  -0.775  -1.889  1.00  0.00     0.165 HD
ATOM     24  O   UNL     1       3.696  -2.413   0.790  1.00  0.00    -0.249 OA
ENDBRANCH  17  18
ENDBRANCH  16  17
ENDBRANCH   7  16
BRANCH   3  25
ATOM     25  N   UNL     1      -4.399  -0.214  -0.515  1.00  0.00    -0.323 N 
ATOM     26  H   UNL     1      -4.658   0.320  -1.334  1.00  0.00     0.170 HD
BRANCH  25  27
ATOM     27  C   UNL     1      -5.361  -1.066  -0.106  1.00  0.00     0.153 A 
ATOM     28  C   UNL     1      -5.258  -2.027   0.927  1.00  0.00     0.071 A 
ATOM     29  N   UNL     1      -6.589  -1.058  -0.635  1.00  0.00    -0.158 NA
ATOM     30  C   UNL     1      -6.491  -2.635   0.993  1.00  0.00     0.034 A 
ATOM     31  N   UNL     1      -7.243  -2.020   0.035  1.00  0.00    -0.281 N 
ATOM     32  C   UNL     1      -7.020  -3.713   1.855  1.00  0.00     0.066 C 
ATOM     33  H   UNL     1      -8.210  -2.200  -0.213  1.00  0.00     0.190 HD
ENDBRANCH  25  27
ENDBRANCH   3  25
TORSDOF 7
