MODEL        2USER    Run = 2USERUSER    Estimated Free Energy of Binding    = -12.41 kcal/mol  [=(1)+(2)+(3)-(4)]USERUSER    (1) Final Intermolecular Energy     = -14.79 kcal/molUSER        vdW + Hbond + desolv Energy     = -14.19 kcal/molUSER        Electrostatic Energy            =  -0.61 kcal/molUSER        Moving Ligand-Fixed Receptor    = -14.79 kcal/molUSER        Moving Ligand-Moving Receptor   =  +0.00 kcal/molUSER    (2) Final Total Internal Energy     =  -2.20 kcal/molUSER    (3) Torsional Free Energy           =  +2.39 kcal/molUSER    (4) Unbound System's Energy         =  -2.20 kcal/molUSERUSERREMARK SMILES CO[C@H]1CCCN(c2cc(Nc3cc(C)[nH]n3)nc(C)c2CCNC(=O)c2cc(C)no2)C1REMARK SMILES IDX 22 1 21 2 8 3 9 4 10 5 19 6 18 7 20 8 7 9 3 10 4 11 33 12REMARK SMILES IDX 5 13 6 14 2 15 1 16 11 17 12 19 13 20 17 21 14 22 16 23REMARK SMILES IDX 15 24 23 26 24 27 25 28 26 30 27 31 28 32 32 33 29 34 31 35REMARK SMILES IDX 30 36REMARK H PARENT 11 18 16 25 24 29USER                              x       y       z     vdW  Elec       q    TypeUSER                           _______ _______ _______ _____ _____    ______ ____ROOTATOM      1  C   UNL     1      35.877  44.567  17.714 -0.33 -0.02    +0.061 C  ENDROOTBRANCH   1   2ATOM      2  C   UNL     1      37.229  45.158  17.381 -0.35 +0.00    -0.001 A  ATOM      3  C   UNL     1      37.480  45.718  16.112 -0.33 -0.02    +0.046 A  ATOM      4  C   UNL     1      38.727  46.307  15.893 -0.36 -0.02    +0.073 A  ATOM      5  C   UNL     1      39.697  46.331  16.892 -0.36 -0.02    +0.133 A  ATOM      6  C   UNL     1      38.240  45.244  18.350 -0.36 -0.01    +0.045 A  ATOM      7  N   UNL     1      39.444  45.816  18.109 -0.27 +0.03    -0.236 NA ATOM      8  C   UNL     1      38.064  44.710  19.744 -0.37 -0.00    +0.067 C  BRANCH   3   9ATOM      9  N   UNL     1      36.504  45.661  15.110 -0.11 +0.19    -0.369 N  ATOM     10  C   UNL     1      36.395  47.342  13.182 -0.57 -0.07    +0.137 C  ATOM     11  C   UNL     1      36.467  46.139  12.238 -0.69 -0.01    +0.036 C  ATOM     12  C   UNL     1      35.931  46.924  14.598 -0.32 -0.13    +0.148 C  ATOM     13  C   UNL     1      37.286  45.009  12.855 -0.49 -0.01    +0.024 C  ATOM     14  C   UNL     1      36.656  44.551  14.163 -0.30 -0.04    +0.117 C  BRANCH  10  15ATOM     15  O   UNL     1      37.666  48.003  13.262 -0.73 +0.10    -0.380 OA ATOM     16  C   UNL     1      37.808  48.841  14.401 -0.33 -0.13    +0.195 C  ENDBRANCH  10  15ENDBRANCH   3   9BRANCH   5  17ATOM     17  N   UNL     1      40.925  46.963  16.605 -0.19 +0.04    -0.323 N  ATOM     18  H   UNL     1      41.641  46.706  17.271 -0.25 -0.02    +0.170 HD BRANCH  17  19ATOM     19  C   UNL     1      41.175  48.125  15.970 -0.24 -0.01    +0.153 A  ATOM     20  C   UNL     1      41.338  48.314  14.578 -0.22 -0.00    +0.071 A  ATOM     21  N   UNL     1      41.340  49.275  16.633 -0.98 +0.00    -0.158 NA ATOM     22  C   UNL     1      41.594  49.657  14.411 -0.64 -0.01    +0.034 A  ATOM     23  N   UNL     1      41.577  50.180  15.672 -0.42 +0.03    -0.281 N  ATOM     24  C   UNL     1      41.843  50.478  13.208 -0.49 -0.02    +0.066 C  ATOM     25  H   UNL     1      41.726  51.145  15.949 -0.40 -0.07    +0.190 HD ENDBRANCH  17  19ENDBRANCH   5  17ENDBRANCH   1   2BRANCH   1  26ATOM     26  C   UNL     1      34.926  45.629  18.273 -0.39 -0.06    +0.121 C  BRANCH  26  27ATOM     27  N   UNL     1      33.868  45.966  17.337 -0.13 +0.34    -0.349 N  ATOM     28  C   UNL     1      33.168  44.987  16.650 -0.18 -0.18    +0.289 C  ATOM     29  H   UNL     1      33.736  46.937  17.106 -0.39 -0.36    +0.163 HD ATOM     30  O   UNL     1      33.402  43.795  16.830 -0.18 +0.11    -0.266 OA BRANCH  28  31ATOM     31  C   UNL     1      32.178  45.480  15.721 -0.20 -0.16    +0.224 A  ATOM     32  C   UNL     1      32.166  45.722  14.363 -0.27 -0.06    +0.083 A  ATOM     33  O   UNL     1      30.950  45.803  16.223 -0.67 +0.06    -0.351 OA ATOM     34  C   UNL     1      30.865  46.203  14.093 -0.51 -0.05    +0.081 A  ATOM     35  N   UNL     1      30.127  46.252  15.206 -0.52 +0.02    -0.084 NA ATOM     36  C   UNL     1      30.288  46.628  12.799 -0.63 -0.04    +0.070 C  ENDBRANCH  28  31ENDBRANCH  26  27ENDBRANCH   1  26TORSDOF 8TERENDMDL