MODEL        5USER    Run = 5USERUSER    Estimated Free Energy of Binding    = -10.66 kcal/mol  [=(1)+(2)+(3)-(4)]USERUSER    (1) Final Intermolecular Energy     = -12.75 kcal/molUSER        vdW + Hbond + desolv Energy     = -12.47 kcal/molUSER        Electrostatic Energy            =  -0.27 kcal/molUSER        Moving Ligand-Fixed Receptor    = -12.75 kcal/molUSER        Moving Ligand-Moving Receptor   =  +0.00 kcal/molUSER    (2) Final Total Internal Energy     =  -0.99 kcal/molUSER    (3) Torsional Free Energy           =  +2.09 kcal/molUSER    (4) Unbound System's Energy         =  -0.99 kcal/molUSERUSERREMARK SMILES Cc1nc(-c2nc3cc(O)ccc3nc2-c2ccc(CN3CCC(n4c(O)nc5ccccc54)CC3)cc2)co1REMARK SMILES IDX 20 1 19 2 16 3 17 4 38 5 18 6 37 7 15 8 5 9 6 10 7 11 14 12REMARK SMILES IDX 8 13 13 14 9 15 12 16 11 17 4 18 2 19 3 20 40 21 39 22 1 23REMARK SMILES IDX 10 24 21 26 22 27 36 28 23 29 35 30 24 31 25 32 26 33 34 34REMARK SMILES IDX 28 35 33 36 29 37 32 38 30 39 31 40 27 41REMARK H PARENT 10 25 27 42USER                              x       y       z     vdW  Elec       q    TypeUSER                           _______ _______ _______ _____ _____    ______ ____ROOTATOM      1  C   UNL     1      32.413  42.703  18.762 -0.34 -0.01    +0.120 C  ENDROOTBRANCH   1   2ATOM      2  C   UNL     1      33.813  43.197  19.064 -0.37 +0.00    -0.034 A  ATOM      3  C   UNL     1      36.443  44.116  19.606 -0.39 -0.00    +0.002 A  ATOM      4  C   UNL     1      35.468  44.979  19.084 -0.30 -0.00    +0.011 A  ATOM      5  C   UNL     1      36.064  42.789  19.877 -0.42 -0.00    +0.011 A  ATOM      6  C   UNL     1      34.172  44.527  18.810 -0.39 -0.00    +0.006 A  ATOM      7  C   UNL     1      34.769  42.333  19.608 -0.41 -0.00    +0.006 A  BRANCH   3   8ATOM      8  C   UNL     1      37.819  44.561  19.887 -0.28 -0.01    +0.099 A  ATOM      9  C   UNL     1      38.502  44.365  21.091 -0.28 +0.00    +0.119 A  ATOM     10  N   UNL     1      39.753  44.860  21.306 -0.18 -0.01    -0.242 NA ATOM     11  C   UNL     1      40.320  45.540  20.294 -0.32 +0.00    +0.093 A  ATOM     12  N   UNL     1      38.393  45.275  18.875 -0.24 +0.03    -0.244 NA ATOM     13  C   UNL     1      41.598  46.054  20.458 -0.32 +0.01    +0.076 A  ATOM     14  C   UNL     1      39.636  45.752  19.073 -0.36 -0.01    +0.090 A  ATOM     15  C   UNL     1      42.203  46.779  19.436 -0.40 +0.02    +0.117 A  ATOM     16  C   UNL     1      40.260  46.477  18.065 -0.46 -0.00    +0.034 A  ATOM     17  C   UNL     1      41.541  46.997  18.239 -0.48 -0.00    +0.048 A  BRANCH   9  18ATOM     18  C   UNL     1      37.912  43.702  22.231 -0.28 +0.01    +0.130 A  ATOM     19  C   UNL     1      36.942  43.339  24.080 -0.24 +0.02    +0.191 A  ATOM     20  N   UNL     1      37.343  44.336  23.317 -0.25 -0.03    -0.212 NA ATOM     21  O   UNL     1      37.207  42.092  23.575 -0.20 -0.03    -0.449 OA ATOM     22  C   UNL     1      37.819  42.339  22.382 -0.25 +0.02    +0.228 A  ATOM     23  C   UNL     1      36.262  43.387  25.390 -0.30 +0.00    +0.111 C  ENDBRANCH   9  18BRANCH  15  24ATOM     24  O   UNL     1      43.452  47.302  19.577 -0.25 -0.16    -0.508 OA ATOM     25  H   UNL     1      43.393  48.273  19.563 -0.40 -0.04    +0.293 HD ENDBRANCH  15  24ENDBRANCH   3   8ENDBRANCH   1   2BRANCH   1  26ATOM     26  N   UNL     1      32.322  41.950  17.498 -0.14 +0.10    -0.299 NA ATOM     27  C   UNL     1      32.793  40.561  17.610 -0.32 -0.03    +0.087 C  ATOM     28  C   UNL     1      30.967  42.003  16.933 -0.31 -0.03    +0.087 C  ATOM     29  C   UNL     1      31.856  39.649  18.400 -0.48 -0.00    +0.041 C  ATOM     30  C   UNL     1      29.942  41.155  17.689 -0.28 -0.00    +0.041 C  ATOM     31  C   UNL     1      30.435  39.709  17.823 -0.36 +0.01    +0.095 C  BRANCH  31  32ATOM     32  N   UNL     1      29.504  38.859  18.554 -0.19 -0.07    -0.291 N  ATOM     33  C   UNL     1      29.768  37.629  19.091 -0.17 +0.11    +0.295 A  ATOM     34  C   UNL     1      28.174  39.125  18.804 -0.23 +0.01    +0.072 A  ATOM     35  N   UNL     1      28.731  37.076  19.655 -0.18 -0.03    -0.195 NA ATOM     36  C   UNL     1      27.332  40.208  18.507 -0.21 +0.00    +0.029 A  ATOM     37  C   UNL     1      27.722  37.993  19.484 -0.21 +0.00    +0.092 A  ATOM     38  C   UNL     1      25.996  40.112  18.920 -0.26 -0.00    +0.002 A  ATOM     39  C   UNL     1      26.381  37.918  19.889 -0.26 -0.01    +0.031 A  ATOM     40  C   UNL     1      25.525  38.988  19.598 -0.30 -0.00    +0.002 A  BRANCH  33  41ATOM     41  O   UNL     1      30.938  37.024  19.056 -0.69 -0.26    -0.480 OA ATOM     42  H   UNL     1      31.251  37.273  18.167 +0.21 +0.13    +0.296 HD ENDBRANCH  33  41ENDBRANCH  31  32ENDBRANCH   1  26TORSDOF 7TERENDMDL