MODEL        2USER    Run = 2USERUSER    Estimated Free Energy of Binding    = -10.83 kcal/mol  [=(1)+(2)+(3)-(4)]USERUSER    (1) Final Intermolecular Energy     = -12.92 kcal/molUSER        vdW + Hbond + desolv Energy     = -12.70 kcal/molUSER        Electrostatic Energy            =  -0.22 kcal/molUSER        Moving Ligand-Fixed Receptor    = -12.92 kcal/molUSER        Moving Ligand-Moving Receptor   =  +0.00 kcal/molUSER    (2) Final Total Internal Energy     =  -1.78 kcal/molUSER    (3) Torsional Free Energy           =  +2.09 kcal/molUSER    (4) Unbound System's Energy         =  -1.78 kcal/molUSERUSERREMARK SMILES CO[C@H]1CCCN(c2cc(Nc3cc(C)[nH]n3)nc(C)c2CCNC(=O)N2CC2)C1REMARK SMILES IDX 8 1 9 2 10 3 18 4 19 5 20 6 21 7 7 8 3 9 4 10 30 11 5 12REMARK SMILES IDX 6 13 2 14 1 15 22 16 23 17 24 18 25 19 27 20 28 21 29 22REMARK SMILES IDX 26 24 11 25 12 27 13 28 17 29 14 30 16 31 15 32REMARK H PARENT 24 23 11 26 16 33USER                              x       y       z     vdW  Elec       q    TypeUSER                           _______ _______ _______ _____ _____    ______ ____ROOTATOM      1  C   UNL     1      39.471  47.388  15.965 -0.46 -0.01    +0.046 A  ATOM      2  C   UNL     1      39.992  48.594  15.475 -0.51 -0.02    +0.073 A  ATOM      3  C   UNL     1      41.111  49.179  16.053 -0.47 -0.02    +0.133 A  ATOM      4  N   UNL     1      41.750  48.574  17.067 -0.74 -0.02    -0.236 NA ATOM      5  C   UNL     1      41.272  47.400  17.553 -0.44 -0.00    +0.045 A  ATOM      6  C   UNL     1      42.091  46.817  18.671 -0.54 +0.00    +0.067 C  ATOM      7  C   UNL     1      40.120  46.769  17.049 -0.49 +0.00    -0.001 A  ENDROOTBRANCH   1   8ATOM      8  N   UNL     1      38.349  46.891  15.293 -0.14 +0.15    -0.369 N  ATOM      9  C   UNL     1      36.357  47.379  13.838 -0.47 -0.09    +0.137 C  ATOM     10  C   UNL     1      35.988  45.928  14.159 -0.47 -0.02    +0.036 C  ATOM     11  C   UNL     1      37.359  47.913  14.893 -0.45 -0.10    +0.148 C  ATOM     12  C   UNL     1      37.212  45.007  14.252 -0.43 -0.01    +0.024 C  ATOM     13  C   UNL     1      38.537  45.759  14.391 -0.36 -0.03    +0.117 C  BRANCH   9  14ATOM     14  O   UNL     1      36.892  47.392  12.503 -0.74 +0.13    -0.380 OA ATOM     15  C   UNL     1      36.139  46.618  11.580 -0.46 -0.10    +0.195 C  ENDBRANCH   9  14ENDBRANCH   1   8BRANCH   7  16ATOM     16  C   UNL     1      39.623  45.479  17.665 -0.42 -0.01    +0.061 C  BRANCH  16  17ATOM     17  C   UNL     1      38.433  45.695  18.605 -0.31 -0.02    +0.122 C  BRANCH  17  18ATOM     18  N   UNL     1      37.226  46.060  17.893 -0.09 +0.12    -0.338 N  ATOM     19  C   UNL     1      36.007  45.484  18.168 -0.15 -0.12    +0.317 C  ATOM     20  N   UNL     1      35.000  46.085  17.410 -0.19 +0.26    -0.321 N  ATOM     21  C   UNL     1      33.949  45.284  16.847 -0.29 -0.11    +0.143 C  ATOM     22  C   UNL     1      33.679  46.238  17.951 -0.39 -0.12    +0.143 C  ATOM     23  H   UNL     1      37.189  46.932  17.385 +0.09 -0.09    +0.165 HD ATOM     24  O   UNL     1      35.848  44.562  18.958 -0.25 +0.05    -0.249 OA ENDBRANCH  17  18ENDBRANCH  16  17ENDBRANCH   7  16BRANCH   3  25ATOM     25  N   UNL     1      41.587  50.386  15.501 -0.40 +0.06    -0.323 N  ATOM     26  H   UNL     1      41.792  51.067  16.220 -0.44 -0.06    +0.170 HD BRANCH  25  27ATOM     27  C   UNL     1      42.250  50.609  14.349 -0.48 -0.03    +0.153 A  ATOM     28  C   UNL     1      43.264  51.570  14.127 -0.09 -0.02    +0.071 A  ATOM     29  N   UNL     1      42.036  49.874  13.252 -0.52 +0.04    -0.158 NA ATOM     30  C   UNL     1      43.652  51.406  12.817 -0.37 -0.02    +0.034 A  ATOM     31  N   UNL     1      42.882  50.384  12.343 -0.45 +0.12    -0.281 N  ATOM     32  C   UNL     1      44.658  52.101  11.986 -0.43 -0.03    +0.066 C  ATOM     33  H   UNL     1      42.884  49.978  11.414 -0.36 -0.11    +0.190 HD ENDBRANCH  25  27ENDBRANCH   3  25TORSDOF 7TERENDMDL