MODEL        5USER    Run = 5USERUSER    Estimated Free Energy of Binding    =  -8.84 kcal/mol  [=(1)+(2)+(3)-(4)]USERUSER    (1) Final Intermolecular Energy     = -13.01 kcal/molUSER        vdW + Hbond + desolv Energy     = -13.32 kcal/molUSER        Electrostatic Energy            =  -0.17 kcal/molUSER        Moving Ligand-Fixed Receptor    = -13.49 kcal/molUSER        Moving Ligand-Moving Receptor   =  +0.48 kcal/molUSER    (2) Final Total Internal Energy     =  -2.63 kcal/molUSER    (3) Torsional Free Energy           =  +4.18 kcal/molUSER    (4) Unbound System's Energy         =  -2.63 kcal/molUSERUSERREMARK SMILES COc1ccc(O)c(C(=O)c2ccc(C(=O)N[C@@H]3CCCN(C)C[C@H]3NC(=O)c3ccnc(Cl)c3)cc2)c1ClREMARK SMILES IDX 15 1 16 2 17 3 14 5 11 6 12 7 37 8 13 9 36 10 9 11 10 12REMARK SMILES IDX 8 13 3 14 4 15 38 16 5 17 6 18 39 19 2 20 1 21 7 22 18 24REMARK SMILES IDX 19 25 25 27 24 28 22 29 23 30 21 31 20 32 26 34 27 35 28 37REMARK SMILES IDX 29 38 30 39 35 40 31 41 33 42 32 43 34 44REMARK H PARENT 17 4 7 23 26 36REMARK Flexibility Score:   88.900USER                              x       y       z     vdW  Elec       q    TypeUSER                           _______ _______ _______ _____ _____    ______ ____ROOTATOM      1  C   UNL     1      35.883  43.090  19.341 -0.27 -0.03    +0.251 C  ATOM      2  O   UNL     1      36.803  43.330  18.565 -0.10 +0.04    -0.269 OA ATOM      3  N   UNL     1      34.566  43.030  18.938 -0.14 +0.05    -0.347 N  ATOM      4  H   UNL     1      33.826  43.084  19.629 +0.11 -0.00    +0.164 HD ENDROOTBRANCH   1   5ATOM      5  C   UNL     1      36.167  42.881  20.792 -0.43 +0.00    +0.039 A  ATOM      6  C   UNL     1      36.780  42.610  23.526 -0.38 +0.00    +0.023 A  ATOM      7  C   UNL     1      37.054  43.811  22.862 -0.33 +0.00    +0.013 A  ATOM      8  C   UNL     1      36.225  41.538  22.813 -0.45 +0.00    +0.013 A  ATOM      9  C   UNL     1      36.740  43.945  21.506 -0.36 +0.00    +0.014 A  ATOM     10  C   UNL     1      35.921  41.670  21.453 -0.47 +0.00    +0.014 A  BRANCH   6  11ATOM     11  C   UNL     1      37.138  42.399  24.953 -0.31 -0.00    +0.198 C  ATOM     12  O   UNL     1      38.180  41.809  25.239 -0.15 -0.01    -0.288 OA BRANCH  11  13ATOM     13  C   UNL     1      36.370  42.993  26.068 -0.34 -0.01    +0.087 A  ATOM     14  C   UNL     1      35.839  44.770  27.651 -0.23 -0.04    +0.138 A  ATOM     15  C   UNL     1      34.909  43.924  28.271 -0.56 -0.01    +0.052 A  ATOM     16  C   UNL     1      36.569  44.301  26.535 -0.31 -0.01    +0.097 A  ATOM     17  C   UNL     1      34.680  42.640  27.773 -0.52 -0.01    +0.051 A  ATOM     18  C   UNL     1      35.392  42.189  26.668 -0.41 -0.03    +0.128 A  ATOM     19  Cl  UNL     1      37.658  45.388  25.723 -0.43 -0.00    -0.079 Cl BRANCH  14  20ATOM     20  O   UNL     1      36.099  46.053  28.065 -0.16 +0.14    -0.495 OA ATOM     21  C   UNL     1      35.099  46.721  28.826 -0.25 -0.07    +0.278 C  ENDBRANCH  14  20BRANCH  18  22ATOM     22  O   UNL     1      35.081  40.935  26.213 -0.23 +0.23    -0.507 OA ATOM     23  H   UNL     1      35.923  40.465  26.022 -0.23 -0.20    +0.293 HD ENDBRANCH  18  22ENDBRANCH  11  13ENDBRANCH   6  11ENDBRANCH   1   5BRANCH   3  24ATOM     24  C   UNL     1      34.165  43.396  17.579 -0.31 -0.04    +0.106 C  BRANCH  24  25ATOM     25  C   UNL     1      34.471  44.874  17.277 -0.36 -0.01    +0.028 CG0ATOM     26  G   UNL     1      33.244  45.769  17.098 +0.00 +0.00    +0.000 G0 ENDBRANCH  24  25BRANCH  24  27ATOM     27  C   UNL     1      32.700  42.987  17.293 -0.30 -0.04    +0.118 C  BRANCH  27  28ATOM     28  C   UNL     1      32.204  43.266  15.854 -0.32 -0.06    +0.111 C  BRANCH  28  29ATOM     29  N   UNL     1      31.530  44.572  15.667 -0.20 +0.15    -0.304 NA ATOM     30  C   UNL     1      30.911  44.606  14.334 -0.35 -0.08    +0.105 C  BRANCH  29  31ATOM     31  C   UNL     1      32.512  45.671  15.760 -0.16 -0.08    +0.084 C  BRANCH  31  32ATOM     32  C   UNL     1      33.243  45.767  17.099 -0.27 -0.02    +0.018 CG0ATOM     33  G   UNL     1      34.472  44.873  17.270 +0.00 +0.00    +0.000 G0 ENDBRANCH  31  32ENDBRANCH  29  31ENDBRANCH  28  29ENDBRANCH  27  28BRANCH  27  34ATOM     34  N   UNL     1      32.496  41.568  17.639 -0.15 +0.11    -0.346 N  ATOM     35  C   UNL     1      32.160  41.172  18.916 -0.26 -0.00    +0.251 C  ATOM     36  H   UNL     1      32.373  40.917  16.873 -0.34 -0.10    +0.164 HD ATOM     37  O   UNL     1      31.995  41.952  19.846 -0.30 -0.03    -0.269 OA BRANCH  35  38ATOM     38  C   UNL     1      31.964  39.714  19.128 -0.27 +0.01    +0.044 A  ATOM     39  C   UNL     1      32.382  38.837  18.123 -0.38 -0.00    +0.034 A  ATOM     40  C   UNL     1      31.350  39.211  20.274 -0.38 +0.01    +0.054 A  ATOM     41  C   UNL     1      32.191  37.481  18.320 -0.24 +0.02    +0.113 A  ATOM     42  C   UNL     1      31.209  37.840  20.364 -0.40 +0.02    +0.129 A  ATOM     43  N   UNL     1      31.619  36.964  19.425 -0.72 -0.08    -0.245 NA ATOM     44  Cl  UNL     1      30.471  37.124  21.737 -0.65 -0.00    -0.062 Cl ENDBRANCH  35  38ENDBRANCH  27  34ENDBRANCH  24  27ENDBRANCH   3  24TORSDOF 8TERENDMDL