MODEL        9USER    Run = 9USERUSER    Estimated Free Energy of Binding    =  -7.15 kcal/mol  [=(1)+(2)+(3)-(4)]USERUSER    (1) Final Intermolecular Energy     = -11.32 kcal/molUSER        vdW + Hbond + desolv Energy     = -11.11 kcal/molUSER        Electrostatic Energy            =  -0.45 kcal/molUSER        Moving Ligand-Fixed Receptor    = -11.56 kcal/molUSER        Moving Ligand-Moving Receptor   =  +0.23 kcal/molUSER    (2) Final Total Internal Energy     =  -3.06 kcal/molUSER    (3) Torsional Free Energy           =  +4.18 kcal/molUSER    (4) Unbound System's Energy         =  -3.06 kcal/molUSERUSERREMARK SMILES COc1ccc(O)c(C(=O)c2ccc(C(=O)N[C@@H]3CCCN(C)C[C@H]3NC(=O)c3ccnc(Cl)c3F)cc2)c1FREMARK SMILES IDX 15 1 16 2 17 3 14 5 11 6 12 7 38 8 13 9 37 10 9 11 10 12REMARK SMILES IDX 8 13 3 14 4 15 39 16 5 17 6 18 40 19 2 20 1 21 7 22 18 24REMARK SMILES IDX 19 25 25 27 24 28 22 29 23 30 21 31 20 32 26 34 27 35 28 37REMARK SMILES IDX 29 38 30 39 35 40 31 41 33 42 32 43 36 44 34 45REMARK H PARENT 17 4 7 23 26 36REMARK Flexibility Score:   88.900USER                              x       y       z     vdW  Elec       q    TypeUSER                           _______ _______ _______ _____ _____    ______ ____ROOTATOM      1  C   UNL     1      37.580  44.077  21.484 -0.28 +0.01    +0.251 C  ATOM      2  O   UNL     1      36.656  44.468  22.190 -0.18 -0.04    -0.269 OA ATOM      3  N   UNL     1      37.480  43.928  20.118 -0.14 +0.02    -0.347 N  ATOM      4  H   UNL     1      38.302  43.681  19.583 +0.10 -0.01    +0.164 HD ENDROOTBRANCH   1   5ATOM      5  C   UNL     1      38.900  43.774  22.093 -0.27 +0.00    +0.039 A  ATOM      6  C   UNL     1      41.342  43.208  23.340 -0.24 +0.00    +0.023 A  ATOM      7  C   UNL     1      40.160  42.627  23.816 -0.09 +0.00    +0.013 A  ATOM      8  C   UNL     1      41.304  44.060  22.229 -0.26 +0.00    +0.013 A  ATOM      9  C   UNL     1      38.940  42.922  23.203 -0.28 +0.00    +0.014 A  ATOM     10  C   UNL     1      40.083  44.351  21.613 -0.28 +0.00    +0.014 A  BRANCH   6  11ATOM     11  C   UNL     1      42.619  42.850  24.001 -0.16 -0.01    +0.199 C  ATOM     12  O   UNL     1      42.580  42.283  25.095 -0.12 +0.03    -0.288 OA BRANCH  11  13ATOM     13  C   UNL     1      43.944  43.087  23.389 -0.19 +0.01    +0.104 A  ATOM     14  C   UNL     1      45.633  44.570  22.439 -0.11 +0.11    +0.155 A  ATOM     15  C   UNL     1      46.472  43.476  22.229 -0.22 +0.03    +0.053 A  ATOM     16  C   UNL     1      44.374  44.364  23.024 -0.12 +0.05    +0.179 A  ATOM     17  C   UNL     1      46.066  42.196  22.615 -0.25 +0.00    +0.051 A  ATOM     18  C   UNL     1      44.817  42.008  23.203 -0.23 -0.00    +0.130 A  ATOM     19  F   UNL     1      43.588  45.430  23.250 -0.01 -0.05    -0.202 F  BRANCH  14  20ATOM     20  O   UNL     1      45.926  45.868  22.116 -0.30 -0.72    -0.494 OA ATOM     21  C   UNL     1      46.478  46.684  23.143 -0.09 +0.16    +0.278 C  ENDBRANCH  14  20BRANCH  18  22ATOM     22  O   UNL     1      44.511  40.727  23.579 -0.51 +0.04    -0.507 OA ATOM     23  H   UNL     1      43.973  40.776  24.404 +0.09 -0.01    +0.293 HD ENDBRANCH  18  22ENDBRANCH  11  13ENDBRANCH   6  11ENDBRANCH   1   5BRANCH   3  24ATOM     24  C   UNL     1      36.298  44.387  19.364 -0.36 -0.02    +0.106 C  BRANCH  24  25ATOM     25  C   UNL     1      35.147  43.415  19.649 -0.46 -0.00    +0.028 CG0ATOM     26  G   UNL     1      33.750  44.014  19.509 +0.00 +0.00    +0.000 G0 ENDBRANCH  24  25BRANCH  24  27ATOM     27  C   UNL     1      36.622  44.478  17.842 -0.31 -0.03    +0.118 C  BRANCH  27  28ATOM     28  C   UNL     1      35.410  44.788  16.932 -0.29 -0.05    +0.111 C  BRANCH  28  29ATOM     29  N   UNL     1      34.227  43.911  17.065 -0.09 +0.13    -0.304 NA ATOM     30  C   UNL     1      33.524  43.866  15.774 -0.25 -0.05    +0.105 C  BRANCH  29  31ATOM     31  C   UNL     1      33.316  44.419  18.100 -0.35 -0.03    +0.084 C  BRANCH  31  32ATOM     32  C   UNL     1      33.751  44.014  19.505 -0.48 -0.00    +0.018 CG0ATOM     33  G   UNL     1      35.147  43.415  19.649 +0.00 +0.00    +0.000 G0 ENDBRANCH  31  32ENDBRANCH  29  31ENDBRANCH  28  29ENDBRANCH  27  28BRANCH  27  34ATOM     34  N   UNL     1      37.662  45.492  17.602 -0.15 +0.10    -0.346 N  ATOM     35  C   UNL     1      38.997  45.283  17.847 -0.29 -0.04    +0.254 C  ATOM     36  H   UNL     1      37.337  46.405  17.281 +0.09 -0.07    +0.164 HD ATOM     37  O   UNL     1      39.443  44.229  18.290 -0.25 +0.02    -0.269 OA BRANCH  35  38ATOM     38  C   UNL     1      39.917  46.420  17.601 -0.42 -0.01    +0.080 A  ATOM     39  C   UNL     1      40.923  46.672  18.543 -0.47 -0.00    +0.037 A  ATOM     40  C   UNL     1      39.826  47.229  16.475 -0.37 -0.04    +0.173 A  ATOM     41  C   UNL     1      41.784  47.734  18.324 -0.41 -0.00    +0.114 A  ATOM     42  C   UNL     1      40.733  48.267  16.350 -0.42 -0.03    +0.165 A  ATOM     43  N   UNL     1      41.711  48.541  17.246 -0.73 -0.01    -0.241 NA ATOM     44  F   UNL     1      38.904  47.007  15.523 -0.09 +0.07    -0.203 F  ATOM     45  Cl  UNL     1      40.705  49.324  14.997 -0.88 +0.02    -0.059 Cl ENDBRANCH  35  38ENDBRANCH  27  34ENDBRANCH  24  27ENDBRANCH   3  24TORSDOF 8TERENDMDL