MODEL        7USER    Run = 7USERUSER    Estimated Free Energy of Binding    =  -6.94 kcal/mol  [=(1)+(2)+(3)-(4)]USERUSER    (1) Final Intermolecular Energy     = -11.12 kcal/molUSER        vdW + Hbond + desolv Energy     = -11.70 kcal/molUSER        Electrostatic Energy            =  +0.14 kcal/molUSER        Moving Ligand-Fixed Receptor    = -11.56 kcal/molUSER        Moving Ligand-Moving Receptor   =  +0.45 kcal/molUSER    (2) Final Total Internal Energy     =  -3.74 kcal/molUSER    (3) Torsional Free Energy           =  +4.18 kcal/molUSER    (4) Unbound System's Energy         =  -3.74 kcal/molUSERUSERREMARK SMILES COc1cc(Cl)c(O)c(C(=O)c2ccc(C(=O)N[C@@H]3CCCN(C)C[C@@H]3NC(=O)c3ccnc(Cl)c3)cc2)c1FREMARK SMILES IDX 16 1 17 2 18 3 15 5 12 6 13 7 38 8 14 9 37 10 10 11 11 12REMARK SMILES IDX 9 13 3 14 4 15 39 16 5 17 7 18 40 19 6 20 2 21 1 22 8 23REMARK SMILES IDX 19 25 20 26 21 27 26 29 25 30 23 31 24 32 22 33 27 35 28 36REMARK SMILES IDX 29 38 30 39 31 40 36 41 32 42 34 43 33 44 35 45REMARK H PARENT 18 4 8 24 27 37REMARK Flexibility Score:   88.900USER                              x       y       z     vdW  Elec       q    TypeUSER                           _______ _______ _______ _____ _____    ______ ____ROOTATOM      1  C   UNL     1      35.039  42.937  19.676 -0.31 -0.02    +0.251 C  ATOM      2  O   UNL     1      35.444  42.523  18.593 -0.27 +0.05    -0.269 OA ATOM      3  N   UNL     1      33.753  43.386  19.876 -0.18 -0.00    -0.347 N  ATOM      4  H   UNL     1      33.537  43.927  20.706 +0.01 +0.02    +0.164 HD ENDROOTBRANCH   1   5ATOM      5  C   UNL     1      35.961  42.986  20.849 -0.40 +0.00    +0.039 A  ATOM      6  C   UNL     1      37.739  43.185  23.010 -0.35 +0.00    +0.023 A  ATOM      7  C   UNL     1      37.451  44.315  22.239 -0.36 +0.00    +0.013 A  ATOM      8  C   UNL     1      37.125  41.963  22.712 -0.49 +0.00    +0.013 A  ATOM      9  C   UNL     1      36.572  44.209  21.156 -0.32 +0.00    +0.014 A  ATOM     10  C   UNL     1      36.247  41.859  21.628 -0.53 +0.00    +0.014 A  BRANCH   6  11ATOM     11  C   UNL     1      38.634  43.254  24.190 -0.19 +0.01    +0.199 C  ATOM     12  O   UNL     1      39.724  43.817  24.077 -0.09 -0.01    -0.288 OA BRANCH  11  13ATOM     13  C   UNL     1      38.313  42.627  25.490 -0.21 -0.00    +0.105 A  ATOM     14  C   UNL     1      36.698  41.984  27.200 -0.36 -0.04    +0.157 A  ATOM     15  C   UNL     1      37.729  41.421  27.955 -0.40 -0.01    +0.074 A  ATOM     16  C   UNL     1      37.003  42.592  25.975 -0.25 -0.02    +0.180 A  ATOM     17  C   UNL     1      39.047  41.477  27.494 -0.32 -0.00    +0.087 A  ATOM     18  C   UNL     1      39.346  42.091  26.272 -0.16 -0.00    +0.148 A  ATOM     19  F   UNL     1      36.011  43.167  25.277 -0.07 -0.01    -0.202 F  ATOM     20  Cl  UNL     1      40.283  40.778  28.478 -0.34 -0.00    -0.080 Cl BRANCH  14  21ATOM     21  O   UNL     1      35.374  41.995  27.548 -0.21 +0.17    -0.494 OA ATOM     22  C   UNL     1      34.816  43.232  27.974 -0.42 -0.08    +0.278 C  ENDBRANCH  14  21BRANCH  18  23ATOM     23  O   UNL     1      40.658  42.146  25.866 -0.04 +0.04    -0.505 OA ATOM     24  H   UNL     1      40.791  42.972  25.346 +0.10 -0.01    +0.293 HD ENDBRANCH  18  23ENDBRANCH  11  13ENDBRANCH   6  11ENDBRANCH   1   5BRANCH   3  25ATOM     25  C   UNL     1      32.797  43.551  18.773 -0.37 -0.02    +0.106 C  BRANCH  25  26ATOM     26  C   UNL     1      32.834  42.316  17.846 -0.40 -0.01    +0.028 C  BRANCH  26  27ATOM     27  C   UNL     1      33.475  42.558  16.479 -0.31 -0.01    +0.018 CG0ATOM     28  G   UNL     1      32.542  43.238  15.464 +0.00 +0.00    +0.000 G0 ENDBRANCH  26  27ENDBRANCH  25  26BRANCH  25  29ATOM     29  C   UNL     1      32.984  44.931  18.086 -0.30 -0.04    +0.118 C  BRANCH  29  30ATOM     30  C   UNL     1      32.017  45.175  16.896 +0.07 -0.04    +0.111 C  BRANCH  30  31ATOM     31  N   UNL     1      32.464  44.704  15.572 -0.16 +0.18    -0.304 NA ATOM     32  C   UNL     1      31.574  45.234  14.531 -0.41 -0.07    +0.105 C  BRANCH  31  33ATOM     33  C   UNL     1      32.544  43.241  15.464 -0.22 -0.05    +0.084 CG0ATOM     34  G   UNL     1      33.477  42.562  16.480 +0.00 +0.00    +0.000 G0 ENDBRANCH  31  33ENDBRANCH  30  31ENDBRANCH  29  30BRANCH  29  35ATOM     35  N   UNL     1      34.391  45.074  17.664 -0.11 +0.18    -0.346 N  ATOM     36  C   UNL     1      35.112  46.221  17.908 -0.28 -0.17    +0.251 C  ATOM     37  H   UNL     1      34.858  44.217  17.396 +0.12 -0.06    +0.164 HD ATOM     38  O   UNL     1      34.625  47.221  18.421 -0.88 +0.22    -0.269 OA BRANCH  36  39ATOM     39  C   UNL     1      36.551  46.210  17.530 -0.22 -0.02    +0.044 A  ATOM     40  C   UNL     1      37.050  46.916  16.433 -0.30 -0.02    +0.034 A  ATOM     41  C   UNL     1      37.429  45.487  18.339 -0.27 -0.01    +0.054 A  ATOM     42  C   UNL     1      38.410  46.852  16.181 -0.33 -0.05    +0.113 A  ATOM     43  C   UNL     1      38.766  45.495  17.998 -0.32 -0.02    +0.129 A  ATOM     44  N   UNL     1      39.280  46.157  16.941 -0.25 +0.05    -0.245 NA ATOM     45  Cl  UNL     1      39.919  44.643  18.934 -0.57 +0.00    -0.062 Cl ENDBRANCH  36  39ENDBRANCH  29  35ENDBRANCH  25  29ENDBRANCH   3  25TORSDOF 8TERENDMDL