REMARK SMILES COc1cc(Cl)c(O)c(C(=O)c2ccc(C(=O)N[C@@H]3CCCN(C)C[C@@H]3NC(=O)c3ccnc(Cl)c3)cc2)c1F
REMARK SMILES IDX 16 1 17 2 18 3 15 5 12 6 13 7 38 8 14 9 37 10 10 11 11 12
REMARK SMILES IDX 9 13 3 14 4 15 39 16 5 17 7 18 40 19 6 20 2 21 1 22 8 23
REMARK SMILES IDX 19 25 20 26 21 27 26 29 25 30 23 31 24 32 22 33 27 35 28 36
REMARK SMILES IDX 29 38 30 39 31 40 36 41 32 42 34 43 33 44 35 45
REMARK H PARENT 18 4 8 24 27 37
REMARK Flexibility Score:   88.900
ROOT
ATOM      1  C   UNL     1      -0.142   1.488   0.269  1.00  0.00     0.251 C 
ATOM      2  O   UNL     1       0.194   2.474  -0.382  1.00  0.00    -0.269 OA
ATOM      3  N   UNL     1      -1.446   1.238   0.634  1.00  0.00    -0.347 N 
ATOM      4  H   UNL     1      -1.638   0.552   1.355  1.00  0.00     0.164 HD
ENDROOT
BRANCH   1   5
ATOM      5  C   UNL     1       0.885   0.502   0.715  1.00  0.00     0.039 A 
ATOM      6  C   UNL     1       2.905  -1.278   1.505  1.00  0.00     0.023 A 
ATOM      7  C   UNL     1       3.230   0.040   1.170  1.00  0.00     0.013 A 
ATOM      8  C   UNL     1       1.571  -1.699   1.463  1.00  0.00     0.013 A 
ATOM      9  C   UNL     1       2.222   0.921   0.766  1.00  0.00     0.014 A 
ATOM     10  C   UNL     1       0.564  -0.817   1.058  1.00  0.00     0.014 A 
BRANCH   6  11
ATOM     11  C   UNL     1       3.932  -2.239   1.974  1.00  0.00     0.199 C 
ATOM     12  O   UNL     1       3.648  -3.013   2.889  1.00  0.00    -0.288 OA
BRANCH  11  13
ATOM     13  C   UNL     1       5.310  -2.280   1.438  1.00  0.00     0.105 A 
ATOM     14  C   UNL     1       6.882  -2.034  -0.410  1.00  0.00     0.157 A 
ATOM     15  C   UNL     1       7.935  -2.353   0.449  1.00  0.00     0.074 A 
ATOM     16  C   UNL     1       5.574  -2.010   0.093  1.00  0.00     0.180 A 
ATOM     17  C   UNL     1       7.679  -2.655   1.790  1.00  0.00     0.087 A 
ATOM     18  C   UNL     1       6.370  -2.635   2.285  1.00  0.00     0.148 A 
ATOM     19  F   UNL     1       4.565  -1.743  -0.751  1.00  0.00    -0.202 F 
ATOM     20  Cl  UNL     1       9.019  -3.058   2.802  1.00  0.00    -0.080 Cl
BRANCH  14  21
ATOM     21  O   UNL     1       7.006  -1.726  -1.738  1.00  0.00    -0.494 OA
ATOM     22  C   UNL     1       8.307  -1.783  -2.308  1.00  0.00     0.278 C 
ENDBRANCH  14  21
BRANCH  18  23
ATOM     23  O   UNL     1       6.159  -2.960   3.603  1.00  0.00    -0.505 OA
ATOM     24  H   UNL     1       5.199  -3.143   3.731  1.00  0.00     0.293 HD
ENDBRANCH  18  23
ENDBRANCH  11  13
ENDBRANCH   6  11
ENDBRANCH   1   5
BRANCH   3  25
ATOM     25  C   UNL     1      -2.526   2.207   0.408  1.00  0.00     0.106 C 
BRANCH  25  26
ATOM     26  C   UNL     1      -2.763   3.048   1.682  1.00  0.00     0.028 C 
BRANCH  26  27
ATOM     27  C   UNL     1      -4.231   3.230   2.067  1.00  0.00     0.018 CG0
ATOM     28  G   UNL     1      -4.888   1.963   2.638  1.00  0.00     0.000 G0
ENDBRANCH  26  27
ENDBRANCH  25  26
BRANCH  25  29
ATOM     29  C   UNL     1      -3.774   1.507  -0.195  1.00  0.00     0.118 C 
BRANCH  29  30
ATOM     30  C   UNL     1      -4.419   0.455   0.748  1.00  0.00     0.111 C 
BRANCH  30  31
ATOM     31  N   UNL     1      -4.289   0.696   2.197  1.00  0.00    -0.304 NA
ATOM     32  C   UNL     1      -4.881  -0.422   2.941  1.00  0.00     0.105 C 
BRANCH  31  33
ATOM     33  C   UNL     1      -4.888   1.963   2.638  1.00  0.00     0.084 CG0
ATOM     34  G   UNL     1      -4.231   3.230   2.067  1.00  0.00     0.000 G0
ENDBRANCH  31  33
ENDBRANCH  30  31
ENDBRANCH  29  30
BRANCH  29  35
ATOM     35  N   UNL     1      -3.411   0.905  -1.492  1.00  0.00    -0.346 N 
ATOM     36  C   UNL     1      -4.362   0.454  -2.379  1.00  0.00     0.251 C 
ATOM     37  H   UNL     1      -2.454   1.047  -1.789  1.00  0.00     0.164 HD
ATOM     38  O   UNL     1      -5.562   0.453  -2.129  1.00  0.00    -0.269 OA
BRANCH  36  39
ATOM     39  C   UNL     1      -3.881  -0.037  -3.698  1.00  0.00     0.044 A 
ATOM     40  C   UNL     1      -2.565  -0.451  -3.916  1.00  0.00     0.034 A 
ATOM     41  C   UNL     1      -4.807  -0.113  -4.739  1.00  0.00     0.054 A 
ATOM     42  C   UNL     1      -2.227  -0.908  -5.179  1.00  0.00     0.113 A 
ATOM     43  C   UNL     1      -4.363  -0.588  -5.956  1.00  0.00     0.129 A 
ATOM     44  N   UNL     1      -3.098  -0.987  -6.204  1.00  0.00    -0.245 NA
ATOM     45  Cl  UNL     1      -5.427  -0.724  -7.291  1.00  0.00    -0.062 Cl
ENDBRANCH  36  39
ENDBRANCH  29  35
ENDBRANCH  25  29
ENDBRANCH   3  25
TORSDOF 8
