
     RDKit          3D

 80 85  0  0  0  0  0  0  0  0999 V2000
    7.0078   -5.1064   -0.6620 C   0  0  0  0  0  0  0  0  0  0  0  0
    6.2014   -4.2453    0.1456 O   0  0  0  0  0  0  0  0  0  0  0  0
    6.8634   -3.0798    0.4520 C   0  0  0  0  0  0  0  0  0  0  0  0
    7.7148   -3.1280    1.6224 C   0  0  0  0  0  0  0  0  0  0  0  0
    8.3318   -2.0200    2.0493 C   0  0  0  0  0  0  0  0  0  0  0  0
    9.1282   -2.0213    3.1343 F   0  0  0  0  0  0  0  0  0  0  0  0
    8.1543   -0.7232    1.3374 C   0  0  0  0  0  0  0  0  0  0  0  0
    8.7119    0.3109    1.6852 O   0  0  0  0  0  0  0  0  0  0  0  0
    7.3062   -0.7610    0.2526 N   0  0  0  0  0  0  0  0  0  0  0  0
    6.6540   -1.9032   -0.1692 C   0  0  0  0  0  0  0  0  0  0  0  0
    5.7319   -1.8227   -1.3349 C   0  0  0  0  0  0  0  0  0  0  0  0
    5.9946   -2.4008   -2.3857 O   0  0  0  0  0  0  0  0  0  0  0  0
    4.5290   -0.9543   -1.2402 C   0  0  0  0  0  0  0  0  0  0  0  0
    3.9145   -0.5427   -2.4324 C   0  0  0  0  0  0  0  0  0  0  0  0
    2.7912    0.2905   -2.3991 C   0  0  0  0  0  0  0  0  0  0  0  0
    2.2736    0.7254   -1.1734 C   0  0  0  0  0  0  0  0  0  0  0  0
    1.0839    1.6149   -1.1798 C   0  0  0  0  0  0  0  0  0  0  0  0
    0.2341    1.4962   -2.0563 O   0  0  0  0  0  0  0  0  0  0  0  0
    1.0064    2.5461   -0.1669 N   0  0  0  0  0  0  0  0  0  0  0  0
   -0.1557    3.4311   -0.0069 C   0  0  2  0  0  0  0  0  0  0  0  0
    0.2463    4.7114    0.7421 C   0  0  0  0  0  0  0  0  0  0  0  0
   -0.8603    5.2494    1.6506 C   0  0  0  0  0  0  0  0  0  0  0  0
   -2.1974    5.1158    1.0777 N   0  0  0  0  0  0  0  0  0  0  0  0
   -2.4478    6.0288   -0.0491 C   0  0  0  0  0  0  0  0  0  0  0  0
   -2.7869    7.4670    0.2347 C   0  0  0  0  0  0  0  0  0  0  0  0
   -3.8467    6.5359   -0.2728 C   0  0  0  0  0  0  0  0  0  0  0  0
   -2.5457    3.7129    0.7844 C   0  0  0  0  0  0  0  0  0  0  0  0
   -1.3524    2.7282    0.6803 C   0  0  1  0  0  0  0  0  0  0  0  0
   -1.7388    1.5012   -0.0221 N   0  0  0  0  0  0  0  0  0  0  0  0
   -2.5149    0.5351    0.5719 C   0  0  0  0  0  0  0  0  0  0  0  0
   -2.8936    0.6134    1.7362 O   0  0  0  0  0  0  0  0  0  0  0  0
   -2.9058   -0.6370   -0.2562 C   0  0  0  0  0  0  0  0  0  0  0  0
   -2.2308   -1.0061   -1.4092 C   0  0  0  0  0  0  0  0  0  0  0  0
   -2.7016   -2.1072   -2.0856 C   0  0  0  0  0  0  0  0  0  0  0  0
   -2.0668   -2.4812   -3.2065 F   0  0  0  0  0  0  0  0  0  0  0  0
   -3.7564   -2.8504   -1.6971 N   0  0  0  0  0  0  0  0  0  0  0  0
   -4.3978   -2.5177   -0.5593 C   0  0  0  0  0  0  0  0  0  0  0  0
   -5.4920   -3.2761   -0.1609 N   0  0  0  0  0  0  0  0  0  0  0  0
   -5.9178   -4.3419   -1.0845 C   0  0  0  0  0  0  0  0  0  0  0  0
   -7.1662   -5.0364   -0.5184 C   0  0  0  0  0  0  0  0  0  0  0  0
   -6.9621   -5.6505    0.7648 O   0  0  0  0  0  0  0  0  0  0  0  0
   -5.8582   -5.0915    1.4902 C   0  0  0  0  0  0  0  0  0  0  0  0
   -5.6750   -3.5798    1.2707 C   0  0  0  0  0  0  0  0  0  0  0  0
   -3.9962   -1.4031    0.1706 C   0  0  0  0  0  0  0  0  0  0  0  0
    2.8583    0.2884    0.0183 C   0  0  0  0  0  0  0  0  0  0  0  0
    3.9761   -0.5452   -0.0239 C   0  0  0  0  0  0  0  0  0  0  0  0
    4.4861   -0.9512    1.1469 F   0  0  0  0  0  0  0  0  0  0  0  0
    6.4507   -6.0339   -0.8189 H   0  0  0  0  0  0  0  0  0  0  0  0
    7.2083   -4.6573   -1.6383 H   0  0  0  0  0  0  0  0  0  0  0  0
    7.9485   -5.3579   -0.1616 H   0  0  0  0  0  0  0  0  0  0  0  0
    7.8363   -4.0654    2.1527 H   0  0  0  0  0  0  0  0  0  0  0  0
    7.1881    0.1118   -0.2448 H   0  0  0  0  0  0  0  0  0  0  0  0
    4.3084   -0.8664   -3.3957 H   0  0  0  0  0  0  0  0  0  0  0  0
    2.3260    0.6037   -3.3332 H   0  0  0  0  0  0  0  0  0  0  0  0
    1.7244    2.5773    0.5434 H   0  0  0  0  0  0  0  0  0  0  0  0
   -0.4693    3.7119   -1.0220 H   0  0  0  0  0  0  0  0  0  0  0  0
    0.5291    5.4733    0.0050 H   0  0  0  0  0  0  0  0  0  0  0  0
    1.1393    4.5458    1.3582 H   0  0  0  0  0  0  0  0  0  0  0  0
   -0.8336    4.7149    2.6085 H   0  0  0  0  0  0  0  0  0  0  0  0
   -0.6498    6.2957    1.9031 H   0  0  0  0  0  0  0  0  0  0  0  0
   -1.8614    5.8418   -0.9473 H   0  0  0  0  0  0  0  0  0  0  0  0
   -2.4054    8.2210   -0.4426 H   0  0  0  0  0  0  0  0  0  0  0  0
   -2.8547    7.7909    1.2674 H   0  0  0  0  0  0  0  0  0  0  0  0
   -4.1844    6.6562   -1.2948 H   0  0  0  0  0  0  0  0  0  0  0  0
   -4.6225    6.2274    0.4187 H   0  0  0  0  0  0  0  0  0  0  0  0
   -3.2105    3.3632    1.5838 H   0  0  0  0  0  0  0  0  0  0  0  0
   -3.1492    3.6552   -0.1313 H   0  0  0  0  0  0  0  0  0  0  0  0
   -1.0491    2.4295    1.6931 H   0  0  0  0  0  0  0  0  0  0  0  0
   -1.4943    1.4507   -1.0070 H   0  0  0  0  0  0  0  0  0  0  0  0
   -1.3622   -0.4897   -1.7908 H   0  0  0  0  0  0  0  0  0  0  0  0
   -5.1155   -5.0806   -1.2051 H   0  0  0  0  0  0  0  0  0  0  0  0
   -6.1620   -3.9222   -2.0669 H   0  0  0  0  0  0  0  0  0  0  0  0
   -7.9837   -4.3150   -0.4088 H   0  0  0  0  0  0  0  0  0  0  0  0
   -7.5077   -5.8174   -1.2051 H   0  0  0  0  0  0  0  0  0  0  0  0
   -6.0263   -5.2976    2.5518 H   0  0  0  0  0  0  0  0  0  0  0  0
   -4.9529   -5.6340    1.1941 H   0  0  0  0  0  0  0  0  0  0  0  0
   -4.8285   -3.2489    1.8838 H   0  0  0  0  0  0  0  0  0  0  0  0
   -6.5721   -3.0505    1.6131 H   0  0  0  0  0  0  0  0  0  0  0  0
   -4.5432   -1.1032    1.0604 H   0  0  0  0  0  0  0  0  0  0  0  0
    2.4461    0.5515    0.9875 H   0  0  0  0  0  0  0  0  0  0  0  0
  1  2  1  0
  2  3  1  0
  3  4  1  0
  4  5  2  0
  5  6  1  0
  5  7  1  0
  7  8  2  0
  7  9  1  0
  9 10  1  0
 10 11  1  0
 11 12  2  0
 11 13  1  0
 13 14  2  0
 14 15  1  0
 15 16  2  0
 16 17  1  0
 17 18  2  0
 17 19  1  0
 19 20  1  0
 20 21  1  0
 21 22  1  0
 22 23  1  0
 23 24  1  0
 24 25  1  0
 25 26  1  0
 23 27  1  0
 27 28  1  0
 28 29  1  0
 29 30  1  0
 30 31  2  0
 30 32  1  0
 32 33  2  0
 33 34  1  0
 34 35  1  0
 34 36  2  0
 36 37  1  0
 37 38  1  0
 38 39  1  0
 39 40  1  0
 40 41  1  0
 41 42  1  0
 42 43  1  0
 37 44  2  0
 16 45  1  0
 45 46  2  0
 46 47  1  0
 10  3  2  0
 46 13  1  0
 28 20  1  0
 44 32  1  0
 26 24  1  0
 43 38  1  0
  1 48  1  0
  1 49  1  0
  1 50  1  0
  4 51  1  0
  9 52  1  0
 14 53  1  0
 15 54  1  0
 19 55  1  0
 20 56  1  6
 21 57  1  0
 21 58  1  0
 22 59  1  0
 22 60  1  0
 24 61  1  0
 25 62  1  0
 25 63  1  0
 26 64  1  0
 26 65  1  0
 27 66  1  0
 27 67  1  0
 28 68  1  1
 29 69  1  0
 33 70  1  0
 39 71  1  0
 39 72  1  0
 40 73  1  0
 40 74  1  0
 42 75  1  0
 42 76  1  0
 43 77  1  0
 43 78  1  0
 44 79  1  0
 45 80  1  0
M  END
$$$$
