
     RDKit          3D

 82 86  0  0  0  0  0  0  0  0999 V2000
   10.0477   -0.1130    1.6659 C   0  0  0  0  0  0  0  0  0  0  0  0
    9.2999    0.2181    0.4953 O   0  0  0  0  0  0  0  0  0  0  0  0
    8.9503   -0.9083   -0.2101 C   0  0  0  0  0  0  0  0  0  0  0  0
    9.9299   -1.3923   -1.1594 C   0  0  0  0  0  0  0  0  0  0  0  0
    9.6463   -2.4379   -1.9423 C   0  0  0  0  0  0  0  0  0  0  0  0
   10.5290   -2.9194   -2.8375 F   0  0  0  0  0  0  0  0  0  0  0  0
    8.3182   -3.1099   -1.8694 C   0  0  0  0  0  0  0  0  0  0  0  0
    8.0261   -4.0798   -2.5575 O   0  0  0  0  0  0  0  0  0  0  0  0
    7.4275   -2.5526   -0.9767 N   0  0  0  0  0  0  0  0  0  0  0  0
    7.7299   -1.4759   -0.1675 C   0  0  0  0  0  0  0  0  0  0  0  0
    6.6940   -0.9527    0.7680 C   0  0  0  0  0  0  0  0  0  0  0  0
    6.8529   -0.9844    1.9828 O   0  0  0  0  0  0  0  0  0  0  0  0
    5.4509   -0.4166    0.1683 C   0  0  0  0  0  0  0  0  0  0  0  0
    5.4766    0.3187   -1.0233 C   0  0  0  0  0  0  0  0  0  0  0  0
    4.2863    0.8291   -1.5502 C   0  0  0  0  0  0  0  0  0  0  0  0
    3.0680    0.6248   -0.8863 C   0  0  0  0  0  0  0  0  0  0  0  0
    1.8284    1.1766   -1.4973 C   0  0  0  0  0  0  0  0  0  0  0  0
    1.7801    1.3772   -2.7048 O   0  0  0  0  0  0  0  0  0  0  0  0
    0.7893    1.4601   -0.6364 N   0  0  0  0  0  0  0  0  0  0  0  0
   -0.4531    2.0765   -1.1112 C   0  0  2  0  0  0  0  0  0  0  0  0
   -0.2966    3.5856   -1.3039 C   0  0  0  0  0  0  0  0  0  0  0  0
   -0.4161    4.3719    0.0017 C   0  0  0  0  0  0  0  0  0  0  0  0
   -1.5229    3.9623    0.8838 N   0  0  0  0  0  0  0  0  0  0  0  0
   -2.1957    5.1155    1.5252 C   0  0  0  0  0  0  0  0  0  0  0  0
   -3.3994    4.7281    2.3999 C   0  0  0  0  0  0  0  0  0  0  0  0
   -1.2050    5.8860    2.4164 C   0  0  0  0  0  0  0  0  0  0  0  0
   -2.4231    2.9849    0.2569 C   0  0  0  0  0  0  0  0  0  0  0  0
   -1.6434    1.7200   -0.1818 C   0  0  1  0  0  0  0  0  0  0  0  0
   -2.5272    0.7207   -0.7996 N   0  0  0  0  0  0  0  0  0  0  0  0
   -3.3996   -0.0323   -0.0425 C   0  0  0  0  0  0  0  0  0  0  0  0
   -3.4964    0.0700    1.1747 O   0  0  0  0  0  0  0  0  0  0  0  0
   -4.2478   -1.0144   -0.7637 C   0  0  0  0  0  0  0  0  0  0  0  0
   -4.5930   -0.8625   -2.0978 C   0  0  0  0  0  0  0  0  0  0  0  0
   -5.4015   -1.8313   -2.6493 C   0  0  0  0  0  0  0  0  0  0  0  0
   -5.7511   -1.7060   -3.9376 F   0  0  0  0  0  0  0  0  0  0  0  0
   -5.8792   -2.9005   -1.9819 N   0  0  0  0  0  0  0  0  0  0  0  0
   -5.5663   -3.0346   -0.6791 C   0  0  0  0  0  0  0  0  0  0  0  0
   -6.0652   -4.1269    0.0553 N   0  0  0  0  0  0  0  0  0  0  0  0
   -6.6875   -5.1948   -0.7624 C   0  0  0  0  0  0  0  0  0  0  0  0
   -8.2133   -5.0325   -0.7954 C   0  0  0  0  0  0  0  0  0  0  0  0
   -8.8221   -5.1196    0.5066 O   0  0  0  0  0  0  0  0  0  0  0  0
   -7.9242   -4.7817    1.5756 C   0  0  0  0  0  0  0  0  0  0  0  0
   -6.9153   -3.6877    1.1914 C   0  0  0  0  0  0  0  0  0  0  0  0
   -4.7454   -2.1052   -0.0458 C   0  0  0  0  0  0  0  0  0  0  0  0
    3.0436   -0.1147    0.2996 C   0  0  0  0  0  0  0  0  0  0  0  0
    4.2328   -0.6257    0.8176 C   0  0  0  0  0  0  0  0  0  0  0  0
    4.1647   -1.3611    1.9355 F   0  0  0  0  0  0  0  0  0  0  0  0
   10.2616    0.8153    2.2049 H   0  0  0  0  0  0  0  0  0  0  0  0
    9.4781   -0.7702    2.3296 H   0  0  0  0  0  0  0  0  0  0  0  0
   11.0008   -0.5835    1.4066 H   0  0  0  0  0  0  0  0  0  0  0  0
   10.8893   -0.8965   -1.2312 H   0  0  0  0  0  0  0  0  0  0  0  0
    6.5261   -3.0116   -0.9071 H   0  0  0  0  0  0  0  0  0  0  0  0
    6.4093    0.5201   -1.5466 H   0  0  0  0  0  0  0  0  0  0  0  0
    4.3090    1.3968   -2.4809 H   0  0  0  0  0  0  0  0  0  0  0  0
    0.9748    1.5097    0.3585 H   0  0  0  0  0  0  0  0  0  0  0  0
   -0.6302    1.6561   -2.1102 H   0  0  0  0  0  0  0  0  0  0  0  0
   -1.0807    3.9317   -1.9916 H   0  0  0  0  0  0  0  0  0  0  0  0
    0.6586    3.8244   -1.7872 H   0  0  0  0  0  0  0  0  0  0  0  0
    0.5185    4.2693    0.5676 H   0  0  0  0  0  0  0  0  0  0  0  0
   -0.4996    5.4295   -0.2818 H   0  0  0  0  0  0  0  0  0  0  0  0
   -2.5677    5.7970    0.7477 H   0  0  0  0  0  0  0  0  0  0  0  0
   -4.2334    4.3569    1.7964 H   0  0  0  0  0  0  0  0  0  0  0  0
   -3.7783    5.5972    2.9491 H   0  0  0  0  0  0  0  0  0  0  0  0
   -3.1310    3.9590    3.1327 H   0  0  0  0  0  0  0  0  0  0  0  0
   -0.3886    6.3284    1.8377 H   0  0  0  0  0  0  0  0  0  0  0  0
   -1.7057    6.7101    2.9345 H   0  0  0  0  0  0  0  0  0  0  0  0
   -0.7673    5.2301    3.1761 H   0  0  0  0  0  0  0  0  0  0  0  0
   -3.1847    2.6542    0.9692 H   0  0  0  0  0  0  0  0  0  0  0  0
   -2.9595    3.4287   -0.5920 H   0  0  0  0  0  0  0  0  0  0  0  0
   -1.2551    1.2502    0.7335 H   0  0  0  0  0  0  0  0  0  0  0  0
   -2.4023    0.5181   -1.7829 H   0  0  0  0  0  0  0  0  0  0  0  0
   -4.2844   -0.0231   -2.7044 H   0  0  0  0  0  0  0  0  0  0  0  0
   -6.2724   -5.2574   -1.7742 H   0  0  0  0  0  0  0  0  0  0  0  0
   -6.4441   -6.1514   -0.2823 H   0  0  0  0  0  0  0  0  0  0  0  0
   -8.4951   -4.0667   -1.2289 H   0  0  0  0  0  0  0  0  0  0  0  0
   -8.6620   -5.8141   -1.4148 H   0  0  0  0  0  0  0  0  0  0  0  0
   -7.4060   -5.6962    1.8850 H   0  0  0  0  0  0  0  0  0  0  0  0
   -8.5337   -4.4507    2.4219 H   0  0  0  0  0  0  0  0  0  0  0  0
   -7.4812   -2.7867    0.9183 H   0  0  0  0  0  0  0  0  0  0  0  0
   -6.2843   -3.4560    2.0568 H   0  0  0  0  0  0  0  0  0  0  0  0
   -4.4787   -2.2352    0.9995 H   0  0  0  0  0  0  0  0  0  0  0  0
    2.1181   -0.3351    0.8214 H   0  0  0  0  0  0  0  0  0  0  0  0
  1  2  1  0
  2  3  1  0
  3  4  1  0
  4  5  2  0
  5  6  1  0
  5  7  1  0
  7  8  2  0
  7  9  1  0
  9 10  1  0
 10 11  1  0
 11 12  2  0
 11 13  1  0
 13 14  2  0
 14 15  1  0
 15 16  2  0
 16 17  1  0
 17 18  2  0
 17 19  1  0
 19 20  1  0
 20 21  1  0
 21 22  1  0
 22 23  1  0
 23 24  1  0
 24 25  1  0
 24 26  1  0
 23 27  1  0
 27 28  1  0
 28 29  1  0
 29 30  1  0
 30 31  2  0
 30 32  1  0
 32 33  2  0
 33 34  1  0
 34 35  1  0
 34 36  2  0
 36 37  1  0
 37 38  1  0
 38 39  1  0
 39 40  1  0
 40 41  1  0
 41 42  1  0
 42 43  1  0
 37 44  2  0
 16 45  1  0
 45 46  2  0
 46 47  1  0
 10  3  2  0
 46 13  1  0
 28 20  1  0
 44 32  1  0
 43 38  1  0
  1 48  1  0
  1 49  1  0
  1 50  1  0
  4 51  1  0
  9 52  1  0
 14 53  1  0
 15 54  1  0
 19 55  1  0
 20 56  1  6
 21 57  1  0
 21 58  1  0
 22 59  1  0
 22 60  1  0
 24 61  1  0
 25 62  1  0
 25 63  1  0
 25 64  1  0
 26 65  1  0
 26 66  1  0
 26 67  1  0
 27 68  1  0
 27 69  1  0
 28 70  1  1
 29 71  1  0
 33 72  1  0
 39 73  1  0
 39 74  1  0
 40 75  1  0
 40 76  1  0
 42 77  1  0
 42 78  1  0
 43 79  1  0
 43 80  1  0
 44 81  1  0
 45 82  1  0
M  END
$$$$
