MODEL        10USER    Run = 10USERUSER    Estimated Free Energy of Binding    = -10.13 kcal/mol  [=(1)+(2)+(3)-(4)]USERUSER    (1) Final Intermolecular Energy     = -12.22 kcal/molUSER        vdW + Hbond + desolv Energy     = -12.12 kcal/molUSER        Electrostatic Energy            =  -0.10 kcal/molUSER        Moving Ligand-Fixed Receptor    = -12.22 kcal/molUSER        Moving Ligand-Moving Receptor   =  +0.00 kcal/molUSER    (2) Final Total Internal Energy     =  -2.16 kcal/molUSER    (3) Torsional Free Energy           =  +2.09 kcal/molUSER    (4) Unbound System's Energy         =  -2.16 kcal/molUSERUSERREMARK SMILES CC(=O)N[C@H]1C[C@H]1S(=O)(=O)Nc1cc(-c2ccnc(N)c2)cc(-c2nc(F)cs2)c1REMARK SMILES IDX 11 1 8 3 9 4 10 5 7 6 5 7 6 8 4 9 2 10 1 11 3 12 12 14 13 15REMARK SMILES IDX 30 16 14 17 23 18 22 19 15 20 16 21 21 22 17 23 19 24 18 25REMARK SMILES IDX 20 26 24 29 25 30 29 31 26 32 28 33 27 34REMARK H PARENT 11 2 4 13 20 27 20 28USER                              x       y       z     vdW  Elec       q    TypeUSER                           _______ _______ _______ _____ _____    ______ ____ROOTATOM      1  N   UNL     1      37.758  45.520  14.028 -0.22 +0.09    -0.283 N  ATOM      2  H   UNL     1      38.634  45.355  13.529 +0.13 -0.04    +0.180 HD ENDROOTBRANCH   1   3ATOM      3  S   UNL     1      37.060  46.990  13.561 -0.55 -0.11    +0.237 S  ATOM      4  O   UNL     1      35.716  46.747  13.076 -0.48 +0.13    -0.206 OA ATOM      5  O   UNL     1      38.049  47.632  12.723 -0.94 +0.02    -0.206 OA BRANCH   3   6ATOM      6  C   UNL     1      36.948  48.027  15.038 -0.40 -0.13    +0.154 C  ATOM      7  C   UNL     1      38.165  48.850  15.365 -0.45 -0.07    +0.103 C  ATOM      8  C   UNL     1      36.936  49.511  14.797 -0.24 -0.05    +0.050 C  BRANCH   7   9ATOM      9  N   UNL     1      39.382  48.863  14.608 -0.21 +0.16    -0.352 N  ATOM     10  C   UNL     1      40.622  49.047  15.182 -0.51 -0.06    +0.217 C  ATOM     11  C   UNL     1      41.757  49.065  14.192 -0.40 -0.01    +0.114 C  ATOM     12  O   UNL     1      40.805  49.201  16.385 -0.64 +0.05    -0.275 OA ATOM     13  H   UNL     1      39.315  48.817  13.589 -0.00 -0.05    +0.163 HD ENDBRANCH   7   9ENDBRANCH   3   6ENDBRANCH   1   3BRANCH   1  14ATOM     14  C   UNL     1      37.725  45.175  15.409 -0.31 -0.02    +0.050 A  ATOM     15  C   UNL     1      38.769  45.555  16.250 -0.27 -0.01    +0.035 A  ATOM     16  C   UNL     1      36.663  44.412  15.898 -0.34 -0.01    +0.038 A  ATOM     17  C   UNL     1      38.781  45.178  17.600 -0.37 +0.00    -0.015 A  ATOM     18  C   UNL     1      36.637  44.011  17.240 -0.32 -0.00    +0.013 A  ATOM     19  C   UNL     1      37.704  44.406  18.072 -0.33 -0.00    +0.020 A  BRANCH  17  20ATOM     20  C   UNL     1      39.885  45.574  18.492 -0.44 +0.00    -0.013 A  ATOM     21  C   UNL     1      40.022  45.020  19.768 -0.39 +0.00    +0.029 A  ATOM     22  C   UNL     1      40.840  46.522  18.095 -0.47 -0.00    +0.055 A  ATOM     23  C   UNL     1      41.077  45.431  20.564 -0.29 +0.01    +0.114 A  ATOM     24  C   UNL     1      41.871  46.878  18.961 -0.43 +0.01    +0.123 A  ATOM     25  N   UNL     1      41.995  46.343  20.183 -0.26 -0.04    -0.240 NA BRANCH  24  26ATOM     26  N   UNL     1      42.826  47.820  18.565 -0.27 -0.01    -0.384 N  ATOM     27  H   UNL     1      43.333  48.153  19.378 -0.46 -0.01    +0.158 HD ATOM     28  H   UNL     1      43.488  47.387  17.929 -0.50 -0.01    +0.158 HD ENDBRANCH  24  26ENDBRANCH  17  20BRANCH  18  29ATOM     29  C   UNL     1      35.547  43.202  17.826 -0.26 -0.04    +0.126 A  ATOM     30  N   UNL     1      34.879  42.283  17.155 -0.31 +0.08    -0.208 NA ATOM     31  S   UNL     1      35.019  43.423  19.457 -0.51 +0.01    -0.119 S  ATOM     32  C   UNL     1      33.921  41.717  17.962 -0.25 -0.07    +0.224 A  ATOM     33  C   UNL     1      33.841  42.200  19.244 -0.30 -0.00    +0.127 A  ATOM     34  F   UNL     1      33.107  40.747  17.517 -0.14 +0.08    -0.184 F  ENDBRANCH  18  29ENDBRANCH   1  14TORSDOF 7TERENDMDL