MODEL        10USER    Run = 10USERUSER    Estimated Free Energy of Binding    =  -9.43 kcal/mol  [=(1)+(2)+(3)-(4)]USERUSER    (1) Final Intermolecular Energy     = -11.22 kcal/molUSER        vdW + Hbond + desolv Energy     = -11.09 kcal/molUSER        Electrostatic Energy            =  -0.13 kcal/molUSER        Moving Ligand-Fixed Receptor    = -11.22 kcal/molUSER        Moving Ligand-Moving Receptor   =  +0.00 kcal/molUSER    (2) Final Total Internal Energy     =  -0.86 kcal/molUSER    (3) Torsional Free Energy           =  +1.79 kcal/molUSER    (4) Unbound System's Energy         =  -0.86 kcal/molUSERUSERREMARK SMILES C[C@@H]1CC(c2ccc(C(=O)c3cccc(C(=O)O)c3)cc2N)=CCN1REMARK SMILES IDX 11 1 12 2 13 3 14 4 15 5 19 6 9 7 10 8 8 9 5 10 6 11 21 12REMARK SMILES IDX 7 13 20 14 4 15 2 16 3 17 25 18 24 19 23 20 1 21 22 23 16 26REMARK SMILES IDX 17 27 18 28REMARK H PARENT 25 22 22 24 22 25 18 29USER                              x       y       z     vdW  Elec       q    TypeUSER                           _______ _______ _______ _____ _____    ______ ____ROOTATOM      1  C   UNL     1      28.135  37.932  20.357 -0.28 -0.00    +0.023 A  ATOM      2  C   UNL     1      27.396  38.534  19.330 -0.24 +0.00    +0.012 A  ATOM      3  C   UNL     1      28.045  39.248  18.323 -0.24 +0.00    +0.002 A  ATOM      4  C   UNL     1      29.435  39.372  18.344 -0.31 +0.00    +0.016 A  ATOM      5  C   UNL     1      30.180  38.788  19.377 -0.33 +0.01    +0.060 A  ATOM      6  C   UNL     1      29.528  38.072  20.390 -0.31 +0.00    +0.027 A  ENDROOTBRANCH   1   7ATOM      7  C   UNL     1      27.398  37.200  21.420 -0.25 -0.08    +0.193 C  ATOM      8  O   UNL     1      26.450  37.744  21.978 -0.25 +0.18    -0.289 OA BRANCH   7   9ATOM      9  C   UNL     1      27.781  35.825  21.824 -0.33 -0.01    +0.025 A  ATOM     10  C   UNL     1      28.436  33.196  22.539 -0.45 +0.00    +0.000 A  ATOM     11  C   UNL     1      29.046  34.285  23.183 -0.32 +0.00    +0.011 A  ATOM     12  C   UNL     1      27.526  33.427  21.482 -0.39 -0.02    +0.040 A  ATOM     13  C   UNL     1      28.733  35.595  22.820 -0.36 +0.00    +0.013 A  ATOM     14  C   UNL     1      27.183  34.747  21.162 -0.26 -0.03    +0.038 A  BRANCH  10  15ATOM     15  C   UNL     1      28.786  31.837  22.988 -0.50 -0.01    -0.040 C  ATOM     16  C   UNL     1      28.226  29.742  24.313 -0.62 +0.01    +0.055 C  ATOM     17  C   UNL     1      28.056  31.272  24.179 -0.51 +0.03    +0.054 C  ATOM     18  N   UNL     1      29.623  29.344  24.085 -0.69 -0.04    -0.310 NA ATOM     19  C   UNL     1      30.122  29.736  22.765 -0.50 -0.02    +0.109 C  ATOM     20  C   UNL     1      29.720  31.116  22.343 -0.59 +0.00    -0.008 C  ATOM     21  C   UNL     1      27.250  28.972  23.416 -0.66 -0.01    +0.024 C  ATOM     22  H   UNL     1      29.718  28.335  24.186 -0.40 -0.02    +0.123 HD ENDBRANCH  10  15BRANCH  12  23ATOM     23  N   UNL     1      26.803  32.379  20.881 -0.03 +0.49    -0.398 N  ATOM     24  H   UNL     1      25.881  32.667  20.565 -0.35 -0.31    +0.156 HD ATOM     25  H   UNL     1      26.776  31.528  21.433 -0.41 -0.23    +0.156 HD ENDBRANCH  12  23ENDBRANCH   7   9ENDBRANCH   1   7BRANCH   5  26ATOM     26  C   UNL     1      31.652  38.962  19.363 -0.26 +0.06    +0.335 C  ATOM     27  O   UNL     1      32.392  38.711  18.430 -0.45 -0.01    -0.246 OA BRANCH  26  28ATOM     28  O   UNL     1      32.130  39.434  20.527 -0.97 -0.22    -0.478 OA ATOM     29  H   UNL     1      31.673  40.295  20.638 +0.18 +0.08    +0.297 HD ENDBRANCH  26  28ENDBRANCH   5  26TORSDOF 6TERENDMDL