REMARK SMILES C[C@@H]1CC(c2ccc(C(=O)c3cccc(C(=O)O)c3)cc2N)=CCN1
REMARK SMILES IDX 11 1 12 2 13 3 14 4 15 5 19 6 9 7 10 8 8 9 5 10 6 11 21 12
REMARK SMILES IDX 7 13 20 14 4 15 2 16 3 17 25 18 24 19 23 20 1 21 22 23 16 26
REMARK SMILES IDX 17 27 18 28
REMARK H PARENT 25 22 22 24 22 25 18 29
ROOT
ATOM      1  C   UNL     1      -3.735  -1.587  -0.255  1.00  0.00     0.023 A 
ATOM      2  C   UNL     1      -4.727  -2.413  -0.800  1.00  0.00     0.012 A 
ATOM      3  C   UNL     1      -5.846  -1.854  -1.418  1.00  0.00     0.002 A 
ATOM      4  C   UNL     1      -5.983  -0.467  -1.483  1.00  0.00     0.016 A 
ATOM      5  C   UNL     1      -5.004   0.366  -0.925  1.00  0.00     0.060 A 
ATOM      6  C   UNL     1      -3.881  -0.195  -0.303  1.00  0.00     0.027 A 
ENDROOT
BRANCH   1   7
ATOM      7  C   UNL     1      -2.572  -2.228   0.411  1.00  0.00     0.193 C 
ATOM      8  O   UNL     1      -2.722  -3.310   0.973  1.00  0.00    -0.289 OA
BRANCH   7   9
ATOM      9  C   UNL     1      -1.232  -1.593   0.416  1.00  0.00     0.025 A 
ATOM     10  C   UNL     1       1.305  -0.408   0.514  1.00  0.00     0.000 A 
ATOM     11  C   UNL     1       0.526  -0.332  -0.652  1.00  0.00     0.011 A 
ATOM     12  C   UNL     1       0.831  -1.137   1.628  1.00  0.00     0.040 A 
ATOM     13  C   UNL     1      -0.732  -0.933  -0.709  1.00  0.00     0.013 A 
ATOM     14  C   UNL     1      -0.454  -1.692   1.575  1.00  0.00     0.038 A 
BRANCH  10  15
ATOM     15  C   UNL     1       2.612   0.273   0.522  1.00  0.00    -0.040 C 
ATOM     16  C   UNL     1       4.906   0.650  -0.505  1.00  0.00     0.055 C 
ATOM     17  C   UNL     1       3.733  -0.332  -0.283  1.00  0.00     0.054 C 
ATOM     18  N   UNL     1       5.233   1.371   0.734  1.00  0.00    -0.310 NA
ATOM     19  C   UNL     1       4.103   2.136   1.267  1.00  0.00     0.109 C 
ATOM     20  C   UNL     1       2.793   1.411   1.215  1.00  0.00    -0.008 C 
ATOM     21  C   UNL     1       4.648   1.602  -1.679  1.00  0.00     0.024 C 
ATOM     22  H   UNL     1       6.013   2.006   0.572  1.00  0.00     0.123 HD
ENDBRANCH  10  15
BRANCH  12  23
ATOM     23  N   UNL     1       1.519  -1.149   2.856  1.00  0.00    -0.398 N 
ATOM     24  H   UNL     1       2.517  -0.983   2.751  1.00  0.00     0.156 HD
ATOM     25  H   UNL     1       1.319  -1.960   3.433  1.00  0.00     0.156 HD
ENDBRANCH  12  23
ENDBRANCH   7   9
ENDBRANCH   1   7
BRANCH   5  26
ATOM     26  C   UNL     1      -5.204   1.833  -1.007  1.00  0.00     0.335 C 
ATOM     27  O   UNL     1      -6.173   2.396  -1.480  1.00  0.00    -0.246 OA
BRANCH  26  28
ATOM     28  O   UNL     1      -4.171   2.526  -0.498  1.00  0.00    -0.478 OA
ATOM     29  H   UNL     1      -4.435   3.463  -0.613  1.00  0.00     0.297 HD
ENDBRANCH  26  28
ENDBRANCH   5  26
TORSDOF 6
