MODEL        2USER    Run = 2USERUSER    Estimated Free Energy of Binding    =  -7.83 kcal/mol  [=(1)+(2)+(3)-(4)]USERUSER    (1) Final Intermolecular Energy     =  -9.03 kcal/molUSER        vdW + Hbond + desolv Energy     =  -8.97 kcal/molUSER        Electrostatic Energy            =  -0.06 kcal/molUSER        Moving Ligand-Fixed Receptor    =  -9.03 kcal/molUSER        Moving Ligand-Moving Receptor   =  +0.00 kcal/molUSER    (2) Final Total Internal Energy     =  -1.87 kcal/molUSER    (3) Torsional Free Energy           =  +1.19 kcal/molUSER    (4) Unbound System's Energy         =  -1.87 kcal/molUSERUSERREMARK SMILES NCC[C@H]1C(=O)Nc2ccc3ncnc(-c4cc(F)cc(F)c4)c3c21REMARK SMILES IDX 3 1 2 2 1 3 4 6 5 7 25 8 7 9 24 10 8 11 15 12 11 13 9 14REMARK SMILES IDX 14 15 10 16 12 17 13 18 6 19 16 21 17 22 23 23 18 24 21 25REMARK SMILES IDX 20 26 19 27 22 28REMARK H PARENT 1 4 1 5 7 20USER                              x       y       z     vdW  Elec       q    TypeUSER                           _______ _______ _______ _____ _____    ______ ____ROOTATOM      1  C   UNL     1      39.055  47.511  16.844 -0.41 -0.01    +0.033 C  ENDROOTBRANCH   1   2ATOM      2  C   UNL     1      40.209  48.148  16.058 -0.57 -0.02    +0.079 C  BRANCH   2   3ATOM      3  N   UNL     1      41.407  48.384  16.841 -0.69 +0.01    -0.330 NA ATOM      4  H   UNL     1      41.249  48.142  17.818 +0.04 -0.01    +0.118 HD ATOM      5  H   UNL     1      42.186  47.800  16.517 -0.46 -0.02    +0.118 HD ENDBRANCH   2   3ENDBRANCH   1   2BRANCH   1   6ATOM      6  C   UNL     1      39.162  45.986  17.005 -0.40 -0.02    +0.113 C  ATOM      7  C   UNL     1      40.430  45.685  17.847 -0.35 -0.01    +0.232 C  ATOM      8  C   UNL     1      38.060  45.393  17.873 -0.38 +0.00    -0.000 A  ATOM      9  N   UNL     1      40.016  45.080  19.019 -0.21 +0.01    -0.325 N  ATOM     10  C   UNL     1      36.656  45.273  17.678 -0.32 -0.01    +0.033 A  ATOM     11  C   UNL     1      38.645  44.927  19.053 -0.36 -0.00    +0.046 A  ATOM     12  C   UNL     1      35.871  45.576  16.538 -0.29 -0.05    +0.082 A  ATOM     13  C   UNL     1      35.900  44.776  18.763 -0.30 -0.02    +0.075 A  ATOM     14  C   UNL     1      37.920  44.399  20.089 -0.35 -0.00    +0.029 A  ATOM     15  N   UNL     1      34.519  45.494  16.528 -0.17 +0.19    -0.236 NA ATOM     16  C   UNL     1      36.537  44.352  19.930 -0.35 -0.00    +0.031 A  ATOM     17  N   UNL     1      34.570  44.673  18.751 -0.22 +0.07    -0.236 NA ATOM     18  C   UNL     1      33.937  45.051  17.640 -0.20 -0.12    +0.223 A  ATOM     19  O   UNL     1      41.588  45.969  17.587 -0.27 +0.01    -0.274 OA ATOM     20  H   UNL     1      40.663  44.815  19.747 +0.10 +0.01    +0.169 HD BRANCH  12  21ATOM     21  C   UNL     1      36.390  45.918  15.207 -0.37 -0.00    +0.007 A  ATOM     22  C   UNL     1      36.647  44.925  14.248 -0.37 -0.02    +0.049 A  ATOM     23  C   UNL     1      36.520  47.262  14.815 -0.37 -0.04    +0.049 A  ATOM     24  C   UNL     1      37.053  45.272  12.961 -0.39 -0.04    +0.126 A  ATOM     25  C   UNL     1      36.924  47.585  13.520 -0.47 -0.06    +0.126 A  ATOM     26  C   UNL     1      37.199  46.599  12.586 -0.53 -0.03    +0.078 A  ATOM     27  F   UNL     1      37.293  44.304  12.067 -0.17 +0.06    -0.207 F  ATOM     28  F   UNL     1      37.049  48.874  13.175 -0.15 +0.07    -0.207 F  ENDBRANCH  12  21ENDBRANCH   1   6TORSDOF 4TERENDMDL