REMARK SMILES Nc1cc(-c2cnc3[nH]occ(-c4ccc5[nH]ncc5c4)ncc3c2)ccc1F
REMARK SMILES IDX 5 1 6 2 7 3 8 4 9 5 10 6 11 7 12 8 22 9 23 10 24 11 25 12
REMARK SMILES IDX 4 14 2 15 3 16 28 17 27 18 26 19 29 20 1 21 13 24 14 25
REMARK SMILES IDX 21 26 15 27 20 28 16 29 19 30 17 31 18 32
REMARK H PARENT 9 13 1 22 1 23 17 33
ROOT
ATOM      1  C   UNL     1       2.945  -0.715   0.743  1.00  0.00     0.001 A 
ATOM      2  C   UNL     1       2.809  -1.483   1.900  1.00  0.00     0.122 A 
ATOM      3  N   UNL     1       1.714  -2.204   2.239  1.00  0.00    -0.235 NA
ATOM      4  C   UNL     1       0.664  -2.161   1.376  1.00  0.00     0.168 A 
ATOM      5  N   UNL     1      -0.535  -2.757   1.815  1.00  0.00    -0.204 N 
ATOM      6  O   UNL     1      -1.423  -1.835   2.377  1.00  0.00    -0.386 OA
ATOM      7  C   UNL     1      -2.360  -1.367   1.497  1.00  0.00     0.255 A 
ATOM      8  C   UNL     1      -2.406  -1.180   0.157  1.00  0.00     0.108 A 
ATOM      9  N   UNL     1      -1.665  -1.338  -0.958  1.00  0.00    -0.252 NA
ATOM     10  C   UNL     1      -0.360  -1.635  -0.966  1.00  0.00     0.124 A 
ATOM     11  C   UNL     1       0.709  -1.474   0.168  1.00  0.00     0.039 A 
ATOM     12  C   UNL     1       1.859  -0.738  -0.136  1.00  0.00     0.024 A 
ATOM     13  H   UNL     1      -0.209  -3.331   2.585  1.00  0.00     0.211 HD
ENDROOT
BRANCH   1  14
ATOM     14  C   UNL     1       4.165   0.051   0.452  1.00  0.00    -0.015 A 
ATOM     15  C   UNL     1       5.964   0.668  -1.096  1.00  0.00     0.068 A 
ATOM     16  C   UNL     1       4.823  -0.080  -0.787  1.00  0.00     0.037 A 
ATOM     17  C   UNL     1       6.503   1.492  -0.101  1.00  0.00     0.146 A 
ATOM     18  C   UNL     1       5.879   1.644   1.132  1.00  0.00     0.042 A 
ATOM     19  C   UNL     1       4.710   0.932   1.403  1.00  0.00     0.012 A 
ATOM     20  F   UNL     1       7.634   2.174  -0.345  1.00  0.00    -0.205 F 
BRANCH  15  21
ATOM     21  N   UNL     1       6.662   0.428  -2.294  1.00  0.00    -0.396 N 
ATOM     22  H   UNL     1       6.059   0.149  -3.062  1.00  0.00     0.156 HD
ATOM     23  H   UNL     1       7.282   1.197  -2.536  1.00  0.00     0.156 HD
ENDBRANCH  15  21
ENDBRANCH   1  14
BRANCH   8  24
ATOM     24  C   UNL     1      -3.753  -0.646  -0.223  1.00  0.00     0.004 A 
ATOM     25  C   UNL     1      -4.803  -1.529  -0.520  1.00  0.00     0.013 A 
ATOM     26  C   UNL     1      -3.969   0.744  -0.265  1.00  0.00     0.022 A 
ATOM     27  C   UNL     1      -6.081  -1.066  -0.854  1.00  0.00     0.029 A 
ATOM     28  C   UNL     1      -5.245   1.225  -0.598  1.00  0.00     0.020 A 
ATOM     29  C   UNL     1      -6.262   0.320  -0.880  1.00  0.00     0.065 A 
ATOM     30  C   UNL     1      -5.851   2.493  -0.747  1.00  0.00     0.143 A 
ATOM     31  N   UNL     1      -7.356   1.090  -1.169  1.00  0.00    -0.278 N 
ATOM     32  N   UNL     1      -7.143   2.418  -1.085  1.00  0.00    -0.183 NA
ATOM     33  H   UNL     1      -8.278   0.767  -1.431  1.00  0.00     0.190 HD
ENDBRANCH   8  24
TORSDOF 3
