REMARK SMILES NCC[C@H]1C(=O)Nc2ccc3ncnc(-c4cc(F)cc(F)c4)c3c21
REMARK SMILES IDX 3 1 2 2 1 3 4 6 5 7 25 8 7 9 24 10 8 11 15 12 11 13 9 14
REMARK SMILES IDX 14 15 10 16 12 17 13 18 6 19 16 21 17 22 23 23 18 24 21 25
REMARK SMILES IDX 20 26 19 27 22 28
REMARK H PARENT 1 4 1 5 7 20
ROOT
ATOM      1  C   UNL     1      -0.984  -0.866   1.462  1.00  0.00     0.033 C 
ENDROOT
BRANCH   1   2
ATOM      2  C   UNL     1      -1.197  -2.357   1.170  1.00  0.00     0.079 C 
BRANCH   2   3
ATOM      3  N   UNL     1      -2.449  -2.664   0.506  1.00  0.00    -0.330 NA
ATOM      4  H   UNL     1      -2.679  -3.651   0.616  1.00  0.00     0.118 HD
ATOM      5  H   UNL     1      -3.228  -2.135   0.913  1.00  0.00     0.118 HD
ENDBRANCH   2   3
ENDBRANCH   1   2
BRANCH   1   6
ATOM      6  C   UNL     1      -1.403   0.072   0.319  1.00  0.00     0.113 C 
ATOM      7  C   UNL     1      -2.857   0.538   0.595  1.00  0.00     0.232 C 
ATOM      8  C   UNL     1      -0.645   1.393   0.315  1.00  0.00    -0.000 A 
ATOM      9  N   UNL     1      -2.827   1.908   0.775  1.00  0.00    -0.325 N 
ATOM     10  C   UNL     1       0.721   1.706   0.070  1.00  0.00     0.033 A 
ATOM     11  C   UNL     1      -1.549   2.409   0.637  1.00  0.00     0.046 A 
ATOM     12  C   UNL     1       1.777   0.869  -0.366  1.00  0.00     0.082 A 
ATOM     13  C   UNL     1       1.117   3.046   0.279  1.00  0.00     0.075 A 
ATOM     14  C   UNL     1      -1.177   3.719   0.793  1.00  0.00     0.029 A 
ATOM     15  N   UNL     1       3.060   1.291  -0.472  1.00  0.00    -0.236 NA
ATOM     16  C   UNL     1       0.174   4.013   0.628  1.00  0.00     0.031 A 
ATOM     17  N   UNL     1       2.375   3.472   0.155  1.00  0.00    -0.236 NA
ATOM     18  C   UNL     1       3.294   2.573  -0.199  1.00  0.00     0.223 A 
ATOM     19  O   UNL     1      -3.858  -0.152   0.703  1.00  0.00    -0.274 OA
ATOM     20  H   UNL     1      -3.655   2.441   0.999  1.00  0.00     0.169 HD
BRANCH  12  21
ATOM     21  C   UNL     1       1.633  -0.511  -0.850  1.00  0.00     0.007 A 
ATOM     22  C   UNL     1       0.922  -0.800  -2.026  1.00  0.00     0.049 A 
ATOM     23  C   UNL     1       2.315  -1.565  -0.216  1.00  0.00     0.049 A 
ATOM     24  C   UNL     1       0.870  -2.102  -2.519  1.00  0.00     0.126 A 
ATOM     25  C   UNL     1       2.252  -2.859  -0.731  1.00  0.00     0.126 A 
ATOM     26  C   UNL     1       1.528  -3.141  -1.878  1.00  0.00     0.078 A 
ATOM     27  F   UNL     1       0.183  -2.350  -3.642  1.00  0.00    -0.207 F 
ATOM     28  F   UNL     1       2.903  -3.847  -0.102  1.00  0.00    -0.207 F 
ENDBRANCH  12  21
ENDBRANCH   1   6
TORSDOF 4
