MODEL        9USER    Run = 9USERUSER    Estimated Free Energy of Binding    =  -8.85 kcal/mol  [=(1)+(2)+(3)-(4)]USERUSER    (1) Final Intermolecular Energy     = -10.34 kcal/molUSER        vdW + Hbond + desolv Energy     = -10.09 kcal/molUSER        Electrostatic Energy            =  -0.25 kcal/molUSER        Moving Ligand-Fixed Receptor    = -10.34 kcal/molUSER        Moving Ligand-Moving Receptor   =  +0.00 kcal/molUSER    (2) Final Total Internal Energy     =  -0.93 kcal/molUSER    (3) Torsional Free Energy           =  +1.49 kcal/molUSER    (4) Unbound System's Energy         =  -0.93 kcal/molUSERUSERREMARK SMILES NCC[C@H]1C(=O)Nc2ccc3ncnc(-c4ccc(F)c(N)c4)c3c21REMARK SMILES IDX 4 1 5 2 6 3 7 4 8 5 9 6 10 7 11 8 12 9 13 10 14 11 15 12REMARK SMILES IDX 24 13 25 14 3 16 2 17 1 18 16 21 17 22 23 23 18 24 21 25REMARK SMILES IDX 19 26 20 27 22 28REMARK H PARENT 7 15 1 19 1 20 22 29 22 30USER                              x       y       z     vdW  Elec       q    TypeUSER                           _______ _______ _______ _____ _____    ______ ____ROOTATOM      1  C   UNL     1      39.659  47.442  16.020 -0.48 -0.03    +0.113 C  ATOM      2  C   UNL     1      41.042  48.115  16.111 -0.38 -0.03    +0.232 C  ATOM      3  O   UNL     1      41.546  48.870  15.295 -0.65 +0.01    -0.274 OA ATOM      4  N   UNL     1      41.626  47.693  17.291 -0.17 +0.03    -0.325 N  ATOM      5  C   UNL     1      40.791  46.841  17.990 -0.48 -0.00    +0.046 A  ATOM      6  C   UNL     1      41.045  46.299  19.223 -0.43 +0.00    +0.029 A  ATOM      7  C   UNL     1      40.061  45.471  19.760 -0.39 +0.00    +0.031 A  ATOM      8  C   UNL     1      38.885  45.157  19.077 -0.35 -0.01    +0.075 A  ATOM      9  N   UNL     1      38.037  44.348  19.716 -0.21 +0.01    -0.236 NA ATOM     10  C   UNL     1      36.916  44.011  19.078 -0.19 -0.03    +0.223 A  ATOM     11  N   UNL     1      36.582  44.385  17.846 -0.17 +0.06    -0.236 NA ATOM     12  C   UNL     1      37.458  45.185  17.192 -0.30 -0.03    +0.082 A  ATOM     13  C   UNL     1      38.649  45.676  17.785 -0.38 -0.01    +0.033 A  ATOM     14  C   UNL     1      39.615  46.588  17.274 -0.47 +0.00    -0.000 A  ATOM     15  H   UNL     1      42.520  48.040  17.605 -0.24 +0.00    +0.169 HD ENDROOTBRANCH   1  16ATOM     16  C   UNL     1      38.570  48.512  15.849 -0.40 -0.02    +0.033 C  BRANCH  16  17ATOM     17  C   UNL     1      37.916  48.623  14.467 -0.50 -0.05    +0.079 C  BRANCH  17  18ATOM     18  N   UNL     1      36.871  49.632  14.413 -0.13 +0.30    -0.330 NA ATOM     19  H   UNL     1      37.280  50.539  14.194 -0.46 -0.12    +0.118 HD ATOM     20  H   UNL     1      36.431  49.732  15.329 -0.24 -0.21    +0.118 HD ENDBRANCH  17  18ENDBRANCH  16  17ENDBRANCH   1  16BRANCH  12  21ATOM     21  C   UNL     1      37.058  45.387  15.790 -0.35 -0.00    +0.003 A  ATOM     22  C   UNL     1      37.994  45.227  14.751 -0.33 -0.00    +0.013 A  ATOM     23  C   UNL     1      35.766  45.843  15.460 -0.33 -0.03    +0.039 A  ATOM     24  C   UNL     1      37.642  45.480  13.425 -0.38 -0.01    +0.042 A  ATOM     25  C   UNL     1      35.380  46.046  14.130 -0.36 -0.05    +0.068 A  ATOM     26  C   UNL     1      36.349  45.897  13.130 -0.41 -0.07    +0.146 A  ATOM     27  F   UNL     1      36.024  46.145  11.851 -0.22 +0.10    -0.205 F  BRANCH  25  28ATOM     28  N   UNL     1      34.121  46.595  13.839 -0.10 +0.40    -0.396 N  ATOM     29  H   UNL     1      33.786  47.218  14.570 -0.19 -0.32    +0.156 HD ATOM     30  H   UNL     1      34.032  46.990  12.909 -0.39 -0.16    +0.156 HD ENDBRANCH  25  28ENDBRANCH  12  21TORSDOF 5TERENDMDL