REMARK SMILES CC(=O)N[C@H]1C[C@H]1S(=O)(=O)Nc1cc(-c2ccnc(N)c2)cc(-c2nc(F)cs2)c1
REMARK SMILES IDX 11 1 8 3 9 4 10 5 7 6 5 7 6 8 4 9 2 10 1 11 3 12 12 14 13 15
REMARK SMILES IDX 30 16 14 17 23 18 22 19 15 20 16 21 21 22 17 23 19 24 18 25
REMARK SMILES IDX 20 26 24 29 25 30 29 31 26 32 28 33 27 34
REMARK H PARENT 11 2 4 13 20 27 20 28
ROOT
ATOM      1  N   UNL     1       0.484  -0.292  -2.817  1.00  0.00    -0.283 N 
ATOM      2  H   UNL     1       0.462  -0.991  -3.561  1.00  0.00     0.180 HD
ENDROOT
BRANCH   1   3
ATOM      3  S   UNL     1       2.077   0.115  -2.413  1.00  0.00     0.237 S 
ATOM      4  O   UNL     1       2.080   1.372  -1.691  1.00  0.00    -0.206 OA
ATOM      5  O   UNL     1       2.833  -0.042  -3.636  1.00  0.00    -0.206 OA
BRANCH   3   6
ATOM      6  C   UNL     1       2.698  -1.173  -1.306  1.00  0.00     0.154 C 
ATOM      7  C   UNL     1       3.749  -0.748  -0.316  1.00  0.00     0.103 C 
ATOM      8  C   UNL     1       2.340  -1.018   0.146  1.00  0.00     0.050 C 
BRANCH   7   9
ATOM      9  N   UNL     1       4.284   0.577  -0.197  1.00  0.00    -0.352 N 
ATOM     10  C   UNL     1       5.460   0.855   0.467  1.00  0.00     0.217 C 
ATOM     11  C   UNL     1       5.810   2.319   0.503  1.00  0.00     0.114 C 
ATOM     12  O   UNL     1       6.163   0.004   1.002  1.00  0.00    -0.275 OA
ATOM     13  H   UNL     1       3.723   1.355  -0.548  1.00  0.00     0.163 HD
ENDBRANCH   7   9
ENDBRANCH   3   6
ENDBRANCH   1   3
BRANCH   1  14
ATOM     14  C   UNL     1      -0.455  -0.443  -1.758  1.00  0.00     0.050 A 
ATOM     15  C   UNL     1      -0.881   0.671  -1.037  1.00  0.00     0.035 A 
ATOM     16  C   UNL     1      -0.904  -1.721  -1.419  1.00  0.00     0.038 A 
ATOM     17  C   UNL     1      -1.763   0.536   0.044  1.00  0.00    -0.015 A 
ATOM     18  C   UNL     1      -1.784  -1.901  -0.343  1.00  0.00     0.013 A 
ATOM     19  C   UNL     1      -2.201  -0.760   0.372  1.00  0.00     0.020 A 
BRANCH  17  20
ATOM     20  C   UNL     1      -2.212   1.711   0.812  1.00  0.00    -0.013 A 
ATOM     21  C   UNL     1      -1.306   2.679   1.254  1.00  0.00     0.029 A 
ATOM     22  C   UNL     1      -3.565   1.902   1.130  1.00  0.00     0.055 A 
ATOM     23  C   UNL     1      -1.783   3.760   1.974  1.00  0.00     0.114 A 
ATOM     24  C   UNL     1      -3.958   3.021   1.859  1.00  0.00     0.123 A 
ATOM     25  N   UNL     1      -3.083   3.944   2.280  1.00  0.00    -0.240 NA
BRANCH  24  26
ATOM     26  N   UNL     1      -5.307   3.215   2.173  1.00  0.00    -0.384 N 
ATOM     27  H   UNL     1      -5.851   3.272   1.319  1.00  0.00     0.158 HD
ATOM     28  H   UNL     1      -5.647   2.428   2.717  1.00  0.00     0.158 HD
ENDBRANCH  24  26
ENDBRANCH  17  20
BRANCH  18  29
ATOM     29  C   UNL     1      -2.299  -3.222   0.073  1.00  0.00     0.126 A 
ATOM     30  N   UNL     1      -3.345  -3.382   0.862  1.00  0.00    -0.208 NA
ATOM     31  S   UNL     1      -1.538  -4.696  -0.415  1.00  0.00    -0.119 S 
ATOM     32  C   UNL     1      -3.567  -4.721   1.080  1.00  0.00     0.224 A 
ATOM     33  C   UNL     1      -2.695  -5.590   0.473  1.00  0.00     0.127 A 
ATOM     34  F   UNL     1      -4.580  -5.152   1.847  1.00  0.00    -0.184 F 
ENDBRANCH  18  29
ENDBRANCH   1  14
TORSDOF 7
