MODEL        1USER    Run = 1USERUSER    Estimated Free Energy of Binding    =  -9.41 kcal/mol  [=(1)+(2)+(3)-(4)]USERUSER    (1) Final Intermolecular Energy     = -10.30 kcal/molUSER        vdW + Hbond + desolv Energy     = -10.21 kcal/molUSER        Electrostatic Energy            =  -0.09 kcal/molUSER        Moving Ligand-Fixed Receptor    = -10.30 kcal/molUSER        Moving Ligand-Moving Receptor   =  +0.00 kcal/molUSER    (2) Final Total Internal Energy     =  -0.55 kcal/molUSER    (3) Torsional Free Energy           =  +0.89 kcal/molUSER    (4) Unbound System's Energy         =  -0.55 kcal/molUSERUSERREMARK SMILES Nc1cc(-c2cnc3[nH]occ(-c4ccc5[nH]ncc5c4)ncc3c2)ccc1FREMARK SMILES IDX 5 1 6 2 7 3 8 4 9 5 10 6 11 7 12 8 22 9 23 10 24 11 25 12REMARK SMILES IDX 4 14 2 15 3 16 28 17 27 18 26 19 29 20 1 21 13 24 14 25REMARK SMILES IDX 21 26 15 27 20 28 16 29 19 30 17 31 18 32REMARK H PARENT 9 13 1 22 1 23 17 33USER                              x       y       z     vdW  Elec       q    TypeUSER                           _______ _______ _______ _____ _____    ______ ____ROOTATOM      1  C   UNL     1      38.449  44.529  19.904 -0.36 -0.00    +0.001 A  ATOM      2  C   UNL     1      37.915  43.987  21.074 -0.29 +0.00    +0.122 A  ATOM      3  N   UNL     1      36.745  43.312  21.164 -0.26 -0.01    -0.235 NA ATOM      4  C   UNL     1      36.036  43.163  20.013 -0.31 -0.01    +0.168 A  ATOM      5  N   UNL     1      34.739  42.627  20.138 -0.30 -0.01    -0.204 N  ATOM      6  O   UNL     1      33.750  43.612  20.197 -0.71 -0.02    -0.386 OA ATOM      7  C   UNL     1      33.169  43.881  18.988 -0.22 -0.04    +0.255 A  ATOM      8  C   UNL     1      33.569  43.813  17.697 -0.23 -0.04    +0.108 A  ATOM      9  N   UNL     1      34.627  43.470  16.936 -0.17 +0.10    -0.252 NA ATOM     10  C   UNL     1      35.852  43.214  17.410 -0.25 -0.04    +0.124 A  ATOM     11  C   UNL     1      36.497  43.614  18.781 -0.28 -0.01    +0.039 A  ATOM     12  C   UNL     1      37.709  44.312  18.739 -0.32 -0.00    +0.024 A  ATOM     13  H   UNL     1      34.776  42.216  21.065 +0.13 +0.04    +0.211 HD ENDROOTBRANCH   1  14ATOM     14  C   UNL     1      39.723  45.261  19.892 -0.38 +0.00    -0.015 A  ATOM     15  C   UNL     1      41.295  46.764  18.759 -0.44 -0.00    +0.068 A  ATOM     16  C   UNL     1      40.103  46.031  18.775 -0.42 -0.00    +0.037 A  ATOM     17  C   UNL     1      42.161  46.641  19.852 -0.35 +0.02    +0.146 A  ATOM     18  C   UNL     1      41.816  45.889  20.970 -0.31 +0.01    +0.042 A  ATOM     19  C   UNL     1      40.598  45.208  20.991 -0.33 +0.00    +0.012 A  ATOM     20  F   UNL     1      43.341  47.281  19.839 -0.19 -0.06    -0.205 F  BRANCH  15  21ATOM     21  N   UNL     1      41.699  47.428  17.587 -0.15 +0.04    -0.396 N  ATOM     22  H   UNL     1      42.679  47.696  17.593 -0.47 -0.02    +0.156 HD ATOM     23  H   UNL     1      41.434  46.918  16.748 -0.28 -0.02    +0.156 HD ENDBRANCH  15  21ENDBRANCH   1  14BRANCH   8  24ATOM     24  C   UNL     1      32.440  44.229  16.805 -0.31 -0.00    +0.004 A  ATOM     25  C   UNL     1      31.134  43.787  17.069 -0.27 -0.00    +0.013 A  ATOM     26  C   UNL     1      32.688  45.078  15.711 -0.34 -0.02    +0.022 A  ATOM     27  C   UNL     1      30.051  44.176  16.272 -0.28 -0.01    +0.029 A  ATOM     28  C   UNL     1      31.612  45.478  14.902 -0.46 -0.01    +0.020 A  ATOM     29  C   UNL     1      30.332  45.025  15.198 -0.35 -0.04    +0.065 A  ATOM     30  C   UNL     1      31.443  46.287  13.755 -0.40 -0.09    +0.143 A  ATOM     31  N   UNL     1      29.527  45.576  14.238 -0.13 +0.26    -0.278 N  ATOM     32  N   UNL     1      30.170  46.360  13.351 -0.48 +0.12    -0.183 NA ATOM     33  H   UNL     1      28.528  45.453  14.135 -0.29 -0.24    +0.190 HD ENDBRANCH   8  24TORSDOF 3TERENDMDL