MODEL        1USER    Run = 1USERUSER    Estimated Free Energy of Binding    =  -7.71 kcal/mol  [=(1)+(2)+(3)-(4)]USERUSER    (1) Final Intermolecular Energy     = -11.88 kcal/molUSER        vdW + Hbond + desolv Energy     = -11.87 kcal/molUSER        Electrostatic Energy            =  -0.18 kcal/molUSER        Moving Ligand-Fixed Receptor    = -12.05 kcal/molUSER        Moving Ligand-Moving Receptor   =  +0.17 kcal/molUSER    (2) Final Total Internal Energy     =  -2.76 kcal/molUSER    (3) Torsional Free Energy           =  +4.18 kcal/molUSER    (4) Unbound System's Energy         =  -2.76 kcal/molUSERUSERREMARK SMILES COc1ccc(O)c(C(=O)c2ccc(C(=O)N[C@@H]3CCCNC[C@@H]3NC(=O)c3ccncc3)c(F)c2)c1FREMARK SMILES IDX 15 1 16 2 17 3 14 5 11 6 12 7 36 8 13 9 34 10 35 11 9 12REMARK SMILES IDX 10 13 8 14 3 15 4 16 37 17 5 18 6 19 38 20 2 21 1 22 7 23REMARK SMILES IDX 18 25 19 26 24 28 23 29 22 30 21 32 20 33 25 35 26 36 27 38REMARK SMILES IDX 28 39 29 40 33 41 30 42 32 43 31 44REMARK H PARENT 17 4 7 24 22 31 25 37REMARK Flexibility Score:   88.900USER                              x       y       z     vdW  Elec       q    TypeUSER                           _______ _______ _______ _____ _____    ______ ____ROOTATOM      1  C   UNL     1      40.033  46.266  16.214 -0.31 -0.04    +0.254 C  ATOM      2  O   UNL     1      41.005  46.484  15.494 -0.32 -0.01    -0.269 OA ATOM      3  N   UNL     1      38.761  46.124  15.713 -0.14 +0.10    -0.347 N  ATOM      4  H   UNL     1      38.040  45.745  16.321 +0.11 -0.05    +0.164 HD ENDROOTBRANCH   1   5ATOM      5  C   UNL     1      40.226  46.110  17.680 -0.42 -0.01    +0.075 A  ATOM      6  C   UNL     1      40.718  45.775  20.427 -0.34 +0.00    +0.026 A  ATOM      7  C   UNL     1      41.740  46.226  19.582 -0.44 +0.00    +0.013 A  ATOM      8  C   UNL     1      39.444  45.531  19.909 -0.35 -0.00    +0.052 A  ATOM      9  C   UNL     1      41.496  46.381  18.214 -0.47 -0.00    +0.017 A  ATOM     10  C   UNL     1      39.211  45.692  18.544 -0.33 -0.02    +0.136 A  ATOM     11  F   UNL     1      37.982  45.418  18.082 -0.09 +0.04    -0.206 F  BRANCH   6  12ATOM     12  C   UNL     1      40.936  45.597  21.881 -0.21 +0.02    +0.199 C  ATOM     13  O   UNL     1      41.466  44.560  22.278 -0.12 -0.02    -0.288 OA BRANCH  12  14ATOM     14  C   UNL     1      40.500  46.591  22.885 -0.17 +0.01    +0.104 A  ATOM     15  C   UNL     1      38.806  47.522  24.377 -0.29 +0.02    +0.155 A  ATOM     16  C   UNL     1      39.729  48.471  24.826 -0.30 +0.01    +0.053 A  ATOM     17  C   UNL     1      39.202  46.597  23.400 -0.22 +0.02    +0.179 A  ATOM     18  C   UNL     1      41.020  48.498  24.291 -0.32 +0.01    +0.051 A  ATOM     19  C   UNL     1      41.396  47.573  23.319 -0.18 +0.02    +0.130 A  ATOM     20  F   UNL     1      38.296  45.712  22.949 -0.11 -0.02    -0.202 F  BRANCH  15  21ATOM     21  O   UNL     1      37.512  47.407  24.805 -0.50 -0.11    -0.494 OA ATOM     22  C   UNL     1      36.968  48.494  25.541 -0.34 +0.00    +0.278 C  ENDBRANCH  15  21BRANCH  19  23ATOM     23  O   UNL     1      42.670  47.686  22.830 -0.13 -0.09    -0.507 OA ATOM     24  H   UNL     1      42.970  46.790  22.553 +0.14 +0.06    +0.293 HD ENDBRANCH  19  23ENDBRANCH  12  14ENDBRANCH   6  12ENDBRANCH   1   5BRANCH   3  25ATOM     25  C   UNL     1      38.452  46.148  14.274 -0.40 -0.03    +0.106 C  BRANCH  25  26ATOM     26  C   UNL     1      38.391  47.613  13.790 -0.53 -0.01    +0.028 CG0ATOM     27  G   UNL     1      37.023  48.284  13.929 +0.00 +0.00    +0.000 G0 ENDBRANCH  25  26BRANCH  25  28ATOM     28  C   UNL     1      37.213  45.272  13.909 -0.41 -0.04    +0.118 C  BRANCH  28  29ATOM     29  C   UNL     1      36.579  45.683  12.559 -0.56 -0.04    +0.108 C  BRANCH  29  30ATOM     30  N   UNL     1      35.542  46.726  12.595 -0.34 +0.20    -0.315 NA ATOM     31  H   UNL     1      35.019  46.671  11.718 -0.20 -0.10    +0.122 HD BRANCH  30  32ATOM     32  C   UNL     1      36.078  48.078  12.734 -0.54 -0.04    +0.081 C  BRANCH  32  33ATOM     33  C   UNL     1      37.023  48.285  13.931 -0.62 -0.01    +0.017 CG0ATOM     34  G   UNL     1      38.389  47.612  13.791 +0.00 +0.00    +0.000 G0 ENDBRANCH  32  33ENDBRANCH  30  32ENDBRANCH  29  30ENDBRANCH  28  29BRANCH  28  35ATOM     35  N   UNL     1      36.229  45.270  15.001 -0.13 +0.17    -0.346 N  ATOM     36  C   UNL     1      36.368  44.485  16.122 -0.24 -0.10    +0.251 C  ATOM     37  H   UNL     1      35.595  46.067  15.027 +0.12 -0.13    +0.164 HD ATOM     38  O   UNL     1      37.273  43.669  16.259 -0.25 +0.08    -0.269 OA BRANCH  36  39ATOM     39  C   UNL     1      35.366  44.671  17.208 -0.28 -0.02    +0.042 A  ATOM     40  C   UNL     1      34.998  43.555  17.963 -0.30 -0.01    +0.034 A  ATOM     41  C   UNL     1      34.764  45.902  17.471 -0.38 -0.03    +0.034 A  ATOM     42  C   UNL     1      34.058  43.723  18.962 -0.30 -0.02    +0.112 A  ATOM     43  C   UNL     1      33.830  45.965  18.491 -0.41 -0.07    +0.112 A  ATOM     44  N   UNL     1      33.468  44.906  19.246 -0.24 +0.08    -0.265 NA ENDBRANCH  36  39ENDBRANCH  28  35ENDBRANCH  25  28ENDBRANCH   3  25TORSDOF 8TERENDMDL