REMARK SMILES COc1cc(F)c(O)c(C(=O)c2ccc(C(=O)N[C@@H]3CCCNC[C@@H]3NC(=O)c3ccncc3)cc2)c1F
REMARK SMILES IDX 16 1 17 2 18 3 15 5 12 6 13 7 36 8 14 9 35 10 10 11 11 12
REMARK SMILES IDX 9 13 3 14 4 15 37 16 5 17 7 18 38 19 6 20 2 21 1 22 8 23
REMARK SMILES IDX 19 25 20 26 21 27 25 29 24 30 23 31 22 33 26 35 27 36 28 38
REMARK SMILES IDX 29 39 30 40 34 41 31 42 33 43 32 44
REMARK H PARENT 18 4 8 24 23 32 26 37
REMARK Flexibility Score:   88.900
ROOT
ATOM      1  C   UNL     1       0.514  -1.690   0.101  1.00  0.00     0.251 C 
ATOM      2  O   UNL     1       0.304  -2.561  -0.734  1.00  0.00    -0.269 OA
ATOM      3  N   UNL     1       1.773  -1.385   0.574  1.00  0.00    -0.347 N 
ATOM      4  H   UNL     1       1.853  -0.827   1.413  1.00  0.00     0.164 HD
ENDROOT
BRANCH   1   5
ATOM      5  C   UNL     1      -0.622  -0.899   0.659  1.00  0.00     0.039 A 
ATOM      6  C   UNL     1      -2.835   0.522   1.635  1.00  0.00     0.023 A 
ATOM      7  C   UNL     1      -3.015  -0.740   1.062  1.00  0.00     0.013 A 
ATOM      8  C   UNL     1      -1.549   1.066   1.737  1.00  0.00     0.013 A 
ATOM      9  C   UNL     1      -1.911  -1.442   0.568  1.00  0.00     0.014 A 
ATOM     10  C   UNL     1      -0.446   0.364   1.240  1.00  0.00     0.014 A 
BRANCH   6  11
ATOM     11  C   UNL     1      -3.969   1.291   2.196  1.00  0.00     0.199 C 
ATOM     12  O   UNL     1      -3.813   1.884   3.264  1.00  0.00    -0.288 OA
BRANCH  11  13
ATOM     13  C   UNL     1      -5.302   1.347   1.561  1.00  0.00     0.107 A 
ATOM     14  C   UNL     1      -6.720   1.357  -0.427  1.00  0.00     0.158 A 
ATOM     15  C   UNL     1      -7.850   1.452   0.383  1.00  0.00     0.092 A 
ATOM     16  C   UNL     1      -5.452   1.311   0.171  1.00  0.00     0.180 A 
ATOM     17  C   UNL     1      -7.702   1.520   1.767  1.00  0.00     0.169 A 
ATOM     18  C   UNL     1      -6.442   1.482   2.362  1.00  0.00     0.165 A 
ATOM     19  F   UNL     1      -4.368   1.259  -0.620  1.00  0.00    -0.202 F 
ATOM     20  F   UNL     1      -8.804   1.630   2.523  1.00  0.00    -0.203 F 
BRANCH  14  21
ATOM     21  O   UNL     1      -6.727   1.301  -1.794  1.00  0.00    -0.494 OA
ATOM     22  C   UNL     1      -7.988   1.400  -2.445  1.00  0.00     0.278 C 
ENDBRANCH  14  21
BRANCH  18  23
ATOM     23  O   UNL     1      -6.374   1.581   3.728  1.00  0.00    -0.504 OA
ATOM     24  H   UNL     1      -5.443   1.779   3.979  1.00  0.00     0.293 HD
ENDBRANCH  18  23
ENDBRANCH  11  13
ENDBRANCH   6  11
ENDBRANCH   1   5
BRANCH   3  25
ATOM     25  C   UNL     1       2.961  -2.172   0.198  1.00  0.00     0.106 C 
BRANCH  25  26
ATOM     26  C   UNL     1       3.161  -3.311   1.208  1.00  0.00     0.028 C 
BRANCH  26  27
ATOM     27  C   UNL     1       4.564  -3.918   1.245  1.00  0.00     0.017 CG0
ATOM     28  G   UNL     1       5.699  -2.982   1.692  1.00  0.00     0.000 G0
ENDBRANCH  26  27
ENDBRANCH  25  26
BRANCH  25  29
ATOM     29  C   UNL     1       4.178  -1.243  -0.047  1.00  0.00     0.118 C 
BRANCH  29  30
ATOM     30  C   UNL     1       4.846  -0.729   1.256  1.00  0.00     0.108 C 
BRANCH  30  31
ATOM     31  N   UNL     1       5.262  -1.714   2.261  1.00  0.00    -0.315 NA
ATOM     32  H   UNL     1       4.542  -1.859   2.963  1.00  0.00     0.122 HD
BRANCH  31  33
ATOM     33  C   UNL     1       5.699  -2.982   1.692  1.00  0.00     0.081 CG0
ATOM     34  G   UNL     1       4.564  -3.918   1.245  1.00  0.00     0.000 G0
ENDBRANCH  31  33
ENDBRANCH  30  31
ENDBRANCH  29  30
BRANCH  29  35
ATOM     35  N   UNL     1       3.760  -0.126  -0.912  1.00  0.00    -0.346 N 
ATOM     36  C   UNL     1       4.666   0.648  -1.603  1.00  0.00     0.251 C 
ATOM     37  H   UNL     1       2.795  -0.147  -1.215  1.00  0.00     0.164 HD
ATOM     38  O   UNL     1       5.878   0.524  -1.484  1.00  0.00    -0.269 OA
BRANCH  36  39
ATOM     39  C   UNL     1       4.108   1.649  -2.553  1.00  0.00     0.042 A 
ATOM     40  C   UNL     1       2.803   2.135  -2.454  1.00  0.00     0.034 A 
ATOM     41  C   UNL     1       4.941   2.129  -3.564  1.00  0.00     0.034 A 
ATOM     42  C   UNL     1       2.386   3.066  -3.389  1.00  0.00     0.112 A 
ATOM     43  C   UNL     1       4.428   3.059  -4.448  1.00  0.00     0.112 A 
ATOM     44  N   UNL     1       3.167   3.534  -4.385  1.00  0.00    -0.265 NA
ENDBRANCH  36  39
ENDBRANCH  29  35
ENDBRANCH  25  29
ENDBRANCH   3  25
TORSDOF 8
