MODEL        9USER    Run = 9USERUSER    Estimated Free Energy of Binding    =  -6.88 kcal/mol  [=(1)+(2)+(3)-(4)]USERUSER    (1) Final Intermolecular Energy     = -11.06 kcal/molUSER        vdW + Hbond + desolv Energy     = -11.39 kcal/molUSER        Electrostatic Energy            =  -0.08 kcal/molUSER        Moving Ligand-Fixed Receptor    = -11.47 kcal/molUSER        Moving Ligand-Moving Receptor   =  +0.41 kcal/molUSER    (2) Final Total Internal Energy     =  -3.28 kcal/molUSER    (3) Torsional Free Energy           =  +4.18 kcal/molUSER    (4) Unbound System's Energy         =  -3.28 kcal/molUSERUSERREMARK SMILES COc1ccc(O)c(C(=O)c2ccc(C(=O)N[C@@H]3CC[C@H](F)NC[C@H]3NC(=O)c3ccncc3)cc2)c1FREMARK SMILES IDX 15 1 16 2 17 3 14 5 11 6 12 7 36 8 13 9 35 10 9 11 10 12REMARK SMILES IDX 8 13 3 14 4 15 37 16 5 17 6 18 38 19 2 20 1 21 7 22 18 24REMARK SMILES IDX 19 25 25 27 24 28 23 29 21 31 22 32 20 33 26 35 27 36 28 38REMARK SMILES IDX 29 39 30 40 34 41 31 42 33 43 32 44REMARK H PARENT 17 4 7 23 23 30 26 37REMARK Flexibility Score:   88.900USER                              x       y       z     vdW  Elec       q    TypeUSER                           _______ _______ _______ _____ _____    ______ ____ROOTATOM      1  C   UNL     1      38.375  45.366  17.088 -0.26 -0.06    +0.251 C  ATOM      2  O   UNL     1      37.721  44.341  16.935 -0.23 +0.07    -0.269 OA ATOM      3  N   UNL     1      38.225  46.482  16.296 -0.16 +0.13    -0.347 N  ATOM      4  H   UNL     1      38.822  47.291  16.424 +0.11 -0.06    +0.164 HD ENDROOTBRANCH   1   5ATOM      5  C   UNL     1      39.382  45.457  18.182 -0.40 -0.00    +0.039 A  ATOM      6  C   UNL     1      41.240  45.542  20.281 -0.37 +0.00    +0.023 A  ATOM      7  C   UNL     1      41.270  46.519  19.280 -0.43 +0.00    +0.013 A  ATOM      8  C   UNL     1      40.311  44.497  20.207 -0.35 +0.00    +0.013 A  ATOM      9  C   UNL     1      40.340  46.480  18.235 -0.47 -0.00    +0.014 A  ATOM     10  C   UNL     1      39.385  44.457  19.162 -0.36 -0.00    +0.014 A  BRANCH   6  11ATOM     11  C   UNL     1      42.222  45.532  21.392 -0.23 +0.04    +0.199 C  ATOM     12  O   UNL     1      42.903  44.521  21.573 -0.16 -0.08    -0.288 OA BRANCH  11  13ATOM     13  C   UNL     1      42.466  46.697  22.273 -0.22 +0.02    +0.104 A  ATOM     14  C   UNL     1      41.691  48.405  23.835 -0.28 +0.03    +0.155 A  ATOM     15  C   UNL     1      42.991  48.909  23.926 -0.27 +0.02    +0.053 A  ATOM     16  C   UNL     1      41.443  47.296  23.013 -0.12 +0.02    +0.179 A  ATOM     17  C   UNL     1      44.028  48.299  23.216 -0.28 +0.01    +0.051 A  ATOM     18  C   UNL     1      43.768  47.195  22.408 -0.25 +0.04    +0.130 A  ATOM     19  F   UNL     1      40.196  46.799  22.964 -0.06 -0.02    -0.202 F  BRANCH  14  20ATOM     20  O   UNL     1      40.600  48.906  24.492 -0.14 -0.09    -0.494 OA ATOM     21  C   UNL     1      40.403  48.493  25.839 -0.18 +0.03    +0.278 C  ENDBRANCH  14  20BRANCH  18  22ATOM     22  O   UNL     1      44.848  46.642  21.774 -0.61 -0.53    -0.507 OA ATOM     23  H   UNL     1      44.729  45.663  21.778 +0.11 +0.31    +0.293 HD ENDBRANCH  18  22ENDBRANCH  11  13ENDBRANCH   6  11ENDBRANCH   1   5BRANCH   3  24ATOM     24  C   UNL     1      37.410  46.479  15.083 -0.38 -0.05    +0.106 C  BRANCH  24  25ATOM     25  C   UNL     1      37.982  47.436  14.019 -0.55 -0.01    +0.031 CG0ATOM     26  G   UNL     1      37.732  47.023  12.568 +0.00 +0.00    +0.000 G0 ENDBRANCH  24  25BRANCH  24  27ATOM     27  C   UNL     1      35.911  46.717  15.414 -0.29 -0.11    +0.118 C  BRANCH  27  28ATOM     28  C   UNL     1      34.998  46.883  14.168 -0.01 -0.11    +0.110 C  BRANCH  28  29ATOM     29  N   UNL     1      35.417  46.147  12.965 -0.27 +0.17    -0.286 NA ATOM     30  H   UNL     1      36.014  45.373  13.264 +0.09 -0.06    +0.125 HD BRANCH  29  31ATOM     31  C   UNL     1      36.273  46.983  12.134 -0.56 -0.11    +0.234 C  ATOM     32  F   UNL     1      35.777  48.246  12.258 -0.21 +0.13    -0.230 F  BRANCH  31  33ATOM     33  C   UNL     1      37.730  47.022  12.568 -0.48 -0.01    +0.056 CG0ATOM     34  G   UNL     1      37.977  47.437  14.018 +0.00 +0.00    +0.000 G0 ENDBRANCH  31  33ENDBRANCH  29  31ENDBRANCH  28  29ENDBRANCH  27  28BRANCH  27  35ATOM     35  N   UNL     1      35.414  45.657  16.315 -0.11 +0.25    -0.346 N  ATOM     36  C   UNL     1      34.902  45.955  17.563 -0.28 -0.19    +0.251 C  ATOM     37  H   UNL     1      35.868  44.757  16.232 +0.12 -0.08    +0.164 HD ATOM     38  O   UNL     1      34.708  47.098  17.960 -0.57 +0.30    -0.269 OA BRANCH  36  39ATOM     39  C   UNL     1      34.615  44.800  18.456 -0.35 -0.02    +0.042 A  ATOM     40  C   UNL     1      35.653  44.300  19.244 -0.36 -0.01    +0.034 A  ATOM     41  C   UNL     1      33.343  44.231  18.549 -0.35 -0.01    +0.034 A  ATOM     42  C   UNL     1      35.380  43.232  20.078 -0.35 -0.00    +0.112 A  ATOM     43  C   UNL     1      33.175  43.165  19.416 -0.34 -0.00    +0.112 A  ATOM     44  N   UNL     1      34.164  42.652  20.175 -0.51 -0.04    -0.265 NA ENDBRANCH  36  39ENDBRANCH  27  35ENDBRANCH  24  27ENDBRANCH   3  24TORSDOF 8TERENDMDL