MODEL        9USER    Run = 9USERUSER    Estimated Free Energy of Binding    =  -5.99 kcal/mol  [=(1)+(2)+(3)-(4)]USERUSER    (1) Final Intermolecular Energy     = -10.17 kcal/molUSER        vdW + Hbond + desolv Energy     = -10.41 kcal/molUSER        Electrostatic Energy            =  -0.25 kcal/molUSER        Moving Ligand-Fixed Receptor    = -10.66 kcal/molUSER        Moving Ligand-Moving Receptor   =  +0.49 kcal/molUSER    (2) Final Total Internal Energy     =  -3.42 kcal/molUSER    (3) Torsional Free Energy           =  +4.18 kcal/molUSER    (4) Unbound System's Energy         =  -3.42 kcal/molUSERUSERREMARK SMILES COc1cc(F)c(O)c(C(=O)c2ccc(C(=O)N[C@@H]3CCCNC[C@@H]3NC(=O)c3ccncc3)cc2)c1FREMARK SMILES IDX 16 1 17 2 18 3 15 5 12 6 13 7 36 8 14 9 35 10 10 11 11 12REMARK SMILES IDX 9 13 3 14 4 15 37 16 5 17 7 18 38 19 6 20 2 21 1 22 8 23REMARK SMILES IDX 19 25 20 26 21 27 25 29 24 30 23 31 22 33 26 35 27 36 28 38REMARK SMILES IDX 29 39 30 40 34 41 31 42 33 43 32 44REMARK H PARENT 18 4 8 24 23 32 26 37REMARK Flexibility Score:   88.900USER                              x       y       z     vdW  Elec       q    TypeUSER                           _______ _______ _______ _____ _____    ______ ____ROOTATOM      1  C   UNL     1      39.164  44.120  23.666 -0.14 +0.01    +0.251 C  ATOM      2  O   UNL     1      38.012  44.347  24.015 -0.19 -0.02    -0.269 OA ATOM      3  N   UNL     1      40.060  43.407  24.435 -0.06 -0.01    -0.347 N  ATOM      4  H   UNL     1      41.042  43.449  24.199 +0.06 +0.00    +0.164 HD ENDROOTBRANCH   1   5ATOM      5  C   UNL     1      39.660  44.622  22.351 -0.24 +0.00    +0.039 A  ATOM      6  C   UNL     1      40.710  45.561  19.925 -0.39 +0.00    +0.023 A  ATOM      7  C   UNL     1      41.524  44.841  20.804 -0.33 +0.00    +0.013 A  ATOM      8  C   UNL     1      39.368  45.797  20.249 -0.26 +0.00    +0.013 A  ATOM      9  C   UNL     1      41.000  44.382  22.016 -0.26 +0.00    +0.014 A  ATOM     10  C   UNL     1      38.847  45.340  21.464 -0.32 +0.00    +0.014 A  BRANCH   6  11ATOM     11  C   UNL     1      41.211  46.044  18.618 -0.41 +0.00    +0.199 C  ATOM     12  O   UNL     1      42.425  46.045  18.412 -0.25 -0.03    -0.288 OA BRANCH  11  13ATOM     13  C   UNL     1      40.328  46.570  17.557 -0.42 -0.01    +0.107 A  ATOM     14  C   UNL     1      38.337  46.393  16.154 -0.29 -0.06    +0.158 A  ATOM     15  C   UNL     1      38.668  47.599  15.538 -0.41 -0.04    +0.092 A  ATOM     16  C   UNL     1      39.176  45.886  17.157 -0.30 -0.04    +0.180 A  ATOM     17  C   UNL     1      39.832  48.268  15.912 -0.40 -0.05    +0.169 A  ATOM     18  C   UNL     1      40.670  47.760  16.903 -0.41 -0.03    +0.165 A  ATOM     19  F   UNL     1      38.870  44.704  17.716 -0.09 +0.03    -0.202 F  ATOM     20  F   UNL     1      40.137  49.416  15.291 -0.16 +0.09    -0.203 F  BRANCH  14  21ATOM     21  O   UNL     1      37.237  45.632  15.867 -0.05 +0.21    -0.494 OA ATOM     22  C   UNL     1      35.972  46.282  15.880 -0.23 -0.23    +0.278 C  ENDBRANCH  14  21BRANCH  18  23ATOM     23  O   UNL     1      41.812  48.460  17.199 -0.59 -0.03    -0.504 OA ATOM     24  H   UNL     1      42.567  47.829  17.217 -0.35 -0.04    +0.293 HD ENDBRANCH  18  23ENDBRANCH  11  13ENDBRANCH   6  11ENDBRANCH   1   5BRANCH   3  25ATOM     25  C   UNL     1      39.735  42.963  25.802 -0.18 -0.00    +0.106 C  BRANCH  25  26ATOM     26  C   UNL     1      38.477  42.084  25.770 -0.27 -0.00    +0.028 C  BRANCH  26  27ATOM     27  C   UNL     1      38.115  41.406  27.092 -0.48 -0.00    +0.017 CG0ATOM     28  G   UNL     1      38.419  42.202  28.371 +0.00 +0.00    +0.000 G0 ENDBRANCH  26  27ENDBRANCH  25  26BRANCH  25  29ATOM     29  C   UNL     1      39.713  44.167  26.778 -0.15 -0.00    +0.118 C  BRANCH  29  30ATOM     30  C   UNL     1      38.318  44.445  27.399 -0.24 -0.01    +0.108 C  BRANCH  30  31ATOM     31  N   UNL     1      37.820  43.528  28.430 -0.17 +0.06    -0.315 NA ATOM     32  H   UNL     1      36.805  43.472  28.422 -0.23 -0.04    +0.122 HD BRANCH  31  33ATOM     33  C   UNL     1      38.416  42.201  28.371 -0.34 -0.01    +0.081 CG0ATOM     34  G   UNL     1      38.108  41.407  27.091 +0.00 +0.00    +0.000 G0 ENDBRANCH  31  33ENDBRANCH  30  31ENDBRANCH  29  30BRANCH  29  35ATOM     35  N   UNL     1      40.237  45.356  26.082 -0.03 -0.01    -0.346 N  ATOM     36  C   UNL     1      41.509  45.399  25.556 -0.04 +0.01    +0.251 C  ATOM     37  H   UNL     1      39.539  46.005  25.743 +0.07 +0.01    +0.164 HD ATOM     38  O   UNL     1      42.323  44.496  25.700 -0.02 -0.01    -0.269 OA BRANCH  36  39ATOM     39  C   UNL     1      41.864  46.601  24.752 -0.11 +0.00    +0.042 A  ATOM     40  C   UNL     1      41.148  47.797  24.831 -0.23 +0.00    +0.034 A  ATOM     41  C   UNL     1      42.971  46.522  23.908 -0.12 +0.00    +0.034 A  ATOM     42  C   UNL     1      41.565  48.854  24.041 -0.32 +0.02    +0.112 A  ATOM     43  C   UNL     1      43.305  47.635  23.161 -0.25 +0.02    +0.112 A  ATOM     44  N   UNL     1      42.623  48.798  23.206 -0.83 -0.07    -0.265 NA ENDBRANCH  36  39ENDBRANCH  29  35ENDBRANCH  25  29ENDBRANCH   3  25TORSDOF 8TERENDMDL