MODEL        8USER    Run = 8USERUSER    Estimated Free Energy of Binding    =  -8.70 kcal/mol  [=(1)+(2)+(3)-(4)]USERUSER    (1) Final Intermolecular Energy     = -10.49 kcal/molUSER        vdW + Hbond + desolv Energy     = -10.37 kcal/molUSER        Electrostatic Energy            =  -0.12 kcal/molUSER        Moving Ligand-Fixed Receptor    = -10.49 kcal/molUSER        Moving Ligand-Moving Receptor   =  +0.00 kcal/molUSER    (2) Final Total Internal Energy     =  -1.00 kcal/molUSER    (3) Torsional Free Energy           =  +1.79 kcal/molUSER    (4) Unbound System's Energy         =  -1.00 kcal/molUSERUSERREMARK SMILES Cc1c(-c2ccc(OC(F)(F)F)cc2)cccc1[C@@H](C(N)=O)c1ccccn1REMARK SMILES IDX 1 1 2 2 3 3 15 4 16 5 17 6 18 7 4 8 5 9 14 10 6 11 13 12REMARK SMILES IDX 7 13 8 14 9 15 10 16 11 17 12 18 19 19 20 20 21 21 22 22REMARK SMILES IDX 23 25 24 26 28 27 25 28 27 29 26 30REMARK H PARENT 21 23 21 24USER                              x       y       z     vdW  Elec       q    TypeUSER                           _______ _______ _______ _____ _____    ______ ____ROOTATOM      1  C   UNL     1      39.188  44.731  18.293 -0.42 -0.00    +0.045 C  ATOM      2  C   UNL     1      40.366  45.624  18.614 -0.44 +0.00    -0.039 A  ATOM      3  C   UNL     1      40.682  46.702  17.744 -0.50 +0.00    -0.015 A  ATOM      4  C   UNL     1      41.768  47.543  18.052 -0.49 -0.00    +0.009 A  ATOM      5  C   UNL     1      42.518  47.355  19.206 -0.54 +0.00    +0.001 A  ATOM      6  C   UNL     1      42.193  46.322  20.078 -0.40 +0.00    +0.005 A  ATOM      7  C   UNL     1      41.120  45.445  19.807 -0.39 -0.00    -0.026 A  ENDROOTBRANCH   3   8ATOM      8  C   UNL     1      39.909  47.000  16.527 -0.48 +0.00    -0.018 A  ATOM      9  C   UNL     1      39.981  46.161  15.406 -0.37 -0.00    +0.012 A  ATOM     10  C   UNL     1      39.098  48.141  16.451 -0.31 -0.01    +0.012 A  ATOM     11  C   UNL     1      39.254  46.455  14.249 -0.34 -0.01    +0.047 A  ATOM     12  C   UNL     1      38.367  48.436  15.292 -0.49 -0.03    +0.047 A  ATOM     13  C   UNL     1      38.441  47.591  14.185 -0.40 -0.04    +0.129 A  BRANCH  13  14ATOM     14  O   UNL     1      37.791  47.753  12.995 -0.79 +0.08    -0.406 OA BRANCH  14  15ATOM     15  C   UNL     1      36.566  47.063  12.813 -0.22 -0.26    +0.573 C  ATOM     16  F   UNL     1      35.653  47.929  12.319 -0.29 +0.08    -0.132 F  ATOM     17  F   UNL     1      36.702  46.051  11.928 -0.27 +0.05    -0.132 F  ATOM     18  F   UNL     1      36.097  46.583  13.983 -0.16 +0.08    -0.132 F  ENDBRANCH  14  15ENDBRANCH  13  14ENDBRANCH   3   8BRANCH   7  19ATOM     19  C   UNL     1      40.848  44.338  20.841 -0.29 +0.01    +0.157 C  BRANCH  19  20ATOM     20  C   UNL     1      42.169  43.833  21.457 -0.24 +0.03    +0.231 C  ATOM     21  N   UNL     1      42.316  42.499  21.703 -0.01 +0.02    -0.369 N  ATOM     22  O   UNL     1      43.086  44.594  21.771 -0.17 -0.08    -0.274 OA ATOM     23  H   UNL     1      43.246  42.201  21.968 -0.46 -0.02    +0.159 HD ATOM     24  H   UNL     1      41.775  41.864  21.116 -0.37 -0.03    +0.159 HD ENDBRANCH  19  20BRANCH  19  25ATOM     25  C   UNL     1      39.682  44.626  21.803 -0.26 +0.00    +0.057 A  ATOM     26  C   UNL     1      38.692  43.664  22.034 -0.29 +0.00    +0.025 A  ATOM     27  N   UNL     1      39.690  45.800  22.497 -0.17 -0.02    -0.260 NA ATOM     28  C   UNL     1      37.680  43.923  22.956 -0.35 +0.00    +0.004 A  ATOM     29  C   UNL     1      38.697  46.021  23.392 -0.26 +0.01    +0.111 A  ATOM     30  C   UNL     1      37.678  45.123  23.650 -0.23 +0.00    +0.020 A  ENDBRANCH  19  25ENDBRANCH   7  19TORSDOF 6TERENDMDL