REMARK SMILES COc1ccc(-c2cccc([C@@H](C(N)=O)c3ccccn3)c2C)cc1
REMARK SMILES IDX 7 1 8 2 9 3 10 4 11 5 22 6 23 7 6 8 3 9 4 10 25 11 5 12
REMARK SMILES IDX 24 13 2 14 1 15 12 16 13 17 14 18 15 19 16 22 17 23 21 24
REMARK SMILES IDX 18 25 20 26 19 27
REMARK H PARENT 14 20 14 21
ROOT
ATOM      1  C   UNL     1       0.730   1.442  -0.160  1.00  0.00    -0.015 A 
ATOM      2  C   UNL     1       0.537   2.827  -0.300  1.00  0.00     0.009 A 
ATOM      3  C   UNL     1      -0.702   3.345  -0.648  1.00  0.00     0.001 A 
ATOM      4  C   UNL     1      -1.775   2.482  -0.846  1.00  0.00     0.005 A 
ATOM      5  C   UNL     1      -1.639   1.081  -0.711  1.00  0.00    -0.026 A 
ATOM      6  C   UNL     1      -0.358   0.552  -0.396  1.00  0.00    -0.039 A 
ATOM      7  C   UNL     1      -0.128  -0.934  -0.253  1.00  0.00     0.045 C 
ENDROOT
BRANCH   1   8
ATOM      8  C   UNL     1       2.067   0.977   0.243  1.00  0.00    -0.018 A 
ATOM      9  C   UNL     1       4.637   0.101   1.015  1.00  0.00     0.118 A 
ATOM     10  C   UNL     1       4.385   0.455  -0.310  1.00  0.00     0.047 A 
ATOM     11  C   UNL     1       3.605   0.188   1.952  1.00  0.00     0.047 A 
ATOM     12  C   UNL     1       3.110   0.891  -0.691  1.00  0.00     0.012 A 
ATOM     13  C   UNL     1       2.332   0.622   1.572  1.00  0.00     0.012 A 
BRANCH   9  14
ATOM     14  O   UNL     1       5.831  -0.339   1.518  1.00  0.00    -0.497 OA
ATOM     15  C   UNL     1       6.910  -0.456   0.599  1.00  0.00     0.278 C 
ENDBRANCH   9  14
ENDBRANCH   1   8
BRANCH   5  16
ATOM     16  C   UNL     1      -2.917   0.256  -0.942  1.00  0.00     0.157 C 
BRANCH  16  17
ATOM     17  C   UNL     1      -3.009  -0.296  -2.370  1.00  0.00     0.231 C 
ATOM     18  N   UNL     1      -4.154   0.016  -3.058  1.00  0.00    -0.369 N 
ATOM     19  O   UNL     1      -2.159  -0.991  -2.920  1.00  0.00    -0.274 OA
ATOM     20  H   UNL     1      -4.976   0.396  -2.608  1.00  0.00     0.159 HD
ATOM     21  H   UNL     1      -4.260  -0.396  -3.977  1.00  0.00     0.159 HD
ENDBRANCH  16  17
BRANCH  16  22
ATOM     22  C   UNL     1      -3.281  -0.746   0.148  1.00  0.00     0.057 A 
ATOM     23  C   UNL     1      -3.253  -2.129  -0.046  1.00  0.00     0.025 A 
ATOM     24  N   UNL     1      -3.681  -0.210   1.335  1.00  0.00    -0.260 NA
ATOM     25  C   UNL     1      -3.615  -2.975   1.000  1.00  0.00     0.004 A 
ATOM     26  C   UNL     1      -4.021  -1.054   2.334  1.00  0.00     0.111 A 
ATOM     27  C   UNL     1      -4.005  -2.431   2.216  1.00  0.00     0.020 A 
ENDBRANCH  16  22
ENDBRANCH   5  16
TORSDOF 5
