MODEL        8USER    Run = 8USERUSER    Estimated Free Energy of Binding    = -11.04 kcal/mol  [=(1)+(2)+(3)-(4)]USERUSER    (1) Final Intermolecular Energy     = -12.83 kcal/molUSER        vdW + Hbond + desolv Energy     = -12.62 kcal/molUSER        Electrostatic Energy            =  -0.21 kcal/molUSER        Moving Ligand-Fixed Receptor    = -12.83 kcal/molUSER        Moving Ligand-Moving Receptor   =  +0.00 kcal/molUSER    (2) Final Total Internal Energy     =  -0.95 kcal/molUSER    (3) Torsional Free Energy           =  +1.79 kcal/molUSER    (4) Unbound System's Energy         =  -0.95 kcal/molUSERUSERREMARK SMILES Cc1c(C(=Cc2ccccn2)C(N)=O)cccc1-c1ccc(C(N)=O)cc1REMARK SMILES IDX 1 1 2 2 3 3 15 4 16 5 17 6 18 7 4 8 5 9 6 10 7 11 11 12 8 13REMARK SMILES IDX 10 14 9 15 12 16 13 17 14 18 19 21 20 22 27 23 21 24 26 25REMARK SMILES IDX 22 26 23 27 24 28 25 29REMARK H PARENT 13 19 13 20 24 30 24 31USER                              x       y       z     vdW  Elec       q    TypeUSER                           _______ _______ _______ _____ _____    ______ ____ROOTATOM      1  C   UNL     1      36.929  46.617  16.265 -0.41 -0.03    +0.045 C  ATOM      2  C   UNL     1      38.137  46.155  17.048 -0.36 +0.01    -0.035 A  ATOM      3  C   UNL     1      39.443  46.546  16.660 -0.45 +0.00    -0.009 A  ATOM      4  C   UNL     1      40.558  46.085  17.381 -0.46 -0.00    +0.009 A  ATOM      5  C   UNL     1      40.396  45.238  18.473 -0.45 -0.00    +0.001 A  ATOM      6  C   UNL     1      39.118  44.834  18.847 -0.40 -0.00    +0.009 A  ATOM      7  C   UNL     1      37.979  45.269  18.144 -0.37 +0.00    -0.015 A  ENDROOTBRANCH   3   8ATOM      8  C   UNL     1      39.703  47.453  15.507 -0.54 -0.01    +0.049 C  BRANCH   8   9ATOM      9  C   UNL     1      39.408  46.925  14.297 -0.43 -0.01    +0.042 C  BRANCH   9  10ATOM     10  C   UNL     1      38.162  46.840  13.517 -0.38 -0.02    +0.064 A  ATOM     11  C   UNL     1      37.634  45.586  13.202 -0.34 -0.01    +0.028 A  ATOM     12  N   UNL     1      37.579  47.986  13.099 -0.82 +0.06    -0.257 NA ATOM     13  C   UNL     1      36.477  45.507  12.428 -0.56 -0.00    +0.004 A  ATOM     14  C   UNL     1      36.463  47.881  12.339 -0.53 -0.05    +0.111 A  ATOM     15  C   UNL     1      35.877  46.678  11.985 -0.61 -0.01    +0.020 A  ENDBRANCH   9  10ENDBRANCH   8   9BRANCH   8  16ATOM     16  C   UNL     1      40.283  48.798  15.839 -0.45 -0.07    +0.249 C  ATOM     17  N   UNL     1      39.471  49.878  15.720 +0.03 +0.24    -0.366 N  ATOM     18  O   UNL     1      41.427  48.934  16.269 -1.00 -0.00    -0.270 OA ATOM     19  H   UNL     1      39.945  50.767  15.794 -0.34 -0.11    +0.159 HD ATOM     20  H   UNL     1      38.738  49.826  15.014 -0.40 -0.15    +0.159 HD ENDBRANCH   8  16ENDBRANCH   3   8BRANCH   7  21ATOM     21  C   UNL     1      36.665  44.760  18.565 -0.33 +0.00    -0.018 A  ATOM     22  C   UNL     1      35.512  45.547  18.426 -0.28 -0.00    +0.009 A  ATOM     23  C   UNL     1      36.543  43.483  19.137 -0.31 -0.00    +0.009 A  ATOM     24  C   UNL     1      34.264  45.064  18.835 -0.41 -0.01    +0.014 A  ATOM     25  C   UNL     1      35.297  42.994  19.544 -0.42 -0.00    +0.014 A  ATOM     26  C   UNL     1      34.151  43.781  19.384 -0.38 -0.01    +0.039 A  BRANCH  26  27ATOM     27  C   UNL     1      32.803  43.306  19.796 -0.26 +0.01    +0.248 C  ATOM     28  N   UNL     1      32.015  44.179  20.493 -0.17 -0.01    -0.366 N  ATOM     29  O   UNL     1      32.423  42.166  19.560 -0.46 -0.02    -0.270 OA ATOM     30  H   UNL     1      31.170  43.785  20.886 +0.13 +0.01    +0.159 HD ATOM     31  H   UNL     1      32.401  44.991  20.952 -0.47 -0.03    +0.159 HD ENDBRANCH  26  27ENDBRANCH   7  21TORSDOF 6TERENDMDL