MODEL        7USER    Run = 7USERUSER    Estimated Free Energy of Binding    =  -9.02 kcal/mol  [=(1)+(2)+(3)-(4)]USERUSER    (1) Final Intermolecular Energy     = -11.41 kcal/molUSER        vdW + Hbond + desolv Energy     = -11.29 kcal/molUSER        Electrostatic Energy            =  -0.11 kcal/molUSER        Moving Ligand-Fixed Receptor    = -11.41 kcal/molUSER        Moving Ligand-Moving Receptor   =  +0.00 kcal/molUSER    (2) Final Total Internal Energy     =  -2.52 kcal/molUSER    (3) Torsional Free Energy           =  +2.39 kcal/molUSER    (4) Unbound System's Energy         =  -2.52 kcal/molUSERUSERREMARK SMILES C[C@](C(N)=O)(c1cccc(-c2ccc(OCCO)cc2)c1)c1ccccn1REMARK SMILES IDX 11 1 12 2 13 3 14 4 19 5 20 6 10 7 6 8 7 9 21 10 8 11 9 12REMARK SMILES IDX 2 13 1 14 3 15 4 16 5 17 22 20 23 21 27 22 24 23 26 24 25 25REMARK SMILES IDX 15 26 16 27 17 28 18 29REMARK H PARENT 4 18 4 19 18 30USER                              x       y       z     vdW  Elec       q    TypeUSER                           _______ _______ _______ _____ _____    ______ ____ROOTATOM      1  C   UNL     1      36.696  44.928  18.627 -0.30 +0.00    -0.018 A  ATOM      2  C   UNL     1      35.489  45.321  18.027 -0.35 -0.01    +0.012 A  ATOM      3  C   UNL     1      34.261  44.781  18.433 -0.35 -0.02    +0.047 A  ATOM      4  C   UNL     1      34.217  43.834  19.455 -0.33 -0.02    +0.119 A  ATOM      5  C   UNL     1      35.408  43.437  20.063 -0.39 -0.00    +0.047 A  ATOM      6  C   UNL     1      36.633  43.978  19.657 -0.38 -0.00    +0.012 A  ENDROOTBRANCH   1   7ATOM      7  C   UNL     1      37.983  45.500  18.195 -0.36 +0.00    -0.018 A  ATOM      8  C   UNL     1      39.307  46.793  16.558 -0.43 +0.01    -0.026 A  ATOM      9  C   UNL     1      40.446  46.583  17.349 -0.49 -0.00    +0.005 A  ATOM     10  C   UNL     1      38.086  46.230  16.997 -0.38 -0.00    +0.014 A  ATOM     11  C   UNL     1      40.363  45.863  18.541 -0.47 -0.00    +0.001 A  ATOM     12  C   UNL     1      39.144  45.332  18.961 -0.41 -0.00    +0.009 A  BRANCH   8  13ATOM     13  C   UNL     1      39.327  47.610  15.234 -0.49 -0.04    +0.113 C  ATOM     14  C   UNL     1      40.736  47.693  14.590 -0.40 -0.00    +0.034 C  BRANCH  13  15ATOM     15  C   UNL     1      38.904  49.072  15.597 -0.23 -0.15    +0.233 C  ATOM     16  N   UNL     1      37.600  49.414  15.320 -0.16 +0.35    -0.369 N  ATOM     17  O   UNL     1      39.633  49.933  16.085 -0.33 +0.16    -0.274 OA ATOM     18  H   UNL     1      37.119  48.940  14.566 +0.06 -0.13    +0.159 HD ATOM     19  H   UNL     1      37.391  50.398  15.431 -0.33 -0.17    +0.159 HD ENDBRANCH  13  15BRANCH  13  20ATOM     20  C   UNL     1      38.425  46.963  14.152 -0.42 -0.02    +0.060 A  ATOM     21  C   UNL     1      38.111  45.601  14.164 -0.38 -0.01    +0.025 A  ATOM     22  N   UNL     1      37.841  47.799  13.248 -0.72 +0.06    -0.260 NA ATOM     23  C   UNL     1      37.243  45.083  13.204 -0.46 -0.00    +0.004 A  ATOM     24  C   UNL     1      37.008  47.272  12.324 -0.55 -0.03    +0.111 A  ATOM     25  C   UNL     1      36.682  45.931  12.260 -0.61 -0.01    +0.020 A  ENDBRANCH  13  20ENDBRANCH   8  13ENDBRANCH   1   7BRANCH   4  26ATOM     26  O   UNL     1      33.094  43.230  19.946 -0.70 -0.05    -0.491 OA BRANCH  26  27ATOM     27  C   UNL     1      31.997  43.073  19.050 -0.23 -0.01    +0.257 C  BRANCH  27  28ATOM     28  C   UNL     1      31.902  41.603  18.650 -0.27 -0.02    +0.197 C  BRANCH  28  29ATOM     29  O   UNL     1      32.459  40.763  19.655 -0.57 -0.09    -0.393 OA ATOM     30  H   UNL     1      33.083  41.302  20.172 +0.14 +0.07    +0.210 HD ENDBRANCH  28  29ENDBRANCH  27  28ENDBRANCH  26  27ENDBRANCH   4  26TORSDOF 8TERENDMDL