MODEL        8USER    Run = 8USERUSER    Estimated Free Energy of Binding    =  -9.20 kcal/mol  [=(1)+(2)+(3)-(4)]USERUSER    (1) Final Intermolecular Energy     = -10.69 kcal/molUSER        vdW + Hbond + desolv Energy     = -10.44 kcal/molUSER        Electrostatic Energy            =  -0.25 kcal/molUSER        Moving Ligand-Fixed Receptor    = -10.69 kcal/molUSER        Moving Ligand-Moving Receptor   =  +0.00 kcal/molUSER    (2) Final Total Internal Energy     =  -0.78 kcal/molUSER    (3) Torsional Free Energy           =  +1.49 kcal/molUSER    (4) Unbound System's Energy         =  -0.78 kcal/molUSERUSERREMARK SMILES COc1ccc(-c2cccc([C@@H](C(N)=O)c3ccccn3)c2C)cc1REMARK SMILES IDX 7 1 8 2 9 3 10 4 11 5 22 6 23 7 6 8 3 9 4 10 25 11 5 12REMARK SMILES IDX 24 13 2 14 1 15 12 16 13 17 14 18 15 19 16 22 17 23 21 24REMARK SMILES IDX 18 25 20 26 19 27REMARK H PARENT 14 20 14 21USER                              x       y       z     vdW  Elec       q    TypeUSER                           _______ _______ _______ _____ _____    ______ ____ROOTATOM      1  C   UNL     1      37.373  45.470  18.146 -0.32 +0.00    -0.015 A  ATOM      2  C   UNL     1      38.576  45.351  18.863 -0.38 -0.00    +0.009 A  ATOM      3  C   UNL     1      39.725  46.008  18.447 -0.44 -0.00    +0.001 A  ATOM      4  C   UNL     1      39.683  46.810  17.311 -0.46 -0.00    +0.005 A  ATOM      5  C   UNL     1      38.498  46.971  16.556 -0.39 +0.01    -0.026 A  ATOM      6  C   UNL     1      37.335  46.262  16.962 -0.33 +0.02    -0.039 A  ATOM      7  C   UNL     1      36.037  46.367  16.197 -0.40 -0.04    +0.045 C  ENDROOTBRANCH   1   8ATOM      8  C   UNL     1      36.192  44.767  18.672 -0.34 +0.00    -0.018 A  ATOM      9  C   UNL     1      33.933  43.420  19.698 -0.32 -0.00    +0.118 A  ATOM     10  C   UNL     1      35.176  42.787  19.673 -0.40 -0.00    +0.047 A  ATOM     11  C   UNL     1      33.823  44.725  19.214 -0.35 -0.01    +0.047 A  ATOM     12  C   UNL     1      36.296  43.457  19.165 -0.34 -0.00    +0.012 A  ATOM     13  C   UNL     1      34.940  45.394  18.706 -0.38 -0.00    +0.012 A  BRANCH   9  14ATOM     14  O   UNL     1      32.765  42.882  20.165 -0.57 -0.12    -0.497 OA ATOM     15  C   UNL     1      32.066  42.008  19.287 -0.16 +0.00    +0.278 C  ENDBRANCH   9  14ENDBRANCH   1   8BRANCH   5  16ATOM     16  C   UNL     1      38.600  47.903  15.336 -0.44 -0.07    +0.157 C  BRANCH  16  17ATOM     17  C   UNL     1      40.037  48.368  15.072 -0.44 -0.07    +0.231 C  ATOM     18  N   UNL     1      40.304  49.680  15.369 -0.25 +0.16    -0.369 N  ATOM     19  O   UNL     1      40.937  47.671  14.611 -0.33 +0.02    -0.274 OA ATOM     20  H   UNL     1      39.576  50.360  15.547 -0.37 -0.13    +0.159 HD ATOM     21  H   UNL     1      41.229  50.021  15.138 +0.09 -0.04    +0.159 HD ENDBRANCH  16  17BRANCH  16  22ATOM     22  C   UNL     1      37.836  47.471  14.090 -0.46 -0.02    +0.057 A  ATOM     23  C   UNL     1      37.866  46.167  13.589 -0.40 -0.01    +0.025 A  ATOM     24  N   UNL     1      37.138  48.453  13.453 -0.67 +0.11    -0.260 NA ATOM     25  C   UNL     1      37.149  45.859  12.435 -0.50 -0.00    +0.004 A  ATOM     26  C   UNL     1      36.448  48.125  12.339 -0.44 -0.04    +0.111 A  ATOM     27  C   UNL     1      36.423  46.854  11.796 -0.63 -0.01    +0.020 A  ENDBRANCH  16  22ENDBRANCH   5  16TORSDOF 5TERENDMDL