REMARK SMILES Cc1c(-c2ccc(OC(F)(F)F)cc2)cccc1[C@@H](C(N)=O)c1ccccn1
REMARK SMILES IDX 1 1 2 2 3 3 15 4 16 5 17 6 18 7 4 8 5 9 14 10 6 11 13 12
REMARK SMILES IDX 7 13 8 14 9 15 10 16 11 17 12 18 19 19 20 20 21 21 22 22
REMARK SMILES IDX 23 25 24 26 28 27 25 28 27 29 26 30
REMARK H PARENT 21 23 21 24
ROOT
ATOM      1  C   UNL     1      -0.196   0.555   0.859  1.00  0.00     0.045 C 
ATOM      2  C   UNL     1      -0.214  -0.709   0.028  1.00  0.00    -0.039 A 
ATOM      3  C   UNL     1       0.924  -1.046  -0.755  1.00  0.00    -0.015 A 
ATOM      4  C   UNL     1       0.913  -2.231  -1.515  1.00  0.00     0.009 A 
ATOM      5  C   UNL     1      -0.178  -3.090  -1.492  1.00  0.00     0.001 A 
ATOM      6  C   UNL     1      -1.280  -2.782  -0.703  1.00  0.00     0.005 A 
ATOM      7  C   UNL     1      -1.322  -1.600   0.068  1.00  0.00    -0.026 A 
ENDROOT
BRANCH   3   8
ATOM      8  C   UNL     1       2.139  -0.215  -0.797  1.00  0.00    -0.018 A 
ATOM      9  C   UNL     1       2.440   0.561  -1.925  1.00  0.00     0.012 A 
ATOM     10  C   UNL     1       3.036  -0.197   0.281  1.00  0.00     0.012 A 
ATOM     11  C   UNL     1       3.601   1.338  -1.964  1.00  0.00     0.047 A 
ATOM     12  C   UNL     1       4.199   0.583   0.243  1.00  0.00     0.047 A 
ATOM     13  C   UNL     1       4.486   1.357  -0.881  1.00  0.00     0.129 A 
BRANCH  13  14
ATOM     14  O   UNL     1       5.577   2.159  -1.058  1.00  0.00    -0.406 OA
BRANCH  14  15
ATOM     15  C   UNL     1       6.492   2.276   0.018  1.00  0.00     0.573 C 
ATOM     16  F   UNL     1       7.475   3.131  -0.343  1.00  0.00    -0.132 F 
ATOM     17  F   UNL     1       5.890   2.774   1.120  1.00  0.00    -0.132 F 
ATOM     18  F   UNL     1       7.058   1.086   0.309  1.00  0.00    -0.132 F 
ENDBRANCH  14  15
ENDBRANCH  13  14
ENDBRANCH   3   8
BRANCH   7  19
ATOM     19  C   UNL     1      -2.591  -1.360   0.906  1.00  0.00     0.157 C 
BRANCH  19  20
ATOM     20  C   UNL     1      -2.260  -1.387   2.412  1.00  0.00     0.231 C 
ATOM     21  N   UNL     1      -2.473  -0.263   3.156  1.00  0.00    -0.369 N 
ATOM     22  O   UNL     1      -1.774  -2.375   2.966  1.00  0.00    -0.274 OA
ATOM     23  H   UNL     1      -2.380  -0.374   4.157  1.00  0.00     0.159 HD
ATOM     24  H   UNL     1      -3.199   0.372   2.825  1.00  0.00     0.159 HD
ENDBRANCH  19  20
BRANCH  19  25
ATOM     25  C   UNL     1      -3.494  -0.222   0.399  1.00  0.00     0.057 A 
ATOM     26  C   UNL     1      -3.580   0.067  -0.967  1.00  0.00     0.025 A 
ATOM     27  N   UNL     1      -4.280   0.432   1.302  1.00  0.00    -0.260 NA
ATOM     28  C   UNL     1      -4.451   1.061  -1.409  1.00  0.00     0.004 A 
ATOM     29  C   UNL     1      -5.123   1.388   0.842  1.00  0.00     0.111 A 
ATOM     30  C   UNL     1      -5.239   1.737  -0.490  1.00  0.00     0.020 A 
ENDBRANCH  19  25
ENDBRANCH   7  19
TORSDOF 6
