REMARK SMILES C[C@](C(N)=O)(c1cccc(-c2ccc(OCCO)cc2)c1)c1ccccn1
REMARK SMILES IDX 11 1 12 2 13 3 14 4 19 5 20 6 10 7 6 8 7 9 21 10 8 11 9 12
REMARK SMILES IDX 2 13 1 14 3 15 4 16 5 17 22 20 23 21 27 22 24 23 26 24 25 25
REMARK SMILES IDX 15 26 16 27 17 28 18 29
REMARK H PARENT 4 18 4 19 18 30
ROOT
ATOM      1  C   UNL     1       1.662  -0.435   0.216  1.00  0.00    -0.018 A 
ATOM      2  C   UNL     1       2.569   0.329   0.967  1.00  0.00     0.012 A 
ATOM      3  C   UNL     1       3.670   0.955   0.367  1.00  0.00     0.047 A 
ATOM      4  C   UNL     1       3.885   0.829  -1.004  1.00  0.00     0.119 A 
ATOM      5  C   UNL     1       2.990   0.075  -1.764  1.00  0.00     0.047 A 
ATOM      6  C   UNL     1       1.891  -0.548  -1.163  1.00  0.00     0.012 A 
ENDROOT
BRANCH   1   7
ATOM      7  C   UNL     1       0.507  -1.090   0.854  1.00  0.00    -0.018 A 
ATOM      8  C   UNL     1      -1.923  -1.529   0.944  1.00  0.00    -0.026 A 
ATOM      9  C   UNL     1      -1.713  -2.325   2.080  1.00  0.00     0.005 A 
ATOM     10  C   UNL     1      -0.795  -0.911   0.355  1.00  0.00     0.014 A 
ATOM     11  C   UNL     1      -0.428  -2.516   2.589  1.00  0.00     0.001 A 
ATOM     12  C   UNL     1       0.670  -1.909   1.979  1.00  0.00     0.009 A 
BRANCH   8  13
ATOM     13  C   UNL     1      -3.325  -1.299   0.311  1.00  0.00     0.113 C 
ATOM     14  C   UNL     1      -4.439  -2.154   0.970  1.00  0.00     0.034 C 
BRANCH  13  15
ATOM     15  C   UNL     1      -3.227  -1.752  -1.184  1.00  0.00     0.233 C 
ATOM     16  N   UNL     1      -2.985  -3.089  -1.399  1.00  0.00    -0.369 N 
ATOM     17  O   UNL     1      -3.330  -1.021  -2.167  1.00  0.00    -0.274 OA
ATOM     18  H   UNL     1      -2.480  -3.615  -0.696  1.00  0.00     0.159 HD
ATOM     19  H   UNL     1      -2.786  -3.331  -2.362  1.00  0.00     0.159 HD
ENDBRANCH  13  15
BRANCH  13  20
ATOM     20  C   UNL     1      -3.791   0.170   0.475  1.00  0.00     0.060 A 
ATOM     21  C   UNL     1      -4.774   0.733  -0.345  1.00  0.00     0.025 A 
ATOM     22  N   UNL     1      -3.294   0.866   1.536  1.00  0.00    -0.260 NA
ATOM     23  C   UNL     1      -5.203   2.039  -0.113  1.00  0.00     0.004 A 
ATOM     24  C   UNL     1      -3.721   2.132   1.735  1.00  0.00     0.111 A 
ATOM     25  C   UNL     1      -4.664   2.758   0.944  1.00  0.00     0.020 A 
ENDBRANCH  13  20
ENDBRANCH   8  13
ENDBRANCH   1   7
BRANCH   4  26
ATOM     26  O   UNL     1       4.913   1.383  -1.714  1.00  0.00    -0.491 OA
BRANCH  26  27
ATOM     27  C   UNL     1       5.863   2.155  -0.984  1.00  0.00     0.257 C 
BRANCH  27  28
ATOM     28  C   UNL     1       6.915   2.678  -1.958  1.00  0.00     0.197 C 
BRANCH  28  29
ATOM     29  O   UNL     1       7.933   3.400  -1.273  1.00  0.00    -0.393 OA
ATOM     30  H   UNL     1       8.459   2.754  -0.770  1.00  0.00     0.210 HD
ENDBRANCH  28  29
ENDBRANCH  27  28
ENDBRANCH  26  27
ENDBRANCH   4  26
TORSDOF 8
