MODEL        2USER    Run = 2USERUSER    Estimated Free Energy of Binding    = -11.02 kcal/mol  [=(1)+(2)+(3)-(4)]USERUSER    (1) Final Intermolecular Energy     = -13.11 kcal/molUSER        vdW + Hbond + desolv Energy     = -12.82 kcal/molUSER        Electrostatic Energy            =  -0.29 kcal/molUSER        Moving Ligand-Fixed Receptor    = -13.11 kcal/molUSER        Moving Ligand-Moving Receptor   =  +0.00 kcal/molUSER    (2) Final Total Internal Energy     =  -1.06 kcal/molUSER    (3) Torsional Free Energy           =  +2.09 kcal/molUSER    (4) Unbound System's Energy         =  -1.06 kcal/molUSERUSERREMARK SMILES Cc1c(C(=Cc2ccccn2)C(N)=O)cccc1-c1ccc(S(N)(=O)=O)cc1REMARK SMILES IDX 1 1 2 2 3 3 15 4 16 5 17 6 18 7 4 8 5 9 6 10 7 11 11 12 8 13REMARK SMILES IDX 10 14 9 15 12 16 13 17 14 18 19 21 20 22 28 23 21 24 27 25REMARK SMILES IDX 22 26 23 27 25 28 26 29 24 30REMARK H PARENT 13 19 13 20 24 31 24 32USER                              x       y       z     vdW  Elec       q    TypeUSER                           _______ _______ _______ _____ _____    ______ ____ROOTATOM      1  C   UNL     1      38.267  46.057  17.733 -0.38 -0.01    +0.045 C  ATOM      2  C   UNL     1      38.064  46.418  16.279 -0.37 +0.01    -0.035 A  ATOM      3  C   UNL     1      39.034  47.189  15.590 -0.46 +0.00    -0.009 A  ATOM      4  C   UNL     1      38.845  47.512  14.236 -0.47 -0.00    +0.009 A  ATOM      5  C   UNL     1      37.715  47.074  13.556 -0.51 -0.00    +0.001 A  ATOM      6  C   UNL     1      36.769  46.295  14.218 -0.43 -0.00    +0.009 A  ATOM      7  C   UNL     1      36.928  45.947  15.573 -0.36 +0.01    -0.015 A  ENDROOTBRANCH   3   8ATOM      8  C   UNL     1      40.275  47.678  16.238 -0.57 -0.01    +0.049 C  BRANCH   8   9ATOM      9  C   UNL     1      41.031  46.733  16.836 -0.30 -0.00    +0.042 C  BRANCH   9  10ATOM     10  C   UNL     1      41.465  46.605  18.229 -0.46 -0.00    +0.064 A  ATOM     11  C   UNL     1      41.034  45.583  19.068 -0.44 +0.00    +0.028 A  ATOM     12  N   UNL     1      42.430  47.484  18.590 -0.40 -0.01    -0.257 NA ATOM     13  C   UNL     1      41.567  45.498  20.352 -0.36 +0.00    +0.004 A  ATOM     14  C   UNL     1      42.925  47.381  19.842 -0.38 +0.02    +0.111 A  ATOM     15  C   UNL     1      42.529  46.416  20.752 -0.35 +0.01    +0.020 A  ENDBRANCH   9  10ENDBRANCH   8   9BRANCH   8  16ATOM     16  C   UNL     1      40.659  49.128  16.154 -0.40 -0.06    +0.249 C  ATOM     17  N   UNL     1      39.686  49.973  15.707 -0.01 +0.23    -0.366 N  ATOM     18  O   UNL     1      41.758  49.577  16.449 -1.05 -0.05    -0.270 OA ATOM     19  H   UNL     1      39.930  50.950  15.610 -0.43 -0.12    +0.159 HD ATOM     20  H   UNL     1      38.772  49.669  15.406 -0.33 -0.13    +0.159 HD ENDBRANCH   8  16ENDBRANCH   3   8BRANCH   7  21ATOM     21  C   UNL     1      35.906  45.091  16.197 -0.32 +0.01    -0.018 A  ATOM     22  C   UNL     1      35.915  43.700  15.994 -0.40 -0.00    +0.010 A  ATOM     23  C   UNL     1      34.905  45.648  17.011 -0.34 -0.01    +0.010 A  ATOM     24  C   UNL     1      34.946  42.885  16.583 -0.42 -0.01    +0.022 A  ATOM     25  C   UNL     1      33.931  44.840  17.603 -0.32 -0.01    +0.022 A  ATOM     26  C   UNL     1      33.964  43.460  17.391 -0.27 -0.03    +0.082 A  BRANCH  26  27ATOM     27  S   UNL     1      32.718  42.441  18.136 -0.36 -0.05    +0.238 S  ATOM     28  O   UNL     1      32.892  42.481  19.568 -0.64 -0.02    -0.207 OA ATOM     29  O   UNL     1      31.454  42.721  17.496 -0.21 +0.05    -0.207 OA BRANCH  27  30ATOM     30  N   UNL     1      33.169  40.911  17.596 -0.27 +0.09    -0.225 NA ATOM     31  H   UNL     1      32.729  40.738  16.691 -0.34 -0.12    +0.137 HD ATOM     32  H   UNL     1      34.178  40.775  17.563 -0.45 -0.08    +0.137 HD ENDBRANCH  27  30ENDBRANCH  26  27ENDBRANCH   7  21TORSDOF 7TERENDMDL