REMARK SMILES Cc1c(C(=Cc2ccccn2)C(N)=O)cccc1-c1ccc(S(N)(=O)=O)cc1
REMARK SMILES IDX 1 1 2 2 3 3 15 4 16 5 17 6 18 7 4 8 5 9 6 10 7 11 11 12 8 13
REMARK SMILES IDX 10 14 9 15 12 16 13 17 14 18 19 21 20 22 28 23 21 24 27 25
REMARK SMILES IDX 22 26 23 27 25 28 26 29 24 30
REMARK H PARENT 13 19 13 20 24 31 24 32
ROOT
ATOM      1  C   UNL     1      -0.050   1.000   0.444  1.00  0.00     0.045 C 
ATOM      2  C   UNL     1       0.009  -0.511   0.436  1.00  0.00    -0.035 A 
ATOM      3  C   UNL     1      -1.184  -1.275   0.484  1.00  0.00    -0.009 A 
ATOM      4  C   UNL     1      -1.123  -2.678   0.466  1.00  0.00     0.009 A 
ATOM      5  C   UNL     1       0.101  -3.332   0.392  1.00  0.00     0.001 A 
ATOM      6  C   UNL     1       1.277  -2.589   0.320  1.00  0.00     0.009 A 
ATOM      7  C   UNL     1       1.254  -1.181   0.329  1.00  0.00    -0.015 A 
ENDROOT
BRANCH   3   8
ATOM      8  C   UNL     1      -2.530  -0.654   0.545  1.00  0.00     0.049 C 
BRANCH   8   9
ATOM      9  C   UNL     1      -3.065  -0.306  -0.644  1.00  0.00     0.042 C 
BRANCH   9  10
ATOM     10  C   UNL     1      -4.349   0.324  -0.960  1.00  0.00     0.064 A 
ATOM     11  C   UNL     1      -4.795   1.490  -0.348  1.00  0.00     0.028 A 
ATOM     12  N   UNL     1      -5.003  -0.248  -2.000  1.00  0.00    -0.257 NA
ATOM     13  C   UNL     1      -5.993   2.058  -0.776  1.00  0.00     0.004 A 
ATOM     14  C   UNL     1      -6.164   0.321  -2.390  1.00  0.00     0.111 A 
ATOM     15  C   UNL     1      -6.696   1.462  -1.814  1.00  0.00     0.020 A 
ENDBRANCH   9  10
ENDBRANCH   8   9
BRANCH   8  16
ATOM     16  C   UNL     1      -3.241  -0.502   1.860  1.00  0.00     0.249 C 
ATOM     17  N   UNL     1      -2.478  -0.704   2.972  1.00  0.00    -0.366 N 
ATOM     18  O   UNL     1      -4.425  -0.221   1.984  1.00  0.00    -0.270 OA
ATOM     19  H   UNL     1      -2.941  -0.640   3.869  1.00  0.00     0.159 HD
ATOM     20  H   UNL     1      -1.507  -0.979   2.946  1.00  0.00     0.159 HD
ENDBRANCH   8  16
ENDBRANCH   3   8
BRANCH   7  21
ATOM     21  C   UNL     1       2.533  -0.463   0.213  1.00  0.00    -0.018 A 
ATOM     22  C   UNL     1       3.414  -0.387   1.306  1.00  0.00     0.010 A 
ATOM     23  C   UNL     1       2.900   0.157  -0.994  1.00  0.00     0.010 A 
ATOM     24  C   UNL     1       4.628   0.295   1.201  1.00  0.00     0.022 A 
ATOM     25  C   UNL     1       4.112   0.842  -1.108  1.00  0.00     0.022 A 
ATOM     26  C   UNL     1       4.973   0.899  -0.010  1.00  0.00     0.082 A 
BRANCH  26  27
ATOM     27  S   UNL     1       6.505   1.780  -0.157  1.00  0.00     0.238 S 
ATOM     28  O   UNL     1       6.321   2.861  -1.095  1.00  0.00    -0.207 OA
ATOM     29  O   UNL     1       7.048   1.980   1.167  1.00  0.00    -0.207 OA
BRANCH  27  30
ATOM     30  N   UNL     1       7.491   0.622  -0.879  1.00  0.00    -0.225 NA
ATOM     31  H   UNL     1       8.245   0.382  -0.234  1.00  0.00     0.137 HD
ATOM     32  H   UNL     1       6.982  -0.202  -1.196  1.00  0.00     0.137 HD
ENDBRANCH  27  30
ENDBRANCH  26  27
ENDBRANCH   7  21
TORSDOF 7
