REMARK SMILES Cc1c(C(=Cc2ccccn2)C(N)=O)cccc1-c1ccc(C(N)=O)cc1
REMARK SMILES IDX 1 1 2 2 3 3 15 4 16 5 17 6 18 7 4 8 5 9 6 10 7 11 11 12 8 13
REMARK SMILES IDX 10 14 9 15 12 16 13 17 14 18 19 21 20 22 27 23 21 24 26 25
REMARK SMILES IDX 22 26 23 27 24 28 25 29
REMARK H PARENT 13 19 13 20 24 30 24 31
ROOT
ATOM      1  C   UNL     1       0.430  -0.633   0.851  1.00  0.00     0.045 C 
ATOM      2  C   UNL     1       0.329   0.070  -0.484  1.00  0.00    -0.035 A 
ATOM      3  C   UNL     1      -0.885   0.062  -1.215  1.00  0.00    -0.009 A 
ATOM      4  C   UNL     1      -0.955   0.695  -2.468  1.00  0.00     0.009 A 
ATOM      5  C   UNL     1       0.161   1.327  -3.007  1.00  0.00     0.001 A 
ATOM      6  C   UNL     1       1.362   1.321  -2.304  1.00  0.00     0.009 A 
ATOM      7  C   UNL     1       1.472   0.690  -1.051  1.00  0.00    -0.015 A 
ENDROOT
BRANCH   3   8
ATOM      8  C   UNL     1      -2.126  -0.587  -0.708  1.00  0.00     0.049 C 
BRANCH   8   9
ATOM      9  C   UNL     1      -2.973   0.245  -0.059  1.00  0.00     0.042 C 
BRANCH   9  10
ATOM     10  C   UNL     1      -4.243   0.028   0.654  1.00  0.00     0.064 A 
ATOM     11  C   UNL     1      -4.937   1.125   1.169  1.00  0.00     0.028 A 
ATOM     12  N   UNL     1      -4.686  -1.239   0.817  1.00  0.00    -0.257 NA
ATOM     13  C   UNL     1      -6.117   0.913   1.880  1.00  0.00     0.004 A 
ATOM     14  C   UNL     1      -5.829  -1.418   1.521  1.00  0.00     0.111 A 
ATOM     15  C   UNL     1      -6.575  -0.385   2.062  1.00  0.00     0.020 A 
ENDBRANCH   9  10
ENDBRANCH   8   9
BRANCH   8  16
ATOM     16  C   UNL     1      -2.250  -2.064  -0.953  1.00  0.00     0.249 C 
ATOM     17  N   UNL     1      -3.496  -2.566  -1.142  1.00  0.00    -0.366 N 
ATOM     18  O   UNL     1      -1.270  -2.799  -1.050  1.00  0.00    -0.270 OA
ATOM     19  H   UNL     1      -3.544  -3.575  -1.139  1.00  0.00     0.159 HD
ATOM     20  H   UNL     1      -4.261  -2.086  -0.669  1.00  0.00     0.159 HD
ENDBRANCH   8  16
ENDBRANCH   3   8
BRANCH   7  21
ATOM     21  C   UNL     1       2.786   0.680  -0.389  1.00  0.00    -0.018 A 
ATOM     22  C   UNL     1       3.276   1.827   0.253  1.00  0.00     0.009 A 
ATOM     23  C   UNL     1       3.586  -0.474  -0.408  1.00  0.00     0.009 A 
ATOM     24  C   UNL     1       4.529   1.817   0.874  1.00  0.00     0.014 A 
ATOM     25  C   UNL     1       4.839  -0.490   0.215  1.00  0.00     0.014 A 
ATOM     26  C   UNL     1       5.309   0.655   0.868  1.00  0.00     0.039 A 
BRANCH  26  27
ATOM     27  C   UNL     1       6.631   0.688   1.549  1.00  0.00     0.248 C 
ATOM     28  N   UNL     1       7.143  -0.502   1.986  1.00  0.00    -0.366 N 
ATOM     29  O   UNL     1       7.225   1.740   1.750  1.00  0.00    -0.270 OA
ATOM     30  H   UNL     1       7.965  -0.434   2.572  1.00  0.00     0.159 HD
ATOM     31  H   UNL     1       6.560  -1.318   2.104  1.00  0.00     0.159 HD
ENDBRANCH  26  27
ENDBRANCH   7  21
TORSDOF 6
