REMARK SMILES COc1ccc(O)c(C(=O)c2ccc(C(=O)N[C@H]3CCCN(C)C3)cc2)c1
REMARK SMILES IDX 11 1 12 2 13 3 14 4 25 5 26 6 9 7 10 8 8 9 3 10 4 11 27 12
REMARK SMILES IDX 5 13 6 14 2 15 1 16 7 17 15 19 17 20 16 21 18 23 19 24 24 25
REMARK SMILES IDX 20 26 22 27 21 28 23 29
REMARK H PARENT 7 18 17 22
ROOT
ATOM      1  C   UNL     1       2.248  -0.945   1.039  1.00  0.00     0.023 A 
ATOM      2  C   UNL     1       1.837  -1.556  -0.149  1.00  0.00     0.013 A 
ATOM      3  C   UNL     1       0.504  -1.450  -0.554  1.00  0.00     0.014 A 
ATOM      4  C   UNL     1      -0.427  -0.756   0.232  1.00  0.00     0.039 A 
ATOM      5  C   UNL     1      -0.011  -0.160   1.431  1.00  0.00     0.014 A 
ATOM      6  C   UNL     1       1.323  -0.266   1.839  1.00  0.00     0.013 A 
ENDROOT
BRANCH   1   7
ATOM      7  C   UNL     1       3.652  -1.018   1.500  1.00  0.00     0.196 C 
ATOM      8  O   UNL     1       3.867  -1.345   2.668  1.00  0.00    -0.288 OA
BRANCH   7   9
ATOM      9  C   UNL     1       4.803  -0.707   0.608  1.00  0.00     0.068 A 
ATOM     10  C   UNL     1       5.732   0.307  -1.403  1.00  0.00     0.119 A 
ATOM     11  C   UNL     1       7.004  -0.130  -1.035  1.00  0.00     0.050 A 
ATOM     12  C   UNL     1       4.638   0.023  -0.577  1.00  0.00     0.062 A 
ATOM     13  C   UNL     1       7.183  -0.837   0.156  1.00  0.00     0.051 A 
ATOM     14  C   UNL     1       6.092  -1.115   0.975  1.00  0.00     0.127 A 
BRANCH  10  15
ATOM     15  O   UNL     1       5.419   1.011  -2.533  1.00  0.00    -0.497 OA
ATOM     16  C   UNL     1       6.499   1.411  -3.365  1.00  0.00     0.278 C 
ENDBRANCH  10  15
BRANCH  14  17
ATOM     17  O   UNL     1       6.362  -1.794   2.134  1.00  0.00    -0.507 OA
ATOM     18  H   UNL     1       5.533  -1.824   2.666  1.00  0.00     0.293 HD
ENDBRANCH  14  17
ENDBRANCH   7   9
ENDBRANCH   1   7
BRANCH   4  19
ATOM     19  C   UNL     1      -1.826  -0.644  -0.271  1.00  0.00     0.251 C 
ATOM     20  N   UNL     1      -2.815  -0.466   0.671  1.00  0.00    -0.348 N 
ATOM     21  O   UNL     1      -2.049  -0.718  -1.475  1.00  0.00    -0.269 OA
ATOM     22  H   UNL     1      -2.579  -0.419   1.652  1.00  0.00     0.164 HD
BRANCH  20  23
ATOM     23  C   UNL     1      -4.195  -0.182   0.281  1.00  0.00     0.096 C 
ATOM     24  C   UNL     1      -5.159  -0.504   1.436  1.00  0.00     0.027 C 
ATOM     25  C   UNL     1      -4.367   1.280  -0.189  1.00  0.00     0.109 C 
ATOM     26  C   UNL     1      -6.397   0.400   1.444  1.00  0.00     0.018 C 
ATOM     27  N   UNL     1      -5.734   1.635  -0.615  1.00  0.00    -0.304 NA
ATOM     28  C   UNL     1      -6.782   0.820   0.024  1.00  0.00     0.084 C 
ATOM     29  C   UNL     1      -5.869   1.587  -2.074  1.00  0.00     0.105 C 
ENDBRANCH  20  23
ENDBRANCH   4  19
TORSDOF 6
