MODEL        10USER    Run = 10USERUSER    Estimated Free Energy of Binding    =  -8.56 kcal/mol  [=(1)+(2)+(3)-(4)]USERUSER    (1) Final Intermolecular Energy     = -10.35 kcal/molUSER        vdW + Hbond + desolv Energy     = -10.01 kcal/molUSER        Electrostatic Energy            =  -0.35 kcal/molUSER        Moving Ligand-Fixed Receptor    = -10.35 kcal/molUSER        Moving Ligand-Moving Receptor   =  +0.00 kcal/molUSER    (2) Final Total Internal Energy     =  -1.40 kcal/molUSER    (3) Torsional Free Energy           =  +1.79 kcal/molUSER    (4) Unbound System's Energy         =  -1.40 kcal/molUSERUSERREMARK SMILES COc1ccc(O)c(C(=O)c2ccc(C(=O)N[C@@H]3CCCNC3)cc2)c1REMARK SMILES IDX 11 1 12 2 13 3 14 4 24 5 25 6 9 7 10 8 8 9 3 10 4 11 26 12REMARK SMILES IDX 5 13 6 14 2 15 1 16 7 17 15 19 17 20 16 21 18 23 19 24 23 25REMARK SMILES IDX 20 26 22 27 21 28REMARK H PARENT 7 18 17 22 22 29USER                              x       y       z     vdW  Elec       q    TypeUSER                           _______ _______ _______ _____ _____    ______ ____ROOTATOM      1  C   UNL     1      27.689  33.234  21.789 -0.41 -0.01    +0.023 A  ATOM      2  C   UNL     1      28.305  34.281  22.486 -0.41 +0.00    +0.013 A  ATOM      3  C   UNL     1      28.225  35.591  22.002 -0.36 -0.00    +0.014 A  ATOM      4  C   UNL     1      27.532  35.857  20.814 -0.31 -0.02    +0.039 A  ATOM      5  C   UNL     1      26.951  34.800  20.100 -0.30 -0.01    +0.014 A  ATOM      6  C   UNL     1      27.032  33.491  20.582 -0.40 -0.01    +0.013 A  ENDROOTBRANCH   1   7ATOM      7  C   UNL     1      27.815  31.860  22.328 -0.35 -0.05    +0.196 C  ATOM      8  O   UNL     1      26.815  31.141  22.363 -0.07 +0.20    -0.288 OA BRANCH   7   9ATOM      9  C   UNL     1      29.097  31.318  22.845 -0.43 +0.00    +0.068 A  ATOM     10  C   UNL     1      31.397  30.596  22.508 -0.47 +0.00    +0.119 A  ATOM     11  C   UNL     1      31.502  30.297  23.867 -0.57 +0.01    +0.050 A  ATOM     12  C   UNL     1      30.193  31.098  22.000 -0.46 -0.01    +0.062 A  ATOM     13  C   UNL     1      30.405  30.487  24.712 -0.42 +0.03    +0.051 A  ATOM     14  C   UNL     1      29.209  30.982  24.200 -0.38 +0.06    +0.127 A  BRANCH  10  15ATOM     15  O   UNL     1      32.384  30.443  21.573 -0.88 -0.01    -0.497 OA ATOM     16  C   UNL     1      33.624  29.911  22.025 -0.29 -0.03    +0.278 C  ENDBRANCH  10  15BRANCH  14  17ATOM     17  O   UNL     1      28.175  31.111  25.089 -0.68 -0.45    -0.507 OA ATOM     18  H   UNL     1      27.336  31.069  24.577 +0.25 +0.20    +0.293 HD ENDBRANCH  14  17ENDBRANCH   7   9ENDBRANCH   1   7BRANCH   4  19ATOM     19  C   UNL     1      27.416  37.234  20.256 -0.22 -0.07    +0.251 C  ATOM     20  N   UNL     1      26.163  37.815  20.308 -0.10 +0.25    -0.348 N  ATOM     21  O   UNL     1      28.391  37.778  19.751 -0.20 -0.02    -0.269 OA ATOM     22  H   UNL     1      25.372  37.208  20.471 -0.36 -0.30    +0.164 HD BRANCH  20  23ATOM     23  C   UNL     1      25.909  39.089  19.638 -0.27 -0.03    +0.096 C  ATOM     24  C   UNL     1      24.487  39.574  19.925 -0.37 -0.01    +0.027 C  ATOM     25  C   UNL     1      26.157  39.011  18.106 -0.14 +0.02    +0.105 C  ATOM     26  C   UNL     1      23.422  38.737  19.206 -0.44 -0.01    +0.017 C  ATOM     27  N   UNL     1      24.967  38.751  17.272 -0.75 +0.01    -0.315 NA ATOM     28  C   UNL     1      23.956  37.983  17.987 -0.23 -0.06    +0.081 C  ATOM     29  H   UNL     1      24.563  39.645  16.989 +0.02 -0.01    +0.122 HD ENDBRANCH  20  23ENDBRANCH   4  19TORSDOF 6TERENDMDL