MODEL        7USER    Run = 7USERUSER    Estimated Free Energy of Binding    =  -8.58 kcal/mol  [=(1)+(2)+(3)-(4)]USERUSER    (1) Final Intermolecular Energy     = -10.37 kcal/molUSER        vdW + Hbond + desolv Energy     =  -9.92 kcal/molUSER        Electrostatic Energy            =  -0.45 kcal/molUSER        Moving Ligand-Fixed Receptor    = -10.37 kcal/molUSER        Moving Ligand-Moving Receptor   =  +0.00 kcal/molUSER    (2) Final Total Internal Energy     =  -1.42 kcal/molUSER    (3) Torsional Free Energy           =  +1.79 kcal/molUSER    (4) Unbound System's Energy         =  -1.42 kcal/molUSERUSERREMARK SMILES COc1ccc(O)c(C(=O)c2ccc(C(=O)N[C@@H]3CCCN(C)C3)cc2)c1REMARK SMILES IDX 11 1 12 2 13 3 14 4 25 5 26 6 9 7 10 8 8 9 3 10 4 11 27 12REMARK SMILES IDX 5 13 6 14 2 15 1 16 7 17 15 19 17 20 16 21 18 23 19 24 24 25REMARK SMILES IDX 20 26 22 27 21 28 23 29REMARK H PARENT 7 18 17 22USER                              x       y       z     vdW  Elec       q    TypeUSER                           _______ _______ _______ _____ _____    ______ ____ROOTATOM      1  C   UNL     1      42.014  46.468  19.774 -0.42 +0.00    +0.023 A  ATOM      2  C   UNL     1      40.794  46.015  19.259 -0.44 +0.00    +0.013 A  ATOM      3  C   UNL     1      40.274  46.592  18.097 -0.47 -0.00    +0.014 A  ATOM      4  C   UNL     1      40.963  47.626  17.447 -0.49 -0.00    +0.039 A  ATOM      5  C   UNL     1      42.163  48.103  17.987 -0.34 -0.00    +0.014 A  ATOM      6  C   UNL     1      42.685  47.527  19.150 -0.50 +0.00    +0.013 A  ENDROOTBRANCH   1   7ATOM      7  C   UNL     1      42.591  45.904  21.018 -0.22 +0.06    +0.196 C  ATOM      8  O   UNL     1      42.538  44.687  21.198 -0.17 -0.07    -0.288 OA BRANCH   7   9ATOM      9  C   UNL     1      43.251  46.744  22.050 -0.28 +0.02    +0.068 A  ATOM     10  C   UNL     1      43.218  48.592  23.633 -0.26 +0.03    +0.119 A  ATOM     11  C   UNL     1      44.537  48.308  23.989 -0.23 +0.01    +0.050 A  ATOM     12  C   UNL     1      42.576  47.805  22.670 -0.28 +0.01    +0.062 A  ATOM     13  C   UNL     1      45.206  47.234  23.397 -0.18 +0.02    +0.051 A  ATOM     14  C   UNL     1      44.562  46.450  22.444 -0.18 +0.07    +0.127 A  BRANCH  10  15ATOM     15  O   UNL     1      42.447  49.600  24.145 -0.65 -0.20    -0.497 OA ATOM     16  C   UNL     1      41.515  49.246  25.161 -0.23 +0.05    +0.278 C  ENDBRANCH  10  15BRANCH  14  17ATOM     17  O   UNL     1      45.276  45.400  21.934 -0.21 -0.63    -0.507 OA ATOM     18  H   UNL     1      44.642  44.671  21.748 +0.11 +0.23    +0.293 HD ENDBRANCH  14  17ENDBRANCH   7   9ENDBRANCH   1   7BRANCH   4  19ATOM     19  C   UNL     1      40.360  48.210  16.216 -0.42 -0.06    +0.251 C  ATOM     20  N   UNL     1      39.135  47.704  15.833 -0.21 +0.13    -0.348 N  ATOM     21  O   UNL     1      40.938  49.111  15.620 -0.60 +0.05    -0.269 OA ATOM     22  H   UNL     1      38.615  47.158  16.506 +0.11 -0.07    +0.164 HD BRANCH  20  23ATOM     23  C   UNL     1      38.387  48.281  14.711 -0.52 -0.05    +0.096 C  ATOM     24  C   UNL     1      36.924  48.535  15.120 -0.44 -0.03    +0.027 C  ATOM     25  C   UNL     1      38.477  47.381  13.446 -0.35 -0.02    +0.109 C  ATOM     26  C   UNL     1      36.051  47.333  14.772 -0.25 -0.02    +0.018 C  ATOM     27  N   UNL     1      37.289  47.525  12.593 -0.89 +0.07    -0.304 NA ATOM     28  C   UNL     1      36.080  47.032  13.266 -0.58 -0.05    +0.084 C  ATOM     29  C   UNL     1      37.477  46.864  11.304 -0.32 -0.02    +0.105 C  ENDBRANCH  20  23ENDBRANCH   4  19TORSDOF 6TERENDMDL