MODEL        10USER    Run = 10USERUSER    Estimated Free Energy of Binding    =  -8.71 kcal/mol  [=(1)+(2)+(3)-(4)]USERUSER    (1) Final Intermolecular Energy     = -10.50 kcal/molUSER        vdW + Hbond + desolv Energy     = -10.08 kcal/molUSER        Electrostatic Energy            =  -0.41 kcal/molUSER        Moving Ligand-Fixed Receptor    = -10.50 kcal/molUSER        Moving Ligand-Moving Receptor   =  +0.00 kcal/molUSER    (2) Final Total Internal Energy     =  -1.45 kcal/molUSER    (3) Torsional Free Energy           =  +1.79 kcal/molUSER    (4) Unbound System's Energy         =  -1.45 kcal/molUSERUSERREMARK SMILES COc1ccc(O)c(C(=O)c2ccc(C(=O)N[C@H]3CCCN(C)C3)cc2)c1REMARK SMILES IDX 11 1 12 2 13 3 14 4 25 5 26 6 9 7 10 8 8 9 3 10 4 11 27 12REMARK SMILES IDX 5 13 6 14 2 15 1 16 7 17 15 19 17 20 16 21 18 23 19 24 24 25REMARK SMILES IDX 20 26 22 27 21 28 23 29REMARK H PARENT 7 18 17 22USER                              x       y       z     vdW  Elec       q    TypeUSER                           _______ _______ _______ _____ _____    ______ ____ROOTATOM      1  C   UNL     1      42.031  46.156  20.072 -0.38 +0.00    +0.023 A  ATOM      2  C   UNL     1      42.477  47.198  19.254 -0.51 +0.00    +0.013 A  ATOM      3  C   UNL     1      41.749  47.539  18.112 -0.49 -0.00    +0.014 A  ATOM      4  C   UNL     1      40.588  46.831  17.769 -0.48 -0.00    +0.039 A  ATOM      5  C   UNL     1      40.155  45.777  18.585 -0.45 -0.00    +0.014 A  ATOM      6  C   UNL     1      40.884  45.433  19.729 -0.41 +0.00    +0.013 A  ENDROOTBRANCH   1   7ATOM      7  C   UNL     1      42.762  45.770  21.299 -0.19 +0.06    +0.196 C  ATOM      8  O   UNL     1      42.903  44.570  21.542 -0.16 -0.08    -0.288 OA BRANCH   7   9ATOM      9  C   UNL     1      43.322  46.774  22.245 -0.26 +0.02    +0.068 A  ATOM     10  C   UNL     1      43.060  48.690  23.727 -0.26 +0.03    +0.119 A  ATOM     11  C   UNL     1      44.420  48.637  24.035 -0.23 +0.01    +0.050 A  ATOM     12  C   UNL     1      42.516  47.754  22.839 -0.29 +0.01    +0.062 A  ATOM     13  C   UNL     1      45.227  47.649  23.467 -0.20 +0.02    +0.051 A  ATOM     14  C   UNL     1      44.680  46.720  22.586 -0.19 +0.07    +0.127 A  BRANCH  10  15ATOM     15  O   UNL     1      42.160  49.596  24.215 -0.59 -0.17    -0.497 OA ATOM     16  C   UNL     1      41.430  49.221  25.375 -0.23 +0.05    +0.278 C  ENDBRANCH  10  15BRANCH  14  17ATOM     17  O   UNL     1      45.540  45.774  22.093 -0.37 -0.65    -0.507 OA ATOM     18  H   UNL     1      45.023  44.949  21.937 +0.10 +0.28    +0.293 HD ENDBRANCH  14  17ENDBRANCH   7   9ENDBRANCH   1   7BRANCH   4  19ATOM     19  C   UNL     1      39.831  47.266  16.560 -0.37 -0.06    +0.251 C  ATOM     20  N   UNL     1      38.682  46.568  16.259 -0.17 +0.11    -0.348 N  ATOM     21  O   UNL     1      40.247  48.202  15.885 -0.38 +0.07    -0.269 OA ATOM     22  H   UNL     1      38.387  45.799  16.844 +0.11 -0.05    +0.164 HD BRANCH  20  23ATOM     23  C   UNL     1      37.780  47.010  15.197 -0.42 -0.05    +0.096 C  ATOM     24  C   UNL     1      37.253  48.425  15.490 -0.43 -0.03    +0.027 C  ATOM     25  C   UNL     1      38.459  46.951  13.810 -0.42 -0.03    +0.109 C  ATOM     26  C   UNL     1      36.973  49.229  14.216 -0.42 -0.01    +0.018 C  ATOM     27  N   UNL     1      37.601  47.368  12.684 -0.86 +0.06    -0.304 NA ATOM     28  C   UNL     1      36.538  48.313  13.070 -0.55 -0.04    +0.084 C  ATOM     29  C   UNL     1      37.027  46.210  11.992 -0.57 -0.03    +0.105 C  ENDBRANCH  20  23ENDBRANCH   4  19TORSDOF 6TERENDMDL