MODEL        8USER    Run = 8USERUSER    Estimated Free Energy of Binding    =  -8.71 kcal/mol  [=(1)+(2)+(3)-(4)]USERUSER    (1) Final Intermolecular Energy     =  -9.61 kcal/molUSER        vdW + Hbond + desolv Energy     =  -9.47 kcal/molUSER        Electrostatic Energy            =  -0.14 kcal/molUSER        Moving Ligand-Fixed Receptor    =  -9.61 kcal/molUSER        Moving Ligand-Moving Receptor   =  +0.00 kcal/molUSER    (2) Final Total Internal Energy     =  -0.84 kcal/molUSER    (3) Torsional Free Energy           =  +0.89 kcal/molUSER    (4) Unbound System's Energy         =  -0.84 kcal/molUSERUSERREMARK SMILES CO[C@@H]1CC=C(F)C=C1[C@H]1c2cc(-c3n[nH]c4ccccc34)[nH]c21REMARK SMILES IDX 3 1 4 2 5 3 6 4 7 5 8 6 9 7 2 8 1 9 10 10 11 11 24 12 12 13REMARK SMILES IDX 23 14 13 15 14 17 15 18 22 19 16 20 21 21 17 22 20 23 18 24REMARK SMILES IDX 19 25REMARK H PARENT 23 16 16 26USER                              x       y       z     vdW  Elec       q    TypeUSER                           _______ _______ _______ _____ _____    ______ ____ROOTATOM      1  C   UNL     1      43.178  47.373  21.213 -0.29 +0.03    +0.149 C  ATOM      2  C   UNL     1      42.730  47.596  22.682 -0.33 +0.01    +0.067 C  ATOM      3  C   UNL     1      41.703  46.624  23.189 -0.24 +0.00    +0.015 C  ATOM      4  C   UNL     1      41.020  45.833  22.357 -0.22 +0.01    +0.119 C  ATOM      5  F   UNL     1      40.087  44.992  22.843 -0.02 -0.01    -0.207 F  ATOM      6  C   UNL     1      41.207  45.876  20.933 -0.36 +0.00    +0.042 C  ATOM      7  C   UNL     1      42.194  46.588  20.351 -0.44 -0.00    -0.025 C  ENDROOTBRANCH   1   8ATOM      8  O   UNL     1      44.411  46.633  21.192 -0.55 -0.38    -0.377 OA ATOM      9  C   UNL     1      45.086  46.656  22.443 -0.17 +0.14    +0.195 C  ENDBRANCH   1   8BRANCH   7  10ATOM     10  C   UNL     1      42.442  46.619  18.900 -0.47 +0.01    +0.097 C  ATOM     11  C   UNL     1      41.415  46.161  17.991 -0.46 +0.00    -0.012 A  ATOM     12  C   UNL     1      41.705  47.577  18.087 -0.48 -0.00    +0.031 A  ATOM     13  C   UNL     1      40.406  46.043  17.057 -0.41 -0.00    +0.035 A  ATOM     14  N   UNL     1      40.853  48.147  17.217 -0.27 +0.05    -0.356 N  ATOM     15  C   UNL     1      40.053  47.266  16.577 -0.46 -0.01    +0.067 A  ATOM     16  H   UNL     1      40.795  49.140  17.037 +0.11 -0.03    +0.166 HD BRANCH  15  17ATOM     17  C   UNL     1      38.989  47.689  15.532 -0.41 -0.05    +0.116 A  ATOM     18  N   UNL     1      38.670  48.987  15.429 -0.36 +0.11    -0.173 NA ATOM     19  C   UNL     1      38.260  46.879  14.618 -0.42 -0.01    +0.029 A  ATOM     20  N   UNL     1      37.745  49.008  14.456 -0.24 +0.19    -0.277 N  ATOM     21  C   UNL     1      38.176  45.514  14.283 -0.39 -0.00    +0.013 A  ATOM     22  C   UNL     1      37.453  47.780  13.928 -0.49 -0.03    +0.066 A  ATOM     23  C   UNL     1      37.290  45.109  13.275 -0.46 -0.00    +0.001 A  ATOM     24  C   UNL     1      36.562  47.399  12.918 -0.63 -0.01    +0.028 A  ATOM     25  C   UNL     1      36.497  46.038  12.605 -0.60 -0.00    +0.002 A  ATOM     26  H   UNL     1      37.345  49.900  14.194 -0.41 -0.17    +0.190 HD ENDBRANCH  15  17ENDBRANCH   7  10TORSDOF 3TERENDMDL