MODEL        7USER    Run = 7USERUSER    Estimated Free Energy of Binding    =  -8.70 kcal/mol  [=(1)+(2)+(3)-(4)]USERUSER    (1) Final Intermolecular Energy     = -10.49 kcal/molUSER        vdW + Hbond + desolv Energy     = -10.18 kcal/molUSER        Electrostatic Energy            =  -0.31 kcal/molUSER        Moving Ligand-Fixed Receptor    = -10.49 kcal/molUSER        Moving Ligand-Moving Receptor   =  +0.00 kcal/molUSER    (2) Final Total Internal Energy     =  -1.57 kcal/molUSER    (3) Torsional Free Energy           =  +1.79 kcal/molUSER    (4) Unbound System's Energy         =  -1.57 kcal/molUSERUSERREMARK SMILES COc1ccc(O)c(C(=O)c2ccc(C(=O)N[C@H]3CCCNC3)cc2)c1REMARK SMILES IDX 11 1 12 2 13 3 14 4 24 5 25 6 9 7 10 8 8 9 3 10 4 11 26 12REMARK SMILES IDX 5 13 6 14 2 15 1 16 7 17 15 19 17 20 16 21 18 23 19 24 23 25REMARK SMILES IDX 20 26 22 27 21 28REMARK H PARENT 7 18 17 22 22 29USER                              x       y       z     vdW  Elec       q    TypeUSER                           _______ _______ _______ _____ _____    ______ ____ROOTATOM      1  C   UNL     1      39.268  45.542  18.116 -0.41 -0.00    +0.023 A  ATOM      2  C   UNL     1      38.202  45.153  17.298 -0.36 -0.00    +0.013 A  ATOM      3  C   UNL     1      37.093  44.516  17.860 -0.33 -0.00    +0.014 A  ATOM      4  C   UNL     1      37.055  44.242  19.234 -0.34 -0.00    +0.039 A  ATOM      5  C   UNL     1      38.125  44.629  20.050 -0.35 -0.00    +0.014 A  ATOM      6  C   UNL     1      39.235  45.266  19.489 -0.39 -0.00    +0.013 A  ENDROOTBRANCH   1   7ATOM      7  C   UNL     1      40.472  46.201  17.557 -0.40 -0.02    +0.196 C  ATOM      8  O   UNL     1      41.582  45.854  17.962 -0.32 +0.00    -0.288 OA BRANCH   7   9ATOM      9  C   UNL     1      40.393  47.250  16.509 -0.46 -0.01    +0.068 A  ATOM     10  C   UNL     1      39.392  48.174  14.493 -0.41 -0.04    +0.119 A  ATOM     11  C   UNL     1      40.282  49.248  14.548 -0.35 -0.02    +0.050 A  ATOM     12  C   UNL     1      39.448  47.180  15.476 -0.44 -0.02    +0.062 A  ATOM     13  C   UNL     1      41.210  49.338  15.589 -0.58 -0.01    +0.051 A  ATOM     14  C   UNL     1      41.254  48.352  16.570 -0.36 -0.01    +0.127 A  BRANCH  10  15ATOM     15  O   UNL     1      38.429  47.976  13.542 -0.40 +0.12    -0.497 OA ATOM     16  C   UNL     1      37.074  48.030  13.975 -0.39 -0.16    +0.278 C  ENDBRANCH  10  15BRANCH  14  17ATOM     17  O   UNL     1      42.171  48.527  17.572 -0.40 -0.06    -0.507 OA ATOM     18  H   UNL     1      42.699  47.700  17.639 -0.33 -0.03    +0.293 HD ENDBRANCH  14  17ENDBRANCH   7   9ENDBRANCH   1   7BRANCH   4  19ATOM     19  C   UNL     1      35.847  43.569  19.782 -0.29 -0.02    +0.251 C  ATOM     20  N   UNL     1      34.704  43.638  19.013 -0.13 +0.06    -0.348 N  ATOM     21  O   UNL     1      35.904  43.004  20.868 -0.33 -0.01    -0.269 OA ATOM     22  H   UNL     1      34.774  43.988  18.068 +0.12 -0.05    +0.164 HD BRANCH  20  23ATOM     23  C   UNL     1      33.561  42.766  19.279 -0.39 -0.00    +0.096 C  ATOM     24  C   UNL     1      32.284  43.599  19.473 -0.47 -0.00    +0.027 C  ATOM     25  C   UNL     1      33.391  41.769  18.115 -0.40 -0.03    +0.105 C  ATOM     26  C   UNL     1      31.347  43.539  18.265 -0.31 -0.00    +0.017 C  ATOM     27  N   UNL     1      33.106  42.447  16.837 -0.14 +0.15    -0.315 NA ATOM     28  C   UNL     1      32.109  43.514  16.943 -0.31 -0.03    +0.081 C  ATOM     29  H   UNL     1      32.802  41.750  16.157 -0.52 -0.11    +0.122 HD ENDBRANCH  20  23ENDBRANCH   4  19TORSDOF 6TERENDMDL