MODEL        6USER    Run = 6USERUSER    Estimated Free Energy of Binding    =  -9.35 kcal/mol  [=(1)+(2)+(3)-(4)]USERUSER    (1) Final Intermolecular Energy     = -11.14 kcal/molUSER        vdW + Hbond + desolv Energy     = -10.82 kcal/molUSER        Electrostatic Energy            =  -0.32 kcal/molUSER        Moving Ligand-Fixed Receptor    = -11.14 kcal/molUSER        Moving Ligand-Moving Receptor   =  +0.00 kcal/molUSER    (2) Final Total Internal Energy     =  -1.37 kcal/molUSER    (3) Torsional Free Energy           =  +1.79 kcal/molUSER    (4) Unbound System's Energy         =  -1.37 kcal/molUSERUSERREMARK SMILES COc1ccc(O)c(C(=O)c2ccc(C(=O)N[C@@H]3CCCNC3)cc2)c1BrREMARK SMILES IDX 11 1 12 2 13 3 14 4 24 5 25 6 9 7 10 8 8 9 3 10 4 11 26 12REMARK SMILES IDX 5 13 6 14 27 15 2 16 1 17 7 18 15 20 17 21 16 22 18 24 19 25REMARK SMILES IDX 23 26 20 27 22 28 21 29REMARK H PARENT 7 19 17 23 22 30USER                              x       y       z     vdW  Elec       q    TypeUSER                           _______ _______ _______ _____ _____    ______ ____ROOTATOM      1  C   UNL     1      42.054  46.925  19.350 -0.47 +0.00    +0.023 A  ATOM      2  C   UNL     1      42.190  48.011  18.475 -0.36 -0.00    +0.013 A  ATOM      3  C   UNL     1      41.421  48.070  17.306 -0.48 -0.00    +0.014 A  ATOM      4  C   UNL     1      40.529  47.034  16.998 -0.48 -0.01    +0.039 A  ATOM      5  C   UNL     1      40.397  45.949  17.874 -0.47 -0.00    +0.014 A  ATOM      6  C   UNL     1      41.165  45.889  19.041 -0.46 +0.00    +0.013 A  ENDROOTBRANCH   1   7ATOM      7  C   UNL     1      42.860  46.815  20.592 -0.33 +0.06    +0.198 C  ATOM      8  O   UNL     1      44.079  46.979  20.546 -0.47 -0.22    -0.288 OA BRANCH   7   9ATOM      9  C   UNL     1      42.242  46.643  21.924 -0.25 +0.01    +0.082 A  ATOM     10  C   UNL     1      41.013  45.400  23.625 -0.10 +0.01    +0.134 A  ATOM     11  C   UNL     1      41.010  46.540  24.437 -0.14 +0.00    +0.051 A  ATOM     12  C   UNL     1      41.643  45.450  22.361 -0.19 +0.01    +0.074 A  ATOM     13  C   UNL     1      41.650  47.708  24.022 -0.25 +0.01    +0.051 A  ATOM     14  C   UNL     1      42.277  47.750  22.783 -0.21 +0.02    +0.128 A  ATOM     15  Br  UNL     1      41.744  43.849  21.319 -0.60 -0.00    -0.046 Br BRANCH  10  16ATOM     16  O   UNL     1      40.425  44.212  23.976 +0.01 -0.02    -0.496 OA ATOM     17  C   UNL     1      39.008  44.119  23.895 -0.13 +0.01    +0.278 C  ENDBRANCH  10  16BRANCH  14  18ATOM     18  O   UNL     1      42.919  48.916  22.463 -0.64 -0.11    -0.507 OA ATOM     19  H   UNL     1      43.576  48.715  21.759 -0.43 -0.03    +0.293 HD ENDBRANCH  14  18ENDBRANCH   7   9ENDBRANCH   1   7BRANCH   4  20ATOM     20  C   UNL     1      39.686  47.055  15.772 -0.36 -0.06    +0.251 C  ATOM     21  N   UNL     1      38.328  46.902  15.954 -0.16 +0.15    -0.348 N  ATOM     22  O   UNL     1      40.202  47.225  14.674 -0.33 +0.04    -0.269 OA ATOM     23  H   UNL     1      37.941  46.838  16.885 +0.10 -0.08    +0.164 HD BRANCH  21  24ATOM     24  C   UNL     1      37.408  46.877  14.824 -0.42 -0.05    +0.096 C  ATOM     25  C   UNL     1      37.637  45.634  13.963 -0.48 -0.01    +0.027 C  ATOM     26  C   UNL     1      37.527  48.158  13.956 -0.53 -0.05    +0.105 C  ATOM     27  C   UNL     1      36.674  45.591  12.772 -0.61 -0.01    +0.017 C  ATOM     28  N   UNL     1      37.110  47.999  12.552 -0.89 +0.07    -0.315 NA ATOM     29  C   UNL     1      36.097  46.962  12.408 -0.68 -0.04    +0.081 C  ATOM     30  H   UNL     1      36.752  48.891  12.211 -0.02 -0.02    +0.122 HD ENDBRANCH  21  24ENDBRANCH   4  20TORSDOF 6TERENDMDL