REMARK SMILES COc1ccc(O)c(C(=O)c2ccc(C(=O)N[C@@H]3CCCNC3)cc2)c1
REMARK SMILES IDX 11 1 12 2 13 3 14 4 24 5 25 6 9 7 10 8 8 9 3 10 4 11 26 12
REMARK SMILES IDX 5 13 6 14 2 15 1 16 7 17 15 19 17 20 16 21 18 23 19 24 23 25
REMARK SMILES IDX 20 26 22 27 21 28
REMARK H PARENT 7 18 17 22 22 29
ROOT
ATOM      1  C   UNL     1       1.222  -0.343   1.911  1.00  0.00     0.023 A 
ATOM      2  C   UNL     1      -0.016  -0.982   2.062  1.00  0.00     0.013 A 
ATOM      3  C   UNL     1      -1.184  -0.372   1.593  1.00  0.00     0.014 A 
ATOM      4  C   UNL     1      -1.118   0.884   0.975  1.00  0.00     0.039 A 
ATOM      5  C   UNL     1       0.118   1.536   0.862  1.00  0.00     0.014 A 
ATOM      6  C   UNL     1       1.285   0.928   1.332  1.00  0.00     0.013 A 
ENDROOT
BRANCH   1   7
ATOM      7  C   UNL     1       2.431  -1.017   2.439  1.00  0.00     0.196 C 
ATOM      8  O   UNL     1       2.357  -1.614   3.514  1.00  0.00    -0.288 OA
BRANCH   7   9
ATOM      9  C   UNL     1       3.737  -0.986   1.732  1.00  0.00     0.068 A 
ATOM     10  C   UNL     1       5.053  -0.791  -0.306  1.00  0.00     0.119 A 
ATOM     11  C   UNL     1       6.225  -0.929   0.439  1.00  0.00     0.050 A 
ATOM     12  C   UNL     1       3.813  -0.828   0.342  1.00  0.00     0.062 A 
ATOM     13  C   UNL     1       6.158  -1.116   1.822  1.00  0.00     0.051 A 
ATOM     14  C   UNL     1       4.921  -1.156   2.460  1.00  0.00     0.127 A 
BRANCH  10  15
ATOM     15  O   UNL     1       4.978  -0.619  -1.661  1.00  0.00    -0.497 OA
ATOM     16  C   UNL     1       6.208  -0.558  -2.373  1.00  0.00     0.278 C 
ENDBRANCH  10  15
BRANCH  14  17
ATOM     17  O   UNL     1       4.942  -1.371   3.812  1.00  0.00    -0.507 OA
ATOM     18  H   UNL     1       4.019  -1.559   4.098  1.00  0.00     0.293 HD
ENDBRANCH  14  17
ENDBRANCH   7   9
ENDBRANCH   1   7
BRANCH   4  19
ATOM     19  C   UNL     1      -2.332   1.576   0.457  1.00  0.00     0.251 C 
ATOM     20  N   UNL     1      -3.384   0.767   0.073  1.00  0.00    -0.348 N 
ATOM     21  O   UNL     1      -2.348   2.797   0.354  1.00  0.00    -0.269 OA
ATOM     22  H   UNL     1      -3.190  -0.213  -0.079  1.00  0.00     0.164 HD
BRANCH  20  23
ATOM     23  C   UNL     1      -4.548   1.337  -0.603  1.00  0.00     0.096 C 
ATOM     24  C   UNL     1      -5.754   0.405  -0.474  1.00  0.00     0.027 C 
ATOM     25  C   UNL     1      -4.266   1.657  -2.097  1.00  0.00     0.105 C 
ATOM     26  C   UNL     1      -5.613  -0.864  -1.324  1.00  0.00     0.017 C 
ATOM     27  N   UNL     1      -4.667   0.618  -3.066  1.00  0.00    -0.315 NA
ATOM     28  C   UNL     1      -4.627  -0.717  -2.484  1.00  0.00     0.081 C 
ATOM     29  H   UNL     1      -5.619   0.813  -3.380  1.00  0.00     0.122 HD
ENDBRANCH  20  23
ENDBRANCH   4  19
TORSDOF 6
