MODEL        8USER    Run = 8USERUSER    Estimated Free Energy of Binding    = -10.60 kcal/mol  [=(1)+(2)+(3)-(4)]USERUSER    (1) Final Intermolecular Energy     = -13.58 kcal/molUSER        vdW + Hbond + desolv Energy     = -13.50 kcal/molUSER        Electrostatic Energy            =  -0.08 kcal/molUSER        Moving Ligand-Fixed Receptor    = -13.58 kcal/molUSER        Moving Ligand-Moving Receptor   =  +0.00 kcal/molUSER    (2) Final Total Internal Energy     =  -2.54 kcal/molUSER    (3) Torsional Free Energy           =  +2.98 kcal/molUSER    (4) Unbound System's Energy         =  -2.54 kcal/molUSERUSERREMARK SMILES COc1ccc(O)c(C(=O)c2ccc(C(=O)N[C@@H]3CCN(C(=O)c4cc(F)cc(F)c4)C[C@H]3NC(=O)c3ccncc3)cc2)c1FREMARK SMILES IDX 11 1 12 2 13 3 14 4 43 5 44 6 9 7 10 8 8 9 3 10 4 11 45 12REMARK SMILES IDX 5 13 6 14 46 15 2 16 1 17 7 18 15 20 17 21 16 22 18 24 19 25REMARK SMILES IDX 33 26 20 27 32 28 21 29 34 30 35 31 36 33 37 34 38 35 42 36REMARK SMILES IDX 39 37 41 38 40 39 22 40 23 41 24 42 25 43 31 44 26 45 29 46REMARK SMILES IDX 28 47 27 48 30 49REMARK H PARENT 7 19 17 23 34 32USER                              x       y       z     vdW  Elec       q    TypeUSER                           _______ _______ _______ _____ _____    ______ ____ROOTATOM      1  C   UNL     1      39.604  47.420  15.946 -0.49 -0.01    +0.023 A  ATOM      2  C   UNL     1      38.920  46.425  16.656 -0.41 -0.00    +0.013 A  ATOM      3  C   UNL     1      39.377  46.025  17.917 -0.43 -0.00    +0.014 A  ATOM      4  C   UNL     1      40.506  46.634  18.483 -0.43 -0.00    +0.039 A  ATOM      5  C   UNL     1      41.186  47.630  17.768 -0.50 -0.00    +0.014 A  ATOM      6  C   UNL     1      40.731  48.029  16.510 -0.54 -0.00    +0.013 A  ENDROOTBRANCH   1   7ATOM      7  C   UNL     1      39.130  47.901  14.627 -0.42 -0.07    +0.199 C  ATOM      8  O   UNL     1      39.687  48.877  14.120 -0.35 +0.11    -0.288 OA BRANCH   7   9ATOM      9  C   UNL     1      37.980  47.307  13.911 -0.42 -0.04    +0.104 A  ATOM     10  C   UNL     1      36.844  45.404  12.892 -0.40 -0.06    +0.155 A  ATOM     11  C   UNL     1      35.765  46.228  12.563 -0.53 -0.03    +0.053 A  ATOM     12  C   UNL     1      37.947  45.956  13.561 -0.22 -0.05    +0.179 A  ATOM     13  C   UNL     1      35.804  47.589  12.878 -0.50 -0.03    +0.051 A  ATOM     14  C   UNL     1      36.909  48.125  13.533 -0.48 -0.06    +0.130 A  ATOM     15  F   UNL     1      38.996  45.165  13.834 -0.03 +0.04    -0.202 F  BRANCH  10  16ATOM     16  O   UNL     1      36.932  44.067  12.617 -0.15 +0.15    -0.494 OA ATOM     17  C   UNL     1      37.135  43.691  11.260 -0.30 -0.08    +0.278 C  ENDBRANCH  10  16BRANCH  14  18ATOM     18  O   UNL     1      36.879  49.473  13.774 -0.06 +0.32    -0.507 OA ATOM     19  H   UNL     1      37.728  49.720  14.208 -0.34 -0.26    +0.293 HD ENDBRANCH  14  18ENDBRANCH   7   9ENDBRANCH   1   7BRANCH   4  20ATOM     20  C   UNL     1      41.027  46.249  19.826 -0.27 +0.01    +0.251 C  ATOM     21  N   UNL     1      40.122  45.664  20.692 -0.15 -0.01    -0.347 N  ATOM     22  O   UNL     1      42.188  46.491  20.129 -0.30 -0.05    -0.269 OA ATOM     23  H   UNL     1      39.141  45.781  20.474 +0.07 +0.00    +0.164 HD BRANCH  21  24ATOM     24  C   UNL     1      40.489  45.371  22.082 -0.25 +0.01    +0.108 C  ATOM     25  C   UNL     1      40.521  43.858  22.363 -0.28 +0.00    +0.048 C  ATOM     26  C   UNL     1      39.558  46.095  23.090 -0.27 +0.01    +0.124 C  ATOM     27  C   UNL     1      39.126  43.251  22.428 -0.26 +0.01    +0.122 C  ATOM     28  C   UNL     1      38.176  45.411  23.143 -0.25 +0.02    +0.146 C  ATOM     29  N   UNL     1      38.276  43.964  23.377 -0.11 -0.02    -0.336 N  BRANCH  26  30ATOM     30  N   UNL     1      40.167  46.181  24.423 -0.04 -0.02    -0.345 N  ATOM     31  C   UNL     1      40.262  47.387  25.084 -0.15 +0.02    +0.251 C  ATOM     32  H   UNL     1      40.647  45.365  24.788 +0.06 +0.01    +0.164 HD ATOM     33  O   UNL     1      39.841  48.435  24.605 -0.25 -0.04    -0.269 OA BRANCH  31  34ATOM     34  C   UNL     1      40.923  47.383  26.415 -0.15 +0.00    +0.042 A  ATOM     35  C   UNL     1      41.795  46.370  26.815 -0.09 +0.00    +0.034 A  ATOM     36  C   UNL     1      40.625  48.422  27.298 -0.22 +0.00    +0.034 A  ATOM     37  C   UNL     1      42.353  46.460  28.079 -0.04 +0.01    +0.112 A  ATOM     38  C   UNL     1      41.236  48.421  28.537 -0.15 +0.01    +0.112 A  ATOM     39  N   UNL     1      42.100  47.467  28.942 -0.37 -0.03    -0.265 NA ENDBRANCH  31  34ENDBRANCH  26  30BRANCH  29  40ATOM     40  C   UNL     1      37.214  43.239  23.928 -0.26 +0.02    +0.254 C  ATOM     41  O   UNL     1      36.631  42.332  23.339 -0.35 -0.02    -0.269 OA BRANCH  40  42ATOM     42  C   UNL     1      36.788  43.534  25.314 -0.33 +0.00    +0.045 A  ATOM     43  C   UNL     1      37.154  44.735  25.931 -0.30 -0.00    +0.053 A  ATOM     44  C   UNL     1      36.082  42.562  26.029 -0.38 -0.01    +0.053 A  ATOM     45  C   UNL     1      36.768  44.968  27.245 -0.30 -0.02    +0.126 A  ATOM     46  C   UNL     1      35.710  42.824  27.342 -0.42 -0.03    +0.126 A  ATOM     47  C   UNL     1      36.042  44.024  27.959 -0.42 -0.02    +0.078 A  ATOM     48  F   UNL     1      37.110  46.121  27.834 -0.11 +0.04    -0.207 F  ATOM     49  F   UNL     1      35.022  41.901  28.027 -0.18 +0.09    -0.207 F  ENDBRANCH  40  42ENDBRANCH  29  40ENDBRANCH  21  24ENDBRANCH   4  20TORSDOF 10TERENDMDL