REMARK SMILES COc1ccc(O)c(C(=O)c2ccc(C(=O)N[C@@H]3CCN(C(=O)c4cc(F)cc(F)c4)C[C@H]3NC(=O)c3ccncc3)cc2)c1F
REMARK SMILES IDX 11 1 12 2 13 3 14 4 43 5 44 6 9 7 10 8 8 9 3 10 4 11 45 12
REMARK SMILES IDX 5 13 6 14 46 15 2 16 1 17 7 18 15 20 17 21 16 22 18 24 19 25
REMARK SMILES IDX 33 26 20 27 32 28 21 29 34 30 35 31 36 33 37 34 38 35 42 36
REMARK SMILES IDX 39 37 41 38 40 39 22 40 23 41 24 42 25 43 31 44 26 45 29 46
REMARK SMILES IDX 28 47 27 48 30 49
REMARK H PARENT 7 19 17 23 34 32
ROOT
ATOM      1  C   UNL     1       4.913   0.664  -1.738  1.00  0.00     0.023 A 
ATOM      2  C   UNL     1       4.048   0.018  -0.846  1.00  0.00     0.013 A 
ATOM      3  C   UNL     1       2.717   0.438  -0.734  1.00  0.00     0.014 A 
ATOM      4  C   UNL     1       2.241   1.490  -1.529  1.00  0.00     0.039 A 
ATOM      5  C   UNL     1       3.111   2.132  -2.420  1.00  0.00     0.014 A 
ATOM      6  C   UNL     1       4.439   1.714  -2.533  1.00  0.00     0.013 A 
ENDROOT
BRANCH   1   7
ATOM      7  C   UNL     1       6.317   0.225  -1.917  1.00  0.00     0.199 C 
ATOM      8  O   UNL     1       6.786   0.196  -3.057  1.00  0.00    -0.288 OA
BRANCH   7   9
ATOM      9  C   UNL     1       7.171  -0.241  -0.803  1.00  0.00     0.104 A 
ATOM     10  C   UNL     1       7.857  -0.182   1.537  1.00  0.00     0.155 A 
ATOM     11  C   UNL     1       8.809  -1.171   1.280  1.00  0.00     0.053 A 
ATOM     12  C   UNL     1       7.048   0.278   0.487  1.00  0.00     0.179 A 
ATOM     13  C   UNL     1       8.964  -1.672  -0.015  1.00  0.00     0.051 A 
ATOM     14  C   UNL     1       8.161  -1.199  -1.050  1.00  0.00     0.130 A 
ATOM     15  F   UNL     1       6.166   1.258   0.736  1.00  0.00    -0.202 F 
BRANCH  10  16
ATOM     16  O   UNL     1       7.628   0.400   2.754  1.00  0.00    -0.494 OA
ATOM     17  C   UNL     1       8.491   0.035   3.825  1.00  0.00     0.278 C 
ENDBRANCH  10  16
BRANCH  14  18
ATOM     18  O   UNL     1       8.401  -1.720  -2.293  1.00  0.00    -0.507 OA
ATOM     19  H   UNL     1       7.928  -1.159  -2.951  1.00  0.00     0.293 HD
ENDBRANCH  14  18
ENDBRANCH   7   9
ENDBRANCH   1   7
BRANCH   4  20
ATOM     20  C   UNL     1       0.831   1.968  -1.452  1.00  0.00     0.251 C 
ATOM     21  N   UNL     1      -0.112   1.040  -1.051  1.00  0.00    -0.347 N 
ATOM     22  O   UNL     1       0.550   3.115  -1.774  1.00  0.00    -0.269 OA
ATOM     23  H   UNL     1       0.157   0.066  -1.100  1.00  0.00     0.164 HD
BRANCH  21  24
ATOM     24  C   UNL     1      -1.544   1.361  -1.071  1.00  0.00     0.108 C 
ATOM     25  C   UNL     1      -1.922   2.378   0.021  1.00  0.00     0.048 C 
ATOM     26  C   UNL     1      -2.423   0.088  -0.961  1.00  0.00     0.124 C 
ATOM     27  C   UNL     1      -1.910   1.764   1.414  1.00  0.00     0.122 C 
ATOM     28  C   UNL     1      -2.405  -0.464   0.480  1.00  0.00     0.146 C 
ATOM     29  N   UNL     1      -2.738   0.563   1.477  1.00  0.00    -0.336 N 
BRANCH  26  30
ATOM     30  N   UNL     1      -3.794   0.336  -1.425  1.00  0.00    -0.345 N 
ATOM     31  C   UNL     1      -4.638  -0.709  -1.736  1.00  0.00     0.251 C 
ATOM     32  H   UNL     1      -4.062   1.287  -1.651  1.00  0.00     0.164 HD
ATOM     33  O   UNL     1      -4.298  -1.883  -1.635  1.00  0.00    -0.269 OA
BRANCH  31  34
ATOM     34  C   UNL     1      -5.997  -0.362  -2.228  1.00  0.00     0.042 A 
ATOM     35  C   UNL     1      -6.616   0.851  -1.925  1.00  0.00     0.034 A 
ATOM     36  C   UNL     1      -6.678  -1.309  -2.994  1.00  0.00     0.034 A 
ATOM     37  C   UNL     1      -7.886   1.072  -2.430  1.00  0.00     0.112 A 
ATOM     38  C   UNL     1      -7.942  -0.991  -3.452  1.00  0.00     0.112 A 
ATOM     39  N   UNL     1      -8.556   0.183  -3.193  1.00  0.00    -0.265 NA
ENDBRANCH  31  34
ENDBRANCH  26  30
BRANCH  29  40
ATOM     40  C   UNL     1      -3.244   0.221   2.735  1.00  0.00     0.254 C 
ATOM     41  O   UNL     1      -2.988   0.842   3.764  1.00  0.00    -0.269 OA
BRANCH  40  42
ATOM     42  C   UNL     1      -4.180  -0.920   2.845  1.00  0.00     0.045 A 
ATOM     43  C   UNL     1      -5.273  -1.030   1.979  1.00  0.00     0.053 A 
ATOM     44  C   UNL     1      -4.004  -1.845   3.878  1.00  0.00     0.053 A 
ATOM     45  C   UNL     1      -6.154  -2.094   2.130  1.00  0.00     0.126 A 
ATOM     46  C   UNL     1      -4.902  -2.898   4.004  1.00  0.00     0.126 A 
ATOM     47  C   UNL     1      -5.977  -3.037   3.134  1.00  0.00     0.078 A 
ATOM     48  F   UNL     1      -7.196  -2.205   1.296  1.00  0.00    -0.207 F 
ATOM     49  F   UNL     1      -4.730  -3.795   4.984  1.00  0.00    -0.207 F 
ENDBRANCH  40  42
ENDBRANCH  29  40
ENDBRANCH  21  24
ENDBRANCH   4  20
TORSDOF 10
