MODEL        7USER    Run = 7USERUSER    Estimated Free Energy of Binding    = -10.69 kcal/mol  [=(1)+(2)+(3)-(4)]USERUSER    (1) Final Intermolecular Energy     = -13.37 kcal/molUSER        vdW + Hbond + desolv Energy     = -13.24 kcal/molUSER        Electrostatic Energy            =  -0.13 kcal/molUSER        Moving Ligand-Fixed Receptor    = -13.37 kcal/molUSER        Moving Ligand-Moving Receptor   =  +0.00 kcal/molUSER    (2) Final Total Internal Energy     =  -2.45 kcal/molUSER    (3) Torsional Free Energy           =  +2.68 kcal/molUSER    (4) Unbound System's Energy         =  -2.45 kcal/molUSERUSERREMARK SMILES COc1ccc(O)c(C(=O)c2ccc(C(=O)N[C@@H]3CCN(C(=O)N4CCN(C)CC4)C[C@H]3NC(=O)c3ccncc3)cc2)c1FREMARK SMILES IDX 11 1 12 2 13 3 14 4 42 5 43 6 9 7 10 8 8 9 3 10 4 11 44 12REMARK SMILES IDX 5 13 6 14 45 15 2 16 1 17 7 18 15 20 17 21 16 22 18 24 19 25REMARK SMILES IDX 32 26 20 27 31 28 21 29 33 30 34 31 35 33 36 34 37 35 41 36REMARK SMILES IDX 38 37 40 38 39 39 22 40 24 41 25 42 30 43 26 44 29 45 27 46REMARK SMILES IDX 23 47 28 48REMARK H PARENT 7 19 17 23 33 32USER                              x       y       z     vdW  Elec       q    TypeUSER                           _______ _______ _______ _____ _____    ______ ____ROOTATOM      1  C   UNL     1      39.117  44.758  21.366 -0.32 +0.00    +0.023 A  ATOM      2  C   UNL     1      38.064  43.914  21.732 -0.35 +0.00    +0.013 A  ATOM      3  C   UNL     1      37.054  43.642  20.805 -0.40 -0.00    +0.014 A  ATOM      4  C   UNL     1      37.098  44.217  19.526 -0.34 -0.00    +0.039 A  ATOM      5  C   UNL     1      38.181  45.030  19.159 -0.35 -0.00    +0.014 A  ATOM      6  C   UNL     1      39.185  45.315  20.086 -0.37 -0.00    +0.013 A  ENDROOTBRANCH   1   7ATOM      7  C   UNL     1      40.122  45.141  22.365 -0.20 +0.01    +0.199 C  ATOM      8  O   UNL     1      41.168  44.493  22.401 -0.11 -0.02    -0.288 OA BRANCH   7   9ATOM      9  C   UNL     1      39.932  46.277  23.298 -0.22 +0.01    +0.104 A  ATOM     10  C   UNL     1      38.575  47.561  24.867 -0.27 +0.02    +0.155 A  ATOM     11  C   UNL     1      39.653  48.420  25.097 -0.29 +0.01    +0.053 A  ATOM     12  C   UNL     1      38.722  46.502  23.958 -0.22 +0.02    +0.179 A  ATOM     13  C   UNL     1      40.868  48.203  24.447 -0.29 +0.01    +0.051 A  ATOM     14  C   UNL     1      41.010  47.135  23.565 -0.18 +0.01    +0.130 A  ATOM     15  F   UNL     1      37.674  45.683  23.761 -0.06 -0.04    -0.202 F  BRANCH  10  16ATOM     16  O   UNL     1      37.346  47.666  25.465 -0.46 -0.03    -0.494 OA ATOM     17  C   UNL     1      37.201  47.084  26.750 -0.24 -0.03    +0.278 C  ENDBRANCH  10  16BRANCH  14  18ATOM     18  O   UNL     1      42.249  46.988  22.997 -0.04 -0.07    -0.507 OA ATOM     19  H   UNL     1      42.468  46.027  22.982 +0.13 +0.05    +0.293 HD ENDBRANCH  14  18ENDBRANCH   7   9ENDBRANCH   1   7BRANCH   4  20ATOM     20  C   UNL     1      35.945  43.989  18.608 -0.22 -0.05    +0.251 C  ATOM     21  N   UNL     1      35.210  45.112  18.276 -0.14 +0.13    -0.347 N  ATOM     22  O   UNL     1      35.630  42.856  18.262 -0.23 +0.06    -0.269 OA ATOM     23  H   UNL     1      35.370  45.941  18.836 +0.08 -0.06    +0.164 HD BRANCH  21  24ATOM     24  C   UNL     1      33.887  44.995  17.647 -0.34 -0.06    +0.108 C  ATOM     25  C   UNL     1      32.840  44.557  18.681 -0.39 -0.01    +0.049 C  ATOM     26  C   UNL     1      33.957  44.054  16.406 -0.30 -0.06    +0.124 C  ATOM     27  C   UNL     1      32.646  43.047  18.683 -0.34 -0.02    +0.123 C  ATOM     28  C   UNL     1      32.601  43.357  16.200 -0.29 -0.07    +0.148 C  ATOM     29  N   UNL     1      32.228  42.554  17.371 -0.11 +0.10    -0.322 N  BRANCH  26  30ATOM     30  N   UNL     1      34.437  44.791  15.238 -0.06 +0.21    -0.345 N  ATOM     31  C   UNL     1      35.780  44.911  14.954 -0.22 -0.13    +0.251 C  ATOM     32  H   UNL     1      33.831  45.556  14.934 +0.08 -0.15    +0.164 HD ATOM     33  O   UNL     1      36.644  44.291  15.563 -0.25 +0.10    -0.269 OA BRANCH  31  34ATOM     34  C   UNL     1      36.168  45.872  13.880 -0.42 -0.02    +0.042 A  ATOM     35  C   UNL     1      36.491  47.177  14.259 -0.44 -0.02    +0.034 A  ATOM     36  C   UNL     1      36.236  45.516  12.534 -0.47 -0.01    +0.034 A  ATOM     37  C   UNL     1      36.851  48.076  13.270 -0.50 -0.05    +0.112 A  ATOM     38  C   UNL     1      36.607  46.489  11.621 -0.54 -0.04    +0.112 A  ATOM     39  N   UNL     1      36.912  47.761  11.958 -1.01 +0.07    -0.265 NA ENDBRANCH  31  34ENDBRANCH  26  30BRANCH  29  40ATOM     40  C   UNL     1      31.227  41.601  17.209 -0.16 -0.10    +0.320 C  ATOM     41  N   UNL     1      30.896  40.885  18.353 -0.11 +0.02    -0.322 N  ATOM     42  C   UNL     1      31.951  40.104  19.011 -0.33 +0.01    +0.137 C  ATOM     43  C   UNL     1      29.602  40.197  18.344 -0.20 +0.01    +0.137 C  ATOM     44  C   UNL     1      32.024  38.660  18.462 -0.46 +0.01    +0.106 C  ATOM     45  C   UNL     1      29.707  38.758  17.796 -0.27 +0.04    +0.106 C  ATOM     46  N   UNL     1      30.742  37.929  18.458 -0.37 -0.11    -0.303 NA ATOM     47  O   UNL     1      30.654  41.426  16.131 -0.28 +0.11    -0.248 OA ATOM     48  C   UNL     1      30.337  37.528  19.804 -0.37 +0.03    +0.105 C  ENDBRANCH  29  40ENDBRANCH  21  24ENDBRANCH   4  20TORSDOF 9TERENDMDL