MODEL        10USER    Run = 10USERUSER    Estimated Free Energy of Binding    = -12.32 kcal/mol  [=(1)+(2)+(3)-(4)]USERUSER    (1) Final Intermolecular Energy     = -14.41 kcal/molUSER        vdW + Hbond + desolv Energy     = -14.25 kcal/molUSER        Electrostatic Energy            =  -0.16 kcal/molUSER        Moving Ligand-Fixed Receptor    = -14.41 kcal/molUSER        Moving Ligand-Moving Receptor   =  +0.00 kcal/molUSER    (2) Final Total Internal Energy     =  -1.31 kcal/molUSER    (3) Torsional Free Energy           =  +2.09 kcal/molUSER    (4) Unbound System's Energy         =  -1.31 kcal/molUSERUSERREMARK SMILES Oc1cc(-c2nc3ccccc3nc2-c2ccc(CN3CCC(n4c(O)nc5ccccc54)CC3)cc2)ccn1REMARK SMILES IDX 15 1 16 2 17 3 18 4 36 5 37 6 14 7 5 8 6 9 7 10 13 11 8 12REMARK SMILES IDX 12 13 9 14 11 15 10 16 4 17 2 18 3 19 40 20 39 21 38 22 1 23REMARK SMILES IDX 19 25 20 26 21 27 35 28 22 29 34 30 23 31 24 32 25 33 33 34REMARK SMILES IDX 27 35 32 36 28 37 31 38 29 39 30 40 26 41REMARK H PARENT 1 24 26 42USER                              x       y       z     vdW  Elec       q    TypeUSER                           _______ _______ _______ _____ _____    ______ ____ROOTATOM      1  C   UNL     1      38.256  44.087  23.204 -0.31 +0.00    +0.002 A  ATOM      2  C   UNL     1      37.602  44.147  21.963 -0.37 +0.00    +0.011 A  ATOM      3  C   UNL     1      38.320  44.299  20.769 -0.36 +0.00    +0.006 A  ATOM      4  C   UNL     1      39.719  44.353  20.776 -0.29 -0.00    -0.034 A  ATOM      5  C   UNL     1      40.384  44.264  22.003 -0.26 +0.00    +0.006 A  ATOM      6  C   UNL     1      39.662  44.136  23.194 -0.22 +0.00    +0.011 A  ENDROOTBRANCH   1   7ATOM      7  C   UNL     1      37.534  43.952  24.487 -0.26 +0.01    +0.097 A  ATOM      8  C   UNL     1      37.521  44.892  25.530 -0.26 +0.00    +0.098 A  ATOM      9  N   UNL     1      36.794  44.677  26.662 -0.21 +0.03    -0.244 NA ATOM     10  C   UNL     1      36.124  43.516  26.765 -0.37 -0.01    +0.089 A  ATOM     11  N   UNL     1      36.844  42.780  24.598 -0.24 -0.01    -0.244 NA ATOM     12  C   UNL     1      35.397  43.238  27.916 -0.47 -0.01    +0.030 A  ATOM     13  C   UNL     1      36.151  42.562  25.726 -0.33 -0.01    +0.089 A  ATOM     14  C   UNL     1      34.695  42.041  28.062 -0.31 -0.00    +0.002 A  ATOM     15  C   UNL     1      35.447  41.374  25.877 -0.29 -0.01    +0.030 A  ATOM     16  C   UNL     1      34.719  41.105  27.036 -0.63 -0.00    +0.002 A  BRANCH   8  17ATOM     17  C   UNL     1      38.274  46.158  25.561 -0.27 +0.00    +0.009 A  ATOM     18  C   UNL     1      39.597  47.770  26.748 -0.14 +0.01    +0.211 A  ATOM     19  C   UNL     1      38.893  46.579  26.748 -0.18 -0.00    +0.078 A  ATOM     20  N   UNL     1      39.731  48.564  25.676 -0.17 -0.03    -0.222 NA ATOM     21  C   UNL     1      39.155  48.141  24.534 -0.31 +0.01    +0.116 A  ATOM     22  C   UNL     1      38.433  46.962  24.425 -0.32 +0.00    +0.031 A  BRANCH  18  23ATOM     23  O   UNL     1      40.205  48.227  27.881 -0.26 -0.02    -0.493 OA ATOM     24  H   UNL     1      39.609  48.062  28.625 -0.43 -0.06    +0.295 HD ENDBRANCH  18  23ENDBRANCH   8  17ENDBRANCH   1   7BRANCH   4  25ATOM     25  C   UNL     1      40.484  44.512  19.480 -0.37 +0.00    +0.120 C  BRANCH  25  26ATOM     26  N   UNL     1      40.372  45.865  18.915 -0.24 +0.01    -0.299 NA ATOM     27  C   UNL     1      41.274  46.077  17.774 -0.42 -0.00    +0.087 C  ATOM     28  C   UNL     1      38.985  46.267  18.674 -0.20 -0.01    +0.087 C  ATOM     29  C   UNL     1      40.669  46.922  16.654 -0.51 -0.01    +0.041 C  ATOM     30  C   UNL     1      38.440  45.848  17.312 -0.43 -0.01    +0.041 C  ATOM     31  C   UNL     1      39.377  46.252  16.162 -0.42 -0.02    +0.095 C  BRANCH  31  32ATOM     32  N   UNL     1      38.697  46.994  15.108 -0.21 +0.10    -0.291 N  ATOM     33  C   UNL     1      38.706  48.364  14.946 -0.28 -0.15    +0.295 A  ATOM     34  C   UNL     1      37.915  46.471  14.096 -0.39 -0.03    +0.072 A  ATOM     35  N   UNL     1      37.927  48.751  13.972 -0.46 +0.10    -0.195 NA ATOM     36  C   UNL     1      37.570  45.171  13.701 -0.38 -0.01    +0.029 A  ATOM     37  C   UNL     1      37.440  47.598  13.421 -0.48 -0.03    +0.092 A  ATOM     38  C   UNL     1      36.713  45.034  12.602 -0.49 -0.00    +0.002 A  ATOM     39  C   UNL     1      36.583  47.439  12.321 -0.66 -0.01    +0.031 A  ATOM     40  C   UNL     1      36.225  46.149  11.920 -0.62 -0.00    +0.002 A  BRANCH  33  41ATOM     41  O   UNL     1      39.398  49.233  15.664 -0.20 +0.26    -0.480 OA ATOM     42  H   UNL     1      39.128  50.129  15.422 -0.23 -0.27    +0.296 HD ENDBRANCH  33  41ENDBRANCH  31  32ENDBRANCH  25  26ENDBRANCH   4  25TORSDOF 7TERENDMDL