MODEL        8USER    Run = 8USERUSER    Estimated Free Energy of Binding    = -11.18 kcal/mol  [=(1)+(2)+(3)-(4)]USERUSER    (1) Final Intermolecular Energy     = -12.68 kcal/molUSER        vdW + Hbond + desolv Energy     = -12.58 kcal/molUSER        Electrostatic Energy            =  -0.10 kcal/molUSER        Moving Ligand-Fixed Receptor    = -12.68 kcal/molUSER        Moving Ligand-Moving Receptor   =  +0.00 kcal/molUSER    (2) Final Total Internal Energy     =  -1.07 kcal/molUSER    (3) Torsional Free Energy           =  +1.49 kcal/molUSER    (4) Unbound System's Energy         =  -1.07 kcal/molUSERUSERREMARK SMILES CCNC(=O)Nc1cccc(-c2cc(-c3ccccc3)n(C3CCOCC3)n2)c1REMARK SMILES IDX 7 1 8 2 9 3 10 4 11 5 29 6 6 7 3 8 4 9 5 11 2 13 1 14 12 15REMARK SMILES IDX 13 16 28 17 14 18 21 19 15 20 16 21 20 22 17 23 19 24 18 25REMARK SMILES IDX 22 26 23 27 27 28 24 29 26 30 25 31REMARK H PARENT 3 10 6 12USER                              x       y       z     vdW  Elec       q    TypeUSER                           _______ _______ _______ _____ _____    ______ ____ROOTATOM      1  C   UNL     1      34.270  42.214  18.267 -0.39 -0.01    +0.043 A  ATOM      2  C   UNL     1      34.518  42.150  19.642 -0.34 -0.00    +0.026 A  ATOM      3  C   UNL     1      35.499  42.954  20.222 -0.45 -0.00    +0.003 A  ATOM      4  C   UNL     1      36.239  43.831  19.430 -0.38 -0.00    +0.010 A  ATOM      5  C   UNL     1      36.007  43.919  18.050 -0.32 -0.00    +0.004 A  ATOM      6  C   UNL     1      35.014  43.103  17.483 -0.34 -0.01    +0.036 A  ENDROOTBRANCH   1   7ATOM      7  N   UNL     1      33.258  41.377  17.755 -0.22 +0.11    -0.308 N  ATOM      8  N   UNL     1      31.606  39.834  17.590 -0.20 +0.05    -0.338 N  ATOM      9  C   UNL     1      32.409  40.553  18.461 -0.23 -0.02    +0.319 C  ATOM     10  H   UNL     1      32.078  39.557  16.743 -0.17 -0.07    +0.165 HD ATOM     11  O   UNL     1      32.323  40.451  19.676 -0.78 -0.06    -0.249 OA ATOM     12  H   UNL     1      33.030  41.492  16.778 -0.37 -0.11    +0.171 HD BRANCH   8  13ATOM     13  C   UNL     1      30.669  38.867  18.125 -0.36 +0.02    +0.114 C  ATOM     14  C   UNL     1      31.393  37.694  18.755 -0.55 +0.01    +0.027 C  ENDBRANCH   8  13ENDBRANCH   1   7BRANCH   5  15ATOM     15  C   UNL     1      36.789  44.849  17.224 -0.28 -0.03    +0.093 A  ATOM     16  C   UNL     1      37.858  45.696  17.618 -0.33 -0.02    +0.059 A  ATOM     17  N   UNL     1      36.546  45.000  15.911 -0.23 +0.08    -0.172 NA ATOM     18  C   UNL     1      38.272  46.366  16.485 -0.35 -0.02    +0.069 A  ATOM     19  N   UNL     1      37.437  45.921  15.490 -0.18 +0.11    -0.261 N  BRANCH  18  20ATOM     20  C   UNL     1      39.325  47.361  16.334 -0.48 +0.00    -0.000 A  ATOM     21  C   UNL     1      39.286  48.287  15.286 -0.53 -0.00    +0.010 A  ATOM     22  C   UNL     1      40.397  47.385  17.232 -0.51 -0.00    +0.010 A  ATOM     23  C   UNL     1      40.303  49.234  15.146 -0.58 -0.00    +0.001 A  ATOM     24  C   UNL     1      41.412  48.333  17.092 -0.46 -0.00    +0.001 A  ATOM     25  C   UNL     1      41.363  49.258  16.050 -0.50 -0.00    +0.000 A  ENDBRANCH  18  20BRANCH  19  26ATOM     26  C   UNL     1      37.397  46.345  14.095 -0.42 -0.05    +0.112 C  ATOM     27  C   UNL     1      37.297  45.146  13.140 -0.49 -0.02    +0.056 C  ATOM     28  C   UNL     1      36.280  47.358  13.838 -0.53 -0.04    +0.056 C  ATOM     29  C   UNL     1      36.546  45.508  11.868 -0.49 -0.06    +0.162 C  ATOM     30  C   UNL     1      36.291  47.810  12.381 -0.58 -0.08    +0.162 C  ATOM     31  O   UNL     1      36.858  46.846  11.493 -0.56 +0.14    -0.381 OA ENDBRANCH  19  26ENDBRANCH   5  15TORSDOF 5TERENDMDL