MODEL        6USER    Run = 6USERUSER    Estimated Free Energy of Binding    = -12.13 kcal/mol  [=(1)+(2)+(3)-(4)]USERUSER    (1) Final Intermolecular Energy     = -14.22 kcal/molUSER        vdW + Hbond + desolv Energy     = -13.97 kcal/molUSER        Electrostatic Energy            =  -0.25 kcal/molUSER        Moving Ligand-Fixed Receptor    = -14.22 kcal/molUSER        Moving Ligand-Moving Receptor   =  +0.00 kcal/molUSER    (2) Final Total Internal Energy     =  -1.16 kcal/molUSER    (3) Torsional Free Energy           =  +2.09 kcal/molUSER    (4) Unbound System's Energy         =  -1.16 kcal/molUSERUSERREMARK SMILES Oc1cnccc1-c1nc2ccccc2nc1-c1ccc(CN2CCC(n3c(O)nc4ccccc43)CC2)cc1REMARK SMILES IDX 18 1 19 2 20 3 21 4 39 5 40 6 17 7 8 8 9 9 10 10 16 11 11 12REMARK SMILES IDX 15 13 12 14 14 15 13 16 7 17 2 18 3 19 4 20 6 21 5 22 1 23REMARK SMILES IDX 22 25 23 26 24 27 38 28 25 29 37 30 26 31 27 32 28 33 36 34REMARK SMILES IDX 30 35 35 36 31 37 34 38 32 39 33 40 29 41REMARK H PARENT 1 24 29 42USER                              x       y       z     vdW  Elec       q    TypeUSER                           _______ _______ _______ _____ _____    ______ ____ROOTATOM      1  C   UNL     1      38.058  45.319  17.855 -0.38 -0.00    +0.002 A  ATOM      2  C   UNL     1      39.252  46.017  18.107 -0.42 -0.00    +0.011 A  ATOM      3  C   UNL     1      40.056  45.703  19.206 -0.43 -0.00    +0.006 A  ATOM      4  C   UNL     1      39.684  44.683  20.090 -0.35 -0.00    -0.034 A  ATOM      5  C   UNL     1      38.485  43.998  19.861 -0.26 -0.00    +0.006 A  ATOM      6  C   UNL     1      37.681  44.317  18.761 -0.33 -0.00    +0.011 A  ENDROOTBRANCH   1   7ATOM      7  C   UNL     1      37.238  45.654  16.681 -0.29 -0.04    +0.097 A  ATOM      8  C   UNL     1      35.859  45.418  16.582 -0.27 -0.06    +0.101 A  ATOM      9  N   UNL     1      35.166  45.708  15.447 -0.19 +0.20    -0.244 NA ATOM     10  C   UNL     1      35.857  46.252  14.429 -0.36 -0.06    +0.089 A  ATOM     11  N   UNL     1      37.939  46.178  15.636 -0.20 +0.10    -0.244 NA ATOM     12  C   UNL     1      35.195  46.586  13.253 -0.44 -0.02    +0.030 A  ATOM     13  C   UNL     1      37.248  46.485  14.523 -0.35 -0.04    +0.089 A  ATOM     14  C   UNL     1      35.875  47.142  12.168 -0.60 -0.00    +0.002 A  ATOM     15  C   UNL     1      37.916  47.037  13.436 -0.47 -0.01    +0.030 A  ATOM     16  C   UNL     1      37.242  47.367  12.259 -0.58 -0.00    +0.002 A  BRANCH   8  17ATOM     17  C   UNL     1      35.061  44.767  17.626 -0.29 -0.02    +0.047 A  ATOM     18  C   UNL     1      34.268  45.493  18.519 -0.35 -0.07    +0.143 A  ATOM     19  C   UNL     1      33.530  44.804  19.475 -0.12 -0.05    +0.157 A  ATOM     20  N   UNL     1      33.525  43.458  19.599 -0.49 +0.01    -0.261 NA ATOM     21  C   UNL     1      35.061  43.369  17.739 -0.32 -0.01    +0.034 A  ATOM     22  C   UNL     1      34.291  42.772  18.725 -0.31 -0.02    +0.112 A  BRANCH  18  23ATOM     23  O   UNL     1      34.252  46.859  18.463 -0.66 +0.40    -0.506 OA ATOM     24  H   UNL     1      33.911  47.140  17.596 -0.30 -0.52    +0.293 HD ENDBRANCH  18  23ENDBRANCH   8  17ENDBRANCH   1   7BRANCH   4  25ATOM     25  C   UNL     1      40.549  44.345  21.287 -0.29 +0.01    +0.120 C  BRANCH  25  26ATOM     26  N   UNL     1      40.162  45.062  22.515 -0.09 -0.02    -0.299 NA ATOM     27  C   UNL     1      38.882  45.772  22.370 -0.33 +0.01    +0.087 C  ATOM     28  C   UNL     1      40.249  44.206  23.701 -0.17 +0.00    +0.087 C  ATOM     29  C   UNL     1      38.071  45.833  23.662 -0.20 +0.01    +0.041 C  ATOM     30  C   UNL     1      38.958  43.464  24.041 -0.25 +0.00    +0.041 C  ATOM     31  C   UNL     1      37.742  44.405  24.111 -0.30 +0.01    +0.095 C  BRANCH  31  32ATOM     32  N   UNL     1      37.040  44.355  25.386 -0.18 -0.00    -0.291 N  ATOM     33  C   UNL     1      36.867  45.425  26.222 -0.11 -0.03    +0.295 A  ATOM     34  C   UNL     1      36.418  43.279  25.984 -0.34 -0.01    +0.072 A  ATOM     35  N   UNL     1      36.184  45.142  27.295 -0.21 +0.05    -0.195 NA ATOM     36  C   UNL     1      36.252  41.932  25.635 -0.40 -0.00    +0.029 A  ATOM     37  C   UNL     1      35.893  43.806  27.168 -0.40 -0.02    +0.092 A  ATOM     38  C   UNL     1      35.534  41.118  26.519 -0.48 -0.00    +0.002 A  ATOM     39  C   UNL     1      35.175  42.973  28.041 -0.46 -0.01    +0.031 A  ATOM     40  C   UNL     1      35.003  41.626  27.703 -0.61 -0.00    +0.002 A  BRANCH  33  41ATOM     41  O   UNL     1      37.327  46.639  25.997 -0.34 +0.01    -0.480 OA ATOM     42  H   UNL     1      36.512  47.168  26.081 -0.06 -0.04    +0.296 HD ENDBRANCH  33  41ENDBRANCH  31  32ENDBRANCH  25  26ENDBRANCH   4  25TORSDOF 7TERENDMDL