REMARK SMILES CCNC(=O)Nc1cccc(-c2cc(-c3ccccc3)n(C3CCOCC3)n2)c1
REMARK SMILES IDX 7 1 8 2 9 3 10 4 11 5 29 6 6 7 3 8 4 9 5 11 2 13 1 14 12 15
REMARK SMILES IDX 13 16 28 17 14 18 21 19 15 20 16 21 20 22 17 23 19 24 18 25
REMARK SMILES IDX 22 26 23 27 27 28 24 29 26 30 25 31
REMARK H PARENT 3 10 6 12
ROOT
ATOM      1  C   UNL     1       3.449  -1.761  -0.397  1.00  0.00     0.043 A 
ATOM      2  C   UNL     1       3.332  -3.108  -0.754  1.00  0.00     0.026 A 
ATOM      3  C   UNL     1       2.076  -3.686  -0.934  1.00  0.00     0.003 A 
ATOM      4  C   UNL     1       0.925  -2.918  -0.762  1.00  0.00     0.010 A 
ATOM      5  C   UNL     1       1.013  -1.564  -0.410  1.00  0.00     0.004 A 
ATOM      6  C   UNL     1       2.287  -0.998  -0.234  1.00  0.00     0.036 A 
ENDROOT
BRANCH   1   7
ATOM      7  N   UNL     1       4.752  -1.246  -0.241  1.00  0.00    -0.308 N 
ATOM      8  N   UNL     1       6.491   0.151   0.159  1.00  0.00    -0.338 N 
ATOM      9  C   UNL     1       5.116  -0.004   0.231  1.00  0.00     0.319 C 
ATOM     10  H   UNL     1       6.904  -0.281  -0.654  1.00  0.00     0.165 HD
ATOM     11  O   UNL     1       4.376   0.860   0.678  1.00  0.00    -0.249 OA
ATOM     12  H   UNL     1       5.512  -1.901  -0.354  1.00  0.00     0.171 HD
BRANCH   8  13
ATOM     13  C   UNL     1       7.084   1.410   0.562  1.00  0.00     0.114 C 
ATOM     14  C   UNL     1       8.577   1.268   0.777  1.00  0.00     0.027 C 
ENDBRANCH   8  13
ENDBRANCH   1   7
BRANCH   5  15
ATOM     15  C   UNL     1      -0.205  -0.761  -0.234  1.00  0.00     0.093 A 
ATOM     16  C   UNL     1      -0.316   0.603   0.144  1.00  0.00     0.059 A 
ATOM     17  N   UNL     1      -1.427  -1.283  -0.429  1.00  0.00    -0.172 NA
ATOM     18  C   UNL     1      -1.663   0.902   0.161  1.00  0.00     0.069 A 
ATOM     19  N   UNL     1      -2.287  -0.274  -0.176  1.00  0.00    -0.261 N 
BRANCH  18  20
ATOM     20  C   UNL     1      -2.326   2.155   0.493  1.00  0.00    -0.000 A 
ATOM     21  C   UNL     1      -2.974   2.903  -0.497  1.00  0.00     0.010 A 
ATOM     22  C   UNL     1      -2.305   2.630   1.808  1.00  0.00     0.010 A 
ATOM     23  C   UNL     1      -3.603   4.106  -0.171  1.00  0.00     0.001 A 
ATOM     24  C   UNL     1      -2.936   3.832   2.133  1.00  0.00     0.001 A 
ATOM     25  C   UNL     1      -3.586   4.568   1.144  1.00  0.00     0.000 A 
ENDBRANCH  18  20
BRANCH  19  26
ATOM     26  C   UNL     1      -3.719  -0.540  -0.255  1.00  0.00     0.112 C 
ATOM     27  C   UNL     1      -4.160  -0.849  -1.694  1.00  0.00     0.056 C 
ATOM     28  C   UNL     1      -4.148  -1.647   0.710  1.00  0.00     0.056 C 
ATOM     29  C   UNL     1      -5.350  -1.796  -1.721  1.00  0.00     0.162 C 
ATOM     30  C   UNL     1      -5.655  -1.872   0.631  1.00  0.00     0.162 C 
ATOM     31  O   UNL     1      -6.217  -1.504  -0.629  1.00  0.00    -0.381 OA
ENDBRANCH  19  26
ENDBRANCH   5  15
TORSDOF 5
