MODEL        6USER    Run = 6USERUSER    Estimated Free Energy of Binding    = -10.48 kcal/mol  [=(1)+(2)+(3)-(4)]USERUSER    (1) Final Intermolecular Energy     = -12.87 kcal/molUSER        vdW + Hbond + desolv Energy     = -12.82 kcal/molUSER        Electrostatic Energy            =  -0.04 kcal/molUSER        Moving Ligand-Fixed Receptor    = -12.87 kcal/molUSER        Moving Ligand-Moving Receptor   =  +0.00 kcal/molUSER    (2) Final Total Internal Energy     =  -2.61 kcal/molUSER    (3) Torsional Free Energy           =  +2.39 kcal/molUSER    (4) Unbound System's Energy         =  -2.61 kcal/molUSERUSERREMARK SMILES NS(=O)(=O)C=C1C=C(Nc2nc3ccccc3nc2N2CCN(CC(=O)N3CCOCC3)CC2)[C@@H]1ClREMARK SMILES IDX 9 1 8 3 6 4 7 5 35 6 36 7 5 8 2 9 3 10 4 11 1 12 10 15 11 16REMARK SMILES IDX 19 17 12 18 18 19 13 20 17 21 14 22 16 23 15 24 20 25 21 26REMARK SMILES IDX 34 27 22 28 33 29 23 30 24 31 25 32 27 33 28 34 32 35 29 36REMARK SMILES IDX 31 37 30 38 26 39REMARK H PARENT 9 2 1 13 1 14USER                              x       y       z     vdW  Elec       q    TypeUSER                           _______ _______ _______ _____ _____    ______ ____ROOTATOM      1  N   UNL     1      35.110  42.792  17.071 -0.19 +0.12    -0.339 N  ATOM      2  H   UNL     1      35.747  42.344  16.407 +0.05 -0.07    +0.168 HD ENDROOTBRANCH   1   3ATOM      3  C   UNL     1      33.965  43.320  16.714 -0.39 -0.02    +0.039 C  ATOM      4  C   UNL     1      32.229  44.176  16.041 -0.39 +0.00    -0.010 C  ATOM      5  C   UNL     1      32.699  42.885  16.452 -0.35 -0.01    +0.030 C  ATOM      6  C   UNL     1      33.556  44.793  16.428 -0.27 -0.10    +0.158 C  ATOM      7  Cl  UNL     1      33.523  45.984  17.812 -0.51 +0.09    -0.111 Cl BRANCH   4   8ATOM      8  C   UNL     1      31.105  44.690  15.531 -0.35 -0.06    +0.128 C  BRANCH   8   9ATOM      9  S   UNL     1      31.082  46.111  14.565 -0.58 -0.14    +0.231 S  ATOM     10  O   UNL     1      32.269  46.156  13.743 -0.48 +0.16    -0.208 OA ATOM     11  O   UNL     1      30.635  47.273  15.300 -0.86 +0.03    -0.208 OA BRANCH   9  12ATOM     12  N   UNL     1      29.837  45.842  13.459 -0.23 +0.23    -0.225 NA ATOM     13  H   UNL     1      30.167  45.145  12.786 -0.49 -0.21    +0.137 HD ATOM     14  H   UNL     1      29.026  45.496  13.976 -0.39 -0.18    +0.137 HD ENDBRANCH   9  12ENDBRANCH   8   9ENDBRANCH   4   8ENDBRANCH   1   3BRANCH   1  15ATOM     15  C   UNL     1      35.795  42.954  18.304 -0.19 -0.04    +0.174 A  ATOM     16  N   UNL     1      35.575  42.105  19.332 -0.29 +0.02    -0.225 NA ATOM     17  C   UNL     1      36.705  44.038  18.426 -0.21 -0.03    +0.172 A  ATOM     18  C   UNL     1      36.271  42.322  20.461 -0.40 -0.00    +0.091 A  ATOM     19  N   UNL     1      37.392  44.267  19.569 -0.22 +0.02    -0.225 NA ATOM     20  C   UNL     1      36.097  41.465  21.540 -0.49 +0.00    +0.031 A  ATOM     21  C   UNL     1      37.178  43.406  20.581 -0.32 -0.00    +0.091 A  ATOM     22  C   UNL     1      36.787  41.654  22.738 -0.52 +0.00    +0.002 A  ATOM     23  C   UNL     1      37.863  43.580  21.778 -0.35 +0.00    +0.031 A  ATOM     24  C   UNL     1      37.673  42.717  22.859 -0.40 +0.00    +0.002 A  BRANCH  17  25ATOM     25  N   UNL     1      36.868  44.917  17.312 -0.11 +0.12    -0.351 N  ATOM     26  C   UNL     1      37.488  44.155  16.199 -0.24 -0.04    +0.134 C  ATOM     27  C   UNL     1      37.643  46.117  17.711 -0.22 -0.04    +0.134 C  ATOM     28  C   UNL     1      38.072  45.130  15.151 -0.29 -0.03    +0.106 C  ATOM     29  C   UNL     1      39.080  46.118  17.147 -0.41 -0.02    +0.106 C  ATOM     30  N   UNL     1      39.175  45.983  15.675 -0.19 +0.07    -0.291 NA BRANCH  30  31ATOM     31  C   UNL     1      39.160  47.309  15.018 -0.41 -0.06    +0.185 C  BRANCH  31  32ATOM     32  C   UNL     1      37.723  47.772  14.730 -0.38 -0.13    +0.236 C  ATOM     33  N   UNL     1      37.259  47.688  13.422 -0.29 +0.13    -0.337 N  ATOM     34  C   UNL     1      35.857  48.020  13.161 -0.04 -0.09    +0.148 C  ATOM     35  C   UNL     1      37.811  46.774  12.417 -0.10 -0.03    +0.148 C  ATOM     36  C   UNL     1      35.033  46.730  13.065 -0.24 -0.13    +0.181 C  ATOM     37  C   UNL     1      36.937  45.514  12.330 -0.48 -0.06    +0.181 C  ATOM     38  O   UNL     1      35.567  45.856  12.052 -0.31 +0.20    -0.378 OA ATOM     39  O   UNL     1      37.022  48.214  15.646 -0.33 +0.28    -0.273 OA ENDBRANCH  31  32ENDBRANCH  30  31ENDBRANCH  17  25ENDBRANCH   1  15TORSDOF 8TERENDMDL