MODEL        7USER    Run = 7USERUSER    Estimated Free Energy of Binding    =  -8.37 kcal/mol  [=(1)+(2)+(3)-(4)]USERUSER    (1) Final Intermolecular Energy     = -10.16 kcal/molUSER        vdW + Hbond + desolv Energy     = -10.05 kcal/molUSER        Electrostatic Energy            =  -0.11 kcal/molUSER        Moving Ligand-Fixed Receptor    = -10.16 kcal/molUSER        Moving Ligand-Moving Receptor   =  +0.00 kcal/molUSER    (2) Final Total Internal Energy     =  -1.14 kcal/molUSER    (3) Torsional Free Energy           =  +1.79 kcal/molUSER    (4) Unbound System's Energy         =  -1.14 kcal/molUSERUSERREMARK SMILES COc1ccc(O)c(C(=O)c2ccc(Nc3nc4ccccc4[nH]3)cc2)c1BrREMARK SMILES IDX 11 1 12 2 13 3 14 4 25 5 26 6 9 7 10 8 8 9 3 10 4 11 27 12REMARK SMILES IDX 5 13 6 14 28 15 2 16 1 17 7 18 15 20 16 22 17 23 24 24 18 25REMARK SMILES IDX 23 26 19 27 22 28 20 29 21 30REMARK H PARENT 7 19 15 21 24 31USER                              x       y       z     vdW  Elec       q    TypeUSER                           _______ _______ _______ _____ _____    ______ ____ROOTATOM      1  C   UNL     1       2.144   1.652  -6.618 -0.33 +0.00    +0.023 A  ATOM      2  C   UNL     1       1.838   0.574  -5.784 -0.43 +0.00    +0.014 A  ATOM      3  C   UNL     1       0.777   0.667  -4.879 -0.39 +0.01    +0.027 A  ATOM      4  C   UNL     1      -0.003   1.829  -4.795 -0.36 +0.01    +0.041 A  ATOM      5  C   UNL     1       0.302   2.896  -5.652 -0.35 +0.00    +0.027 A  ATOM      6  C   UNL     1       1.360   2.809  -6.565 -0.33 -0.00    +0.014 A  ENDROOTBRANCH   1   7ATOM      7  C   UNL     1       3.275   1.514  -7.570 -0.27 -0.04    +0.198 C  ATOM      8  O   UNL     1       3.765   0.404  -7.782 -0.30 +0.10    -0.288 OA BRANCH   7   9ATOM      9  C   UNL     1       3.768   2.646  -8.383 -0.28 -0.02    +0.082 A  ATOM     10  C   UNL     1       5.083   4.664  -8.758 -0.42 -0.00    +0.134 A  ATOM     11  C   UNL     1       4.490   4.801 -10.019 -0.47 -0.00    +0.051 A  ATOM     12  C   UNL     1       4.726   3.572  -7.938 -0.38 -0.01    +0.074 A  ATOM     13  C   UNL     1       3.579   3.851 -10.480 -0.31 -0.01    +0.051 A  ATOM     14  C   UNL     1       3.236   2.773  -9.674 -0.22 -0.03    +0.128 A  ATOM     15  Br  UNL     1       5.638   3.333  -6.272 -1.06 +0.01    -0.046 Br BRANCH  10  16ATOM     16  O   UNL     1       6.003   5.545  -8.248 -0.83 -0.10    -0.496 OA ATOM     17  C   UNL     1       5.669   6.928  -8.239 -0.29 +0.03    +0.278 C  ENDBRANCH  10  16BRANCH  14  18ATOM     18  O   UNL     1       2.369   1.861 -10.213 -0.05 +0.12    -0.507 OA ATOM     19  H   UNL     1       2.546   0.990  -9.794 +0.10 -0.10    +0.293 HD ENDBRANCH  14  18ENDBRANCH   7   9ENDBRANCH   1   7BRANCH   4  20ATOM     20  N   UNL     1      -1.033   1.874  -3.834 -0.19 -0.03    -0.326 N  ATOM     21  H   UNL     1      -1.930   2.119  -4.249 +0.07 +0.02    +0.170 HD BRANCH  20  22ATOM     22  C   UNL     1      -0.931   2.175  -2.524 -0.21 -0.01    +0.205 A  ATOM     23  N   UNL     1      -0.305   1.485  -1.600 -0.32 +0.00    -0.213 NA ATOM     24  N   UNL     1      -1.405   3.358  -2.017 -0.09 +0.09    -0.324 N  ATOM     25  C   UNL     1      -0.431   2.218  -0.444 -0.37 -0.01    +0.091 A  ATOM     26  C   UNL     1      -1.120   3.402  -0.678 -0.28 -0.02    +0.067 A  ATOM     27  C   UNL     1       0.029   1.938   0.851 -0.36 -0.01    +0.030 A  ATOM     28  C   UNL     1      -1.384   4.348   0.314 -0.32 -0.01    +0.028 A  ATOM     29  C   UNL     1      -0.227   2.867   1.869 -0.42 -0.00    +0.002 A  ATOM     30  C   UNL     1      -0.921   4.050   1.601 -0.26 -0.00    +0.002 A  ATOM     31  H   UNL     1      -1.863   4.073  -2.561 -0.36 -0.09    +0.170 HD ENDBRANCH  20  22ENDBRANCH   4  20TORSDOF 6TERENDMDL