REMARK SMILES COc1ccc(O)c(C(=O)c2ccc(Nc3ncc(F)c(N[C@H]4CC[C@@H](O)C(C)(C)C4)n3)cc2)c1F
REMARK SMILES IDX 15 1 14 3 11 4 12 5 34 6 13 7 33 8 9 9 10 10 8 11 3 12 4 13
REMARK SMILES IDX 35 14 5 15 6 16 36 17 2 18 1 19 7 20 16 22 17 23 32 24 18 25
REMARK SMILES IDX 21 26 19 27 20 28 22 29 23 31 24 32 31 33 25 34 28 35 26 36
REMARK SMILES IDX 29 37 30 38 27 39
REMARK H PARENT 15 2 7 21 22 30 27 40
ROOT
ATOM      1  N   UNL     1      -0.244   0.032  -0.144  1.00  0.00    -0.324 N 
ATOM      2  H   UNL     1      -0.943  -0.190   0.550  1.00  0.00     0.170 HD
ENDROOT
BRANCH   1   3
ATOM      3  C   UNL     1       1.045   0.309   0.321  1.00  0.00     0.041 A 
ATOM      4  C   UNL     1       3.608   0.856   1.391  1.00  0.00     0.023 A 
ATOM      5  C   UNL     1       3.396   0.898   0.012  1.00  0.00     0.014 A 
ATOM      6  C   UNL     1       2.538   0.570   2.241  1.00  0.00     0.014 A 
ATOM      7  C   UNL     1       2.126   0.620  -0.512  1.00  0.00     0.027 A 
ATOM      8  C   UNL     1       1.275   0.295   1.706  1.00  0.00     0.027 A 
BRANCH   4   9
ATOM      9  C   UNL     1       4.923   1.181   1.994  1.00  0.00     0.199 C 
ATOM     10  O   UNL     1       4.954   1.815   3.051  1.00  0.00    -0.288 OA
BRANCH   9  11
ATOM     11  C   UNL     1       6.215   0.838   1.361  1.00  0.00     0.104 A 
ATOM     12  C   UNL     1       7.613  -0.634   0.010  1.00  0.00     0.155 A 
ATOM     13  C   UNL     1       8.688   0.244   0.171  1.00  0.00     0.053 A 
ATOM     14  C   UNL     1       6.385  -0.330   0.616  1.00  0.00     0.179 A 
ATOM     15  C   UNL     1       8.538   1.399   0.943  1.00  0.00     0.051 A 
ATOM     16  C   UNL     1       7.315   1.683   1.545  1.00  0.00     0.130 A 
ATOM     17  F   UNL     1       5.371  -1.202   0.488  1.00  0.00    -0.202 F 
BRANCH  12  18
ATOM     18  O   UNL     1       7.644  -1.801  -0.705  1.00  0.00    -0.494 OA
ATOM     19  C   UNL     1       8.881  -2.168  -1.304  1.00  0.00     0.278 C 
ENDBRANCH  12  18
BRANCH  16  20
ATOM     20  O   UNL     1       7.264   2.817   2.313  1.00  0.00    -0.507 OA
ATOM     21  H   UNL     1       6.436   2.780   2.846  1.00  0.00     0.293 HD
ENDBRANCH  16  20
ENDBRANCH   9  11
ENDBRANCH   4   9
ENDBRANCH   1   3
BRANCH   1  22
ATOM     22  C   UNL     1      -0.825  -0.057  -1.405  1.00  0.00     0.229 A 
ATOM     23  N   UNL     1      -0.123   0.144  -2.530  1.00  0.00    -0.218 NA
ATOM     24  N   UNL     1      -2.138  -0.356  -1.396  1.00  0.00    -0.192 NA
ATOM     25  C   UNL     1      -0.789   0.020  -3.694  1.00  0.00     0.158 A 
ATOM     26  C   UNL     1      -2.793  -0.457  -2.568  1.00  0.00     0.168 A 
ATOM     27  C   UNL     1      -2.122  -0.283  -3.766  1.00  0.00     0.183 A 
ATOM     28  F   UNL     1      -2.745  -0.382  -4.949  1.00  0.00    -0.201 F 
BRANCH  26  29
ATOM     29  N   UNL     1      -4.151  -0.815  -2.599  1.00  0.00    -0.365 N 
ATOM     30  H   UNL     1      -4.617  -0.296  -3.342  1.00  0.00     0.162 HD
BRANCH  29  31
ATOM     31  C   UNL     1      -4.952  -0.875  -1.373  1.00  0.00     0.081 C 
ATOM     32  C   UNL     1      -4.549  -2.040  -0.455  1.00  0.00     0.027 C 
ATOM     33  C   UNL     1      -5.037   0.470  -0.639  1.00  0.00     0.034 C 
ATOM     34  C   UNL     1      -4.914  -1.791   1.008  1.00  0.00     0.034 C 
ATOM     35  C   UNL     1      -6.055   0.450   0.538  1.00  0.00    -0.007 C 
ATOM     36  C   UNL     1      -6.206  -0.985   1.128  1.00  0.00     0.120 C 
ATOM     37  C   UNL     1      -5.580   1.464   1.601  1.00  0.00     0.014 C 
ATOM     38  C   UNL     1      -7.435   0.922   0.033  1.00  0.00     0.014 C 
BRANCH  36  39
ATOM     39  O   UNL     1      -6.596  -0.959   2.497  1.00  0.00    -0.393 OA
ATOM     40  H   UNL     1      -7.466  -0.528   2.551  1.00  0.00     0.210 HD
ENDBRANCH  36  39
ENDBRANCH  29  31
ENDBRANCH  26  29
ENDBRANCH   1  22
TORSDOF 9
