REMARK SMILES COc1ccc(O)c(C(=O)c2ccc(NC3=NC=C(F)c4ccccc4N3)cc2)c1Cl
REMARK SMILES IDX 11 1 12 2 13 3 14 4 28 5 29 6 9 7 10 8 8 9 3 10 4 11 30 12
REMARK SMILES IDX 5 13 6 14 31 15 2 16 1 17 7 18 15 20 16 21 27 22 17 25 18 26
REMARK SMILES IDX 26 28 25 29 21 30 24 31 22 32 23 33 19 34 20 35
REMARK H PARENT 7 19 15 23 27 24
REMARK Flexibility Score:   30.900
ROOT
ATOM      1  C   UNL     1      -1.866  -1.819   0.760  1.00  0.00     0.023 A 
ATOM      2  C   UNL     1      -1.321  -0.903  -0.142  1.00  0.00     0.014 A 
ATOM      3  C   UNL     1       0.029  -0.544  -0.045  1.00  0.00     0.027 A 
ATOM      4  C   UNL     1       0.866  -1.111   0.924  1.00  0.00     0.041 A 
ATOM      5  C   UNL     1       0.299  -2.023   1.828  1.00  0.00     0.027 A 
ATOM      6  C   UNL     1      -1.049  -2.387   1.740  1.00  0.00     0.014 A 
ENDROOT
BRANCH   1   7
ATOM      7  C   UNL     1      -3.286  -2.244   0.689  1.00  0.00     0.198 C 
ATOM      8  O   UNL     1      -3.597  -3.389   1.019  1.00  0.00    -0.288 OA
BRANCH   7   9
ATOM      9  C   UNL     1      -4.346  -1.384   0.122  1.00  0.00     0.087 A 
ATOM     10  C   UNL     1      -5.565   0.716  -0.104  1.00  0.00     0.138 A 
ATOM     11  C   UNL     1      -6.337   0.145  -1.123  1.00  0.00     0.052 A 
ATOM     12  C   UNL     1      -4.570  -0.060   0.530  1.00  0.00     0.097 A 
ATOM     13  C   UNL     1      -6.146  -1.187  -1.492  1.00  0.00     0.051 A 
ATOM     14  C   UNL     1      -5.172  -1.949  -0.860  1.00  0.00     0.128 A 
ATOM     15  Cl  UNL     1      -3.692   0.629   1.865  1.00  0.00    -0.079 Cl
BRANCH  10  16
ATOM     16  O   UNL     1      -5.712   2.008   0.335  1.00  0.00    -0.495 OA
ATOM     17  C   UNL     1      -6.735   2.800  -0.254  1.00  0.00     0.278 C 
ENDBRANCH  10  16
BRANCH  14  18
ATOM     18  O   UNL     1      -5.077  -3.260  -1.246  1.00  0.00    -0.507 OA
ATOM     19  H   UNL     1      -4.592  -3.748  -0.542  1.00  0.00     0.293 HD
ENDBRANCH  14  18
ENDBRANCH   7   9
ENDBRANCH   1   7
BRANCH   4  20
ATOM     20  N   UNL     1       2.218  -0.736   1.089  1.00  0.00    -0.326 N 
ATOM     21  C   UNL     1       3.081  -0.245   0.120  1.00  0.00     0.205 C 
ATOM     22  N   UNL     1       4.182   0.236   0.780  1.00  0.00    -0.325 N 
ATOM     23  H   UNL     1       2.692  -1.310   1.774  1.00  0.00     0.170 HD
ATOM     24  H   UNL     1       3.984   0.460   1.746  1.00  0.00     0.170 HD
BRANCH  21  25
ATOM     25  N   UNL     1       2.791  -0.326  -1.134  1.00  0.00    -0.220 NA
BRANCH  25  26
ATOM     26  C   UNL     1       3.606   0.079  -2.143  1.00  0.00     0.155 CG0
ATOM     27  G   UNL     1       4.797   0.682  -2.171  1.00  0.00     0.000 G0
ENDBRANCH  25  26
ENDBRANCH  21  25
BRANCH  22  28
ATOM     28  C   UNL     1       5.307   0.928   0.302  1.00  0.00     0.051 A 
ATOM     29  C   UNL     1       6.228   1.375   1.280  1.00  0.00     0.027 A 
ATOM     30  C   UNL     1       5.628   1.120  -1.047  1.00  0.00     0.035 A 
ATOM     31  C   UNL     1       7.410   2.032   0.941  1.00  0.00     0.002 A 
ATOM     32  C   UNL     1       6.831   1.787  -1.374  1.00  0.00     0.013 A 
ATOM     33  C   UNL     1       7.712   2.243  -0.393  1.00  0.00     0.001 A 
BRANCH  30  34
ATOM     34  C   UNL     1       4.797   0.682  -2.171  1.00  0.00     0.150 CG0
ATOM     35  F   UNL     1       5.299   0.926  -3.410  1.00  0.00    -0.205 F 
ATOM     36  G   UNL     1       3.606   0.079  -2.143  1.00  0.00     0.000 G0
ENDBRANCH  30  34
ENDBRANCH  22  28
ENDBRANCH   4  20
TORSDOF 5
