MODEL        2USER    Run = 2USERUSER    Estimated Free Energy of Binding    =  -6.23 kcal/mol  [=(1)+(2)+(3)-(4)]USERUSER    (1) Final Intermolecular Energy     =  -8.91 kcal/molUSER        vdW + Hbond + desolv Energy     =  -8.46 kcal/molUSER        Electrostatic Energy            =  -0.68 kcal/molUSER        Moving Ligand-Fixed Receptor    =  -9.14 kcal/molUSER        Moving Ligand-Moving Receptor   =  +0.22 kcal/molUSER    (2) Final Total Internal Energy     =  -0.82 kcal/molUSER    (3) Torsional Free Energy           =  +2.68 kcal/molUSER    (4) Unbound System's Energy         =  -0.82 kcal/molUSERUSERREMARK SMILES COc1ccc(O)c(C(=O)c2ccc(NC3=NC=C(F)c4ccccc4N3)cc2)c1ClREMARK SMILES IDX 11 1 12 2 13 3 14 4 28 5 29 6 9 7 10 8 8 9 3 10 4 11 30 12REMARK SMILES IDX 5 13 6 14 31 15 2 16 1 17 7 18 15 20 16 21 27 22 17 25 18 26REMARK SMILES IDX 26 28 25 29 21 30 24 31 22 32 23 33 19 34 20 35REMARK H PARENT 7 19 15 23 27 24REMARK Flexibility Score:   30.900USER                              x       y       z     vdW  Elec       q    TypeUSER                           _______ _______ _______ _____ _____    ______ ____ROOTATOM      1  C   UNL     1       4.105  -6.246 -10.358 -0.33 -0.00    +0.023 A  ATOM      2  C   UNL     1       3.887  -5.388 -11.438 -0.18 -0.00    +0.014 A  ATOM      3  C   UNL     1       3.895  -4.001 -11.243 -0.17 -0.01    +0.027 A  ATOM      4  C   UNL     1       4.153  -3.444  -9.985 -0.28 -0.02    +0.041 A  ATOM      5  C   UNL     1       4.361  -4.321  -8.909 -0.42 -0.01    +0.027 A  ATOM      6  C   UNL     1       4.353  -5.708  -9.093 -0.42 -0.00    +0.014 A  ENDROOTBRANCH   1   7ATOM      7  C   UNL     1       4.122  -7.721 -10.516 -0.32 +0.02    +0.198 C  ATOM      8  O   UNL     1       3.695  -8.436  -9.608 -0.34 -0.02    -0.288 OA BRANCH   7   9ATOM      9  C   UNL     1       4.743  -8.390 -11.678 -0.24 +0.02    +0.087 A  ATOM     10  C   UNL     1       4.813 -10.055 -13.458 -0.14 +0.10    +0.138 A  ATOM     11  C   UNL     1       5.998  -9.481 -13.934 -0.19 +0.02    +0.052 A  ATOM     12  C   UNL     1       4.189  -9.511 -12.315 -0.25 +0.06    +0.097 A  ATOM     13  C   UNL     1       6.574  -8.397 -13.269 -0.26 +0.00    +0.051 A  ATOM     14  C   UNL     1       5.961  -7.870 -12.140 -0.24 +0.00    +0.128 A  ATOM     15  Cl  UNL     1       2.776 -10.300 -11.674 -0.73 -0.08    -0.079 Cl BRANCH  10  16ATOM     16  O   UNL     1       4.202 -11.139 -14.038 -0.60 -0.75    -0.495 OA ATOM     17  C   UNL     1       4.715 -11.610 -15.277 -0.17 +0.26    +0.278 C  ENDBRANCH  10  16BRANCH  14  18ATOM     18  O   UNL     1       6.612  -6.838 -11.518 -0.11 +0.10    -0.507 OA ATOM     19  H   UNL     1       7.373  -6.575 -12.085 -0.13 -0.15    +0.293 HD ENDBRANCH  14  18ENDBRANCH   7   9ENDBRANCH   1   7BRANCH   4  20ATOM     20  N   UNL     1       4.117  -2.054  -9.736 -0.02 +0.37    -0.326 N  ATOM     21  C   UNL     1       2.995  -1.258  -9.556 -0.20 -0.11    +0.205 C  ATOM     22  N   UNL     1       3.439  -0.054  -9.073 -0.06 +0.28    -0.325 N  ATOM     23  H   UNL     1       4.868  -1.563 -10.204 -0.47 -0.46    +0.170 HD ATOM     24  H   UNL     1       4.346  -0.127  -8.633 -0.43 -0.26    +0.170 HD BRANCH  21  25ATOM     25  N   UNL     1       1.818  -1.686  -9.863 -0.13 -0.01    -0.220 NA BRANCH  25  26ATOM     26  C   UNL     1       0.674  -0.965  -9.729 -0.14 +0.09    +0.155 CG0ATOM     27  G   UNL     1       0.421   0.279  -9.316 +0.00 +0.00    +0.000 G0 ENDBRANCH  25  26ENDBRANCH  21  25BRANCH  22  28ATOM     28  C   UNL     1       2.728   1.071  -8.625 -0.23 -0.01    +0.051 A  ATOM     29  C   UNL     1       3.504   2.129  -8.092 -0.31 -0.01    +0.027 A  ATOM     30  C   UNL     1       1.347   1.262  -8.752 -0.15 +0.00    +0.035 A  ATOM     31  C   UNL     1       2.931   3.323  -7.655 -0.32 -0.00    +0.002 A  ATOM     32  C   UNL     1       0.782   2.478  -8.305 -0.14 +0.00    +0.013 A  ATOM     33  C   UNL     1       1.562   3.497  -7.759 -0.26 -0.00    +0.001 A  BRANCH  30  34ATOM     34  C   UNL     1       0.419   0.278  -9.316 -0.09 +0.08    +0.150 CG0ATOM     35  F   UNL     1      -0.874   0.680  -9.431 -0.03 -0.18    -0.205 F  ATOM     36  G   UNL     1       0.672  -0.966  -9.729 +0.00 +0.00    +0.000 G0 ENDBRANCH  30  34ENDBRANCH  22  28ENDBRANCH   4  20TORSDOF 5TERENDMDL