REMARK SMILES Cc1cc(Nc2ncc(Cl)c(N[C@H]3CC[C@@H](O)CC3)n2)ccc1-c1nnn[nH]1
REMARK SMILES IDX 6 1 7 2 8 3 9 4 10 5 11 6 20 7 5 8 4 10 2 11 3 12 23 13
REMARK SMILES IDX 22 14 21 15 1 16 24 17 25 18 28 19 26 20 27 21 12 23 13 25
REMARK SMILES IDX 19 26 14 27 18 28 15 29 16 30 17 31
REMARK H PARENT 5 9 28 22 12 24 17 32
ROOT
ATOM      1  C   UNL     1       0.555   0.179   0.852  1.00  0.00     0.229 A 
ATOM      2  N   UNL     1       0.772   1.493   0.983  1.00  0.00    -0.220 NA
ATOM      3  C   UNL     1      -0.224   2.232   1.511  1.00  0.00     0.139 A 
ATOM      4  C   UNL     1      -1.438   1.718   1.897  1.00  0.00     0.101 A 
ATOM      5  Cl  UNL     1      -2.606   2.745   2.628  1.00  0.00    -0.079 Cl
ATOM      6  C   UNL     1      -1.592   0.354   1.705  1.00  0.00     0.150 A 
ATOM      7  N   UNL     1      -0.600  -0.413   1.206  1.00  0.00    -0.194 NA
ENDROOT
BRANCH   1   8
ATOM      8  N   UNL     1       1.518  -0.683   0.338  1.00  0.00    -0.324 N 
ATOM      9  H   UNL     1       1.146  -1.622   0.336  1.00  0.00     0.170 HD
BRANCH   8  10
ATOM     10  C   UNL     1       2.803  -0.509  -0.185  1.00  0.00     0.041 A 
ATOM     11  C   UNL     1       4.736   0.861  -0.851  1.00  0.00    -0.038 A 
ATOM     12  C   UNL     1       3.429   0.732  -0.333  1.00  0.00     0.030 A 
ATOM     13  C   UNL     1       5.445  -0.291  -1.242  1.00  0.00     0.024 A 
ATOM     14  C   UNL     1       4.821  -1.540  -1.096  1.00  0.00     0.014 A 
ATOM     15  C   UNL     1       3.526  -1.643  -0.574  1.00  0.00     0.027 A 
ATOM     16  C   UNL     1       5.319   2.245  -0.982  1.00  0.00     0.045 C 
BRANCH  13  17
ATOM     17  C   UNL     1       6.796  -0.220  -1.793  1.00  0.00     0.179 A 
ATOM     18  N   UNL     1       7.303   0.679  -2.615  1.00  0.00    -0.109 NA
ATOM     19  N   UNL     1       7.799  -1.107  -1.508  1.00  0.00    -0.239 N 
ATOM     20  N   UNL     1       8.611   0.320  -2.835  1.00  0.00    -0.024 NA
ATOM     21  N   UNL     1       8.921  -0.776  -2.159  1.00  0.00    -0.048 NA
ATOM     22  H   UNL     1       7.795  -1.911  -0.895  1.00  0.00     0.194 HD
ENDBRANCH  13  17
ENDBRANCH   8  10
ENDBRANCH   1   8
BRANCH   6  23
ATOM     23  N   UNL     1      -2.755  -0.361   2.026  1.00  0.00    -0.366 N 
ATOM     24  H   UNL     1      -2.487  -1.339   1.914  1.00  0.00     0.162 HD
BRANCH  23  25
ATOM     25  C   UNL     1      -3.922  -0.070   1.180  1.00  0.00     0.081 C 
ATOM     26  C   UNL     1      -3.757  -0.676  -0.228  1.00  0.00     0.027 C 
ATOM     27  C   UNL     1      -5.168  -0.635   1.871  1.00  0.00     0.027 C 
ATOM     28  C   UNL     1      -5.085  -1.011  -0.910  1.00  0.00     0.034 C 
ATOM     29  C   UNL     1      -6.450  -0.319   1.097  1.00  0.00     0.034 C 
ATOM     30  C   UNL     1      -6.226  -0.137  -0.406  1.00  0.00     0.114 C 
BRANCH  30  31
ATOM     31  O   UNL     1      -7.414  -0.474  -1.111  1.00  0.00    -0.393 OA
ATOM     32  H   UNL     1      -8.128   0.097  -0.780  1.00  0.00     0.210 HD
ENDBRANCH  30  31
ENDBRANCH  23  25
ENDBRANCH   6  23
TORSDOF 6
