MODEL        8USER    Run = 8USERUSER    Estimated Free Energy of Binding    = -10.92 kcal/mol  [=(1)+(2)+(3)-(4)]USERUSER    (1) Final Intermolecular Energy     = -12.71 kcal/molUSER        vdW + Hbond + desolv Energy     = -12.67 kcal/molUSER        Electrostatic Energy            =  -0.03 kcal/molUSER        Moving Ligand-Fixed Receptor    = -12.71 kcal/molUSER        Moving Ligand-Moving Receptor   =  +0.00 kcal/molUSER    (2) Final Total Internal Energy     =  -1.45 kcal/molUSER    (3) Torsional Free Energy           =  +1.79 kcal/molUSER    (4) Unbound System's Energy         =  -1.45 kcal/molUSERUSERREMARK SMILES Cc1cc(Nc2ncc(Cl)c(N[C@H]3CC[C@@H](O)CC3)n2)ccc1-c1nnn[nH]1REMARK SMILES IDX 6 1 7 2 8 3 9 4 10 5 11 6 20 7 5 8 4 10 2 11 3 12 23 13REMARK SMILES IDX 22 14 21 15 1 16 24 17 25 18 28 19 26 20 27 21 12 23 13 25REMARK SMILES IDX 19 26 14 27 18 28 15 29 16 30 17 31REMARK H PARENT 5 9 28 22 12 24 17 32USER                              x       y       z     vdW  Elec       q    TypeUSER                           _______ _______ _______ _____ _____    ______ ____ROOTATOM      1  C   UNL     1      17.939 -15.808  -7.714 -0.27 +0.01    +0.229 A  ATOM      2  N   UNL     1      17.997 -17.088  -8.100 -0.26 -0.02    -0.220 NA ATOM      3  C   UNL     1      17.216 -17.455  -9.135 -0.28 +0.00    +0.139 A  ATOM      4  C   UNL     1      16.362 -16.603  -9.791 -0.28 -0.01    +0.101 A  ATOM      5  Cl  UNL     1      15.469 -17.166 -11.147 -0.50 +0.01    -0.079 Cl ATOM      6  C   UNL     1      16.342 -15.301  -9.314 -0.25 -0.02    +0.150 A  ATOM      7  N   UNL     1      17.136 -14.901  -8.299 -0.26 +0.02    -0.194 NA ENDROOTBRANCH   1   8ATOM      8  N   UNL     1      18.714 -15.313  -6.671 -0.21 -0.05    -0.324 N  ATOM      9  H   UNL     1      19.493 -15.938  -6.519 +0.11 +0.05    +0.170 HD BRANCH   8  10ATOM     10  C   UNL     1      18.655 -14.167  -5.871 -0.44 +0.01    +0.041 A  ATOM     11  C   UNL     1      17.544 -12.151  -5.000 -0.48 -0.00    -0.038 A  ATOM     12  C   UNL     1      17.569 -13.289  -5.836 -0.42 -0.00    +0.030 A  ATOM     13  C   UNL     1      18.648 -11.876  -4.170 -0.50 +0.00    +0.024 A  ATOM     14  C   UNL     1      19.742 -12.755  -4.201 -0.18 +0.00    +0.014 A  ATOM     15  C   UNL     1      19.740 -13.880  -5.034 -0.55 +0.01    +0.027 A  ATOM     16  C   UNL     1      16.330 -11.259  -5.044 -0.56 -0.01    +0.045 C  BRANCH  13  17ATOM     17  C   UNL     1      18.684 -10.710  -3.290 -0.48 +0.04    +0.179 A  ATOM     18  N   UNL     1      19.474  -9.656  -3.354 -0.90 -0.04    -0.109 NA ATOM     19  N   UNL     1      17.846 -10.514  -2.226 -0.42 -0.07    -0.239 N  ATOM     20  N   UNL     1      19.118  -8.831  -2.314 -1.30 -0.01    -0.024 NA ATOM     21  N   UNL     1      18.120  -9.353  -1.617 -0.66 -0.02    -0.048 NA ATOM     22  H   UNL     1      17.090 -11.091  -1.883 -0.36 +0.07    +0.194 HD ENDBRANCH  13  17ENDBRANCH   8  10ENDBRANCH   1   8BRANCH   6  23ATOM     23  N   UNL     1      15.536 -14.282  -9.840 -0.10 +0.12    -0.366 N  ATOM     24  H   UNL     1      15.821 -14.216 -10.818 +0.11 -0.05    +0.162 HD BRANCH  23  25ATOM     25  C   UNL     1      15.685 -12.969  -9.194 -0.38 -0.03    +0.081 C  ATOM     26  C   UNL     1      17.065 -12.351  -9.497 -0.41 -0.01    +0.027 C  ATOM     27  C   UNL     1      14.560 -12.057  -9.694 -0.39 -0.01    +0.027 C  ATOM     28  C   UNL     1      17.070 -10.821  -9.465 -0.49 -0.01    +0.034 C  ATOM     29  C   UNL     1      14.589 -10.683  -9.021 -0.41 -0.01    +0.034 C  ATOM     30  C   UNL     1      15.985 -10.262  -8.554 -0.58 -0.03    +0.114 C  BRANCH  30  31ATOM     31  O   UNL     1      16.077  -8.843  -8.540 -0.43 +0.11    -0.393 OA ATOM     32  H   UNL     1      15.532  -8.517  -7.803 -0.12 -0.09    +0.210 HD ENDBRANCH  30  31ENDBRANCH  23  25ENDBRANCH   6  23TORSDOF 6TERENDMDL