REMARK SMILES Cc1cc(Nc2ncc(Cl)c(N[C@H]3CC[C@@H](O)CC3)n2)ccc1C(=O)NO
REMARK SMILES IDX 6 1 7 2 8 3 9 4 10 5 11 6 20 7 5 8 4 10 2 11 3 12 23 13
REMARK SMILES IDX 22 14 21 15 1 16 24 17 26 18 25 19 27 21 12 23 13 25 19 26
REMARK SMILES IDX 14 27 18 28 15 29 16 30 17 31
REMARK H PARENT 5 9 26 20 27 22 12 24 17 32
ROOT
ATOM      1  C   UNL     1       0.416  -0.873  -0.263  1.00  0.00     0.229 A 
ATOM      2  N   UNL     1       0.687  -1.769   0.694  1.00  0.00    -0.220 NA
ATOM      3  C   UNL     1      -0.329  -2.555   1.104  1.00  0.00     0.139 A 
ATOM      4  C   UNL     1      -1.611  -2.469   0.617  1.00  0.00     0.101 A 
ATOM      5  Cl  UNL     1      -2.805  -3.578   1.163  1.00  0.00    -0.079 Cl
ATOM      6  C   UNL     1      -1.814  -1.495  -0.348  1.00  0.00     0.150 A 
ATOM      7  N   UNL     1      -0.808  -0.716  -0.797  1.00  0.00    -0.194 NA
ENDROOT
BRANCH   1   8
ATOM      8  N   UNL     1       1.389  -0.019  -0.774  1.00  0.00    -0.324 N 
ATOM      9  H   UNL     1       0.972   0.547  -1.500  1.00  0.00     0.170 HD
BRANCH   8  10
ATOM     10  C   UNL     1       2.764   0.128  -0.568  1.00  0.00     0.041 A 
ATOM     11  C   UNL     1       4.896  -0.462   0.511  1.00  0.00    -0.036 A 
ATOM     12  C   UNL     1       3.513  -0.660   0.314  1.00  0.00     0.030 A 
ATOM     13  C   UNL     1       5.543   0.558  -0.205  1.00  0.00     0.045 A 
ATOM     14  C   UNL     1       4.810   1.356  -1.092  1.00  0.00     0.016 A 
ATOM     15  C   UNL     1       3.438   1.143  -1.263  1.00  0.00     0.027 A 
ATOM     16  C   UNL     1       5.627  -1.363   1.469  1.00  0.00     0.045 C 
BRANCH  13  17
ATOM     17  C   UNL     1       7.004   0.805  -0.058  1.00  0.00     0.274 C 
ATOM     18  N   UNL     1       7.378   2.132  -0.007  1.00  0.00    -0.234 N 
ATOM     19  O   UNL     1       7.820  -0.105   0.048  1.00  0.00    -0.267 OA
ATOM     20  H   UNL     1       6.724   2.856   0.272  1.00  0.00     0.199 HD
BRANCH  18  21
ATOM     21  O   UNL     1       8.732   2.350   0.349  1.00  0.00    -0.288 OA
ATOM     22  H   UNL     1       9.082   1.433   0.404  1.00  0.00     0.246 HD
ENDBRANCH  18  21
ENDBRANCH  13  17
ENDBRANCH   8  10
ENDBRANCH   1   8
BRANCH   6  23
ATOM     23  N   UNL     1      -3.046  -1.240  -0.963  1.00  0.00    -0.366 N 
ATOM     24  H   UNL     1      -2.828  -0.583  -1.713  1.00  0.00     0.162 HD
BRANCH  23  25
ATOM     25  C   UNL     1      -4.086  -0.662  -0.096  1.00  0.00     0.081 C 
ATOM     26  C   UNL     1      -3.788   0.814   0.216  1.00  0.00     0.027 C 
ATOM     27  C   UNL     1      -5.434  -0.803  -0.819  1.00  0.00     0.027 C 
ATOM     28  C   UNL     1      -4.926   1.464   1.005  1.00  0.00     0.034 C 
ATOM     29  C   UNL     1      -6.570  -0.148  -0.033  1.00  0.00     0.034 C 
ATOM     30  C   UNL     1      -6.272   1.313   0.298  1.00  0.00     0.114 C 
BRANCH  30  31
ATOM     31  O   UNL     1      -6.254   2.059  -0.915  1.00  0.00    -0.393 OA
ATOM     32  H   UNL     1      -6.165   2.999  -0.682  1.00  0.00     0.210 HD
ENDBRANCH  30  31
ENDBRANCH  23  25
ENDBRANCH   6  23
TORSDOF 7
