MODEL        3USER    Run = 3USERUSER    Estimated Free Energy of Binding    =  -8.42 kcal/mol  [=(1)+(2)+(3)-(4)]USERUSER    (1) Final Intermolecular Energy     = -11.10 kcal/molUSER        vdW + Hbond + desolv Energy     = -10.60 kcal/molUSER        Electrostatic Energy            =  -0.50 kcal/molUSER        Moving Ligand-Fixed Receptor    = -11.10 kcal/molUSER        Moving Ligand-Moving Receptor   =  +0.00 kcal/molUSER    (2) Final Total Internal Energy     =  -1.56 kcal/molUSER    (3) Torsional Free Energy           =  +2.68 kcal/molUSER    (4) Unbound System's Energy         =  -1.56 kcal/molUSERUSERREMARK SMILES COc1ccc(O)c(C(=O)c2ccc(Nc3ncc(F)c(N[C@H]4CC[C@@H](O)C(C)(C)C4)n3)cc2)c1FREMARK SMILES IDX 15 1 14 3 11 4 12 5 34 6 13 7 33 8 9 9 10 10 8 11 3 12 4 13REMARK SMILES IDX 35 14 5 15 6 16 36 17 2 18 1 19 7 20 16 22 17 23 32 24 18 25REMARK SMILES IDX 21 26 19 27 20 28 22 29 23 31 24 32 31 33 25 34 28 35 26 36REMARK SMILES IDX 29 37 30 38 27 39REMARK H PARENT 15 2 7 21 22 30 27 40USER                              x       y       z     vdW  Elec       q    TypeUSER                           _______ _______ _______ _____ _____    ______ ____ROOTATOM      1  N   UNL     1      10.556 -10.265 -13.046 -0.27 +0.26    -0.324 N  ATOM      2  H   UNL     1      10.889 -10.174 -13.994 -0.40 -0.26    +0.170 HD ENDROOTBRANCH   1   3ATOM      3  C   UNL     1       9.427  -9.519 -12.696 -0.48 -0.02    +0.041 A  ATOM      4  C   UNL     1       7.074  -8.065 -12.094 -0.38 -0.00    +0.023 A  ATOM      5  C   UNL     1       8.233  -7.874 -11.340 -0.48 -0.00    +0.014 A  ATOM      6  C   UNL     1       7.093  -8.958 -13.166 -0.29 -0.00    +0.014 A  ATOM      7  C   UNL     1       9.393  -8.601 -11.639 -0.53 -0.00    +0.027 A  ATOM      8  C   UNL     1       8.257  -9.678 -13.455 -0.28 -0.01    +0.027 A  BRANCH   4   9ATOM      9  C   UNL     1       5.835  -7.290 -11.840 -0.24 -0.01    +0.199 C  ATOM     10  O   UNL     1       5.811  -6.092 -12.131 -0.13 +0.06    -0.288 OA BRANCH   9  11ATOM     11  C   UNL     1       4.635  -7.864 -11.194 -0.26 +0.01    +0.104 A  ATOM     12  C   UNL     1       2.786  -9.453 -11.140 -0.37 +0.09    +0.155 A  ATOM     13  C   UNL     1       2.370  -8.922  -9.916 -0.15 +0.02    +0.053 A  ATOM     14  C   UNL     1       3.914  -8.910 -11.772 -0.23 +0.07    +0.179 A  ATOM     15  C   UNL     1       3.064  -7.852  -9.345 -0.41 +0.01    +0.051 A  ATOM     16  C   UNL     1       4.178  -7.319  -9.989 -0.32 +0.01    +0.130 A  ATOM     17  F   UNL     1       4.280  -9.401 -12.968 -0.06 -0.14    -0.202 F  BRANCH  12  18ATOM     18  O   UNL     1       2.178 -10.484 -11.803 -0.60 -0.67    -0.494 OA ATOM     19  C   UNL     1       1.832 -11.636 -11.044 -0.50 +0.26    +0.278 C  ENDBRANCH  12  18BRANCH  16  20ATOM     20  O   UNL     1       4.779  -6.250  -9.378 -0.12 +0.01    -0.507 OA ATOM     21  H   UNL     1       5.218  -5.713 -10.079 +0.18 -0.05    +0.293 HD ENDBRANCH  16  20ENDBRANCH   9  11ENDBRANCH   4   9ENDBRANCH   1   3BRANCH   1  22ATOM     22  C   UNL     1      11.357 -11.187 -12.380 -0.31 -0.12    +0.229 A  ATOM     23  N   UNL     1      11.993 -10.887 -11.238 -0.31 +0.11    -0.218 NA ATOM     24  N   UNL     1      11.439 -12.391 -12.977 -0.24 +0.10    -0.192 NA ATOM     25  C   UNL     1      12.731 -11.863 -10.676 -0.03 -0.12    +0.158 A  ATOM     26  C   UNL     1      12.197 -13.350 -12.413 -0.21 -0.07    +0.168 A  ATOM     27  C   UNL     1      12.862 -13.112 -11.223 -0.20 -0.12    +0.183 A  ATOM     28  F   UNL     1      13.620 -14.047 -10.634 -0.05 +0.12    -0.201 F  BRANCH  26  29ATOM     29  N   UNL     1      12.268 -14.632 -12.982 -0.03 +0.11    -0.365 N  ATOM     30  H   UNL     1      13.235 -14.951 -12.970 +0.11 -0.05    +0.162 HD BRANCH  29  31ATOM     31  C   UNL     1      11.592 -14.944 -14.245 -0.22 -0.02    +0.081 C  ATOM     32  C   UNL     1      10.101 -14.573 -14.230 -0.27 -0.01    +0.027 C  ATOM     33  C   UNL     1      12.335 -14.410 -15.477 -0.36 -0.02    +0.034 C  ATOM     34  C   UNL     1       9.541 -14.328 -15.631 -0.25 -0.01    +0.034 C  ATOM     35  C   UNL     1      11.729 -14.924 -16.815 -0.45 +0.00    -0.007 C  ATOM     36  C   UNL     1      10.209 -15.236 -16.662 -0.24 -0.02    +0.120 C  ATOM     37  C   UNL     1      11.993 -13.859 -17.902 -0.47 -0.01    +0.014 C  ATOM     38  C   UNL     1      12.455 -16.215 -17.247 -0.34 +0.00    +0.014 C  BRANCH  36  39ATOM     39  O   UNL     1       9.513 -15.105 -17.897 -0.16 +0.05    -0.393 OA ATOM     40  H   UNL     1      10.024 -14.506 -18.466 -0.27 -0.06    +0.210 HD ENDBRANCH  36  39ENDBRANCH  29  31ENDBRANCH  26  29ENDBRANCH   1  22TORSDOF 9TERENDMDL