REMARK SMILES O=C(c1ccc(Nc2ncc(F)c(N[C@H]3CC[C@@H](O)CC3)n2)cc1)c1c(F)ccc(N2CCOCC2)c1O
REMARK SMILES IDX 7 1 6 3 3 4 4 5 24 6 5 7 23 8 2 9 1 10 25 11 26 12 37 13
REMARK SMILES IDX 28 14 30 15 29 16 27 17 38 18 31 20 32 21 36 22 33 23 35 24
REMARK SMILES IDX 34 25 8 26 9 27 22 28 10 29 13 30 11 31 12 32 14 33 15 35
REMARK SMILES IDX 21 36 16 37 20 38 17 39 18 40 19 41
REMARK H PARENT 7 2 38 19 14 34 19 42
ROOT
ATOM      1  N   UNL     1      -2.122  -2.199   2.167  1.00  0.00    -0.324 N 
ATOM      2  H   UNL     1      -1.922  -2.996   2.756  1.00  0.00     0.170 HD
ENDROOT
BRANCH   1   3
ATOM      3  C   UNL     1      -1.014  -1.529   1.634  1.00  0.00     0.041 A 
ATOM      4  C   UNL     1       1.312  -0.281   0.594  1.00  0.00     0.023 A 
ATOM      5  C   UNL     1       0.081   0.376   0.570  1.00  0.00     0.014 A 
ATOM      6  C   UNL     1       1.372  -1.588   1.083  1.00  0.00     0.014 A 
ATOM      7  C   UNL     1      -1.068  -0.246   1.081  1.00  0.00     0.027 A 
ATOM      8  C   UNL     1       0.221  -2.198   1.601  1.00  0.00     0.027 A 
BRANCH   4   9
ATOM      9  C   UNL     1       2.497   0.416   0.032  1.00  0.00     0.199 C 
ATOM     10  O   UNL     1       2.339   1.249  -0.865  1.00  0.00    -0.288 OA
BRANCH   9  11
ATOM     11  C   UNL     1       3.886   0.133   0.459  1.00  0.00     0.102 A 
ATOM     12  C   UNL     1       4.193  -0.093   1.796  1.00  0.00     0.138 A 
ATOM     13  C   UNL     1       4.930   0.174  -0.491  1.00  0.00     0.153 A 
ATOM     14  C   UNL     1       5.500  -0.344   2.188  1.00  0.00     0.042 A 
ATOM     15  C   UNL     1       6.277  -0.070  -0.129  1.00  0.00     0.080 A 
ATOM     16  C   UNL     1       6.520  -0.344   1.233  1.00  0.00     0.033 A 
ATOM     17  F   UNL     1       3.252  -0.039   2.746  1.00  0.00    -0.206 F 
BRANCH  13  18
ATOM     18  O   UNL     1       4.642   0.520  -1.797  1.00  0.00    -0.505 OA
ATOM     19  H   UNL     1       3.770   0.972  -1.805  1.00  0.00     0.293 HD
ENDBRANCH  13  18
BRANCH  15  20
ATOM     20  N   UNL     1       7.351  -0.060  -1.014  1.00  0.00    -0.364 N 
ATOM     21  C   UNL     1       7.175  -0.208  -2.467  1.00  0.00     0.145 C 
ATOM     22  C   UNL     1       8.639   0.527  -0.598  1.00  0.00     0.145 C 
ATOM     23  C   UNL     1       8.523  -0.579  -3.112  1.00  0.00     0.181 C 
ATOM     24  C   UNL     1       9.324   1.241  -1.776  1.00  0.00     0.181 C 
ATOM     25  O   UNL     1       9.570   0.383  -2.896  1.00  0.00    -0.378 OA
ENDBRANCH  15  20
ENDBRANCH   9  11
ENDBRANCH   4   9
ENDBRANCH   1   3
BRANCH   1  26
ATOM     26  C   UNL     1      -3.443  -1.815   2.390  1.00  0.00     0.229 A 
ATOM     27  N   UNL     1      -4.109  -2.575   3.277  1.00  0.00    -0.218 NA
ATOM     28  N   UNL     1      -3.995  -0.767   1.758  1.00  0.00    -0.192 NA
ATOM     29  C   UNL     1      -5.379  -2.211   3.549  1.00  0.00     0.158 A 
ATOM     30  C   UNL     1      -5.275  -0.436   2.026  1.00  0.00     0.168 A 
ATOM     31  C   UNL     1      -6.008  -1.145   2.959  1.00  0.00     0.183 A 
ATOM     32  F   UNL     1      -7.276  -0.854   3.278  1.00  0.00    -0.201 F 
BRANCH  30  33
ATOM     33  N   UNL     1      -5.729   0.672   1.325  1.00  0.00    -0.365 N 
ATOM     34  H   UNL     1      -5.037   0.869   0.590  1.00  0.00     0.162 HD
BRANCH  33  35
ATOM     35  C   UNL     1      -7.113   0.790   0.871  1.00  0.00     0.081 C 
ATOM     36  C   UNL     1      -7.337   2.224   0.367  1.00  0.00     0.027 C 
ATOM     37  C   UNL     1      -7.449  -0.236  -0.231  1.00  0.00     0.027 C 
ATOM     38  C   UNL     1      -6.514   2.580  -0.883  1.00  0.00     0.034 C 
ATOM     39  C   UNL     1      -7.281   0.298  -1.663  1.00  0.00     0.034 C 
ATOM     40  C   UNL     1      -6.204   1.372  -1.775  1.00  0.00     0.114 C 
BRANCH  40  41
ATOM     41  O   UNL     1      -4.939   0.836  -1.377  1.00  0.00    -0.393 OA
ATOM     42  H   UNL     1      -4.758   0.058  -1.936  1.00  0.00     0.210 HD
ENDBRANCH  40  41
ENDBRANCH  33  35
ENDBRANCH  30  33
ENDBRANCH   1  26
TORSDOF 9
