REMARK SMILES Cc1cc(Nc2ncc(Cl)c(N[C@H]3CC[C@@H](O)CC3)n2)ccc1C(=O)NS(C)(=O)=O
REMARK SMILES IDX 6 1 7 2 8 3 9 4 10 5 11 6 20 7 5 8 4 10 2 11 3 12 23 13
REMARK SMILES IDX 22 14 21 15 1 16 24 17 26 18 25 19 27 21 28 22 29 23 30 24
REMARK SMILES IDX 12 25 13 27 19 28 14 29 18 30 15 31 16 32 17 33
REMARK H PARENT 5 9 26 20 12 26 17 34
ROOT
ATOM      1  C   UNL     1       0.680   0.444   0.898  1.00  0.00     0.229 A 
ATOM      2  N   UNL     1       0.490   1.649   0.350  1.00  0.00    -0.220 NA
ATOM      3  C   UNL     1       1.592   2.374   0.068  1.00  0.00     0.139 A 
ATOM      4  C   UNL     1       2.878   1.937   0.289  1.00  0.00     0.101 A 
ATOM      5  Cl  UNL     1       4.199   2.978  -0.046  1.00  0.00    -0.079 Cl
ATOM      6  C   UNL     1       2.987   0.668   0.831  1.00  0.00     0.150 A 
ATOM      7  N   UNL     1       1.899  -0.065   1.150  1.00  0.00    -0.194 NA
ENDROOT
BRANCH   1   8
ATOM      8  N   UNL     1      -0.381  -0.385   1.246  1.00  0.00    -0.324 N 
ATOM      9  H   UNL     1      -0.008  -1.219   1.679  1.00  0.00     0.170 HD
BRANCH   8  10
ATOM     10  C   UNL     1      -1.772  -0.242   1.242  1.00  0.00     0.041 A 
ATOM     11  C   UNL     1      -3.841   1.004   0.794  1.00  0.00    -0.036 A 
ATOM     12  C   UNL     1      -2.437   0.916   0.815  1.00  0.00     0.030 A 
ATOM     13  C   UNL     1      -4.586  -0.112   1.200  1.00  0.00     0.043 A 
ATOM     14  C   UNL     1      -3.952  -1.276   1.639  1.00  0.00     0.016 A 
ATOM     15  C   UNL     1      -2.555  -1.335   1.650  1.00  0.00     0.027 A 
ATOM     16  C   UNL     1      -4.505   2.284   0.368  1.00  0.00     0.045 C 
BRANCH  13  17
ATOM     17  C   UNL     1      -6.061  -0.081   1.188  1.00  0.00     0.264 C 
ATOM     18  N   UNL     1      -6.595  -0.380  -0.068  1.00  0.00    -0.249 N 
ATOM     19  O   UNL     1      -6.711   0.149   2.191  1.00  0.00    -0.268 OA
ATOM     20  H   UNL     1      -6.000  -0.650  -0.849  1.00  0.00     0.183 HD
BRANCH  18  21
ATOM     21  S   UNL     1      -8.184  -0.211  -0.488  1.00  0.00     0.232 S 
ATOM     22  C   UNL     1      -9.025  -1.363   0.581  1.00  0.00     0.183 C 
ATOM     23  O   UNL     1      -8.603   1.139  -0.188  1.00  0.00    -0.207 OA
ATOM     24  O   UNL     1      -8.264  -0.733  -1.839  1.00  0.00    -0.207 OA
ENDBRANCH  18  21
ENDBRANCH  13  17
ENDBRANCH   8  10
ENDBRANCH   1   8
BRANCH   6  25
ATOM     25  N   UNL     1       4.191   0.038   1.139  1.00  0.00    -0.366 N 
ATOM     26  H   UNL     1       3.878  -0.753   1.706  1.00  0.00     0.162 HD
BRANCH  25  27
ATOM     27  C   UNL     1       5.029  -0.510   0.054  1.00  0.00     0.081 C 
ATOM     28  C   UNL     1       4.456  -0.449  -1.364  1.00  0.00     0.027 C 
ATOM     29  C   UNL     1       6.436   0.111   0.132  1.00  0.00     0.027 C 
ATOM     30  C   UNL     1       5.346  -1.180  -2.379  1.00  0.00     0.034 C 
ATOM     31  C   UNL     1       7.232  -0.023  -1.167  1.00  0.00     0.034 C 
ATOM     32  C   UNL     1       6.817  -1.254  -1.960  1.00  0.00     0.114 C 
BRANCH  32  33
ATOM     33  O   UNL     1       7.642  -1.402  -3.106  1.00  0.00    -0.393 OA
ATOM     34  H   UNL     1       7.507  -0.632  -3.686  1.00  0.00     0.210 HD
ENDBRANCH  32  33
ENDBRANCH  25  27
ENDBRANCH   6  25
TORSDOF 7
