MODEL        2USER    Run = 2USERUSER    Estimated Free Energy of Binding    =  -9.12 kcal/mol  [=(1)+(2)+(3)-(4)]USERUSER    (1) Final Intermolecular Energy     = -11.21 kcal/molUSER        vdW + Hbond + desolv Energy     = -10.95 kcal/molUSER        Electrostatic Energy            =  -0.26 kcal/molUSER        Moving Ligand-Fixed Receptor    = -11.21 kcal/molUSER        Moving Ligand-Moving Receptor   =  +0.00 kcal/molUSER    (2) Final Total Internal Energy     =  -1.30 kcal/molUSER    (3) Torsional Free Energy           =  +2.09 kcal/molUSER    (4) Unbound System's Energy         =  -1.30 kcal/molUSERUSERREMARK SMILES Cc1cc(Nc2ncc(Cl)c(N[C@H]3CC[C@@H](O)CC3)n2)ccc1C(=O)NS(C)(=O)=OREMARK SMILES IDX 6 1 7 2 8 3 9 4 10 5 11 6 20 7 5 8 4 10 2 11 3 12 23 13REMARK SMILES IDX 22 14 21 15 1 16 24 17 26 18 25 19 27 21 28 22 29 23 30 24REMARK SMILES IDX 12 25 13 27 19 28 14 29 18 30 15 31 16 32 17 33REMARK H PARENT 5 9 26 20 12 26 17 34USER                              x       y       z     vdW  Elec       q    TypeUSER                           _______ _______ _______ _____ _____    ______ ____ROOTATOM      1  C   UNL     1       7.908  -8.640 -13.242 -0.16 -0.07    +0.229 A  ATOM      2  N   UNL     1       7.008  -7.715 -12.892 -0.18 +0.04    -0.220 NA ATOM      3  C   UNL     1       6.062  -7.406 -13.803 -0.14 +0.01    +0.139 A  ATOM      4  C   UNL     1       5.963  -7.998 -15.041 -0.14 +0.04    +0.101 A  ATOM      5  Cl  UNL     1       4.758  -7.471 -16.141 -0.16 -0.06    -0.079 Cl ATOM      6  C   UNL     1       6.915  -8.966 -15.312 -0.18 +0.02    +0.150 A  ATOM      7  N   UNL     1       7.890  -9.271 -14.429 -0.47 +0.10    -0.194 NA ENDROOTBRANCH   1   8ATOM      8  N   UNL     1       8.938  -9.027 -12.392 -0.31 +0.10    -0.324 N  ATOM      9  H   UNL     1       9.069  -8.305 -11.697 +0.07 -0.02    +0.170 HD BRANCH   8  10ATOM     10  C   UNL     1       9.683 -10.200 -12.234 -0.50 -0.01    +0.041 A  ATOM     11  C   UNL     1      10.177 -12.558 -12.713 -0.34 +0.01    -0.036 A  ATOM     12  C   UNL     1       9.379 -11.411 -12.872 -0.27 -0.01    +0.030 A  ATOM     13  C   UNL     1      11.318 -12.470 -11.903 -0.38 -0.02    +0.043 A  ATOM     14  C   UNL     1      11.642 -11.281 -11.248 -0.45 -0.01    +0.016 A  ATOM     15  C   UNL     1      10.830 -10.156 -11.423 -0.37 -0.01    +0.027 A  ATOM     16  C   UNL     1       9.783 -13.844 -13.385 -0.32 -0.01    +0.045 C  BRANCH  13  17ATOM     17  C   UNL     1      12.199 -13.638 -11.709 -0.19 -0.13    +0.264 C  ATOM     18  N   UNL     1      11.866 -14.380 -10.573 -0.13 +0.19    -0.249 N  ATOM     19  O   UNL     1      13.087 -13.915 -12.494 -0.18 +0.11    -0.268 OA ATOM     20  H   UNL     1      11.055 -14.146 -10.003 -0.41 -0.24    +0.183 HD BRANCH  18  21ATOM     21  S   UNL     1      12.777 -15.603  -9.938 -0.53 -0.12    +0.232 S  ATOM     22  C   UNL     1      14.401 -14.882  -9.789 -0.29 -0.08    +0.183 C  ATOM     23  O   UNL     1      12.261 -15.937  -8.630 -1.16 +0.10    -0.207 OA ATOM     24  O   UNL     1      12.839 -16.599 -10.991 -0.33 +0.06    -0.207 OA ENDBRANCH  18  21ENDBRANCH  13  17ENDBRANCH   8  10ENDBRANCH   1   8BRANCH   6  25ATOM     25  N   UNL     1       7.000  -9.682 -16.504 -0.09 -0.06    -0.366 N  ATOM     26  H   UNL     1       7.967 -10.013 -16.484 -0.47 -0.20    +0.162 HD BRANCH  25  27ATOM     27  C   UNL     1       6.141 -10.865 -16.710 -0.21 +0.01    +0.081 C  ATOM     28  C   UNL     1       5.991 -11.372 -18.147 -0.28 +0.00    +0.027 C  ATOM     29  C   UNL     1       6.574 -11.986 -15.748 -0.30 -0.00    +0.027 C  ATOM     30  C   UNL     1       4.961 -12.505 -18.255 -0.32 +0.01    +0.034 C  ATOM     31  C   UNL     1       6.079 -13.371 -16.166 -0.33 +0.00    +0.034 C  ATOM     32  C   UNL     1       4.780 -13.293 -16.955 -0.35 +0.04    +0.114 C  BRANCH  32  33ATOM     33  O   UNL     1       4.298 -14.598 -17.240 -0.66 -0.21    -0.393 OA ATOM     34  H   UNL     1       3.902 -14.965 -16.430 -0.40 +0.14    +0.210 HD ENDBRANCH  32  33ENDBRANCH  25  27ENDBRANCH   6  25TORSDOF 7TERENDMDL