MODEL        1USER    Run = 1USERUSER    Estimated Free Energy of Binding    =  -7.76 kcal/mol  [=(1)+(2)+(3)-(4)]USERUSER    (1) Final Intermolecular Energy     = -10.44 kcal/molUSER        vdW + Hbond + desolv Energy     = -10.30 kcal/molUSER        Electrostatic Energy            =  -0.14 kcal/molUSER        Moving Ligand-Fixed Receptor    = -10.44 kcal/molUSER        Moving Ligand-Moving Receptor   =  +0.00 kcal/molUSER    (2) Final Total Internal Energy     =  -2.72 kcal/molUSER    (3) Torsional Free Energy           =  +2.68 kcal/molUSER    (4) Unbound System's Energy         =  -2.72 kcal/molUSERUSERREMARK SMILES O=C(c1ccc(Nc2ncc(F)c(N[C@H]3CC[C@@H](O)CC3)n2)cc1)c1c(F)ccc(N2CCOCC2)c1OREMARK SMILES IDX 7 1 6 3 3 4 4 5 24 6 5 7 23 8 2 9 1 10 25 11 26 12 37 13REMARK SMILES IDX 28 14 30 15 29 16 27 17 38 18 31 20 32 21 36 22 33 23 35 24REMARK SMILES IDX 34 25 8 26 9 27 22 28 10 29 13 30 11 31 12 32 14 33 15 35REMARK SMILES IDX 21 36 16 37 20 38 17 39 18 40 19 41REMARK H PARENT 7 2 38 19 14 34 19 42USER                              x       y       z     vdW  Elec       q    TypeUSER                           _______ _______ _______ _____ _____    ______ ____ROOTATOM      1  N   UNL     1      -4.326   0.502  -0.707 -0.16 +0.03    -0.324 N  ATOM      2  H   UNL     1      -4.716  -0.405  -0.923 -0.38 -0.05    +0.170 HD ENDROOTBRANCH   1   3ATOM      3  C   UNL     1      -3.462   1.048  -1.664 -0.30 -0.00    +0.041 A  ATOM      4  C   UNL     1      -1.812   2.134  -3.700 -0.30 +0.00    +0.023 A  ATOM      5  C   UNL     1      -1.334   1.995  -2.396 -0.37 -0.00    +0.014 A  ATOM      6  C   UNL     1      -3.136   1.787  -3.976 -0.16 +0.00    +0.014 A  ATOM      7  C   UNL     1      -2.155   1.462  -1.391 -0.34 -0.00    +0.027 A  ATOM      8  C   UNL     1      -3.946   1.246  -2.968 -0.23 +0.00    +0.027 A  BRANCH   4   9ATOM      9  C   UNL     1      -0.907   2.713  -4.727 -0.26 +0.00    +0.199 C  ATOM     10  O   UNL     1      -1.204   3.787  -5.256 -0.19 +0.05    -0.288 OA BRANCH   9  11ATOM     11  C   UNL     1       0.327   2.043  -5.195 -0.32 +0.01    +0.102 A  ATOM     12  C   UNL     1       0.580   0.710  -4.888 -0.29 +0.04    +0.138 A  ATOM     13  C   UNL     1       1.303   2.787  -5.892 -0.29 -0.01    +0.153 A  ATOM     14  C   UNL     1       1.746   0.095  -5.320 -0.44 +0.01    +0.042 A  ATOM     15  C   UNL     1       2.509   2.197  -6.343 -0.34 -0.01    +0.080 A  ATOM     16  C   UNL     1       2.686   0.829  -6.047 -0.33 +0.00    +0.033 A  ATOM     17  F   UNL     1      -0.268  -0.006  -4.141 -0.02 -0.09    -0.206 F  BRANCH  13  18ATOM     18  O   UNL     1       1.108   4.140  -6.089 -0.18 +0.11    -0.505 OA ATOM     19  H   UNL     1       0.372   4.428  -5.506 +0.04 -0.08    +0.293 HD ENDBRANCH  13  18BRANCH  15  20ATOM     20  N   UNL     1       3.505   2.866  -7.048 -0.14 +0.09    -0.364 N  ATOM     21  C   UNL     1       3.218   4.025  -7.907 -0.28 -0.03    +0.145 C  ATOM     22  C   UNL     1       4.914   2.730  -6.633 -0.49 -0.03    +0.145 C  ATOM     23  C   UNL     1       4.407   4.268  -8.855 -0.38 -0.02    +0.181 C  ATOM     24  C   UNL     1       5.677   4.051  -6.834 -0.41 -0.02    +0.181 C  ATOM     25  O   UNL     1       5.657   4.519  -8.188 -0.85 -0.04    -0.378 OA ENDBRANCH  15  20ENDBRANCH   9  11ENDBRANCH   4   9ENDBRANCH   1   3BRANCH   1  26ATOM     26  C   UNL     1      -4.498   0.734   0.656 -0.15 -0.03    +0.229 A  ATOM     27  N   UNL     1      -5.399  -0.064   1.256 -0.20 +0.05    -0.218 NA ATOM     28  N   UNL     1      -3.811   1.687   1.307 -0.12 +0.04    -0.192 NA ATOM     29  C   UNL     1      -5.564   0.105   2.584 -0.18 -0.06    +0.158 A  ATOM     30  C   UNL     1      -4.011   1.856   2.630 -0.09 -0.05    +0.168 A  ATOM     31  C   UNL     1      -4.890   1.043   3.321 -0.12 -0.09    +0.183 A  ATOM     32  F   UNL     1      -5.118   1.153   4.637 -0.05 +0.16    -0.201 F  BRANCH  30  33ATOM     33  N   UNL     1      -3.235   2.858   3.194 -0.02 +0.10    -0.365 N  ATOM     34  H   UNL     1      -3.506   2.930   4.184 +0.04 -0.05    +0.162 HD BRANCH  33  35ATOM     35  C   UNL     1      -1.792   2.938   2.976 -0.22 -0.02    +0.081 C  ATOM     36  C   UNL     1      -1.199   3.910   4.009 -0.21 -0.01    +0.027 C  ATOM     37  C   UNL     1      -1.115   1.556   3.074 -0.24 -0.01    +0.027 C  ATOM     38  C   UNL     1      -1.320   3.422   5.463 -0.18 -0.01    +0.034 C  ATOM     39  C   UNL     1      -0.553   1.225   4.467 -0.33 -0.01    +0.034 C  ATOM     40  C   UNL     1      -1.330   1.895   5.596 -0.28 -0.04    +0.114 C  BRANCH  40  41ATOM     41  O   UNL     1      -2.691   1.454   5.578 -0.13 +0.34    -0.393 OA ATOM     42  H   UNL     1      -2.733   0.603   6.052 -0.40 -0.45    +0.210 HD ENDBRANCH  40  41ENDBRANCH  33  35ENDBRANCH  30  33ENDBRANCH   1  26TORSDOF 9TERENDMDL