REMARK SMILES COc1ccc(O)c(C(=O)c2ccc(Nc3nc4ccccc4[nH]3)cc2)c1Br
REMARK SMILES IDX 11 1 12 2 13 3 14 4 25 5 26 6 9 7 10 8 8 9 3 10 4 11 27 12
REMARK SMILES IDX 5 13 6 14 28 15 2 16 1 17 7 18 15 20 16 22 17 23 24 24 18 25
REMARK SMILES IDX 23 26 19 27 22 28 20 29 21 30
REMARK H PARENT 7 19 15 21 24 31
ROOT
ATOM      1  C   UNL     1       1.008  -1.073  -2.140  1.00  0.00     0.023 A 
ATOM      2  C   UNL     1       0.285  -2.149  -2.661  1.00  0.00     0.014 A 
ATOM      3  C   UNL     1      -1.069  -2.300  -2.349  1.00  0.00     0.027 A 
ATOM      4  C   UNL     1      -1.728  -1.379  -1.522  1.00  0.00     0.041 A 
ATOM      5  C   UNL     1      -0.996  -0.293  -1.023  1.00  0.00     0.027 A 
ATOM      6  C   UNL     1       0.359  -0.131  -1.335  1.00  0.00     0.014 A 
ENDROOT
BRANCH   1   7
ATOM      7  C   UNL     1       2.443  -0.942  -2.499  1.00  0.00     0.198 C 
ATOM      8  O   UNL     1       2.844  -1.367  -3.583  1.00  0.00    -0.288 OA
BRANCH   7   9
ATOM      9  C   UNL     1       3.406  -0.204  -1.655  1.00  0.00     0.082 A 
ATOM     10  C   UNL     1       4.504   0.339   0.453  1.00  0.00     0.134 A 
ATOM     11  C   UNL     1       5.185   1.383  -0.185  1.00  0.00     0.051 A 
ATOM     12  C   UNL     1       3.615  -0.467  -0.291  1.00  0.00     0.074 A 
ATOM     13  C   UNL     1       5.016   1.608  -1.551  1.00  0.00     0.051 A 
ATOM     14  C   UNL     1       4.147   0.808  -2.282  1.00  0.00     0.128 A 
ATOM     15  Br  UNL     1       2.790  -1.965   0.569  1.00  0.00    -0.046 Br
BRANCH  10  16
ATOM     16  O   UNL     1       4.638   0.044   1.786  1.00  0.00    -0.496 OA
ATOM     17  C   UNL     1       5.617   0.758   2.532  1.00  0.00     0.278 C 
ENDBRANCH  10  16
BRANCH  14  18
ATOM     18  O   UNL     1       4.067   1.063  -3.625  1.00  0.00    -0.507 OA
ATOM     19  H   UNL     1       3.701   0.263  -4.064  1.00  0.00     0.293 HD
ENDBRANCH  14  18
ENDBRANCH   7   9
ENDBRANCH   1   7
BRANCH   4  20
ATOM     20  N   UNL     1      -3.084  -1.611  -1.213  1.00  0.00    -0.326 N 
ATOM     21  H   UNL     1      -3.632  -1.821  -2.045  1.00  0.00     0.170 HD
BRANCH  20  22
ATOM     22  C   UNL     1      -3.801  -1.096  -0.195  1.00  0.00     0.205 A 
ATOM     23  N   UNL     1      -5.072  -0.769  -0.208  1.00  0.00    -0.213 NA
ATOM     24  N   UNL     1      -3.270  -0.955   1.062  1.00  0.00    -0.324 N 
ATOM     25  C   UNL     1      -5.357  -0.347   1.068  1.00  0.00     0.091 A 
ATOM     26  C   UNL     1      -4.240  -0.453   1.889  1.00  0.00     0.067 A 
ATOM     27  C   UNL     1      -6.558   0.136   1.607  1.00  0.00     0.030 A 
ATOM     28  C   UNL     1      -4.242  -0.105   3.241  1.00  0.00     0.028 A 
ATOM     29  C   UNL     1      -6.589   0.498   2.961  1.00  0.00     0.002 A 
ATOM     30  C   UNL     1      -5.449   0.378   3.760  1.00  0.00     0.002 A 
ATOM     31  H   UNL     1      -2.329  -1.208   1.319  1.00  0.00     0.170 HD
ENDBRANCH  20  22
ENDBRANCH   4  20
TORSDOF 6
