MODEL        9USER    Run = 9USERUSER    Estimated Free Energy of Binding    =  -9.31 kcal/mol  [=(1)+(2)+(3)-(4)]USERUSER    (1) Final Intermolecular Energy     = -11.40 kcal/molUSER        vdW + Hbond + desolv Energy     = -11.09 kcal/molUSER        Electrostatic Energy            =  -0.30 kcal/molUSER        Moving Ligand-Fixed Receptor    = -11.40 kcal/molUSER        Moving Ligand-Moving Receptor   =  +0.00 kcal/molUSER    (2) Final Total Internal Energy     =  -1.78 kcal/molUSER    (3) Torsional Free Energy           =  +2.09 kcal/molUSER    (4) Unbound System's Energy         =  -1.78 kcal/molUSERUSERREMARK SMILES Cc1cc(Nc2ncc(Cl)c(N[C@H]3CC[C@@H](O)CC3)n2)ccc1C(=O)NOREMARK SMILES IDX 6 1 7 2 8 3 9 4 10 5 11 6 20 7 5 8 4 10 2 11 3 12 23 13REMARK SMILES IDX 22 14 21 15 1 16 24 17 26 18 25 19 27 21 12 23 13 25 19 26REMARK SMILES IDX 14 27 18 28 15 29 16 30 17 31REMARK H PARENT 5 9 26 20 27 22 12 24 17 32USER                              x       y       z     vdW  Elec       q    TypeUSER                           _______ _______ _______ _____ _____    ______ ____ROOTATOM      1  C   UNL     1      15.659 -14.229 -11.832 -0.24 -0.07    +0.229 A  ATOM      2  N   UNL     1      16.100 -15.491 -11.761 -0.23 +0.06    -0.220 NA ATOM      3  C   UNL     1      15.511 -16.392 -12.573 -0.25 -0.04    +0.139 A  ATOM      4  C   UNL     1      14.484 -16.093 -13.435 -0.28 -0.03    +0.101 A  ATOM      5  Cl  UNL     1      13.865 -17.312 -14.476 -0.49 +0.01    -0.079 Cl ATOM      6  C   UNL     1      14.066 -14.772 -13.423 -0.19 -0.06    +0.150 A  ATOM      7  N   UNL     1      14.658 -13.844 -12.643 -0.26 +0.08    -0.194 NA ENDROOTBRANCH   1   8ATOM      8  N   UNL     1      16.202 -13.211 -11.052 -0.07 +0.09    -0.324 N  ATOM      9  H   UNL     1      16.932 -12.754 -11.581 +0.11 -0.04    +0.170 HD BRANCH   8  10ATOM     10  C   UNL     1      16.020 -12.791  -9.731 -0.35 -0.01    +0.041 A  ATOM     11  C   UNL     1      15.492 -11.105  -8.018 -0.46 +0.01    -0.036 A  ATOM     12  C   UNL     1      15.640 -11.495  -9.366 -0.40 -0.01    +0.030 A  ATOM     13  C   UNL     1      15.731 -12.052  -7.009 -0.41 -0.02    +0.045 A  ATOM     14  C   UNL     1      16.112 -13.355  -7.355 -0.24 -0.01    +0.016 A  ATOM     15  C   UNL     1      16.258 -13.712  -8.700 -0.35 -0.01    +0.027 A  ATOM     16  C   UNL     1      15.067  -9.694  -7.714 -0.71 -0.02    +0.045 C  BRANCH  13  17ATOM     17  C   UNL     1      15.572 -11.711  -5.568 -0.36 -0.09    +0.274 C  ATOM     18  N   UNL     1      14.332 -11.983  -5.029 -0.27 +0.13    -0.234 N  ATOM     19  O   UNL     1      16.489 -11.254  -4.893 -0.41 +0.04    -0.267 OA ATOM     20  H   UNL     1      13.713 -12.671  -5.444 -0.29 -0.27    +0.199 HD BRANCH  18  21ATOM     21  O   UNL     1      14.262 -11.859  -3.619 -1.05 +0.07    -0.288 OA ATOM     22  H   UNL     1      14.887 -11.120  -3.445 -0.35 -0.14    +0.246 HD ENDBRANCH  18  21ENDBRANCH  13  17ENDBRANCH   8  10ENDBRANCH   1   8BRANCH   6  23ATOM     23  N   UNL     1      13.030 -14.266 -14.218 -0.06 +0.19    -0.366 N  ATOM     24  H   UNL     1      13.497 -13.662 -14.896 -0.47 -0.15    +0.162 HD BRANCH  23  25ATOM     25  C   UNL     1      11.998 -13.493 -13.508 -0.31 -0.04    +0.081 C  ATOM     26  C   UNL     1      11.852 -13.971 -12.053 -0.32 -0.01    +0.027 C  ATOM     27  C   UNL     1      12.402 -12.012 -13.555 -0.35 -0.02    +0.027 C  ATOM     28  C   UNL     1      10.880 -13.092 -11.266 -0.40 -0.02    +0.034 C  ATOM     29  C   UNL     1      11.433 -11.135 -12.762 -0.49 -0.02    +0.034 C  ATOM     30  C   UNL     1      11.268 -11.616 -11.322 -0.47 -0.06    +0.114 C  BRANCH  30  31ATOM     31  O   UNL     1      12.502 -11.426 -10.636 -0.23 +0.28    -0.393 OA ATOM     32  H   UNL     1      12.629 -10.469 -10.516 -0.45 -0.13    +0.210 HD ENDBRANCH  30  31ENDBRANCH  23  25ENDBRANCH   6  23TORSDOF 7TERENDMDL