REMARK SMILES CN1CCN(C(=O)c2cc(-c3ccc(CN4CCC(n5c(O)nc6ccccc65)CC4)cc3)n(-c3ccc(F)cc3)n2)CC1
REMARK SMILES IDX 15 1 14 2 11 3 12 4 33 5 13 6 32 7 10 8 8 9 9 10 42 11 34 12
REMARK SMILES IDX 6 13 2 14 3 15 44 16 4 17 43 18 5 19 1 20 7 21 35 22 36 23
REMARK SMILES IDX 41 24 37 25 40 26 38 27 39 28 16 29 17 30 31 31 18 32 30 33
REMARK SMILES IDX 19 34 20 35 21 36 29 37 23 38 28 39 24 40 27 41 25 42 26 43
REMARK SMILES IDX 22 44
REMARK H PARENT 22 45
ROOT
ATOM      1  C   UNL     1       3.085  -0.261  -1.854  1.00  0.00     0.120 C 
ENDROOT
BRANCH   1   2
ATOM      2  C   UNL     1       1.656  -0.087  -1.383  1.00  0.00    -0.034 A 
ATOM      3  C   UNL     1      -1.037   0.148  -0.578  1.00  0.00     0.000 A 
ATOM      4  C   UNL     1      -0.558   0.878  -1.672  1.00  0.00     0.011 A 
ATOM      5  C   UNL     1      -0.150  -0.668   0.136  1.00  0.00     0.011 A 
ATOM      6  C   UNL     1       0.775   0.756  -2.075  1.00  0.00     0.006 A 
ATOM      7  C   UNL     1       1.182  -0.792  -0.268  1.00  0.00     0.006 A 
BRANCH   3   8
ATOM      8  C   UNL     1      -2.438   0.255  -0.182  1.00  0.00     0.075 A 
ATOM      9  C   UNL     1      -4.392   0.976   0.662  1.00  0.00     0.151 A 
ATOM     10  C   UNL     1      -3.105   1.389   0.240  1.00  0.00     0.065 A 
ATOM     11  N   UNL     1      -4.509  -0.355   0.536  1.00  0.00    -0.162 NA
ATOM     12  N   UNL     1      -3.369  -0.777  -0.082  1.00  0.00    -0.232 N 
BRANCH   9  13
ATOM     13  C   UNL     1      -5.423   1.883   1.223  1.00  0.00     0.274 C 
ATOM     14  N   UNL     1      -9.467   1.222   0.431  1.00  0.00    -0.303 NA
ATOM     15  C   UNL     1      -8.992   2.484   1.038  1.00  0.00     0.105 C 
ATOM     16  C   UNL     1      -8.806   0.048   1.015  1.00  0.00     0.105 C 
ATOM     17  C   UNL     1      -7.737   2.361   1.931  1.00  0.00     0.135 C 
ATOM     18  C   UNL     1      -7.268   0.158   0.911  1.00  0.00     0.135 C 
ATOM     19  N   UNL     1      -6.745   1.450   1.369  1.00  0.00    -0.335 N 
ATOM     20  C   UNL     1     -10.920   1.111   0.471  1.00  0.00     0.105 C 
ATOM     21  O   UNL     1      -5.098   3.029   1.541  1.00  0.00    -0.267 OA
ENDBRANCH   9  13
BRANCH  12  22
ATOM     22  C   UNL     1      -3.299  -2.137  -0.527  1.00  0.00     0.065 A 
ATOM     23  C   UNL     1      -4.207  -3.074   0.002  1.00  0.00     0.031 A 
ATOM     24  C   UNL     1      -2.375  -2.559  -1.494  1.00  0.00     0.031 A 
ATOM     25  C   UNL     1      -4.162  -4.412  -0.401  1.00  0.00     0.041 A 
ATOM     26  C   UNL     1      -2.336  -3.900  -1.896  1.00  0.00     0.041 A 
ATOM     27  C   UNL     1      -3.223  -4.813  -1.341  1.00  0.00     0.123 A 
ATOM     28  F   UNL     1      -3.178  -6.096  -1.727  1.00  0.00    -0.207 F 
ENDBRANCH  12  22
ENDBRANCH   3   8
ENDBRANCH   1   2
BRANCH   1  29
ATOM     29  N   UNL     1       3.855   0.991  -1.920  1.00  0.00    -0.299 NA
ATOM     30  C   UNL     1       5.122   0.803  -2.648  1.00  0.00     0.087 C 
ATOM     31  C   UNL     1       4.038   1.644  -0.619  1.00  0.00     0.087 C 
ATOM     32  C   UNL     1       6.386   1.111  -1.840  1.00  0.00     0.041 C 
ATOM     33  C   UNL     1       5.023   0.921   0.301  1.00  0.00     0.041 C 
ATOM     34  C   UNL     1       6.288   0.473  -0.451  1.00  0.00     0.095 C 
BRANCH  34  35
ATOM     35  N   UNL     1       7.503   0.642   0.333  1.00  0.00    -0.291 N 
ATOM     36  C   UNL     1       8.049   1.828   0.739  1.00  0.00     0.295 A 
ATOM     37  C   UNL     1       8.325  -0.360   0.806  1.00  0.00     0.072 A 
ATOM     38  N   UNL     1       9.151   1.684   1.423  1.00  0.00    -0.195 NA
ATOM     39  C   UNL     1       8.292  -1.759   0.721  1.00  0.00     0.029 A 
ATOM     40  C   UNL     1       9.342   0.324   1.477  1.00  0.00     0.092 A 
ATOM     41  C   UNL     1       9.330  -2.465   1.342  1.00  0.00     0.002 A 
ATOM     42  C   UNL     1      10.373  -0.402   2.092  1.00  0.00     0.031 A 
ATOM     43  C   UNL     1      10.355  -1.800   2.017  1.00  0.00     0.002 A 
BRANCH  36  44
ATOM     44  O   UNL     1       7.536   3.015   0.491  1.00  0.00    -0.480 OA
ATOM     45  H   UNL     1       8.184   3.596   0.931  1.00  0.00     0.296 HD
ENDBRANCH  36  44
ENDBRANCH  34  35
ENDBRANCH   1  29
TORSDOF 7
