MODEL        9USER    Run = 9USERUSER    Estimated Free Energy of Binding    = -13.42 kcal/mol  [=(1)+(2)+(3)-(4)]USERUSER    (1) Final Intermolecular Energy     = -15.51 kcal/molUSER        vdW + Hbond + desolv Energy     = -15.35 kcal/molUSER        Electrostatic Energy            =  -0.16 kcal/molUSER        Moving Ligand-Fixed Receptor    = -15.51 kcal/molUSER        Moving Ligand-Moving Receptor   =  +0.00 kcal/molUSER    (2) Final Total Internal Energy     =  -2.76 kcal/molUSER    (3) Torsional Free Energy           =  +2.09 kcal/molUSER    (4) Unbound System's Energy         =  -2.76 kcal/molUSERUSERREMARK SMILES CN1CCN(C(=O)c2cc(-c3ccc(CN4CCC(n5c(O)nc6ccccc65)CC4)cc3)n(-c3ccc(F)cc3)n2)CC1REMARK SMILES IDX 15 1 14 2 11 3 12 4 33 5 13 6 32 7 10 8 8 9 9 10 42 11 34 12REMARK SMILES IDX 6 13 2 14 3 15 44 16 4 17 43 18 5 19 1 20 7 21 35 22 36 23REMARK SMILES IDX 41 24 37 25 40 26 38 27 39 28 16 29 17 30 31 31 18 32 30 33REMARK SMILES IDX 19 34 20 35 21 36 29 37 23 38 28 39 24 40 27 41 25 42 26 43REMARK SMILES IDX 22 44REMARK H PARENT 22 45USER                              x       y       z     vdW  Elec       q    TypeUSER                           _______ _______ _______ _____ _____    ______ ____ROOTATOM      1  C   UNL     1      35.366  46.747  13.765 -0.42 -0.09    +0.120 C  ENDROOTBRANCH   1   2ATOM      2  C   UNL     1      35.516  45.963  15.052 -0.35 +0.03    -0.034 A  ATOM      3  C   UNL     1      35.677  44.492  17.454 -0.31 -0.00    +0.000 A  ATOM      4  C   UNL     1      35.564  45.887  17.483 -0.36 -0.01    +0.011 A  ATOM      5  C   UNL     1      35.750  43.842  16.215 -0.38 -0.00    +0.011 A  ATOM      6  C   UNL     1      35.477  46.615  16.293 -0.23 -0.01    +0.006 A  ATOM      7  C   UNL     1      35.661  44.569  15.025 -0.26 -0.00    +0.006 A  BRANCH   3   8ATOM      8  C   UNL     1      35.734  43.735  18.700 -0.30 -0.02    +0.075 A  ATOM      9  C   UNL     1      36.437  42.738  20.588 -0.34 -0.00    +0.151 A  ATOM     10  C   UNL     1      36.752  43.737  19.635 -0.33 -0.01    +0.065 A  ATOM     11  N   UNL     1      35.293  42.124  20.245 -0.37 -0.00    -0.162 NA ATOM     12  N   UNL     1      34.809  42.804  19.167 -0.25 +0.03    -0.232 N  BRANCH   9  13ATOM     13  C   UNL     1      37.289  42.386  21.749 -0.31 +0.01    +0.274 C  ATOM     14  N   UNL     1      40.344  44.953  22.974 -0.06 -0.02    -0.303 NA ATOM     15  C   UNL     1      40.239  43.571  23.490 -0.21 +0.00    +0.105 C  ATOM     16  C   UNL     1      39.037  45.618  22.914 -0.30 +0.01    +0.105 C  ATOM     17  C   UNL     1      38.804  43.007  23.594 -0.24 +0.01    +0.135 C  ATOM     18  C   UNL     1      38.026  44.800  22.079 -0.33 +0.01    +0.135 C  ATOM     19  N   UNL     1      37.978  43.381  22.451 -0.14 -0.02    -0.335 N  ATOM     20  C   UNL     1      41.327  45.737  23.712 -0.14 +0.01    +0.105 C  ATOM     21  O   UNL     1      37.394  41.201  22.074 -0.44 -0.02    -0.267 OA ENDBRANCH   9  13BRANCH  12  22ATOM     22  C   UNL     1      33.489  42.493  18.703 -0.34 -0.01    +0.065 A  ATOM     23  C   UNL     1      32.504  43.499  18.729 -0.35 -0.00    +0.031 A  ATOM     24  C   UNL     1      33.156  41.229  18.195 -0.37 -0.01    +0.031 A  ATOM     25  C   UNL     1      31.203  43.229  18.293 -0.24 -0.00    +0.041 A  ATOM     26  C   UNL     1      31.852  40.965  17.758 -0.34 -0.01    +0.041 A  ATOM     27  C   UNL     1      30.888  41.964  17.818 -0.19 -0.02    +0.123 A  ATOM     28  F   UNL     1      29.641  41.704  17.401 -0.02 +0.03    -0.207 F  ENDBRANCH  12  22ENDBRANCH   3   8ENDBRANCH   1   2BRANCH   1  29ATOM     29  N   UNL     1      36.641  47.134  13.142 -0.38 +0.14    -0.299 NA ATOM     30  C   UNL     1      37.661  46.085  13.313 -0.43 -0.03    +0.087 C  ATOM     31  C   UNL     1      37.118  48.462  13.544 -0.53 -0.04    +0.087 C  ATOM     32  C   UNL     1      38.920  46.522  14.068 -0.39 -0.01    +0.041 C  ATOM     33  C   UNL     1      37.639  48.522  14.981 -0.58 -0.03    +0.041 C  ATOM     34  C   UNL     1      38.532  47.316  15.319 -0.46 -0.04    +0.095 C  BRANCH  34  35ATOM     35  N   UNL     1      39.682  47.674  16.137 -0.28 +0.09    -0.291 N  ATOM     36  C   UNL     1      40.522  48.734  15.938 -0.34 -0.07    +0.295 A  ATOM     37  C   UNL     1      40.134  47.010  17.258 -0.45 -0.01    +0.072 A  ATOM     38  N   UNL     1      41.478  48.811  16.822 -0.94 -0.01    -0.195 NA ATOM     39  C   UNL     1      39.697  45.872  17.951 -0.43 -0.00    +0.029 A  ATOM     40  C   UNL     1      41.255  47.742  17.657 -0.45 -0.01    +0.092 A  ATOM     41  C   UNL     1      40.432  45.484  19.079 -0.45 -0.00    +0.002 A  ATOM     42  C   UNL     1      41.978  47.336  18.789 -0.50 +0.00    +0.031 A  ATOM     43  C   UNL     1      41.554  46.203  19.493 -0.45 +0.00    +0.002 A  BRANCH  36  44ATOM     44  O   UNL     1      40.401  49.616  14.968 -0.22 +0.21    -0.480 OA ATOM     45  H   UNL     1      39.628  50.127  15.272 -0.18 -0.24    +0.296 HD ENDBRANCH  36  44ENDBRANCH  34  35ENDBRANCH   1  29TORSDOF 7TERENDMDL