MODEL        6USER    Run = 6USERUSER    Estimated Free Energy of Binding    = -10.65 kcal/mol  [=(1)+(2)+(3)-(4)]USERUSER    (1) Final Intermolecular Energy     = -12.43 kcal/molUSER        vdW + Hbond + desolv Energy     = -12.41 kcal/molUSER        Electrostatic Energy            =  -0.03 kcal/molUSER        Moving Ligand-Fixed Receptor    = -12.43 kcal/molUSER        Moving Ligand-Moving Receptor   =  +0.00 kcal/molUSER    (2) Final Total Internal Energy     =  -1.50 kcal/molUSER    (3) Torsional Free Energy           =  +1.79 kcal/molUSER    (4) Unbound System's Energy         =  -1.50 kcal/molUSERUSERREMARK SMILES CN1CCN(c2ncnc(-c3ccc(CN4CCC(n5c(O)nc6ccccc65)CC4)cc3)c2F)CC1REMARK SMILES IDX 15 1 14 2 11 3 12 4 33 5 13 6 32 7 10 8 6 9 7 10 34 11 8 12REMARK SMILES IDX 9 13 35 14 5 15 2 16 3 17 37 18 4 19 36 20 1 21 16 22 17 23REMARK SMILES IDX 31 24 18 25 30 26 19 27 20 28 21 29 29 30 23 31 28 32 24 33REMARK SMILES IDX 27 34 25 35 26 36 22 37REMARK H PARENT 22 38USER                              x       y       z     vdW  Elec       q    TypeUSER                           _______ _______ _______ _____ _____    ______ ____ROOTATOM      1  C   UNL     1      42.991  45.303  21.807 -0.21 +0.04    +0.120 C  ENDROOTBRANCH   1   2ATOM      2  C   UNL     1      42.420  45.884  20.530 -0.23 -0.01    -0.034 A  ATOM      3  C   UNL     1      41.264  47.026  18.190 -0.53 -0.00    +0.003 A  ATOM      4  C   UNL     1      40.982  45.704  18.582 -0.47 +0.00    +0.011 A  ATOM      5  C   UNL     1      42.163  47.753  18.992 -0.30 +0.00    +0.011 A  ATOM      6  C   UNL     1      41.544  45.142  19.733 -0.34 +0.00    +0.006 A  ATOM      7  C   UNL     1      42.730  47.194  20.144 -0.40 +0.00    +0.006 A  BRANCH   3   8ATOM      8  C   UNL     1      40.637  47.606  16.983 -0.44 -0.02    +0.112 A  ATOM      9  C   UNL     1      38.861  47.873  15.400 -0.37 -0.07    +0.168 A  ATOM     10  N   UNL     1      39.654  48.724  14.707 -0.36 +0.09    -0.216 NA ATOM     11  C   UNL     1      39.347  47.287  16.567 -0.32 -0.06    +0.191 A  ATOM     12  C   UNL     1      40.881  48.978  15.179 -0.42 -0.05    +0.225 A  ATOM     13  N   UNL     1      41.422  48.457  16.283 -0.77 +0.01    -0.233 NA ATOM     14  F   UNL     1      38.639  46.367  17.243 -0.12 +0.06    -0.200 F  BRANCH   9  15ATOM     15  N   UNL     1      37.592  47.662  14.872 -0.20 +0.21    -0.352 N  ATOM     16  N   UNL     1      36.136  46.124  12.768 -0.32 +0.15    -0.303 NA ATOM     17  C   UNL     1      36.713  45.534  14.002 -0.42 -0.05    +0.105 C  ATOM     18  C   UNL     1      36.179  47.604  12.795 -0.63 -0.05    +0.105 C  ATOM     19  C   UNL     1      36.738  46.511  15.195 -0.36 -0.08    +0.133 C  ATOM     20  C   UNL     1      37.400  48.225  13.516 -0.48 -0.05    +0.133 C  ATOM     21  C   UNL     1      36.795  45.583  11.583 -0.47 -0.04    +0.105 C  ENDBRANCH   9  15ENDBRANCH   3   8ENDBRANCH   1   2BRANCH   1  22ATOM     22  N   UNL     1      41.965  44.752  22.708 -0.06 -0.03    -0.299 NA ATOM     23  C   UNL     1      40.659  45.354  22.433 -0.23 +0.01    +0.087 C  ATOM     24  C   UNL     1      41.955  43.281  22.713 -0.30 +0.00    +0.087 C  ATOM     25  C   UNL     1      39.607  44.812  23.396 -0.23 +0.00    +0.041 C  ATOM     26  C   UNL     1      40.586  42.650  22.448 -0.24 +0.00    +0.041 C  ATOM     27  C   UNL     1      39.503  43.279  23.332 -0.25 +0.01    +0.095 C  BRANCH  27  28ATOM     28  N   UNL     1      38.170  42.821  22.955 -0.17 -0.02    -0.291 N  ATOM     29  C   UNL     1      37.306  42.106  23.738 -0.20 +0.02    +0.295 A  ATOM     30  C   UNL     1      37.539  43.020  21.745 -0.34 +0.00    +0.072 A  ATOM     31  N   UNL     1      36.182  41.819  23.142 -0.35 -0.01    -0.195 NA ATOM     32  C   UNL     1      37.904  43.675  20.560 -0.28 -0.00    +0.029 A  ATOM     33  C   UNL     1      36.306  42.381  21.895 -0.37 +0.01    +0.092 A  ATOM     34  C   UNL     1      36.976  43.666  19.511 -0.34 -0.00    +0.002 A  ATOM     35  C   UNL     1      35.391  42.382  20.831 -0.33 +0.00    +0.031 A  ATOM     36  C   UNL     1      35.740  43.031  19.642 -0.43 -0.00    +0.002 A  BRANCH  29  37ATOM     37  O   UNL     1      37.552  41.720  24.973 -0.10 +0.01    -0.480 OA ATOM     38  H   UNL     1      36.906  40.999  25.076 -0.02 -0.09    +0.296 HD ENDBRANCH  29  37ENDBRANCH  27  28ENDBRANCH   1  22TORSDOF 6TERENDMDL