REMARK SMILES CN1CCN(c2ncnc(-c3ccc(CN4CCC(n5c(O)nc6ccccc65)CC4)cc3)c2F)CC1
REMARK SMILES IDX 15 1 14 2 11 3 12 4 33 5 13 6 32 7 10 8 6 9 7 10 34 11 8 12
REMARK SMILES IDX 9 13 35 14 5 15 2 16 3 17 37 18 4 19 36 20 1 21 16 22 17 23
REMARK SMILES IDX 31 24 18 25 30 26 19 27 20 28 21 29 29 30 23 31 28 32 24 33
REMARK SMILES IDX 27 34 25 35 26 36 22 37
REMARK H PARENT 22 38
ROOT
ATOM      1  C   UNL     1       1.478   1.143  -1.709  1.00  0.00     0.120 C 
ENDROOT
BRANCH   1   2
ATOM      2  C   UNL     1       0.232   0.993  -0.862  1.00  0.00    -0.034 A 
ATOM      3  C   UNL     1      -2.175   0.720   0.637  1.00  0.00     0.003 A 
ATOM      4  C   UNL     1      -1.524   1.961   0.509  1.00  0.00     0.011 A 
ATOM      5  C   UNL     1      -1.572  -0.387   0.013  1.00  0.00     0.011 A 
ATOM      6  C   UNL     1      -0.344   2.100  -0.231  1.00  0.00     0.006 A 
ATOM      7  C   UNL     1      -0.391  -0.254  -0.727  1.00  0.00     0.006 A 
BRANCH   3   8
ATOM      8  C   UNL     1      -3.435   0.605   1.403  1.00  0.00     0.112 A 
ATOM      9  C   UNL     1      -5.636  -0.246   1.807  1.00  0.00     0.168 A 
ATOM     10  N   UNL     1      -5.707   0.553   2.898  1.00  0.00    -0.216 NA
ATOM     11  C   UNL     1      -4.482  -0.232   1.026  1.00  0.00     0.191 A 
ATOM     12  C   UNL     1      -4.653   1.326   3.190  1.00  0.00     0.225 A 
ATOM     13  N   UNL     1      -3.516   1.401   2.494  1.00  0.00    -0.233 NA
ATOM     14  F   UNL     1      -4.393  -0.935  -0.115  1.00  0.00    -0.200 F 
BRANCH   9  15
ATOM     15  N   UNL     1      -6.752  -1.039   1.564  1.00  0.00    -0.352 N 
ATOM     16  N   UNL     1      -9.143  -1.270  -0.208  1.00  0.00    -0.303 NA
ATOM     17  C   UNL     1      -7.744  -1.520  -0.636  1.00  0.00     0.105 C 
ATOM     18  C   UNL     1      -9.245  -1.095   1.259  1.00  0.00     0.105 C 
ATOM     19  C   UNL     1      -6.840  -2.045   0.497  1.00  0.00     0.133 C 
ATOM     20  C   UNL     1      -8.037  -0.404   1.936  1.00  0.00     0.133 C 
ATOM     21  C   UNL     1      -9.706  -0.133  -0.931  1.00  0.00     0.105 C 
ENDBRANCH   9  15
ENDBRANCH   3   8
ENDBRANCH   1   2
BRANCH   1  22
ATOM     22  N   UNL     1       2.604   0.316  -1.244  1.00  0.00    -0.299 NA
ATOM     23  C   UNL     1       3.610   0.173  -2.299  1.00  0.00     0.087 C 
ATOM     24  C   UNL     1       3.149   0.780   0.041  1.00  0.00     0.087 C 
ATOM     25  C   UNL     1       4.755  -0.719  -1.829  1.00  0.00     0.041 C 
ATOM     26  C   UNL     1       4.661   1.013   0.047  1.00  0.00     0.041 C 
ATOM     27  C   UNL     1       5.412  -0.185  -0.545  1.00  0.00     0.095 C 
BRANCH  27  28
ATOM     28  N   UNL     1       6.832   0.103  -0.718  1.00  0.00    -0.291 N 
ATOM     29  C   UNL     1       7.378   0.984  -1.610  1.00  0.00     0.295 A 
ATOM     30  C   UNL     1       7.880  -0.459  -0.020  1.00  0.00     0.072 A 
ATOM     31  N   UNL     1       8.680   1.035  -1.558  1.00  0.00    -0.195 NA
ATOM     32  C   UNL     1       7.959  -1.407   1.010  1.00  0.00     0.029 A 
ATOM     33  C   UNL     1       9.015   0.141  -0.571  1.00  0.00     0.092 A 
ATOM     34  C   UNL     1       9.236  -1.741   1.477  1.00  0.00     0.002 A 
ATOM     35  C   UNL     1      10.286  -0.209  -0.089  1.00  0.00     0.031 A 
ATOM     36  C   UNL     1      10.382  -1.154   0.938  1.00  0.00     0.002 A 
BRANCH  29  37
ATOM     37  O   UNL     1       6.690   1.720  -2.459  1.00  0.00    -0.480 OA
ATOM     38  H   UNL     1       7.407   2.188  -2.923  1.00  0.00     0.296 HD
ENDBRANCH  29  37
ENDBRANCH  27  28
ENDBRANCH   1  22
TORSDOF 6
