MODEL        10USER    Run = 10USERUSER    Estimated Free Energy of Binding    =  -8.71 kcal/mol  [=(1)+(2)+(3)-(4)]USERUSER    (1) Final Intermolecular Energy     = -12.59 kcal/molUSER        vdW + Hbond + desolv Energy     = -13.29 kcal/molUSER        Electrostatic Energy            =  -0.05 kcal/molUSER        Moving Ligand-Fixed Receptor    = -13.34 kcal/molUSER        Moving Ligand-Moving Receptor   =  +0.75 kcal/molUSER    (2) Final Total Internal Energy     =  -1.57 kcal/molUSER    (3) Torsional Free Energy           =  +3.88 kcal/molUSER    (4) Unbound System's Energy         =  -1.57 kcal/molUSERUSERREMARK SMILES O=C(C1=CC=C2C(=NN=C2c2ccc(CN3CCC(n4c(O)nc5ccccc54)CC3)cc2)SC=C1)N1CC(O)C1REMARK SMILES IDX 6 1 7 2 8 3 9 4 10 5 34 6 35 7 36 8 3 9 2 11 37 12 38 13REMARK SMILES IDX 41 14 39 15 1 16 40 17 5 19 4 20 11 22 12 23 33 24 13 25REMARK SMILES IDX 32 26 14 27 15 28 16 29 17 30 31 31 18 32 30 33 19 34 20 35REMARK SMILES IDX 21 36 29 37 23 38 28 39 24 40 27 41 25 42 26 43 22 44REMARK H PARENT 40 18 22 45REMARK Flexibility Score:  177.900USER                              x       y       z     vdW  Elec       q    TypeUSER                           _______ _______ _______ _____ _____    ______ ____ROOTATOM      1  C   UNL     1      39.081  48.435  26.265 -0.29 +0.00    +0.037 C  ATOM      2  C   UNL     1      39.421  48.924  27.609 -0.22 +0.01    +0.132 C  ATOM      3  N   UNL     1      40.284  48.157  28.217 -0.42 -0.00    -0.142 NA ATOM      4  N   UNL     1      40.630  47.084  27.326 -0.60 -0.02    -0.149 NA ATOM      5  C   UNL     1      39.972  47.252  26.207 -0.19 +0.01    +0.103 C  ENDROOTBRANCH   2   6ATOM      6  S   UNL     1      38.763  50.342  28.329 -0.30 -0.02    -0.076 SA BRANCH   6   7ATOM      7  C   UNL     1      37.138  49.821  28.611 -0.21 +0.00    +0.048 C  BRANCH   7   8ATOM      8  C   UNL     1      36.138  49.998  27.736 -0.30 +0.00    +0.021 C  BRANCH   8   9ATOM      9  C   UNL     1      36.267  50.140  26.299 -0.43 +0.00    +0.040 CG0ATOM     10  G   UNL     1      36.820  49.252  25.450 +0.00 +0.00    +0.000 G0 BRANCH   9  11ATOM     11  C   UNL     1      35.892  51.453  25.671 -0.29 +0.02    +0.254 C  ATOM     12  N   UNL     1      36.533  52.559  26.171 -0.08 -0.12    -0.333 N  ATOM     13  C   UNL     1      36.088  53.937  25.971 -0.29 +0.06    +0.153 C  ATOM     14  C   UNL     1      36.998  52.806  27.531 -0.15 +0.09    +0.153 C  ATOM     15  C   UNL     1      36.930  54.310  27.202 -0.24 +0.11    +0.153 C  ATOM     16  O   UNL     1      35.067  51.500  24.762 -0.29 +0.04    -0.269 OA BRANCH  15  17ATOM     17  O   UNL     1      36.296  55.161  28.182 -0.04 -0.18    -0.389 OA ATOM     18  H   UNL     1      35.378  55.260  27.875 +0.10 +0.06    +0.211 HD ENDBRANCH  15  17ENDBRANCH   9  11ENDBRANCH   8   9ENDBRANCH   7   8ENDBRANCH   6   7ENDBRANCH   2   6BRANCH   1  19ATOM     19  C   UNL     1      38.197  48.808  25.331 -0.41 +0.00    +0.014 C  BRANCH  19  20ATOM     20  C   UNL     1      36.821  49.252  25.443 -0.53 +0.00    +0.014 CG0ATOM     21  G   UNL     1      36.275  50.141  26.296 +0.00 +0.00    +0.000 G0 ENDBRANCH  19  20ENDBRANCH   1  19BRANCH   5  22ATOM     22  C   UNL     1      40.106  46.345  25.063 -0.15 +0.00    +0.003 A  ATOM     23  C   UNL     1      38.990  45.785  24.435 -0.24 +0.00    +0.011 A  ATOM     24  C   UNL     1      41.390  46.087  24.571 -0.11 +0.00    +0.011 A  ATOM     25  C   UNL     1      39.164  44.930  23.344 -0.25 +0.00    +0.006 A  ATOM     26  C   UNL     1      41.560  45.234  23.477 -0.14 +0.00    +0.006 A  ATOM     27  C   UNL     1      40.449  44.643  22.857 -0.19 -0.00    -0.034 A  BRANCH  27  28ATOM     28  C   UNL     1      40.633  43.704  21.681 -0.25 +0.01    +0.120 C  BRANCH  28  29ATOM     29  N   UNL     1      40.556  44.382  20.377 -0.17 -0.02    -0.299 NA ATOM     30  C   UNL     1      39.175  44.415  19.858 -0.34 -0.00    +0.087 C  ATOM     31  C   UNL     1      41.141  45.722  20.446 -0.37 +0.01    +0.087 C  ATOM     32  C   UNL     1      38.904  45.572  18.889 -0.42 -0.00    +0.041 C  ATOM     33  C   UNL     1      41.338  46.276  19.034 -0.52 +0.00    +0.041 C  ATOM     34  C   UNL     1      40.165  45.932  18.100 -0.46 -0.01    +0.095 C  BRANCH  34  35ATOM     35  N   UNL     1      39.933  46.964  17.098 -0.28 +0.06    -0.291 N  ATOM     36  C   UNL     1      40.704  48.071  16.877 -0.28 -0.05    +0.295 A  ATOM     37  C   UNL     1      38.903  47.006  16.183 -0.39 -0.02    +0.072 A  ATOM     38  N   UNL     1      40.257  48.832  15.917 -0.43 +0.06    -0.195 NA ATOM     39  C   UNL     1      37.818  46.161  15.906 -0.36 -0.01    +0.029 A  ATOM     40  C   UNL     1      39.135  48.183  15.466 -0.45 -0.04    +0.092 A  ATOM     41  C   UNL     1      36.961  46.539  14.864 -0.40 -0.00    +0.002 A  ATOM     42  C   UNL     1      38.259  48.545  14.430 -0.47 -0.02    +0.031 A  ATOM     43  C   UNL     1      37.175  47.710  14.137 -0.53 -0.00    +0.002 A  BRANCH  36  44ATOM     44  O   UNL     1      41.805  48.369  17.536 -0.57 -0.01    -0.480 OA ATOM     45  H   UNL     1      42.424  47.712  17.169 -0.35 -0.05    +0.296 HD ENDBRANCH  36  44ENDBRANCH  34  35ENDBRANCH  28  29ENDBRANCH  27  28ENDBRANCH   5  22TORSDOF 7TERENDMDL