REMARK SMILES O=C(C1=CC=C2C(=NN=C2c2ccc(CN3CCC(n4c(O)nc5ccccc54)CC3)cc2)SC=C1)N1CC(O)C1
REMARK SMILES IDX 6 1 7 2 8 3 9 4 10 5 34 6 35 7 36 8 3 9 2 11 37 12 38 13
REMARK SMILES IDX 41 14 39 15 1 16 40 17 5 19 4 20 11 22 12 23 33 24 13 25
REMARK SMILES IDX 32 26 14 27 15 28 16 29 17 30 31 31 18 32 30 33 19 34 20 35
REMARK SMILES IDX 21 36 29 37 23 38 28 39 24 40 27 41 25 42 26 43 22 44
REMARK H PARENT 40 18 22 45
REMARK Flexibility Score:  177.900
ROOT
ATOM      1  C   UNL     1       3.924  -0.911  -1.205  1.00  0.00     0.037 C 
ATOM      2  C   UNL     1       4.708  -1.109  -2.433  1.00  0.00     0.132 C 
ATOM      3  N   UNL     1       4.072  -1.821  -3.323  1.00  0.00    -0.142 NA
ATOM      4  N   UNL     1       2.780  -2.152  -2.787  1.00  0.00    -0.149 NA
ATOM      5  C   UNL     1       2.680  -1.615  -1.597  1.00  0.00     0.103 C 
ENDROOT
BRANCH   2   6
ATOM      6  S   UNL     1       6.293  -0.491  -2.693  1.00  0.00    -0.076 SA
BRANCH   6   7
ATOM      7  C   UNL     1       5.993   1.205  -2.540  1.00  0.00     0.048 C 
BRANCH   7   8
ATOM      8  C   UNL     1       5.948   1.849  -1.365  1.00  0.00     0.021 C 
BRANCH   8   9
ATOM      9  C   UNL     1       6.126   1.259  -0.052  1.00  0.00     0.040 CG0
ATOM     10  G   UNL     1       5.372   0.289   0.502  1.00  0.00     0.000 G0
BRANCH   9  11
ATOM     11  C   UNL     1       7.148   1.859   0.872  1.00  0.00     0.254 C 
ATOM     12  N   UNL     1       8.434   1.901   0.393  1.00  0.00    -0.333 N 
ATOM     13  C   UNL     1       9.621   2.106   1.222  1.00  0.00     0.153 C 
ATOM     14  C   UNL     1       9.104   0.966  -0.503  1.00  0.00     0.153 C 
ATOM     15  C   UNL     1      10.436   1.476   0.080  1.00  0.00     0.153 C 
ATOM     16  O   UNL     1       6.821   2.286   1.976  1.00  0.00    -0.269 OA
BRANCH  15  17
ATOM     17  O   UNL     1      11.406   0.475   0.458  1.00  0.00    -0.389 OA
ATOM     18  H   UNL     1      11.731   0.107  -0.382  1.00  0.00     0.211 HD
ENDBRANCH  15  17
ENDBRANCH   9  11
ENDBRANCH   8   9
ENDBRANCH   7   8
ENDBRANCH   6   7
ENDBRANCH   2   6
BRANCH   1  19
ATOM     19  C   UNL     1       4.181  -0.360  -0.012  1.00  0.00     0.014 C 
BRANCH  19  20
ATOM     20  C   UNL     1       5.372   0.289   0.502  1.00  0.00     0.014 CG0
ATOM     21  G   UNL     1       6.126   1.259  -0.052  1.00  0.00     0.000 G0
ENDBRANCH  19  20
ENDBRANCH   1  19
BRANCH   5  22
ATOM     22  C   UNL     1       1.476  -1.736  -0.769  1.00  0.00     0.003 A 
ATOM     23  C   UNL     1       0.900  -0.626  -0.145  1.00  0.00     0.011 A 
ATOM     24  C   UNL     1       0.876  -2.994  -0.656  1.00  0.00     0.011 A 
ATOM     25  C   UNL     1      -0.251  -0.786   0.631  1.00  0.00     0.006 A 
ATOM     26  C   UNL     1      -0.277  -3.150   0.118  1.00  0.00     0.006 A 
ATOM     27  C   UNL     1      -0.848  -2.049   0.773  1.00  0.00    -0.034 A 
BRANCH  27  28
ATOM     28  C   UNL     1      -2.089  -2.220   1.627  1.00  0.00     0.120 C 
BRANCH  28  29
ATOM     29  N   UNL     1      -3.228  -1.407   1.169  1.00  0.00    -0.299 NA
ATOM     30  C   UNL     1      -3.695  -1.824  -0.167  1.00  0.00     0.087 C 
ATOM     31  C   UNL     1      -4.313  -1.423   2.151  1.00  0.00     0.087 C 
ATOM     32  C   UNL     1      -5.168  -1.496  -0.440  1.00  0.00     0.041 C 
ATOM     33  C   UNL     1      -5.336  -0.338   1.812  1.00  0.00     0.041 C 
ATOM     34  C   UNL     1      -5.591  -0.224   0.299  1.00  0.00     0.095 C 
BRANCH  34  35
ATOM     35  N   UNL     1      -6.957   0.182  -0.004  1.00  0.00    -0.291 N 
ATOM     36  C   UNL     1      -8.090  -0.552   0.211  1.00  0.00     0.295 A 
ATOM     37  C   UNL     1      -7.357   1.383  -0.550  1.00  0.00     0.072 A 
ATOM     38  N   UNL     1      -9.181   0.057  -0.162  1.00  0.00    -0.195 NA
ATOM     39  C   UNL     1      -6.671   2.534  -0.966  1.00  0.00     0.029 A 
ATOM     40  C   UNL     1      -8.747   1.270  -0.636  1.00  0.00     0.092 A 
ATOM     41  C   UNL     1      -7.439   3.588  -1.476  1.00  0.00     0.002 A 
ATOM     42  C   UNL     1      -9.496   2.337  -1.156  1.00  0.00     0.031 A 
ATOM     43  C   UNL     1      -8.828   3.495  -1.571  1.00  0.00     0.002 A 
BRANCH  36  44
ATOM     44  O   UNL     1      -8.122  -1.752   0.753  1.00  0.00    -0.480 OA
ATOM     45  H   UNL     1      -9.078  -1.939   0.734  1.00  0.00     0.296 HD
ENDBRANCH  36  44
ENDBRANCH  34  35
ENDBRANCH  28  29
ENDBRANCH  27  28
ENDBRANCH   5  22
TORSDOF 7
