MODEL        1USER    Run = 1USERUSER    Estimated Free Energy of Binding    = -11.03 kcal/mol  [=(1)+(2)+(3)-(4)]USERUSER    (1) Final Intermolecular Energy     = -13.12 kcal/molUSER        vdW + Hbond + desolv Energy     = -12.95 kcal/molUSER        Electrostatic Energy            =  -0.17 kcal/molUSER        Moving Ligand-Fixed Receptor    = -13.12 kcal/molUSER        Moving Ligand-Moving Receptor   =  +0.00 kcal/molUSER    (2) Final Total Internal Energy     =  -1.19 kcal/molUSER    (3) Torsional Free Energy           =  +2.09 kcal/molUSER    (4) Unbound System's Energy         =  -1.19 kcal/molUSERUSERREMARK SMILES Nc1nccc(-c2ccc(C(=O)CN3CCC(Nc4nc5ccccc5s4)CC3)cc2)n1REMARK SMILES IDX 11 1 12 2 10 3 7 4 8 5 31 6 9 7 30 8 6 9 2 10 3 11 32 12REMARK SMILES IDX 4 13 5 14 1 15 13 18 14 19 15 20 29 21 16 22 28 23 17 24REMARK SMILES IDX 18 25 19 27 20 28 27 29 21 30 26 31 22 32 25 33 23 34 24 35REMARK H PARENT 1 16 1 17 18 26USER                              x       y       z     vdW  Elec       q    TypeUSER                           _______ _______ _______ _____ _____    ______ ____ROOTATOM      1  C   UNL     1      34.349  43.194  19.378 -0.34 -0.02    +0.176 C  ATOM      2  O   UNL     1      33.182  43.253  19.773 -0.79 -0.01    -0.293 OA ENDROOTBRANCH   1   3ATOM      3  C   UNL     1      34.758  44.014  18.196 -0.31 -0.01    +0.019 A  ATOM      4  C   UNL     1      35.607  45.479  15.908 -0.34 -0.00    +0.000 A  ATOM      5  C   UNL     1      35.044  46.122  17.028 -0.35 -0.01    +0.011 A  ATOM      6  C   UNL     1      35.715  44.077  15.957 -0.36 -0.00    +0.011 A  ATOM      7  C   UNL     1      34.628  45.405  18.159 -0.41 -0.01    +0.012 A  ATOM      8  C   UNL     1      35.296  43.355  17.083 -0.36 -0.00    +0.012 A  BRANCH   4   9ATOM      9  C   UNL     1      36.051  46.259  14.735 -0.35 -0.05    +0.076 A  ATOM     10  C   UNL     1      37.609  47.714  13.878 -0.36 -0.09    +0.220 A  ATOM     11  N   UNL     1      37.028  47.756  12.677 -1.00 +0.07    -0.222 NA ATOM     12  N   UNL     1      37.164  47.005  14.919 -0.25 +0.13    -0.213 NA ATOM     13  C   UNL     1      35.931  46.998  12.517 -0.54 -0.07    +0.117 A  ATOM     14  C   UNL     1      35.393  46.227  13.518 -0.42 -0.03    +0.049 A  BRANCH  10  15ATOM     15  N   UNL     1      38.725  48.501  14.072 -0.23 +0.15    -0.368 N  ATOM     16  H   UNL     1      38.433  49.460  14.205 -0.41 -0.13    +0.159 HD ATOM     17  H   UNL     1      39.310  48.090  14.790 +0.11 -0.06    +0.159 HD ENDBRANCH  10  15ENDBRANCH   4   9ENDBRANCH   1   3BRANCH   1  18ATOM     18  C   UNL     1      35.365  42.268  20.049 -0.38 -0.00    +0.165 C  BRANCH  18  19ATOM     19  N   UNL     1      35.778  42.772  21.371 -0.16 -0.03    -0.296 NA ATOM     20  C   UNL     1      36.176  41.703  22.303 -0.51 +0.00    +0.087 C  ATOM     21  C   UNL     1      36.792  43.826  21.224 -0.41 +0.00    +0.087 C  ATOM     22  C   UNL     1      37.687  41.519  22.429 -0.40 +0.00    +0.040 C  ATOM     23  C   UNL     1      37.567  44.059  22.516 -0.39 +0.00    +0.040 C  ATOM     24  C   UNL     1      38.389  42.814  22.871 -0.33 +0.01    +0.084 C  BRANCH  24  25ATOM     25  N   UNL     1      38.648  42.765  24.308 -0.08 -0.02    -0.359 N  ATOM     26  H   UNL     1      39.351  42.086  24.590 +0.08 +0.02    +0.163 HD BRANCH  25  27ATOM     27  C   UNL     1      37.677  42.935  25.245 -0.20 -0.00    +0.184 A  ATOM     28  N   UNL     1      37.608  44.048  25.940 -0.15 +0.01    -0.220 NA ATOM     29  S   UNL     1      36.449  41.782  25.612 -0.51 +0.02    -0.097 S  ATOM     30  C   UNL     1      36.544  44.009  26.827 -0.34 -0.01    +0.084 A  ATOM     31  C   UNL     1      35.789  42.837  26.798 -0.45 -0.01    +0.056 A  ATOM     32  C   UNL     1      36.179  45.031  27.731 -0.37 -0.01    +0.030 A  ATOM     33  C   UNL     1      34.682  42.645  27.642 -0.56 -0.01    +0.021 A  ATOM     34  C   UNL     1      35.079  44.853  28.577 -0.50 -0.00    +0.002 A  ATOM     35  C   UNL     1      34.343  43.672  28.533 -0.58 -0.00    +0.002 A  ENDBRANCH  25  27ENDBRANCH  24  25ENDBRANCH  18  19ENDBRANCH   1  18TORSDOF 7TERENDMDL