REMARK SMILES Nc1nccc(-c2ccc(C(=O)CCN3CC[C@@H](Nc4nc5ccc(F)cc5s4)C[C@@H]3O)cc2)n1
REMARK SMILES IDX 13 1 11 2 12 3 10 4 7 5 8 6 34 7 9 8 33 9 6 10 2 11 3 12
REMARK SMILES IDX 35 13 4 14 5 15 1 16 14 19 15 20 16 21 31 22 17 23 30 24
REMARK SMILES IDX 18 25 32 26 19 28 20 30 21 31 29 32 22 33 28 34 23 35 27 36
REMARK SMILES IDX 24 37 25 38 26 39
REMARK H PARENT 1 17 1 18 32 27 19 29
ROOT
ATOM      1  C   UNL     1       1.706  -3.577   0.709  1.00  0.00     0.096 C 
ENDROOT
BRANCH   1   2
ATOM      2  C   UNL     1       2.304  -2.443   1.517  1.00  0.00     0.164 C 
ATOM      3  O   UNL     1       2.171  -2.405   2.740  1.00  0.00    -0.294 OA
BRANCH   2   4
ATOM      4  C   UNL     1       3.074  -1.356   0.835  1.00  0.00     0.018 A 
ATOM      5  C   UNL     1       4.518   0.792  -0.364  1.00  0.00     0.000 A 
ATOM      6  C   UNL     1       4.140  -0.346  -1.101  1.00  0.00     0.011 A 
ATOM      7  C   UNL     1       4.149   0.816   0.995  1.00  0.00     0.011 A 
ATOM      8  C   UNL     1       3.435  -1.409  -0.514  1.00  0.00     0.012 A 
ATOM      9  C   UNL     1       3.442  -0.237   1.587  1.00  0.00     0.012 A 
BRANCH   5  10
ATOM     10  C   UNL     1       5.249   1.932  -0.970  1.00  0.00     0.076 A 
ATOM     11  C   UNL     1       5.733   4.181  -0.844  1.00  0.00     0.220 A 
ATOM     12  N   UNL     1       6.495   4.164  -1.937  1.00  0.00    -0.222 NA
ATOM     13  N   UNL     1       5.122   3.115  -0.324  1.00  0.00    -0.213 NA
ATOM     14  C   UNL     1       6.618   2.978  -2.555  1.00  0.00     0.117 A 
ATOM     15  C   UNL     1       6.017   1.823  -2.114  1.00  0.00     0.049 A 
BRANCH  11  16
ATOM     16  N   UNL     1       5.609   5.381  -0.172  1.00  0.00    -0.368 N 
ATOM     17  H   UNL     1       6.394   5.976  -0.394  1.00  0.00     0.159 HD
ATOM     18  H   UNL     1       5.421   5.205   0.803  1.00  0.00     0.159 HD
ENDBRANCH  11  16
ENDBRANCH   5  10
ENDBRANCH   2   4
ENDBRANCH   1   2
BRANCH   1  19
ATOM     19  C   UNL     1       0.536  -3.152  -0.186  1.00  0.00     0.095 C 
BRANCH  19  20
ATOM     20  N   UNL     1      -0.783  -3.421   0.420  1.00  0.00    -0.278 NA
ATOM     21  C   UNL     1      -1.161  -2.407   1.421  1.00  0.00     0.089 C 
ATOM     22  C   UNL     1      -1.798  -3.591  -0.616  1.00  0.00     0.187 C 
ATOM     23  C   UNL     1      -2.062  -1.308   0.864  1.00  0.00     0.040 C 
ATOM     24  C   UNL     1      -3.216  -3.344  -0.105  1.00  0.00     0.073 C 
ATOM     25  C   UNL     1      -3.388  -1.887   0.341  1.00  0.00     0.086 C 
BRANCH  22  26
ATOM     26  O   UNL     1      -1.721  -4.932  -1.058  1.00  0.00    -0.378 OA
ATOM     27  H   UNL     1      -1.332  -5.388  -0.288  1.00  0.00     0.212 HD
ENDBRANCH  22  26
BRANCH  25  28
ATOM     28  N   UNL     1      -3.891  -1.083  -0.778  1.00  0.00    -0.359 N 
ATOM     29  H   UNL     1      -4.330  -1.603  -1.532  1.00  0.00     0.163 HD
BRANCH  28  30
ATOM     30  C   UNL     1      -4.444   0.131  -0.534  1.00  0.00     0.184 A 
ATOM     31  N   UNL     1      -4.294   0.828   0.566  1.00  0.00    -0.220 NA
ATOM     32  S   UNL     1      -5.438   0.864  -1.734  1.00  0.00    -0.097 S 
ATOM     33  C   UNL     1      -4.994   2.019   0.484  1.00  0.00     0.084 A 
ATOM     34  C   UNL     1      -5.691   2.221  -0.709  1.00  0.00     0.059 A 
ATOM     35  C   UNL     1      -5.054   3.014   1.485  1.00  0.00     0.033 A 
ATOM     36  C   UNL     1      -6.450   3.379  -0.942  1.00  0.00     0.060 A 
ATOM     37  C   UNL     1      -5.810   4.171   1.267  1.00  0.00     0.041 A 
ATOM     38  C   UNL     1      -6.492   4.337   0.070  1.00  0.00     0.124 A 
ATOM     39  F   UNL     1      -7.212   5.451  -0.123  1.00  0.00    -0.207 F 
ENDBRANCH  28  30
ENDBRANCH  25  28
ENDBRANCH  19  20
ENDBRANCH   1  19
TORSDOF 9
