MODEL        10USER    Run = 10USERUSER    Estimated Free Energy of Binding    = -10.53 kcal/mol  [=(1)+(2)+(3)-(4)]USERUSER    (1) Final Intermolecular Energy     = -13.22 kcal/molUSER        vdW + Hbond + desolv Energy     = -13.12 kcal/molUSER        Electrostatic Energy            =  -0.10 kcal/molUSER        Moving Ligand-Fixed Receptor    = -13.22 kcal/molUSER        Moving Ligand-Moving Receptor   =  +0.00 kcal/molUSER    (2) Final Total Internal Energy     =  -1.51 kcal/molUSER    (3) Torsional Free Energy           =  +2.68 kcal/molUSER    (4) Unbound System's Energy         =  -1.51 kcal/molUSERUSERREMARK SMILES Nc1nccc(-c2ccc(C(=O)CCN3CC[C@@H](Nc4nc5ccc(F)cc5s4)C[C@@H]3O)cc2)n1REMARK SMILES IDX 13 1 11 2 12 3 10 4 7 5 8 6 34 7 9 8 33 9 6 10 2 11 3 12REMARK SMILES IDX 35 13 4 14 5 15 1 16 14 19 15 20 16 21 31 22 17 23 30 24REMARK SMILES IDX 18 25 32 26 19 28 20 30 21 31 29 32 22 33 28 34 23 35 27 36REMARK SMILES IDX 24 37 25 38 26 39REMARK H PARENT 1 17 1 18 32 27 19 29USER                              x       y       z     vdW  Elec       q    TypeUSER                           _______ _______ _______ _____ _____    ______ ____ROOTATOM      1  C   UNL     1      40.698  45.489  23.256 -0.18 +0.01    +0.096 C  ENDROOTBRANCH   1   2ATOM      2  C   UNL     1      41.702  45.305  22.135 -0.20 +0.02    +0.164 C  ATOM      3  O   UNL     1      42.759  44.706  22.332 -0.12 -0.06    -0.294 OA BRANCH   2   4ATOM      4  C   UNL     1      41.414  45.844  20.769 -0.34 +0.00    +0.018 A  ATOM      5  C   UNL     1      40.960  46.957  18.182 -0.52 -0.00    +0.000 A  ATOM      6  C   UNL     1      40.035  46.083  18.783 -0.43 -0.00    +0.011 A  ATOM      7  C   UNL     1      42.122  47.252  18.922 -0.52 +0.00    +0.011 A  ATOM      8  C   UNL     1      40.256  45.528  20.054 -0.38 +0.00    +0.012 A  ATOM      9  C   UNL     1      42.349  46.707  20.190 -0.41 +0.00    +0.012 A  BRANCH   5  10ATOM     10  C   UNL     1      40.736  47.567  16.849 -0.46 -0.01    +0.076 A  ATOM     11  C   UNL     1      40.955  49.453  15.544 -0.46 -0.05    +0.220 A  ATOM     12  N   UNL     1      40.395  48.883  14.478 -0.38 +0.06    -0.222 NA ATOM     13  N   UNL     1      41.160  48.845  16.714 -0.78 +0.01    -0.213 NA ATOM     14  C   UNL     1      39.993  47.611  14.629 -0.37 -0.02    +0.117 A  ATOM     15  C   UNL     1      40.141  46.898  15.796 -0.44 -0.01    +0.049 A  BRANCH  11  16ATOM     16  N   UNL     1      41.402  50.753  15.411 -0.32 +0.11    -0.368 N  ATOM     17  H   UNL     1      41.779  51.073  16.291 -0.46 -0.05    +0.159 HD ATOM     18  H   UNL     1      40.684  51.316  14.982 -0.33 -0.09    +0.159 HD ENDBRANCH  11  16ENDBRANCH   5  10ENDBRANCH   2   4ENDBRANCH   1   2BRANCH   1  19ATOM     19  C   UNL     1      41.333  45.837  24.607 -0.10 +0.01    +0.095 C  BRANCH  19  20ATOM     20  N   UNL     1      41.003  47.200  25.067 -0.06 -0.02    -0.278 NA ATOM     21  C   UNL     1      40.406  48.026  24.001 -0.32 +0.01    +0.089 C  ATOM     22  C   UNL     1      40.173  47.150  26.268 -0.14 +0.01    +0.187 C  ATOM     23  C   UNL     1      38.880  48.052  24.035 -0.42 +0.01    +0.040 C  ATOM     24  C   UNL     1      39.372  48.430  26.491 -0.26 +0.01    +0.073 C  ATOM     25  C   UNL     1      38.362  48.646  25.357 -0.36 +0.01    +0.086 C  BRANCH  22  26ATOM     26  O   UNL     1      41.045  46.983  27.369 -0.60 -0.05    -0.378 OA ATOM     27  H   UNL     1      40.766  47.697  27.972 +0.02 +0.03    +0.212 HD ENDBRANCH  22  26BRANCH  25  28ATOM     28  N   UNL     1      37.075  48.043  25.719 -0.21 -0.00    -0.359 N  ATOM     29  H   UNL     1      36.259  48.439  25.263 +0.05 -0.01    +0.163 HD BRANCH  28  30ATOM     30  C   UNL     1      37.002  46.708  25.945 -0.19 -0.01    +0.184 A  ATOM     31  N   UNL     1      37.013  45.778  25.021 -0.72 -0.04    -0.220 NA ATOM     32  S   UNL     1      36.881  46.129  27.563 -0.43 +0.02    -0.097 S  ATOM     33  C   UNL     1      36.923  44.522  25.596 -0.29 -0.00    +0.084 A  ATOM     34  C   UNL     1      36.839  44.508  26.990 -0.34 -0.01    +0.059 A  ATOM     35  C   UNL     1      36.909  43.293  24.900 -0.35 +0.00    +0.033 A  ATOM     36  C   UNL     1      36.740  43.313  27.719 -0.35 -0.02    +0.060 A  ATOM     37  C   UNL     1      36.807  42.094  25.614 -0.38 -0.00    +0.041 A  ATOM     38  C   UNL     1      36.723  42.118  26.999 -0.36 -0.03    +0.124 A  ATOM     39  F   UNL     1      36.625  40.961  27.669 -0.19 +0.07    -0.207 F  ENDBRANCH  28  30ENDBRANCH  25  28ENDBRANCH  19  20ENDBRANCH   1  19TORSDOF 9TERENDMDL