REMARK SMILES Nc1nccc(-c2ccc(C(=O)CCN3CCC(Nc4nc5ccccc5s4)CC3)cc2)n1
REMARK SMILES IDX 11 1 12 2 10 3 7 4 8 5 32 6 9 7 31 8 6 9 2 10 3 11 33 12
REMARK SMILES IDX 4 13 5 14 1 15 13 18 14 19 15 20 16 21 30 22 17 23 29 24
REMARK SMILES IDX 18 25 19 26 20 28 21 29 28 30 22 31 27 32 23 33 26 34 24 35
REMARK SMILES IDX 25 36
REMARK H PARENT 1 16 1 17 19 27
ROOT
ATOM      1  C   UNL     1       1.606  -0.856   2.645  1.00  0.00     0.164 C 
ATOM      2  O   UNL     1       0.996  -0.127   3.423  1.00  0.00    -0.294 OA
ENDROOT
BRANCH   1   3
ATOM      3  C   UNL     1       2.603  -0.248   1.718  1.00  0.00     0.018 A 
ATOM      4  C   UNL     1       4.467   1.016  -0.027  1.00  0.00     0.000 A 
ATOM      5  C   UNL     1       4.587  -0.343   0.331  1.00  0.00     0.011 A 
ATOM      6  C   UNL     1       3.390   1.728   0.531  1.00  0.00     0.011 A 
ATOM      7  C   UNL     1       3.677  -0.970   1.197  1.00  0.00     0.012 A 
ATOM      8  C   UNL     1       2.471   1.107   1.390  1.00  0.00     0.012 A 
BRANCH   4   9
ATOM      9  C   UNL     1       5.454   1.639  -0.937  1.00  0.00     0.076 A 
ATOM     10  C   UNL     1       7.589   1.548  -1.798  1.00  0.00     0.220 A 
ATOM     11  N   UNL     1       7.419   2.626  -2.563  1.00  0.00    -0.222 NA
ATOM     12  N   UNL     1       6.666   1.039  -0.978  1.00  0.00    -0.213 NA
ATOM     13  C   UNL     1       6.208   3.203  -2.508  1.00  0.00     0.117 A 
ATOM     14  C   UNL     1       5.183   2.750  -1.709  1.00  0.00     0.049 A 
BRANCH  10  15
ATOM     15  N   UNL     1       8.820   0.928  -1.814  1.00  0.00    -0.368 N 
ATOM     16  H   UNL     1       8.956   0.434  -0.945  1.00  0.00     0.159 HD
ATOM     17  H   UNL     1       9.539   1.587  -2.082  1.00  0.00     0.159 HD
ENDBRANCH  10  15
ENDBRANCH   4   9
ENDBRANCH   1   3
BRANCH   1  18
ATOM     18  C   UNL     1       1.389  -2.358   2.651  1.00  0.00     0.096 C 
BRANCH  18  19
ATOM     19  C   UNL     1       0.903  -2.929   1.315  1.00  0.00     0.092 C 
BRANCH  19  20
ATOM     20  N   UNL     1      -0.259  -2.245   0.728  1.00  0.00    -0.303 NA
ATOM     21  C   UNL     1      -1.485  -2.404   1.514  1.00  0.00     0.086 C 
ATOM     22  C   UNL     1      -0.449  -2.664  -0.673  1.00  0.00     0.086 C 
ATOM     23  C   UNL     1      -2.583  -1.466   0.996  1.00  0.00     0.040 C 
ATOM     24  C   UNL     1      -1.881  -2.502  -1.190  1.00  0.00     0.040 C 
ATOM     25  C   UNL     1      -2.571  -1.306  -0.534  1.00  0.00     0.084 C 
BRANCH  25  26
ATOM     26  N   UNL     1      -3.934  -1.213  -1.060  1.00  0.00    -0.359 N 
ATOM     27  H   UNL     1      -4.475  -2.067  -0.953  1.00  0.00     0.163 HD
BRANCH  26  28
ATOM     28  C   UNL     1      -4.701  -0.106  -0.892  1.00  0.00     0.184 A 
ATOM     29  N   UNL     1      -6.002  -0.219  -0.771  1.00  0.00    -0.220 NA
ATOM     30  S   UNL     1      -4.109   1.511  -0.856  1.00  0.00    -0.097 S 
ATOM     31  C   UNL     1      -6.590   1.028  -0.649  1.00  0.00     0.084 A 
ATOM     32  C   UNL     1      -5.711   2.109  -0.683  1.00  0.00     0.056 A 
ATOM     33  C   UNL     1      -7.969   1.279  -0.502  1.00  0.00     0.030 A 
ATOM     34  C   UNL     1      -6.162   3.436  -0.583  1.00  0.00     0.021 A 
ATOM     35  C   UNL     1      -8.430   2.596  -0.403  1.00  0.00     0.002 A 
ATOM     36  C   UNL     1      -7.535   3.660  -0.447  1.00  0.00     0.002 A 
ENDBRANCH  26  28
ENDBRANCH  25  26
ENDBRANCH  19  20
ENDBRANCH  18  19
ENDBRANCH   1  18
TORSDOF 8
