MODEL        8USER    Run = 8USERUSER    Estimated Free Energy of Binding    = -11.19 kcal/mol  [=(1)+(2)+(3)-(4)]USERUSER    (1) Final Intermolecular Energy     = -13.58 kcal/molUSER        vdW + Hbond + desolv Energy     = -13.36 kcal/molUSER        Electrostatic Energy            =  -0.22 kcal/molUSER        Moving Ligand-Fixed Receptor    = -13.58 kcal/molUSER        Moving Ligand-Moving Receptor   =  +0.00 kcal/molUSER    (2) Final Total Internal Energy     =  -1.84 kcal/molUSER    (3) Torsional Free Energy           =  +2.39 kcal/molUSER    (4) Unbound System's Energy         =  -1.84 kcal/molUSERUSERREMARK SMILES Nc1nccc(-c2ccc(C(=O)CCN3CCC(Nc4nc5ccccc5s4)CC3)cc2)n1REMARK SMILES IDX 11 1 12 2 10 3 7 4 8 5 32 6 9 7 31 8 6 9 2 10 3 11 33 12REMARK SMILES IDX 4 13 5 14 1 15 13 18 14 19 15 20 16 21 30 22 17 23 29 24REMARK SMILES IDX 18 25 19 26 20 28 21 29 28 30 22 31 27 32 23 33 26 34 24 35REMARK SMILES IDX 25 36REMARK H PARENT 1 16 1 17 19 27USER                              x       y       z     vdW  Elec       q    TypeUSER                           _______ _______ _______ _____ _____    ______ ____ROOTATOM      1  C   UNL     1      36.851  47.030  13.284 -0.51 -0.07    +0.164 C  ATOM      2  O   UNL     1      37.193  47.790  12.382 -1.06 +0.06    -0.294 OA ENDROOTBRANCH   1   3ATOM      3  C   UNL     1      37.703  46.927  14.503 -0.43 -0.01    +0.018 A  ATOM      4  C   UNL     1      39.339  46.620  16.815 -0.45 -0.00    +0.000 A  ATOM      5  C   UNL     1      39.050  47.889  16.272 -0.42 -0.00    +0.011 A  ATOM      6  C   UNL     1      38.794  45.505  16.152 -0.26 -0.00    +0.011 A  ATOM      7  C   UNL     1      38.252  48.047  15.128 -0.51 -0.01    +0.012 A  ATOM      8  C   UNL     1      37.988  45.655  15.014 -0.37 -0.00    +0.012 A  BRANCH   4   9ATOM      9  C   UNL     1      40.192  46.499  18.018 -0.42 -0.01    +0.076 A  ATOM     10  C   UNL     1      42.223  47.001  18.985 -0.38 +0.02    +0.220 A  ATOM     11  N   UNL     1      41.923  46.396  20.134 -0.27 -0.03    -0.222 NA ATOM     12  N   UNL     1      41.418  47.063  17.921 -0.38 +0.02    -0.213 NA ATOM     13  C   UNL     1      40.701  45.845  20.209 -0.30 +0.01    +0.117 A  ATOM     14  C   UNL     1      39.790  45.867  19.177 -0.39 -0.00    +0.049 A  BRANCH  10  15ATOM     15  N   UNL     1      43.471  47.572  18.858 -0.27 -0.07    -0.368 N  ATOM     16  H   UNL     1      43.424  48.541  19.134 -0.53 -0.02    +0.159 HD ATOM     17  H   UNL     1      43.853  47.376  17.942 -0.47 +0.01    +0.159 HD ENDBRANCH  10  15ENDBRANCH   4   9ENDBRANCH   1   3BRANCH   1  18ATOM     18  C   UNL     1      35.560  46.238  13.189 -0.49 -0.06    +0.096 C  BRANCH  18  19ATOM     19  C   UNL     1      34.700  46.282  14.456 -0.30 -0.09    +0.092 C  BRANCH  19  20ATOM     20  N   UNL     1      35.047  45.287  15.482 -0.14 +0.21    -0.303 NA ATOM     21  C   UNL     1      34.087  44.184  15.570 -0.12 -0.05    +0.086 C  ATOM     22  C   UNL     1      35.249  45.943  16.787 -0.35 -0.07    +0.086 C  ATOM     23  C   UNL     1      34.634  43.063  16.464 -0.45 -0.02    +0.040 C  ATOM     24  C   UNL     1      35.037  45.024  17.993 -0.38 -0.02    +0.040 C  ATOM     25  C   UNL     1      35.439  43.586  17.667 -0.33 -0.03    +0.084 C  BRANCH  25  26ATOM     26  N   UNL     1      35.203  42.759  18.852 -0.14 +0.06    -0.359 N  ATOM     27  H   UNL     1      35.002  41.786  18.640 +0.07 -0.03    +0.163 HD BRANCH  26  28ATOM     28  C   UNL     1      35.944  42.887  19.982 -0.30 -0.01    +0.184 A  ATOM     29  N   UNL     1      35.728  42.092  21.003 -0.33 -0.01    -0.220 NA ATOM     30  S   UNL     1      37.171  44.068  20.232 -0.49 +0.00    -0.097 S  ATOM     31  C   UNL     1      36.562  42.418  22.058 -0.42 +0.01    +0.084 A  ATOM     32  C   UNL     1      37.425  43.488  21.830 -0.36 +0.00    +0.056 A  ATOM     33  C   UNL     1      36.599  41.771  23.310 -0.46 +0.00    +0.030 A  ATOM     34  C   UNL     1      38.320  43.942  22.813 -0.31 +0.00    +0.021 A  ATOM     35  C   UNL     1      37.486  42.215  24.297 -0.36 +0.00    +0.002 A  ATOM     36  C   UNL     1      38.333  43.290  24.049 -0.28 +0.00    +0.002 A  ENDBRANCH  26  28ENDBRANCH  25  26ENDBRANCH  19  20ENDBRANCH  18  19ENDBRANCH   1  18TORSDOF 8TERENDMDL