MODEL        10USER    Run = 10USERUSER    Estimated Free Energy of Binding    =  -6.42 kcal/mol  [=(1)+(2)+(3)-(4)]USERUSER    (1) Final Intermolecular Energy     = -10.90 kcal/molUSER        vdW + Hbond + desolv Energy     = -11.27 kcal/molUSER        Electrostatic Energy            =  -0.13 kcal/molUSER        Moving Ligand-Fixed Receptor    = -11.40 kcal/molUSER        Moving Ligand-Moving Receptor   =  +0.50 kcal/molUSER    (2) Final Total Internal Energy     =  -2.82 kcal/molUSER    (3) Torsional Free Energy           =  +4.47 kcal/molUSER    (4) Unbound System's Energy         =  -2.82 kcal/molUSERUSERREMARK SMILES COc1ccc(=O)[nH]c1C(=O)c1ccc(C(=O)N[C@@H]2CCCN(C(=O)C(F)(F)F)C[C@H]2NC(=O)c2cnc(F)c(Cl)c2)cc1REMARK SMILES IDX 19 1 18 2 16 3 17 4 15 6 12 7 13 8 44 9 14 10 43 11 10 12REMARK SMILES IDX 11 13 9 14 3 15 4 16 5 17 8 18 6 19 7 21 2 22 1 23 20 24REMARK SMILES IDX 21 25 31 27 30 28 23 29 22 30 24 32 25 33 26 34 27 35 28 36REMARK SMILES IDX 29 37 32 38 33 39 34 41 35 42 36 43 42 44 37 45 40 46 38 47REMARK SMILES IDX 41 48 39 49REMARK H PARENT 18 5 8 20 32 40REMARK Flexibility Score:  100.900USER                              x       y       z     vdW  Elec       q    TypeUSER                           _______ _______ _______ _____ _____    ______ ____ROOTATOM      1  C   UNL     1      43.087  42.982  23.755 -0.21 -0.00    +0.106 C  ENDROOTBRANCH   1   2ATOM      2  N   UNL     1      41.782  42.979  24.449 -0.08 +0.01    -0.347 N  ATOM      3  C   UNL     1      40.587  42.844  23.775 -0.13 +0.01    +0.251 C  ATOM      4  O   UNL     1      40.511  42.780  22.553 -0.23 -0.01    -0.269 OA ATOM      5  H   UNL     1      41.777  42.997  25.460 +0.04 -0.01    +0.164 HD BRANCH   3   6ATOM      6  C   UNL     1      39.356  42.821  24.601 -0.18 +0.00    +0.039 A  ATOM      7  C   UNL     1      37.058  42.708  26.214 -0.35 -0.00    +0.024 A  ATOM      8  C   UNL     1      36.951  43.009  24.847 -0.37 +0.00    +0.013 A  ATOM      9  C   UNL     1      38.323  42.439  26.756 -0.30 -0.00    +0.013 A  ATOM     10  C   UNL     1      38.096  43.071  24.045 -0.30 +0.00    +0.014 A  ATOM     11  C   UNL     1      39.466  42.484  25.953 -0.21 -0.00    +0.014 A  BRANCH   7  12ATOM     12  C   UNL     1      35.879  42.653  27.129 -0.40 -0.05    +0.213 C  ATOM     13  O   UNL     1      35.309  41.593  27.364 -0.43 +0.10    -0.287 OA BRANCH  12  14ATOM     14  C   UNL     1      35.451  43.908  27.801 -0.44 -0.04    +0.132 A  ATOM     15  C   UNL     1      36.256  44.987  27.802 -0.32 -0.04    +0.146 A  ATOM     16  C   UNL     1      35.846  46.176  28.521 -0.28 -0.01    +0.054 A  ATOM     17  C   UNL     1      34.656  46.228  29.139 -0.34 -0.02    +0.075 A  ATOM     18  N   UNL     1      34.216  43.958  28.410 -0.42 +0.06    -0.316 N  ATOM     19  C   UNL     1      33.746  45.054  29.088 -0.15 -0.03    +0.248 A  ATOM     20  H   UNL     1      33.592  43.162  28.358 +0.06 -0.01    +0.170 HD ATOM     21  O   UNL     1      32.656  45.067  29.646 -0.81 -0.02    -0.270 OA BRANCH  15  22ATOM     22  O   UNL     1      37.528  45.005  27.283 -0.10 +0.06    -0.494 OA ATOM     23  C   UNL     1      37.764  46.208  26.547 -0.21 -0.02    +0.278 C  ENDBRANCH  15  22ENDBRANCH  12  14ENDBRANCH   7  12ENDBRANCH   3   6ENDBRANCH   1   2BRANCH   1  24ATOM     24  C   UNL     1      44.175  42.763  24.823 -0.13 -0.00    +0.029 C  BRANCH  24  25ATOM     25  C   UNL     1      45.017  43.984  25.183 -0.04 +0.00    +0.024 CG0ATOM     26  G   UNL     1      46.159  44.265  24.217 +0.00 +0.00    +0.000 G0 ENDBRANCH  24  25ENDBRANCH   1  24BRANCH   1  27ATOM     27  C   UNL     1      43.328  44.293  22.938 -0.18 +0.02    +0.124 C  BRANCH  27  28ATOM     28  C   UNL     1      44.679  44.277  22.185 -0.03 +0.08    +0.146 C  BRANCH  28  29ATOM     29  N   UNL     1      45.854  43.756  22.883 -0.09 -0.12    -0.333 N  BRANCH  29  30ATOM     30  C   UNL     1      46.164  44.265  24.216 -0.05 +0.02    +0.120 CG0ATOM     31  G   UNL     1      45.021  43.982  25.182 +0.00 +0.00    +0.000 G0 ENDBRANCH  29  30BRANCH  29  32ATOM     32  C   UNL     1      46.720  42.920  22.148 -0.16 +0.08    +0.328 C  ATOM     33  O   UNL     1      47.395  43.385  21.221 -0.71 -0.20    -0.264 OA BRANCH  32  34ATOM     34  C   UNL     1      46.814  41.423  22.533 -0.07 -0.09    +0.471 C  ATOM     35  F   UNL     1      47.947  40.830  22.055 -0.05 +0.06    -0.162 F  ATOM     36  F   UNL     1      45.769  40.699  22.037 -0.17 +0.05    -0.162 F  ATOM     37  F   UNL     1      46.819  41.215  23.879 -0.02 +0.02    -0.162 F  ENDBRANCH  32  34ENDBRANCH  29  32ENDBRANCH  28  29ENDBRANCH  27  28BRANCH  27  38ATOM     38  N   UNL     1      42.256  44.539  21.960 -0.10 -0.05    -0.345 N  ATOM     39  C   UNL     1      42.254  45.639  21.136 -0.20 +0.06    +0.253 C  ATOM     40  H   UNL     1      41.645  43.741  21.790 +0.08 +0.01    +0.164 HD ATOM     41  O   UNL     1      43.107  46.517  21.220 -0.26 -0.10    -0.269 OA BRANCH  39  42ATOM     42  C   UNL     1      41.181  45.755  20.114 -0.36 +0.01    +0.059 A  ATOM     43  C   UNL     1      39.955  45.099  20.195 -0.30 +0.00    +0.128 A  ATOM     44  C   UNL     1      41.395  46.592  19.011 -0.46 +0.00    +0.040 A  ATOM     45  N   UNL     1      38.967  45.216  19.273 -0.26 +0.01    -0.226 NA ATOM     46  C   UNL     1      40.399  46.730  18.047 -0.41 -0.01    +0.096 A  ATOM     47  C   UNL     1      39.213  46.027  18.216 -0.26 -0.03    +0.231 A  ATOM     48  Cl  UNL     1      40.656  47.754  16.688 -0.76 +0.01    -0.079 Cl ATOM     49  F   UNL     1      38.237  46.138  17.302 -0.12 +0.06    -0.183 F  ENDBRANCH  39  42ENDBRANCH  27  38ENDBRANCH   1  27TORSDOF 9TERENDMDL