REMARK SMILES COc1cc(F)c(=O)[nH]c1C(=O)c1ccc(C(=O)N[C@@H]2CCN(CF)C[C@H]2NC(=O)c2cnn(C)c2)cc1
REMARK SMILES IDX 13 1 14 2 15 3 16 4 37 5 38 6 11 7 12 8 10 9 3 10 4 11 5 12
REMARK SMILES IDX 9 13 7 14 6 15 8 17 2 18 1 19 17 20 19 21 18 22 20 24 21 25
REMARK SMILES IDX 27 26 22 27 26 28 23 29 28 30 29 31 30 33 31 34 32 35 36 36
REMARK SMILES IDX 33 37 34 38 35 39 24 40 25 41
REMARK H PARENT 9 16 19 23 28 32
ROOT
ATOM      1  C   UNL     1       3.090   0.147   1.208  1.00  0.00     0.024 A 
ATOM      2  C   UNL     1       2.054   1.063   1.433  1.00  0.00     0.013 A 
ATOM      3  C   UNL     1       1.092   1.306   0.446  1.00  0.00     0.014 A 
ATOM      4  C   UNL     1       1.159   0.632  -0.780  1.00  0.00     0.039 A 
ATOM      5  C   UNL     1       2.209  -0.265  -1.013  1.00  0.00     0.014 A 
ATOM      6  C   UNL     1       3.170  -0.510  -0.026  1.00  0.00     0.013 A 
ENDROOT
BRANCH   1   7
ATOM      7  C   UNL     1       4.079  -0.076   2.301  1.00  0.00     0.213 C 
ATOM      8  O   UNL     1       4.151   0.692   3.256  1.00  0.00    -0.287 OA
BRANCH   7   9
ATOM      9  C   UNL     1       4.926  -1.297   2.241  1.00  0.00     0.132 A 
ATOM     10  C   UNL     1       6.253  -1.194   2.037  1.00  0.00     0.149 A 
ATOM     11  C   UNL     1       7.055  -2.396   1.939  1.00  0.00     0.094 A 
ATOM     12  C   UNL     1       6.489  -3.596   2.115  1.00  0.00     0.191 A 
ATOM     13  N   UNL     1       4.336  -2.531   2.425  1.00  0.00    -0.314 N 
ATOM     14  C   UNL     1       5.031  -3.721   2.397  1.00  0.00     0.284 A 
ATOM     15  F   UNL     1       7.199  -4.738   2.035  1.00  0.00    -0.201 F 
ATOM     16  H   UNL     1       3.346  -2.596   2.629  1.00  0.00     0.170 HD
ATOM     17  O   UNL     1       4.477  -4.798   2.578  1.00  0.00    -0.266 OA
BRANCH  10  18
ATOM     18  O   UNL     1       6.902  -0.012   1.773  1.00  0.00    -0.494 OA
ATOM     19  C   UNL     1       7.540   0.501   2.944  1.00  0.00     0.278 C 
ENDBRANCH  10  18
ENDBRANCH   7   9
ENDBRANCH   1   7
BRANCH   4  20
ATOM     20  C   UNL     1       0.162   0.852  -1.867  1.00  0.00     0.251 C 
ATOM     21  N   UNL     1      -1.073   1.333  -1.482  1.00  0.00    -0.347 N 
ATOM     22  O   UNL     1       0.445   0.574  -3.027  1.00  0.00    -0.269 OA
ATOM     23  H   UNL     1      -1.322   1.227  -0.498  1.00  0.00     0.164 HD
BRANCH  21  24
ATOM     24  C   UNL     1      -2.199   1.385  -2.420  1.00  0.00     0.107 C 
ATOM     25  C   UNL     1      -2.010   2.481  -3.485  1.00  0.00     0.043 C 
ATOM     26  C   UNL     1      -3.543   1.549  -1.654  1.00  0.00     0.119 C 
ATOM     27  C   UNL     1      -2.887   3.700  -3.209  1.00  0.00     0.089 C 
ATOM     28  C   UNL     1      -4.629   2.072  -2.611  1.00  0.00     0.114 C 
ATOM     29  N   UNL     1      -4.317   3.361  -3.247  1.00  0.00    -0.274 NA
BRANCH  26  30
ATOM     30  N   UNL     1      -3.956   0.295  -1.011  1.00  0.00    -0.346 N 
ATOM     31  C   UNL     1      -3.367  -0.144   0.156  1.00  0.00     0.254 C 
ATOM     32  H   UNL     1      -4.464  -0.374  -1.572  1.00  0.00     0.164 HD
ATOM     33  O   UNL     1      -2.509   0.512   0.744  1.00  0.00    -0.269 OA
BRANCH  31  34
ATOM     34  C   UNL     1      -3.799  -1.449   0.622  1.00  0.00     0.077 A 
ATOM     35  C   UNL     1      -4.838  -2.300   0.180  1.00  0.00     0.149 A 
ATOM     36  C   UNL     1      -3.239  -2.148   1.676  1.00  0.00     0.122 A 
ATOM     37  N   UNL     1      -4.913  -3.438   0.876  1.00  0.00    -0.181 NA
ATOM     38  N   UNL     1      -3.929  -3.318   1.784  1.00  0.00    -0.275 N 
ATOM     39  C   UNL     1      -3.686  -4.374   2.737  1.00  0.00     0.173 C 
ENDBRANCH  31  34
ENDBRANCH  26  30
BRANCH  29  40
ATOM     40  C   UNL     1      -5.098   4.442  -2.655  1.00  0.00     0.303 C 
ATOM     41  F   UNL     1      -4.830   4.507  -1.326  1.00  0.00    -0.234 F 
ENDBRANCH  29  40
ENDBRANCH  21  24
ENDBRANCH   4  20
TORSDOF 8
