MODEL        3USER    Run = 3USERUSER    Estimated Free Energy of Binding    =  -9.52 kcal/mol  [=(1)+(2)+(3)-(4)]USERUSER    (1) Final Intermolecular Energy     = -11.91 kcal/molUSER        vdW + Hbond + desolv Energy     = -11.61 kcal/molUSER        Electrostatic Energy            =  -0.29 kcal/molUSER        Moving Ligand-Fixed Receptor    = -11.91 kcal/molUSER        Moving Ligand-Moving Receptor   =  +0.00 kcal/molUSER    (2) Final Total Internal Energy     =  -1.61 kcal/molUSER    (3) Torsional Free Energy           =  +2.39 kcal/molUSER    (4) Unbound System's Energy         =  -1.61 kcal/molUSERUSERREMARK SMILES COc1cc(F)c(=O)[nH]c1C(=O)c1ccc(C(=O)N[C@@H]2CCN(CF)C[C@H]2NC(=O)c2cnn(C)c2)cc1REMARK SMILES IDX 13 1 14 2 15 3 16 4 37 5 38 6 11 7 12 8 10 9 3 10 4 11 5 12REMARK SMILES IDX 9 13 7 14 6 15 8 17 2 18 1 19 17 20 19 21 18 22 20 24 21 25REMARK SMILES IDX 27 26 22 27 26 28 23 29 28 30 29 31 30 33 31 34 32 35 36 36REMARK SMILES IDX 33 37 34 38 35 39 24 40 25 41REMARK H PARENT 9 16 19 23 28 32USER                              x       y       z     vdW  Elec       q    TypeUSER                           _______ _______ _______ _____ _____    ______ ____ROOTATOM      1  C   UNL     1      37.436  43.044  22.549 -0.38 +0.00    +0.024 A  ATOM      2  C   UNL     1      37.313  44.232  21.818 -0.38 +0.00    +0.013 A  ATOM      3  C   UNL     1      36.453  44.305  20.717 -0.33 -0.00    +0.014 A  ATOM      4  C   UNL     1      35.705  43.184  20.336 -0.41 -0.00    +0.039 A  ATOM      5  C   UNL     1      35.847  41.989  21.052 -0.48 +0.00    +0.014 A  ATOM      6  C   UNL     1      36.706  41.916  22.155 -0.53 +0.00    +0.013 A  ENDROOTBRANCH   1   7ATOM      7  C   UNL     1      38.362  43.031  23.718 -0.22 +0.01    +0.213 C  ATOM      8  O   UNL     1      39.464  42.497  23.646 -0.16 -0.03    -0.287 OA BRANCH   7   9ATOM      9  C   UNL     1      37.943  43.750  24.951 -0.20 +0.00    +0.132 A  ATOM     10  C   UNL     1      37.931  43.114  26.137 -0.18 -0.01    +0.149 A  ATOM     11  C   UNL     1      37.480  43.817  27.320 -0.28 -0.01    +0.094 A  ATOM     12  C   UNL     1      37.139  45.109  27.242 -0.25 -0.03    +0.191 A  ATOM     13  N   UNL     1      37.594  45.083  24.864 -0.16 -0.03    -0.314 N  ATOM     14  C   UNL     1      37.201  45.841  25.945 -0.17 -0.01    +0.284 A  ATOM     15  F   UNL     1      36.717  45.802  28.318 -0.12 +0.04    -0.201 F  ATOM     16  H   UNL     1      37.655  45.567  23.976 +0.07 +0.04    +0.170 HD ATOM     17  O   UNL     1      36.912  47.026  25.834 -0.73 +0.01    -0.266 OA BRANCH  10  18ATOM     18  O   UNL     1      38.193  41.774  26.295 -0.10 +0.03    -0.494 OA ATOM     19  C   UNL     1      37.300  41.180  27.240 -0.33 -0.06    +0.278 C  ENDBRANCH  10  18ENDBRANCH   7   9ENDBRANCH   1   7BRANCH   4  20ATOM     20  C   UNL     1      34.774  43.204  19.171 -0.28 -0.03    +0.251 C  ATOM     21  N   UNL     1      35.012  42.278  18.175 -0.17 +0.09    -0.347 N  ATOM     22  O   UNL     1      33.876  44.037  19.115 -0.27 +0.05    -0.269 OA ATOM     23  H   UNL     1      35.942  41.859  18.150 +0.06 -0.04    +0.164 HD BRANCH  21  24ATOM     24  C   UNL     1      34.307  42.338  16.891 -0.40 -0.05    +0.107 C  ATOM     25  C   UNL     1      34.820  43.490  16.007 -0.38 -0.02    +0.043 C  ATOM     26  C   UNL     1      32.770  42.421  17.114 -0.29 -0.05    +0.119 C  ATOM     27  C   UNL     1      33.845  44.665  15.981 -0.32 -0.05    +0.089 C  ATOM     28  C   UNL     1      32.086  42.954  15.842 -0.25 -0.06    +0.114 C  ATOM     29  N   UNL     1      32.547  44.282  15.408 -0.17 +0.15    -0.274 NA BRANCH  26  30ATOM     30  N   UNL     1      32.211  41.125  17.518 -0.14 +0.12    -0.346 N  ATOM     31  C   UNL     1      32.159  40.744  18.843 -0.26 -0.00    +0.254 C  ATOM     32  H   UNL     1      32.130  40.408  16.811 -0.30 -0.10    +0.164 HD ATOM     33  O   UNL     1      32.526  41.486  19.752 -0.37 -0.04    -0.269 OA BRANCH  31  34ATOM     34  C   UNL     1      31.679  39.397  19.088 -0.37 +0.01    +0.077 A  ATOM     35  C   UNL     1      31.809  38.209  18.332 -0.34 +0.02    +0.149 A  ATOM     36  C   UNL     1      30.937  38.999  20.185 -0.33 +0.02    +0.122 A  ATOM     37  N   UNL     1      31.221  37.156  18.908 -0.93 -0.08    -0.181 NA ATOM     38  N   UNL     1      30.694  37.666  20.034 -0.24 -0.06    -0.275 N  ATOM     39  C   UNL     1      29.968  36.817  20.947 -0.29 +0.01    +0.173 C  ENDBRANCH  31  34ENDBRANCH  26  30BRANCH  29  40ATOM     40  C   UNL     1      31.552  45.307  15.706 -0.23 -0.16    +0.303 C  ATOM     41  F   UNL     1      30.842  44.931  16.800 -0.00 +0.02    -0.234 F  ENDBRANCH  29  40ENDBRANCH  21  24ENDBRANCH   4  20TORSDOF 8TERENDMDL