REMARK SMILES COc1cc(F)c(=O)[nH]c1C(=O)c1ccc(C(=O)N[C@@H]2CCCN(C)C[C@H]2NC(=O)c2ccc(N3CCN(C)CC3)nc2)cc1
REMARK SMILES IDX 20 1 19 3 17 4 18 5 16 7 13 8 14 9 45 10 15 11 44 12 11 13
REMARK SMILES IDX 12 14 10 15 3 16 4 17 5 18 9 19 7 20 6 21 8 23 2 24 1 25
REMARK SMILES IDX 27 26 26 27 24 28 25 29 23 30 22 31 21 32 28 34 29 35 30 37
REMARK SMILES IDX 31 38 32 39 43 40 33 41 42 42 34 43 35 44 36 45 41 46 37 47
REMARK SMILES IDX 40 48 38 49 39 50
REMARK H PARENT 19 6 9 22 28 36
REMARK Flexibility Score:  128.900
ROOT
ATOM      1  C   UNL     1       0.444  -0.395  -2.146  1.00  0.00     0.106 CG0
ATOM      2  G   UNL     1       0.631  -1.345  -3.338  1.00  0.00     0.000 G0
ENDROOT
BRANCH   1   3
ATOM      3  N   UNL     1       1.762   0.035  -1.658  1.00  0.00    -0.347 N 
ATOM      4  C   UNL     1       2.510  -0.746  -0.800  1.00  0.00     0.251 C 
ATOM      5  O   UNL     1       2.170  -1.864  -0.432  1.00  0.00    -0.269 OA
ATOM      6  H   UNL     1       2.195   0.837  -2.095  1.00  0.00     0.164 HD
BRANCH   4   7
ATOM      7  C   UNL     1       3.812  -0.179  -0.344  1.00  0.00     0.039 A 
ATOM      8  C   UNL     1       6.284   0.791   0.567  1.00  0.00     0.024 A 
ATOM      9  C   UNL     1       6.034  -0.587   0.560  1.00  0.00     0.013 A 
ATOM     10  C   UNL     1       5.300   1.679   0.117  1.00  0.00     0.013 A 
ATOM     11  C   UNL     1       4.801  -1.066   0.109  1.00  0.00     0.014 A 
ATOM     12  C   UNL     1       4.062   1.199  -0.323  1.00  0.00     0.014 A 
BRANCH   8  13
ATOM     13  C   UNL     1       7.580   1.351   1.032  1.00  0.00     0.213 C 
ATOM     14  O   UNL     1       8.004   2.402   0.559  1.00  0.00    -0.287 OA
BRANCH  13  15
ATOM     15  C   UNL     1       8.289   0.636   2.132  1.00  0.00     0.132 A 
ATOM     16  C   UNL     1       9.582   0.278   2.000  1.00  0.00     0.149 A 
ATOM     17  C   UNL     1      10.235  -0.455   3.067  1.00  0.00     0.094 A 
ATOM     18  C   UNL     1       9.578  -0.716   4.203  1.00  0.00     0.191 A 
ATOM     19  N   UNL     1       7.607   0.365   3.303  1.00  0.00    -0.314 N 
ATOM     20  C   UNL     1       8.165  -0.280   4.385  1.00  0.00     0.284 A 
ATOM     21  F   UNL     1      10.149  -1.396   5.216  1.00  0.00    -0.201 F 
ATOM     22  H   UNL     1       6.646   0.668   3.418  1.00  0.00     0.170 HD
ATOM     23  O   UNL     1       7.536  -0.482   5.416  1.00  0.00    -0.266 OA
BRANCH  16  24
ATOM     24  O   UNL     1      10.314   0.422   0.846  1.00  0.00    -0.494 OA
ATOM     25  C   UNL     1      11.183   1.556   0.914  1.00  0.00     0.278 C 
ENDBRANCH  16  24
ENDBRANCH  13  15
ENDBRANCH   8  13
ENDBRANCH   4   7
ENDBRANCH   1   3
BRANCH   1  26
ATOM     26  C   UNL     1      -0.472   0.837  -2.392  1.00  0.00     0.118 C 
BRANCH  26  27
ATOM     27  C   UNL     1      -0.609   1.269  -3.871  1.00  0.00     0.111 C 
BRANCH  27  28
ATOM     28  N   UNL     1      -1.643   0.495  -4.598  1.00  0.00    -0.304 NA
ATOM     29  C   UNL     1      -2.143   1.281  -5.735  1.00  0.00     0.105 C 
BRANCH  28  30
ATOM     30  C   UNL     1      -1.147  -0.799  -5.091  1.00  0.00     0.084 C 
BRANCH  30  31
ATOM     31  C   UNL     1      -0.671  -1.770  -4.007  1.00  0.00     0.018 C 
BRANCH  31  32
ATOM     32  C   UNL     1       0.631  -1.345  -3.338  1.00  0.00     0.028 CG0
ATOM     33  G   UNL     1       0.444  -0.395  -2.146  1.00  0.00     0.000 G0
ENDBRANCH  31  32
ENDBRANCH  30  31
ENDBRANCH  28  30
ENDBRANCH  27  28
ENDBRANCH  26  27
BRANCH  26  34
ATOM     34  N   UNL     1      -1.816   0.630  -1.837  1.00  0.00    -0.346 N 
ATOM     35  C   UNL     1      -2.091   0.730  -0.495  1.00  0.00     0.253 C 
ATOM     36  H   UNL     1      -2.523   0.396  -2.524  1.00  0.00     0.164 HD
ATOM     37  O   UNL     1      -1.255   1.073   0.332  1.00  0.00    -0.269 OA
BRANCH  35  38
ATOM     38  C   UNL     1      -3.480   0.432  -0.070  1.00  0.00     0.058 A 
ATOM     39  C   UNL     1      -4.390  -0.297  -0.830  1.00  0.00     0.019 A 
ATOM     40  C   UNL     1      -3.913   0.904   1.158  1.00  0.00     0.127 A 
ATOM     41  C   UNL     1      -5.683  -0.496  -0.339  1.00  0.00     0.048 A 
ATOM     42  N   UNL     1      -5.169   0.728   1.643  1.00  0.00    -0.239 NA
ATOM     43  C   UNL     1      -6.054   0.026   0.903  1.00  0.00     0.128 A 
BRANCH  43  44
ATOM     44  N   UNL     1      -7.372  -0.145   1.360  1.00  0.00    -0.354 N 
ATOM     45  C   UNL     1      -7.733  -1.561   1.578  1.00  0.00     0.133 C 
ATOM     46  C   UNL     1      -7.698   0.716   2.516  1.00  0.00     0.133 C 
ATOM     47  C   UNL     1      -9.212  -1.689   2.022  1.00  0.00     0.105 C 
ATOM     48  C   UNL     1      -9.181   0.542   2.921  1.00  0.00     0.105 C 
ATOM     49  N   UNL     1      -9.611  -0.853   3.176  1.00  0.00    -0.303 NA
ATOM     50  C   UNL     1      -9.053  -1.363   4.427  1.00  0.00     0.105 C 
ENDBRANCH  43  44
ENDBRANCH  35  38
ENDBRANCH  26  34
ENDBRANCH   1  26
TORSDOF 8
