REMARK SMILES Oc1nc2ccccc2n1C1CCN(Cc2ccc(-c3nc4cc(F)ccc4nc3-c3ccc(N4CCNCC4)cc3)cc2)CC1
REMARK SMILES IDX 16 1 17 2 18 3 19 4 43 5 44 6 15 7 14 8 11 9 12 10 46 11
REMARK SMILES IDX 13 12 45 13 10 14 2 15 3 16 4 17 9 18 5 19 8 20 6 21 7 22
REMARK SMILES IDX 1 23 20 25 21 26 30 27 22 28 29 29 23 30 28 31 24 32 27 33
REMARK SMILES IDX 26 34 25 35 31 36 32 37 42 38 33 39 41 40 34 41 35 42 36 43
REMARK SMILES IDX 40 44 37 45 39 46 38 47
REMARK H PARENT 1 24 38 48
ROOT
ATOM      1  C   UNL     1       0.946   1.712   1.558  1.00  0.00    -0.034 A 
ATOM      2  C   UNL     1       1.050   2.643   0.519  1.00  0.00     0.006 A 
ATOM      3  C   UNL     1      -0.092   3.273   0.011  1.00  0.00     0.011 A 
ATOM      4  C   UNL     1      -1.371   3.001   0.526  1.00  0.00     0.002 A 
ATOM      5  C   UNL     1      -1.463   2.065   1.570  1.00  0.00     0.011 A 
ATOM      6  C   UNL     1      -0.325   1.421   2.070  1.00  0.00     0.006 A 
ENDROOT
BRANCH   1   7
ATOM      7  C   UNL     1       2.182   1.056   2.139  1.00  0.00     0.120 C 
BRANCH   7   8
ATOM      8  N   UNL     1       2.353  -0.352   1.746  1.00  0.00    -0.299 NA
ATOM      9  C   UNL     1       4.920  -1.234   0.546  1.00  0.00     0.095 C 
ATOM     10  C   UNL     1       3.561  -1.593  -0.075  1.00  0.00     0.041 C 
ATOM     11  C   UNL     1       4.800  -0.840   2.030  1.00  0.00     0.041 C 
ATOM     12  C   UNL     1       2.544  -0.511   0.296  1.00  0.00     0.087 C 
ATOM     13  C   UNL     1       3.377  -1.027   2.555  1.00  0.00     0.087 C 
BRANCH   9  14
ATOM     14  N   UNL     1       5.930  -2.251   0.295  1.00  0.00    -0.291 N 
ATOM     15  C   UNL     1       5.961  -3.516   0.819  1.00  0.00     0.295 A 
ATOM     16  N   UNL     1       7.001  -4.207   0.434  1.00  0.00    -0.195 NA
ATOM     17  C   UNL     1       7.690  -3.356  -0.397  1.00  0.00     0.092 A 
ATOM     18  C   UNL     1       7.042  -2.123  -0.513  1.00  0.00     0.072 A 
ATOM     19  C   UNL     1       8.890  -3.572  -1.095  1.00  0.00     0.031 A 
ATOM     20  C   UNL     1       7.541  -1.084  -1.313  1.00  0.00     0.029 A 
ATOM     21  C   UNL     1       9.404  -2.543  -1.896  1.00  0.00     0.002 A 
ATOM     22  C   UNL     1       8.737  -1.321  -2.002  1.00  0.00     0.002 A 
BRANCH  15  23
ATOM     23  O   UNL     1       5.059  -4.013   1.644  1.00  0.00    -0.480 OA
ATOM     24  H   UNL     1       5.420  -4.906   1.802  1.00  0.00     0.296 HD
ENDBRANCH  15  23
ENDBRANCH   9  14
ENDBRANCH   7   8
ENDBRANCH   1   7
BRANCH   4  25
ATOM     25  C   UNL     1      -2.551   3.717   0.003  1.00  0.00     0.097 A 
ATOM     26  N   UNL     1      -2.374   5.068  -0.084  1.00  0.00    -0.244 NA
ATOM     27  C   UNL     1      -3.767   3.126  -0.370  1.00  0.00     0.097 A 
ATOM     28  C   UNL     1      -3.410   5.811  -0.508  1.00  0.00     0.092 A 
ATOM     29  N   UNL     1      -4.822   3.886  -0.782  1.00  0.00    -0.244 NA
ATOM     30  C   UNL     1      -3.267   7.186  -0.605  1.00  0.00     0.069 A 
ATOM     31  C   UNL     1      -4.644   5.215  -0.855  1.00  0.00     0.090 A 
ATOM     32  C   UNL     1      -4.324   7.974  -1.040  1.00  0.00     0.125 A 
ATOM     33  C   UNL     1      -5.689   6.021  -1.286  1.00  0.00     0.033 A 
ATOM     34  C   UNL     1      -5.539   7.404  -1.380  1.00  0.00     0.041 A 
ATOM     35  F   UNL     1      -4.167   9.300  -1.132  1.00  0.00    -0.207 F 
BRANCH  27  36
ATOM     36  C   UNL     1      -4.037   1.677  -0.395  1.00  0.00     0.003 A 
ATOM     37  C   UNL     1      -3.216   0.784  -1.096  1.00  0.00     0.012 A 
ATOM     38  C   UNL     1      -5.155   1.147   0.262  1.00  0.00     0.012 A 
ATOM     39  C   UNL     1      -3.486  -0.592  -1.110  1.00  0.00     0.026 A 
ATOM     40  C   UNL     1      -5.417  -0.229   0.249  1.00  0.00     0.026 A 
ATOM     41  C   UNL     1      -4.580  -1.134  -0.424  1.00  0.00     0.037 A 
BRANCH  41  42
ATOM     42  N   UNL     1      -4.888  -2.503  -0.408  1.00  0.00    -0.369 N 
ATOM     43  C   UNL     1      -4.252  -3.370  -1.422  1.00  0.00     0.132 C 
ATOM     44  C   UNL     1      -4.889  -3.097   0.949  1.00  0.00     0.132 C 
ATOM     45  C   UNL     1      -4.857  -4.792  -1.383  1.00  0.00     0.102 C 
ATOM     46  C   UNL     1      -5.459  -4.536   0.919  1.00  0.00     0.102 C 
ATOM     47  N   UNL     1      -4.783  -5.423  -0.049  1.00  0.00    -0.313 NA
ATOM     48  H   UNL     1      -3.800  -5.482   0.215  1.00  0.00     0.122 HD
ENDBRANCH  41  42
ENDBRANCH  27  36
ENDBRANCH   4  25
TORSDOF 7
