MODEL        6USER    Run = 6USERUSER    Estimated Free Energy of Binding    = -12.75 kcal/mol  [=(1)+(2)+(3)-(4)]USERUSER    (1) Final Intermolecular Energy     = -14.83 kcal/molUSER        vdW + Hbond + desolv Energy     = -14.72 kcal/molUSER        Electrostatic Energy            =  -0.11 kcal/molUSER        Moving Ligand-Fixed Receptor    = -14.83 kcal/molUSER        Moving Ligand-Moving Receptor   =  +0.00 kcal/molUSER    (2) Final Total Internal Energy     =  -1.90 kcal/molUSER    (3) Torsional Free Energy           =  +2.09 kcal/molUSER    (4) Unbound System's Energy         =  -1.90 kcal/molUSERUSERREMARK SMILES Oc1nc2ccccc2n1C1CCN(Cc2ccc(-c3nc4cc(F)ccc4nc3-c3ccc(N4CCNCC4)cc3)cc2)CC1REMARK SMILES IDX 16 1 17 2 18 3 19 4 43 5 44 6 15 7 14 8 11 9 12 10 46 11REMARK SMILES IDX 13 12 45 13 10 14 2 15 3 16 4 17 9 18 5 19 8 20 6 21 7 22REMARK SMILES IDX 1 23 20 25 21 26 30 27 22 28 29 29 23 30 28 31 24 32 27 33REMARK SMILES IDX 26 34 25 35 31 36 32 37 42 38 33 39 41 40 34 41 35 42 36 43REMARK SMILES IDX 40 44 37 45 39 46 38 47REMARK H PARENT 1 24 38 48USER                              x       y       z     vdW  Elec       q    TypeUSER                           _______ _______ _______ _____ _____    ______ ____ROOTATOM      1  C   UNL     1      38.718  43.721  21.887 -0.28 -0.00    -0.034 A  ATOM      2  C   UNL     1      39.829  44.455  21.459 -0.30 +0.00    +0.006 A  ATOM      3  C   UNL     1      39.815  45.113  20.223 -0.37 +0.00    +0.011 A  ATOM      4  C   UNL     1      38.692  45.065  19.379 -0.39 -0.00    +0.002 A  ATOM      5  C   UNL     1      37.582  44.325  19.820 -0.36 -0.00    +0.011 A  ATOM      6  C   UNL     1      37.598  43.653  21.048 -0.37 +0.00    +0.006 A  ENDROOTBRANCH   1   7ATOM      7  C   UNL     1      38.712  43.039  23.240 -0.27 +0.01    +0.120 C  BRANCH   7   8ATOM      8  N   UNL     1      37.910  43.737  24.258 -0.13 -0.02    -0.299 NA ATOM      9  C   UNL     1      39.092  46.020  25.741 -0.19 +0.00    +0.095 C  ATOM     10  C   UNL     1      38.356  44.874  26.454 -0.25 -0.00    +0.041 C  ATOM     11  C   UNL     1      38.724  46.113  24.248 -0.31 +0.00    +0.041 C  ATOM     12  C   UNL     1      38.477  43.604  25.609 -0.21 -0.00    +0.087 C  ATOM     13  C   UNL     1      37.620  45.125  23.872 -0.22 +0.01    +0.087 C  BRANCH   9  14ATOM     14  N   UNL     1      38.967  47.284  26.450 -0.11 -0.00    -0.291 N  ATOM     15  C   UNL     1      39.860  47.808  27.346 -0.09 +0.01    +0.295 A  ATOM     16  N   UNL     1      39.478  48.953  27.844 -0.17 -0.01    -0.195 NA ATOM     17  C   UNL     1      38.271  49.206  27.237 -0.21 +0.01    +0.092 A  ATOM     18  C   UNL     1      37.924  48.183  26.350 -0.29 +0.00    +0.072 A  ATOM     19  C   UNL     1      37.406  50.302  27.397 -0.19 +0.01    +0.031 A  ATOM     20  C   UNL     1      36.740  48.210  25.598 -0.42 -0.00    +0.029 A  ATOM     21  C   UNL     1      36.217  50.342  26.655 -0.35 +0.00    +0.002 A  ATOM     22  C   UNL     1      35.894  49.312  25.770 -0.47 -0.00    +0.002 A  BRANCH  15  23ATOM     23  O   UNL     1      40.992  47.233  27.707 -0.64 -0.08    -0.480 OA ATOM     24  H   UNL     1      41.257  47.794  28.460 +0.04 +0.04    +0.296 HD ENDBRANCH  15  23ENDBRANCH   9  14ENDBRANCH   7   8ENDBRANCH   1   7BRANCH   4  25ATOM     25  C   UNL     1      38.688  45.808  18.104 -0.33 -0.02    +0.097 A  ATOM     26  N   UNL     1      39.802  46.574  17.917 -0.30 +0.04    -0.244 NA ATOM     27  C   UNL     1      37.664  45.783  17.147 -0.31 -0.03    +0.097 A  ATOM     28  C   UNL     1      39.869  47.323  16.804 -0.43 -0.02    +0.092 A  ATOM     29  N   UNL     1      37.727  46.560  16.027 -0.21 +0.12    -0.244 NA ATOM     30  C   UNL     1      40.985  48.116  16.583 -0.49 -0.01    +0.069 A  ATOM     31  C   UNL     1      38.822  47.319  15.854 -0.39 -0.03    +0.090 A  ATOM     32  C   UNL     1      41.076  48.899  15.440 -0.50 -0.02    +0.125 A  ATOM     33  C   UNL     1      38.932  48.110  14.719 -0.50 -0.01    +0.033 A  ATOM     34  C   UNL     1      40.056  48.906  14.504 -0.42 -0.01    +0.041 A  ATOM     35  F   UNL     1      42.162  49.655  15.240 -0.15 -0.02    -0.207 F  BRANCH  27  36ATOM     36  C   UNL     1      36.461  44.932  17.208 -0.33 -0.00    +0.003 A  ATOM     37  C   UNL     1      36.435  43.648  16.648 -0.36 -0.00    +0.012 A  ATOM     38  C   UNL     1      35.284  45.401  17.806 -0.36 -0.01    +0.012 A  ATOM     39  C   UNL     1      35.284  42.851  16.715 -0.42 -0.01    +0.026 A  ATOM     40  C   UNL     1      34.138  44.598  17.874 -0.32 -0.01    +0.026 A  ATOM     41  C   UNL     1      34.115  43.297  17.344 -0.32 -0.01    +0.037 A  BRANCH  41  42ATOM     42  N   UNL     1      32.941  42.534  17.437 -0.09 +0.13    -0.369 N  ATOM     43  C   UNL     1      31.854  42.813  16.475 -0.28 -0.06    +0.132 C  ATOM     44  C   UNL     1      33.186  41.087  17.638 -0.32 -0.05    +0.132 C  ATOM     45  C   UNL     1      30.576  42.028  16.852 -0.30 -0.03    +0.102 C  ATOM     46  C   UNL     1      31.866  40.346  17.963 -0.41 -0.02    +0.102 C  ATOM     47  N   UNL     1      30.797  40.572  16.969 -0.17 +0.07    -0.313 NA ATOM     48  H   UNL     1      31.132  40.232  16.068 -0.47 -0.06    +0.122 HD ENDBRANCH  41  42ENDBRANCH  27  36ENDBRANCH   4  25TORSDOF 7TERENDMDL