MODEL        3USER    Run = 3USERUSER    Estimated Free Energy of Binding    =  -7.58 kcal/mol  [=(1)+(2)+(3)-(4)]USERUSER    (1) Final Intermolecular Energy     = -11.75 kcal/molUSER        vdW + Hbond + desolv Energy     = -12.03 kcal/molUSER        Electrostatic Energy            =  -0.12 kcal/molUSER        Moving Ligand-Fixed Receptor    = -12.15 kcal/molUSER        Moving Ligand-Moving Receptor   =  +0.40 kcal/molUSER    (2) Final Total Internal Energy     =  -2.19 kcal/molUSER    (3) Torsional Free Energy           =  +4.18 kcal/molUSER    (4) Unbound System's Energy         =  -2.19 kcal/molUSERUSERREMARK SMILES COc1cc(F)c(=O)[nH]c1C(=O)c1ccc(C(=O)N[C@@H]2CCCN(C)C[C@H]2NC(=O)c2ccc(N3CCN(C)CC3)nc2)cc1REMARK SMILES IDX 20 1 19 3 17 4 18 5 16 7 13 8 14 9 45 10 15 11 44 12 11 13REMARK SMILES IDX 12 14 10 15 3 16 4 17 5 18 9 19 7 20 6 21 8 23 2 24 1 25REMARK SMILES IDX 27 26 26 27 24 28 25 29 23 30 22 31 21 32 28 34 29 35 30 37REMARK SMILES IDX 31 38 32 39 43 40 33 41 42 42 34 43 35 44 36 45 41 46 37 47REMARK SMILES IDX 40 48 38 49 39 50REMARK H PARENT 19 6 9 22 28 36REMARK Flexibility Score:  128.900USER                              x       y       z     vdW  Elec       q    TypeUSER                           _______ _______ _______ _____ _____    ______ ____ROOTATOM      1  C   UNL     1      38.316  44.176  22.748 -0.31 +0.01    +0.106 CG0ATOM      2  G   UNL     1      37.236  43.084  22.734 +0.00 +0.00    +0.000 G0 ENDROOTBRANCH   1   3ATOM      3  N   UNL     1      38.410  44.781  21.412 -0.17 -0.01    -0.347 N  ATOM      4  C   UNL     1      39.519  44.603  20.610 -0.24 +0.00    +0.251 C  ATOM      5  O   UNL     1      40.468  43.891  20.915 -0.18 -0.01    -0.269 OA ATOM      6  H   UNL     1      37.576  45.191  21.014 +0.08 +0.01    +0.164 HD BRANCH   4   7ATOM      7  C   UNL     1      39.510  45.304  19.293 -0.39 -0.00    +0.039 A  ATOM      8  C   UNL     1      39.383  46.607  16.810 -0.43 -0.01    +0.024 A  ATOM      9  C   UNL     1      38.218  46.433  17.568 -0.28 -0.00    +0.013 A  ATOM     10  C   UNL     1      40.607  46.132  17.296 -0.46 -0.00    +0.013 A  ATOM     11  C   UNL     1      38.285  45.781  18.802 -0.15 -0.00    +0.014 A  ATOM     12  C   UNL     1      40.670  45.469  18.526 -0.46 -0.00    +0.014 A  BRANCH   8  13ATOM     13  C   UNL     1      39.367  47.298  15.494 -0.39 -0.06    +0.213 C  ATOM     14  O   UNL     1      40.294  48.036  15.172 -0.35 +0.06    -0.287 OA BRANCH  13  15ATOM     15  C   UNL     1      38.236  46.998  14.568 -0.35 -0.05    +0.132 A  ATOM     16  C   UNL     1      37.649  45.785  14.567 -0.29 -0.05    +0.149 A  ATOM     17  C   UNL     1      36.582  45.506  13.627 -0.39 -0.04    +0.094 A  ATOM     18  C   UNL     1      36.137  46.468  12.810 -0.45 -0.10    +0.191 A  ATOM     19  N   UNL     1      37.781  47.993  13.724 -0.30 +0.12    -0.314 N  ATOM     20  C   UNL     1      36.740  47.830  12.836 -0.37 -0.11    +0.284 A  ATOM     21  F   UNL     1      35.149  46.247  11.922 -0.14 +0.14    -0.201 F  ATOM     22  H   UNL     1      38.197  48.918  13.751 -0.10 -0.08    +0.170 HD ATOM     23  O   UNL     1      36.348  48.742  12.120 -0.55 +0.09    -0.266 OA BRANCH  16  24ATOM     24  O   UNL     1      38.088  44.709  15.302 -0.00 +0.14    -0.494 OA ATOM     25  C   UNL     1      36.994  43.939  15.809 -0.19 -0.09    +0.278 C  ENDBRANCH  16  24ENDBRANCH  13  15ENDBRANCH   8  13ENDBRANCH   4   7ENDBRANCH   1   3BRANCH   1  26ATOM     26  C   UNL     1      38.158  45.278  23.834 -0.27 +0.01    +0.118 C  BRANCH  26  27ATOM     27  C   UNL     1      37.466  44.820  25.139 -0.30 +0.01    +0.111 C  BRANCH  27  28ATOM     28  N   UNL     1      37.998  43.534  25.647 -0.08 +0.01    -0.304 NA ATOM     29  C   UNL     1      38.014  43.549  27.117 -0.28 -0.01    +0.105 C  BRANCH  28  30ATOM     30  C   UNL     1      37.222  42.372  25.188 -0.38 -0.00    +0.084 C  BRANCH  30  31ATOM     31  C   UNL     1      37.467  41.958  23.734 -0.35 +0.00    +0.018 C  BRANCH  31  32ATOM     32  C   UNL     1      37.236  43.083  22.733 -0.44 +0.00    +0.028 CG0ATOM     33  G   UNL     1      38.320  44.171  22.749 +0.00 +0.00    +0.000 G0 ENDBRANCH  31  32ENDBRANCH  30  31ENDBRANCH  28  30ENDBRANCH  27  28ENDBRANCH  26  27BRANCH  26  34ATOM     34  N   UNL     1      39.450  45.887  24.176 -0.07 -0.02    -0.346 N  ATOM     35  C   UNL     1      39.719  47.220  23.985 -0.22 +0.03    +0.253 C  ATOM     36  H   UNL     1      40.132  45.241  24.556 +0.07 +0.01    +0.164 HD ATOM     37  O   UNL     1      38.880  48.018  23.585 -0.32 -0.04    -0.269 OA BRANCH  35  38ATOM     38  C   UNL     1      41.088  47.684  24.317 -0.23 +0.01    +0.058 A  ATOM     39  C   UNL     1      41.726  47.431  25.527 -0.15 +0.00    +0.019 A  ATOM     40  C   UNL     1      41.787  48.417  23.372 -0.19 +0.02    +0.127 A  ATOM     41  C   UNL     1      43.010  47.939  25.740 -0.15 +0.00    +0.048 A  ATOM     42  N   UNL     1      43.030  48.926  23.569 -0.86 -0.08    -0.239 NA ATOM     43  C   UNL     1      43.647  48.686  24.746 -0.25 +0.02    +0.128 A  BRANCH  43  44ATOM     44  N   UNL     1      44.920  49.228  24.995 -0.14 -0.06    -0.354 N  ATOM     45  C   UNL     1      44.878  50.463  25.805 -0.15 +0.01    +0.133 C  ATOM     46  C   UNL     1      45.879  48.231  25.515 -0.09 +0.02    +0.133 C  ATOM     47  C   UNL     1      46.302  51.044  25.994 -0.22 +0.01    +0.105 C  ATOM     48  C   UNL     1      47.278  48.866  25.692 -0.06 +0.01    +0.105 C  ATOM     49  N   UNL     1      47.317  50.100  26.512 -0.03 -0.02    -0.303 NA ATOM     50  C   UNL     1      47.105  49.807  27.928 -0.04 +0.00    +0.105 C  ENDBRANCH  43  44ENDBRANCH  35  38ENDBRANCH  26  34ENDBRANCH   1  26TORSDOF 8TERENDMDL