REMARK SMILES COc1ccc(=O)[nH]c1C(=O)c1ccc(C(=O)N[C@@H]2CCCN(C(=O)C(F)(F)F)C[C@H]2NC(=O)c2cnc(F)c(Cl)c2)cc1
REMARK SMILES IDX 19 1 18 2 16 3 17 4 15 6 12 7 13 8 44 9 14 10 43 11 10 12
REMARK SMILES IDX 11 13 9 14 3 15 4 16 5 17 8 18 6 19 7 21 2 22 1 23 20 24
REMARK SMILES IDX 21 25 31 27 30 28 23 29 22 30 24 32 25 33 26 34 27 35 28 36
REMARK SMILES IDX 29 37 32 38 33 39 34 41 35 42 36 43 42 44 37 45 40 46 38 47
REMARK SMILES IDX 41 48 39 49
REMARK H PARENT 18 5 8 20 32 40
REMARK Flexibility Score:  100.900
ROOT
ATOM      1  C   UNL     1      -2.212  -2.035   0.064  1.00  0.00     0.106 C 
ENDROOT
BRANCH   1   2
ATOM      2  N   UNL     1      -0.798  -1.606   0.104  1.00  0.00    -0.347 N 
ATOM      3  C   UNL     1      -0.264  -0.923   1.175  1.00  0.00     0.251 C 
ATOM      4  O   UNL     1      -0.929  -0.566   2.141  1.00  0.00    -0.269 OA
ATOM      5  H   UNL     1      -0.188  -1.896  -0.649  1.00  0.00     0.164 HD
BRANCH   3   6
ATOM      6  C   UNL     1       1.178  -0.586   1.097  1.00  0.00     0.039 A 
ATOM      7  C   UNL     1       3.904   0.093   1.033  1.00  0.00     0.024 A 
ATOM      8  C   UNL     1       3.135   0.134  -0.141  1.00  0.00     0.013 A 
ATOM      9  C   UNL     1       3.288  -0.265   2.240  1.00  0.00     0.013 A 
ATOM     10  C   UNL     1       1.778  -0.210  -0.110  1.00  0.00     0.014 A 
ATOM     11  C   UNL     1       1.929  -0.593   2.276  1.00  0.00     0.014 A 
BRANCH   7  12
ATOM     12  C   UNL     1       5.361   0.421   1.061  1.00  0.00     0.213 C 
ATOM     13  O   UNL     1       5.990   0.416   2.114  1.00  0.00    -0.287 OA
BRANCH  12  14
ATOM     14  C   UNL     1       6.047   0.689  -0.230  1.00  0.00     0.132 A 
ATOM     15  C   UNL     1       6.453   1.935  -0.538  1.00  0.00     0.146 A 
ATOM     16  C   UNL     1       7.059   2.183  -1.830  1.00  0.00     0.054 A 
ATOM     17  C   UNL     1       7.264   1.179  -2.696  1.00  0.00     0.075 A 
ATOM     18  N   UNL     1       6.275  -0.355  -1.100  1.00  0.00    -0.316 N 
ATOM     19  C   UNL     1       6.866  -0.205  -2.329  1.00  0.00     0.248 A 
ATOM     20  H   UNL     1       6.018  -1.299  -0.839  1.00  0.00     0.170 HD
ATOM     21  O   UNL     1       7.034  -1.143  -3.099  1.00  0.00    -0.270 OA
BRANCH  15  22
ATOM     22  O   UNL     1       6.206   3.044   0.235  1.00  0.00    -0.494 OA
ATOM     23  C   UNL     1       7.336   3.363   1.050  1.00  0.00     0.278 C 
ENDBRANCH  15  22
ENDBRANCH  12  14
ENDBRANCH   7  12
ENDBRANCH   3   6
ENDBRANCH   1   2
BRANCH   1  24
ATOM     24  C   UNL     1      -2.312  -3.192  -0.949  1.00  0.00     0.029 C 
BRANCH  24  25
ATOM     25  C   UNL     1      -3.620  -3.977  -0.944  1.00  0.00     0.024 CG0
ATOM     26  G   UNL     1      -4.859  -3.134  -1.214  1.00  0.00     0.000 G0
ENDBRANCH  24  25
ENDBRANCH   1  24
BRANCH   1  27
ATOM     27  C   UNL     1      -3.184  -0.863  -0.293  1.00  0.00     0.124 C 
BRANCH  27  28
ATOM     28  C   UNL     1      -4.614  -1.100   0.247  1.00  0.00     0.146 C 
BRANCH  28  29
ATOM     29  N   UNL     1      -5.250  -2.390  -0.020  1.00  0.00    -0.333 N 
BRANCH  29  30
ATOM     30  C   UNL     1      -4.859  -3.134  -1.214  1.00  0.00     0.120 CG0
ATOM     31  G   UNL     1      -3.620  -3.977  -0.944  1.00  0.00     0.000 G0
ENDBRANCH  29  30
BRANCH  29  32
ATOM     32  C   UNL     1      -6.336  -2.754   0.803  1.00  0.00     0.328 C 
ATOM     33  O   UNL     1      -6.710  -1.999   1.709  1.00  0.00    -0.264 OA
BRANCH  32  34
ATOM     34  C   UNL     1      -7.049  -4.104   0.541  1.00  0.00     0.471 C 
ATOM     35  F   UNL     1      -6.171  -5.139   0.397  1.00  0.00    -0.162 F 
ATOM     36  F   UNL     1      -7.795  -4.078  -0.601  1.00  0.00    -0.162 F 
ATOM     37  F   UNL     1      -7.896  -4.466   1.544  1.00  0.00    -0.162 F 
ENDBRANCH  32  34
ENDBRANCH  29  32
ENDBRANCH  28  29
ENDBRANCH  27  28
BRANCH  27  38
ATOM     38  N   UNL     1      -2.703   0.429   0.222  1.00  0.00    -0.345 N 
ATOM     39  C   UNL     1      -3.025   1.622  -0.379  1.00  0.00     0.253 C 
ATOM     40  H   UNL     1      -2.305   0.391   1.160  1.00  0.00     0.164 HD
ATOM     41  O   UNL     1      -3.670   1.674  -1.421  1.00  0.00    -0.269 OA
BRANCH  39  42
ATOM     42  C   UNL     1      -2.573   2.883   0.266  1.00  0.00     0.059 A 
ATOM     43  C   UNL     1      -1.696   2.933   1.347  1.00  0.00     0.128 A 
ATOM     44  C   UNL     1      -3.030   4.101  -0.253  1.00  0.00     0.040 A 
ATOM     45  N   UNL     1      -1.268   4.082   1.928  1.00  0.00    -0.226 NA
ATOM     46  C   UNL     1      -2.609   5.297   0.324  1.00  0.00     0.096 A 
ATOM     47  C   UNL     1      -1.738   5.240   1.405  1.00  0.00     0.231 A 
ATOM     48  Cl  UNL     1      -3.168   6.798  -0.306  1.00  0.00    -0.079 Cl
ATOM     49  F   UNL     1      -1.318   6.376   1.982  1.00  0.00    -0.183 F 
ENDBRANCH  39  42
ENDBRANCH  27  38
ENDBRANCH   1  27
TORSDOF 9
