REMARK SMILES COc1cc(F)c(O)c(C(=O)c2ccc(C(=O)N[C@@H]3CCCN(S(C)(=O)=O)C[C@H]3NC(=O)c3cnn(C)c3)cc2)c1
REMARK SMILES IDX 16 1 17 2 18 3 15 5 12 6 13 7 40 8 14 9 39 10 10 11 11 12
REMARK SMILES IDX 9 13 3 14 4 15 41 16 5 17 7 18 6 19 2 20 1 21 8 22 19 24
REMARK SMILES IDX 20 25 21 26 29 28 28 29 23 30 22 31 24 33 25 34 26 35 27 36
REMARK SMILES IDX 30 37 31 38 32 40 33 41 34 42 38 43 35 44 36 45 37 46
REMARK H PARENT 18 4 8 23 30 39
REMARK Flexibility Score:   72.900
ROOT
ATOM      1  C   UNL     1       0.657   0.080   1.232  1.00  0.00     0.251 C 
ATOM      2  O   UNL     1       0.854   0.630   2.310  1.00  0.00    -0.269 OA
ATOM      3  N   UNL     1      -0.497  -0.613   0.935  1.00  0.00    -0.347 N 
ATOM      4  H   UNL     1      -0.654  -0.956  -0.005  1.00  0.00     0.164 HD
ENDROOT
BRANCH   1   5
ATOM      5  C   UNL     1       1.682   0.163   0.158  1.00  0.00     0.039 A 
ATOM      6  C   UNL     1       3.697   0.366  -1.777  1.00  0.00     0.023 A 
ATOM      7  C   UNL     1       2.858  -0.755  -1.750  1.00  0.00     0.013 A 
ATOM      8  C   UNL     1       3.509   1.403  -0.855  1.00  0.00     0.013 A 
ATOM      9  C   UNL     1       1.858  -0.862  -0.780  1.00  0.00     0.014 A 
ATOM     10  C   UNL     1       2.512   1.292   0.118  1.00  0.00     0.014 A 
BRANCH   6  11
ATOM     11  C   UNL     1       4.747   0.432  -2.821  1.00  0.00     0.196 C 
ATOM     12  O   UNL     1       4.477   0.041  -3.955  1.00  0.00    -0.288 OA
BRANCH  11  13
ATOM     13  C   UNL     1       6.112   0.961  -2.555  1.00  0.00     0.071 A 
ATOM     14  C   UNL     1       7.950   1.435  -1.033  1.00  0.00     0.122 A 
ATOM     15  C   UNL     1       8.682   1.963  -2.098  1.00  0.00     0.089 A 
ATOM     16  C   UNL     1       6.671   0.922  -1.265  1.00  0.00     0.062 A 
ATOM     17  C   UNL     1       8.143   1.974  -3.379  1.00  0.00     0.169 A 
ATOM     18  C   UNL     1       6.869   1.468  -3.621  1.00  0.00     0.162 A 
ATOM     19  F   UNL     1       8.878   2.470  -4.385  1.00  0.00    -0.203 F 
BRANCH  14  20
ATOM     20  O   UNL     1       8.594   1.470   0.172  1.00  0.00    -0.497 OA
ATOM     21  C   UNL     1       7.890   0.978   1.307  1.00  0.00     0.278 C 
ENDBRANCH  14  20
BRANCH  18  22
ATOM     22  O   UNL     1       6.405   1.492  -4.912  1.00  0.00    -0.504 OA
ATOM     23  H   UNL     1       5.598   0.933  -4.959  1.00  0.00     0.293 HD
ENDBRANCH  18  22
ENDBRANCH  11  13
ENDBRANCH   6  11
ENDBRANCH   1   5
BRANCH   3  24
ATOM     24  C   UNL     1      -1.564  -0.803   1.927  1.00  0.00     0.106 C 
BRANCH  24  25
ATOM     25  C   UNL     1      -1.253  -2.024   2.809  1.00  0.00     0.028 C 
BRANCH  25  26
ATOM     26  C   UNL     1      -1.857  -3.346   2.335  1.00  0.00     0.019 CG0
ATOM     27  G   UNL     1      -3.294  -3.550   2.821  1.00  0.00     0.000 G0
ENDBRANCH  25  26
ENDBRANCH  24  25
BRANCH  24  28
ATOM     28  C   UNL     1      -2.941  -0.816   1.224  1.00  0.00     0.120 C 
BRANCH  28  29
ATOM     29  C   UNL     1      -4.078  -1.263   2.167  1.00  0.00     0.129 C 
BRANCH  29  30
ATOM     30  N   UNL     1      -4.282  -2.742   2.052  1.00  0.00    -0.200 NA
BRANCH  30  31
ATOM     31  C   UNL     1      -3.294  -3.550   2.821  1.00  0.00     0.102 CG0
ATOM     32  G   UNL     1      -1.857  -3.346   2.335  1.00  0.00     0.000 G0
ENDBRANCH  30  31
BRANCH  30  33
ATOM     33  S   UNL     1      -5.913  -3.232   2.286  1.00  0.00     0.211 S 
ATOM     34  C   UNL     1      -5.984  -4.713   1.298  1.00  0.00     0.176 C 
ATOM     35  O   UNL     1      -6.784  -2.259   1.665  1.00  0.00    -0.213 OA
ATOM     36  O   UNL     1      -6.062  -3.589   3.680  1.00  0.00    -0.213 OA
ENDBRANCH  30  33
ENDBRANCH  29  30
ENDBRANCH  28  29
BRANCH  28  37
ATOM     37  N   UNL     1      -3.207   0.508   0.642  1.00  0.00    -0.346 N 
ATOM     38  C   UNL     1      -3.970   0.652  -0.496  1.00  0.00     0.254 C 
ATOM     39  H   UNL     1      -3.003   1.323   1.204  1.00  0.00     0.164 HD
ATOM     40  O   UNL     1      -4.367  -0.309  -1.147  1.00  0.00    -0.269 OA
BRANCH  38  41
ATOM     41  C   UNL     1      -4.269   2.022  -0.874  1.00  0.00     0.077 A 
ATOM     42  C   UNL     1      -3.796   3.256  -0.371  1.00  0.00     0.149 A 
ATOM     43  C   UNL     1      -5.135   2.400  -1.885  1.00  0.00     0.122 A 
ATOM     44  N   UNL     1      -4.322   4.313  -0.997  1.00  0.00    -0.181 NA
ATOM     45  N   UNL     1      -5.137   3.761  -1.913  1.00  0.00    -0.275 N 
ATOM     46  C   UNL     1      -5.894   4.612  -2.798  1.00  0.00     0.173 C 
ENDBRANCH  38  41
ENDBRANCH  28  37
ENDBRANCH  24  28
ENDBRANCH   3  24
TORSDOF 9
