MODEL        6USER    Run = 6USERUSER    Estimated Free Energy of Binding    =  -7.23 kcal/mol  [=(1)+(2)+(3)-(4)]USERUSER    (1) Final Intermolecular Energy     = -12.30 kcal/molUSER        vdW + Hbond + desolv Energy     = -12.58 kcal/molUSER        Electrostatic Energy            =  -0.28 kcal/molUSER        Moving Ligand-Fixed Receptor    = -12.87 kcal/molUSER        Moving Ligand-Moving Receptor   =  +0.57 kcal/molUSER    (2) Final Total Internal Energy     =  -2.83 kcal/molUSER    (3) Torsional Free Energy           =  +5.07 kcal/molUSER    (4) Unbound System's Energy         =  -2.83 kcal/molUSERUSERREMARK SMILES COc1ccc(O)c(C(=O)c2ccc(C(=O)N[C@@H]3CCCN(C(=O)OC(C)(C)C)C[C@H]3NC(=O)c3cnn(C)c3)cc2)c1FREMARK SMILES IDX 18 1 17 3 15 4 16 5 14 7 11 8 12 9 42 10 13 11 41 12 9 13REMARK SMILES IDX 10 14 8 15 3 16 4 17 43 18 5 19 6 20 44 21 2 22 1 23 7 24REMARK SMILES IDX 31 26 30 27 22 28 21 29 20 30 19 31 23 33 24 34 25 35 26 36REMARK SMILES IDX 27 37 28 38 29 39 32 40 33 41 34 43 35 44 36 45 40 46 37 47REMARK SMILES IDX 38 48 39 49REMARK H PARENT 17 6 7 25 32 42REMARK Flexibility Score:  100.900USER                              x       y       z     vdW  Elec       q    TypeUSER                           _______ _______ _______ _____ _____    ______ ____ROOTATOM      1  C   UNL     1      40.508  45.494  26.298 -0.11 +0.00    +0.106 CG0ATOM      2  G   UNL     1      41.470  44.671  27.185 +0.00 +0.00    +0.000 G0 ENDROOTBRANCH   1   3ATOM      3  N   UNL     1      40.774  45.366  24.857 -0.00 -0.02    -0.347 N  ATOM      4  C   UNL     1      40.846  46.479  24.037 -0.11 +0.02    +0.251 C  ATOM      5  O   UNL     1      40.879  47.635  24.436 -0.16 -0.03    -0.269 OA ATOM      6  H   UNL     1      40.368  44.556  24.407 +0.07 +0.01    +0.164 HD BRANCH   4   7ATOM      7  C   UNL     1      40.835  46.202  22.574 -0.22 +0.00    +0.039 A  ATOM      8  C   UNL     1      40.743  45.637  19.834 -0.40 +0.00    +0.023 A  ATOM      9  C   UNL     1      39.608  45.434  20.626 -0.35 +0.00    +0.013 A  ATOM     10  C   UNL     1      41.910  46.161  20.404 -0.37 +0.00    +0.013 A  ATOM     11  C   UNL     1      39.656  45.716  21.994 -0.29 +0.00    +0.014 A  ATOM     12  C   UNL     1      41.960  46.440  21.774 -0.28 +0.00    +0.014 A  BRANCH   8  13ATOM     13  C   UNL     1      40.727  45.374  18.376 -0.38 -0.00    +0.199 C  ATOM     14  O   UNL     1      41.036  44.251  17.975 -0.18 -0.01    -0.288 OA BRANCH  13  15ATOM     15  C   UNL     1      40.398  46.410  17.373 -0.41 -0.01    +0.104 A  ATOM     16  C   UNL     1      40.827  48.555  16.292 -0.44 -0.02    +0.155 A  ATOM     17  C   UNL     1      39.732  48.345  15.451 -0.51 -0.02    +0.053 A  ATOM     18  C   UNL     1      41.146  47.584  17.252 -0.33 -0.02    +0.179 A  ATOM     19  C   UNL     1      38.957  47.189  15.582 -0.43 -0.02    +0.051 A  ATOM     20  C   UNL     1      39.282  46.238  16.546 -0.34 -0.03    +0.130 A  ATOM     21  F   UNL     1      42.175  47.817  18.085 -0.22 +0.01    -0.202 F  BRANCH  16  22ATOM     22  O   UNL     1      41.648  49.651  16.266 -0.85 -0.04    -0.494 OA ATOM     23  C   UNL     1      41.406  50.623  15.257 -0.36 -0.08    +0.278 C  ENDBRANCH  16  22BRANCH  20  24ATOM     24  O   UNL     1      38.452  45.152  16.631 -0.06 +0.12    -0.507 OA ATOM     25  H   UNL     1      38.943  44.431  17.087 +0.20 -0.04    +0.293 HD ENDBRANCH  20  24ENDBRANCH  13  15ENDBRANCH   8  13ENDBRANCH   4   7ENDBRANCH   1   3BRANCH   1  26ATOM     26  C   UNL     1      39.000  45.234  26.628 -0.17 -0.00    +0.124 C  BRANCH  26  27ATOM     27  C   UNL     1      38.770  44.098  27.646 -0.15 -0.01    +0.150 C  BRANCH  27  28ATOM     28  N   UNL     1      38.979  42.756  27.112 -0.11 +0.02    -0.306 N  BRANCH  28  29ATOM     29  C   UNL     1      40.217  42.540  26.377 -0.17 -0.01    +0.123 C  BRANCH  29  30ATOM     30  C   UNL     1      41.439  43.146  27.058 -0.14 -0.00    +0.024 C  BRANCH  30  31ATOM     31  C   UNL     1      41.473  44.671  27.189 -0.10 +0.00    +0.029 CG0ATOM     32  G   UNL     1      40.513  45.496  26.301 +0.00 +0.00    +0.000 G0 ENDBRANCH  30  31ENDBRANCH  29  30ENDBRANCH  28  29BRANCH  28  33ATOM     33  C   UNL     1      38.239  41.700  27.620 -0.21 -0.05    +0.410 C  ATOM     34  O   UNL     1      38.442  41.219  28.729 -0.17 +0.01    -0.224 OA BRANCH  33  35ATOM     35  O   UNL     1      37.317  41.244  26.737 -0.19 +0.09    -0.444 OA BRANCH  35  36ATOM     36  C   UNL     1      36.056  41.932  26.544 -0.49 -0.02    +0.106 C  ATOM     37  C   UNL     1      34.889  40.940  26.492 -0.50 -0.03    +0.056 C  ATOM     38  C   UNL     1      36.187  42.606  25.169 -0.32 -0.00    +0.056 C  ATOM     39  C   UNL     1      35.839  43.019  27.601 -0.51 -0.02    +0.056 C  ENDBRANCH  35  36ENDBRANCH  33  35ENDBRANCH  28  33ENDBRANCH  27  28ENDBRANCH  26  27BRANCH  26  40ATOM     40  N   UNL     1      38.294  46.446  27.043 -0.11 +0.03    -0.345 N  ATOM     41  C   UNL     1      37.294  47.016  26.294 -0.27 -0.02    +0.254 C  ATOM     42  H   UNL     1      38.522  46.842  27.951 -0.14 -0.03    +0.164 HD ATOM     43  O   UNL     1      36.926  46.547  25.221 -0.85 -0.05    -0.269 OA BRANCH  41  44ATOM     44  C   UNL     1      36.695  48.210  26.859 -0.34 -0.01    +0.077 A  ATOM     45  C   UNL     1      35.920  48.289  28.041 -0.27 -0.02    +0.149 A  ATOM     46  C   UNL     1      36.725  49.515  26.402 -0.32 +0.00    +0.122 A  ATOM     47  N   UNL     1      35.506  49.530  28.312 -0.19 +0.00    -0.181 NA ATOM     48  N   UNL     1      35.996  50.252  27.291 -0.15 -0.02    -0.275 N  ATOM     49  C   UNL     1      35.723  51.668  27.220 -0.18 +0.03    +0.173 C  ENDBRANCH  41  44ENDBRANCH  26  40ENDBRANCH   1  26TORSDOF 11TERENDMDL