MODEL        1USER    Run = 1USERUSER    Estimated Free Energy of Binding    =  -6.74 kcal/mol  [=(1)+(2)+(3)-(4)]USERUSER    (1) Final Intermolecular Energy     = -11.22 kcal/molUSER        vdW + Hbond + desolv Energy     = -11.46 kcal/molUSER        Electrostatic Energy            =  -0.05 kcal/molUSER        Moving Ligand-Fixed Receptor    = -11.50 kcal/molUSER        Moving Ligand-Moving Receptor   =  +0.29 kcal/molUSER    (2) Final Total Internal Energy     =  -3.07 kcal/molUSER    (3) Torsional Free Energy           =  +4.47 kcal/molUSER    (4) Unbound System's Energy         =  -3.07 kcal/molUSERUSERREMARK SMILES COc1cc(F)c(O)c(C(=O)c2ccc(C(=O)N[C@@H]3CCCN(S(C)(=O)=O)C[C@H]3NC(=O)c3cnn(C)c3)cc2)c1REMARK SMILES IDX 16 1 17 2 18 3 15 5 12 6 13 7 40 8 14 9 39 10 10 11 11 12REMARK SMILES IDX 9 13 3 14 4 15 41 16 5 17 7 18 6 19 2 20 1 21 8 22 19 24REMARK SMILES IDX 20 25 21 26 29 28 28 29 23 30 22 31 24 33 25 34 26 35 27 36REMARK SMILES IDX 30 37 31 38 32 40 33 41 34 42 38 43 35 44 36 45 37 46REMARK H PARENT 18 4 8 23 30 39REMARK Flexibility Score:   72.900USER                              x       y       z     vdW  Elec       q    TypeUSER                           _______ _______ _______ _____ _____    ______ ____ROOTATOM      1  C   UNL     1      40.379  46.263  18.295 -0.36 -0.02    +0.251 C  ATOM      2  O   UNL     1      40.274  47.485  18.298 -0.26 +0.04    -0.269 OA ATOM      3  N   UNL     1      39.914  45.466  17.272 -0.12 +0.04    -0.347 N  ATOM      4  H   UNL     1      40.121  44.474  17.269 +0.16 -0.01    +0.164 HD ENDROOTBRANCH   1   5ATOM      5  C   UNL     1      41.056  45.574  19.425 -0.41 +0.00    +0.039 A  ATOM      6  C   UNL     1      42.312  44.381  21.627 -0.27 +0.00    +0.023 A  ATOM      7  C   UNL     1      41.452  43.630  20.815 -0.25 +0.00    +0.013 A  ATOM      8  C   UNL     1      42.569  45.723  21.320 -0.28 +0.00    +0.013 A  ATOM      9  C   UNL     1      40.819  44.226  19.721 -0.31 +0.00    +0.014 A  ATOM     10  C   UNL     1      41.930  46.319  20.229 -0.39 +0.00    +0.014 A  BRANCH   6  11ATOM     11  C   UNL     1      42.956  43.707  22.779 -0.21 +0.02    +0.196 C  ATOM     12  O   UNL     1      44.159  43.461  22.720 -0.18 -0.05    -0.288 OA BRANCH  11  13ATOM     13  C   UNL     1      42.208  43.325  24.007 -0.16 -0.00    +0.071 A  ATOM     14  C   UNL     1      40.144  42.700  25.132 -0.10 +0.00    +0.122 A  ATOM     15  C   UNL     1      40.841  42.607  26.338 -0.13 -0.01    +0.089 A  ATOM     16  C   UNL     1      40.831  43.046  23.965 -0.18 +0.00    +0.062 A  ATOM     17  C   UNL     1      42.208  42.853  26.375 -0.08 -0.01    +0.169 A  ATOM     18  C   UNL     1      42.902  43.200  25.219 -0.08 -0.01    +0.162 A  ATOM     19  F   UNL     1      42.854  42.736  27.544 -0.00 +0.01    -0.203 F  BRANCH  14  20ATOM     20  O   UNL     1      38.808  42.423  25.224 -0.04 -0.02    -0.497 OA ATOM     21  C   UNL     1      38.222  42.446  26.521 -0.19 -0.02    +0.278 C  ENDBRANCH  14  20BRANCH  18  22ATOM     22  O   UNL     1      44.254  43.410  25.323 +0.01 +0.00    -0.504 OA ATOM     23  H   UNL     1      44.665  43.203  24.454 +0.07 +0.01    +0.293 HD ENDBRANCH  18  22ENDBRANCH  11  13ENDBRANCH   6  11ENDBRANCH   1   5BRANCH   3  24ATOM     24  C   UNL     1      39.188  46.024  16.122 -0.36 -0.02    +0.106 C  BRANCH  24  25ATOM     25  C   UNL     1      40.080  47.028  15.373 -0.53 -0.00    +0.028 C  BRANCH  25  26ATOM     26  C   UNL     1      39.382  47.832  14.275 -0.49 -0.00    +0.019 CG0ATOM     27  G   UNL     1      38.039  48.411  14.727 +0.00 +0.00    +0.000 G0 ENDBRANCH  25  26ENDBRANCH  24  25BRANCH  24  28ATOM     28  C   UNL     1      37.811  46.558  16.578 -0.36 -0.05    +0.120 C  BRANCH  28  29ATOM     29  C   UNL     1      36.732  46.411  15.484 -0.35 -0.08    +0.129 C  BRANCH  29  30ATOM     30  N   UNL     1      36.896  47.492  14.460 -0.31 +0.13    -0.200 NA BRANCH  30  31ATOM     31  C   UNL     1      38.039  48.410  14.728 -0.53 -0.06    +0.102 CG0ATOM     32  G   UNL     1      39.382  47.830  14.279 +0.00 +0.00    +0.000 G0 ENDBRANCH  30  31BRANCH  30  33ATOM     33  S   UNL     1      36.828  46.922  12.840 -0.68 -0.09    +0.211 S  ATOM     34  C   UNL     1      37.128  45.180  13.065 -0.41 -0.06    +0.176 C  ATOM     35  O   UNL     1      37.954  47.461  12.111 -0.86 +0.00    -0.213 OA ATOM     36  O   UNL     1      35.473  47.109  12.371 -0.54 +0.14    -0.213 OA ENDBRANCH  30  33ENDBRANCH  29  30ENDBRANCH  28  29BRANCH  28  37ATOM     37  N   UNL     1      37.413  45.889  17.826 -0.14 +0.11    -0.346 N  ATOM     38  C   UNL     1      37.098  44.549  17.853 -0.23 -0.06    +0.254 C  ATOM     39  H   UNL     1      37.580  46.373  18.697 +0.10 -0.03    +0.164 HD ATOM     40  O   UNL     1      37.017  43.872  16.833 -0.23 +0.08    -0.269 OA BRANCH  38  41ATOM     41  C   UNL     1      36.864  43.992  19.174 -0.30 -0.01    +0.077 A  ATOM     42  C   UNL     1      35.921  43.046  19.637 -0.31 -0.01    +0.149 A  ATOM     43  C   UNL     1      37.588  44.305  20.311 -0.29 -0.00    +0.122 A  ATOM     44  N   UNL     1      36.031  42.793  20.945 -0.34 -0.01    -0.181 NA ATOM     45  N   UNL     1      37.053  43.578  21.330 -0.24 -0.01    -0.275 N  ATOM     46  C   UNL     1      37.473  43.574  22.710 -0.32 +0.01    +0.173 C  ENDBRANCH  38  41ENDBRANCH  28  37ENDBRANCH  24  28ENDBRANCH   3  24TORSDOF 9TERENDMDL