MODEL        2USER    Run = 2USERUSER    Estimated Free Energy of Binding    =  -6.59 kcal/mol  [=(1)+(2)+(3)-(4)]USERUSER    (1) Final Intermolecular Energy     = -10.77 kcal/molUSER        vdW + Hbond + desolv Energy     = -10.93 kcal/molUSER        Electrostatic Energy            =  -0.30 kcal/molUSER        Moving Ligand-Fixed Receptor    = -11.22 kcal/molUSER        Moving Ligand-Moving Receptor   =  +0.46 kcal/molUSER    (2) Final Total Internal Energy     =  -2.60 kcal/molUSER    (3) Torsional Free Energy           =  +4.18 kcal/molUSER    (4) Unbound System's Energy         =  -2.60 kcal/molUSERUSERREMARK SMILES COc1ccc(O)c(C(=O)c2ccc(C(=O)N[C@@H]3CCCNC[C@H]3NC(=O)c3cnc(F)c(F)c3)cc2)c1FREMARK SMILES IDX 15 1 16 2 17 3 14 5 11 6 12 7 37 8 13 9 36 10 9 11 10 12REMARK SMILES IDX 8 13 3 14 4 15 38 16 5 17 6 18 39 19 2 20 1 21 7 22 18 24REMARK SMILES IDX 19 25 24 27 23 28 22 29 21 31 20 32 25 34 26 35 27 37 28 38REMARK SMILES IDX 29 39 35 40 30 41 33 42 31 43 34 44 32 45REMARK H PARENT 17 4 7 23 22 30 25 36REMARK Flexibility Score:   88.900USER                              x       y       z     vdW  Elec       q    TypeUSER                           _______ _______ _______ _____ _____    ______ ____ROOTATOM      1  C   UNL     1      39.805  43.615  24.867 -0.10 +0.00    +0.251 C  ATOM      2  O   UNL     1      40.437  42.732  25.433 -0.14 +0.00    -0.269 OA ATOM      3  N   UNL     1      38.548  44.022  25.250 -0.04 -0.00    -0.347 N  ATOM      4  H   UNL     1      38.044  44.701  24.693 +0.08 +0.01    +0.164 HD ENDROOTBRANCH   1   5ATOM      5  C   UNL     1      40.390  44.313  23.690 -0.15 +0.00    +0.039 A  ATOM      6  C   UNL     1      41.540  45.542  21.451 -0.28 +0.00    +0.023 A  ATOM      7  C   UNL     1      40.598  46.232  22.223 -0.22 +0.00    +0.013 A  ATOM      8  C   UNL     1      41.939  44.252  21.821 -0.29 +0.00    +0.013 A  ATOM      9  C   UNL     1      40.021  45.620  23.339 -0.22 +0.00    +0.014 A  ATOM     10  C   UNL     1      41.364  43.642  22.939 -0.24 +0.00    +0.014 A  BRANCH   6  11ATOM     11  C   UNL     1      42.141  46.234  20.286 -0.32 +0.04    +0.199 C  ATOM     12  O   UNL     1      43.345  46.489  20.300 -0.19 -0.15    -0.288 OA BRANCH  11  13ATOM     13  C   UNL     1      41.367  46.589  19.078 -0.41 +0.00    +0.104 A  ATOM     14  C   UNL     1      39.495  46.228  17.560 -0.34 -0.03    +0.155 A  ATOM     15  C   UNL     1      39.949  47.276  16.758 -0.46 -0.01    +0.053 A  ATOM     16  C   UNL     1      40.209  45.897  18.720 -0.34 -0.01    +0.179 A  ATOM     17  C   UNL     1      41.090  47.996  17.125 -0.48 -0.01    +0.051 A  ATOM     18  C   UNL     1      41.782  47.665  18.287 -0.40 -0.00    +0.130 A  ATOM     19  F   UNL     1      39.747  44.908  19.502 -0.10 +0.00    -0.202 F  BRANCH  14  20ATOM     20  O   UNL     1      38.380  45.468  17.319 -0.10 +0.12    -0.494 OA ATOM     21  C   UNL     1      37.999  45.285  15.961 -0.20 -0.09    +0.278 C  ENDBRANCH  14  20BRANCH  18  22ATOM     22  O   UNL     1      42.869  48.439  18.595 -0.16 -0.00    -0.507 OA ATOM     23  H   UNL     1      42.947  48.476  19.575 -0.37 -0.05    +0.293 HD ENDBRANCH  18  22ENDBRANCH  11  13ENDBRANCH   6  11ENDBRANCH   1   5BRANCH   3  24ATOM     24  C   UNL     1      37.808  43.405  26.369 -0.26 -0.01    +0.106 C  BRANCH  24  25ATOM     25  C   UNL     1      37.794  41.887  26.128 -0.39 -0.00    +0.028 CG0ATOM     26  G   UNL     1      37.333  41.022  27.298 +0.00 +0.00    +0.000 G0 ENDBRANCH  24  25BRANCH  24  27ATOM     27  C   UNL     1      36.376  44.001  26.439 -0.37 -0.01    +0.118 C  BRANCH  27  28ATOM     28  C   UNL     1      35.374  43.113  27.216 -0.52 -0.02    +0.108 C  BRANCH  28  29ATOM     29  N   UNL     1      35.080  41.775  26.705 -0.30 +0.09    -0.315 NA ATOM     30  H   UNL     1      35.259  41.770  25.700 +0.06 -0.02    +0.122 HD BRANCH  29  31ATOM     31  C   UNL     1      35.839  40.707  27.337 -0.58 -0.03    +0.081 C  BRANCH  31  32ATOM     32  C   UNL     1      37.331  41.022  27.298 -0.54 -0.00    +0.017 CG0ATOM     33  G   UNL     1      37.789  41.883  26.125 +0.00 +0.00    +0.000 G0 ENDBRANCH  31  32ENDBRANCH  29  31ENDBRANCH  28  29ENDBRANCH  27  28BRANCH  27  34ATOM     34  N   UNL     1      36.409  45.347  27.042 -0.05 +0.09    -0.346 N  ATOM     35  C   UNL     1      36.903  46.437  26.364 -0.16 -0.03    +0.253 C  ATOM     36  H   UNL     1      35.839  45.463  27.870 -0.13 -0.05    +0.164 HD ATOM     37  O   UNL     1      37.396  46.361  25.245 -0.81 -0.04    -0.269 OA BRANCH  35  38ATOM     38  C   UNL     1      36.813  47.753  27.042 -0.32 -0.01    +0.061 A  ATOM     39  C   UNL     1      37.364  48.865  26.403 -0.29 +0.00    +0.128 A  ATOM     40  C   UNL     1      36.232  47.939  28.298 -0.30 -0.01    +0.059 A  ATOM     41  N   UNL     1      37.355  50.123  26.917 -0.13 -0.03    -0.225 NA ATOM     42  C   UNL     1      36.213  49.219  28.841 -0.18 -0.01    +0.178 A  ATOM     43  C   UNL     1      36.774  50.269  28.129 -0.12 +0.03    +0.248 A  ATOM     44  F   UNL     1      35.662  49.418  30.045 -0.05 +0.01    -0.202 F  ATOM     45  F   UNL     1      36.750  51.501  28.659 -0.03 -0.05    -0.182 F  ENDBRANCH  35  38ENDBRANCH  27  34ENDBRANCH  24  27ENDBRANCH   3  24TORSDOF 8TERENDMDL