MODEL        1USER    Run = 1USERUSER    Estimated Free Energy of Binding    = -10.40 kcal/mol  [=(1)+(2)+(3)-(4)]USERUSER    (1) Final Intermolecular Energy     = -12.79 kcal/molUSER        vdW + Hbond + desolv Energy     = -12.43 kcal/molUSER        Electrostatic Energy            =  -0.36 kcal/molUSER        Moving Ligand-Fixed Receptor    = -12.79 kcal/molUSER        Moving Ligand-Moving Receptor   =  +0.00 kcal/molUSER    (2) Final Total Internal Energy     =  -1.41 kcal/molUSER    (3) Torsional Free Energy           =  +2.39 kcal/molUSER    (4) Unbound System's Energy         =  -1.41 kcal/molUSERUSERREMARK SMILES C#CC[C@@H]1CCCN1c1nc(N)ncc1-c1ccc(C(=O)c2ccc(O)c(F)c2)cc1FREMARK SMILES IDX 9 1 10 2 11 3 13 4 14 5 15 6 8 7 4 8 5 9 6 10 7 11 3 12 2 13REMARK SMILES IDX 1 14 16 15 17 16 31 17 18 18 30 19 19 20 32 21 20 22 21 23REMARK SMILES IDX 22 24 23 25 29 26 24 27 27 28 25 29 28 30 26 31 12 33REMARK H PARENT 26 32 12 34 12 35USER                              x       y       z     vdW  Elec       q    TypeUSER                           _______ _______ _______ _____ _____    ______ ____ROOTATOM      1  C   UNL     1      40.050  47.043  17.172 -0.39 -0.03    +0.142 A  ATOM      2  N   UNL     1      41.242  47.577  17.538 -0.42 +0.02    -0.195 NA ATOM      3  C   UNL     1      42.017  46.944  18.418 -0.32 -0.00    +0.221 A  ATOM      4  N   UNL     1      41.734  45.772  18.968 -0.29 -0.02    -0.221 NA ATOM      5  C   UNL     1      40.540  45.257  18.629 -0.37 -0.00    +0.127 A  ATOM      6  C   UNL     1      39.638  45.832  17.739 -0.41 -0.01    +0.046 A  ENDROOTBRANCH   1   7ATOM      7  N   UNL     1      39.317  47.790  16.262 -0.21 +0.13    -0.352 N  ATOM      8  C   UNL     1      39.977  48.201  14.995 -0.55 -0.03    +0.095 C  ATOM      9  C   UNL     1      38.823  48.236  13.975 -0.49 -0.01    +0.028 C  ATOM     10  C   UNL     1      37.596  48.512  14.824 -0.59 -0.02    +0.024 C  ATOM     11  C   UNL     1      37.870  47.702  16.086 -0.33 -0.08    +0.118 C  BRANCH   8  12ATOM     12  C   UNL     1      40.669  49.565  15.176 -0.58 -0.04    +0.114 C  BRANCH  12  13ATOM     13  C   UNL     1      41.712  49.801  14.160 -0.66 +0.02    -0.105 C  ATOM     14  C   UNL     1      42.549  50.008  13.324 -0.78 -0.00    +0.004 C  ENDBRANCH  12  13ENDBRANCH   8  12ENDBRANCH   1   7BRANCH   6  15ATOM     15  C   UNL     1      38.363  45.146  17.522 -0.36 -0.00    +0.023 A  ATOM     16  C   UNL     1      37.970  44.746  16.232 -0.24 -0.00    +0.013 A  ATOM     17  C   UNL     1      37.523  44.820  18.599 -0.27 -0.02    +0.131 A  ATOM     18  C   UNL     1      36.760  44.073  16.028 -0.36 -0.00    +0.013 A  ATOM     19  C   UNL     1      36.318  44.151  18.408 -0.30 -0.01    +0.052 A  ATOM     20  C   UNL     1      35.922  43.795  17.115 -0.32 -0.01    +0.025 A  ATOM     21  F   UNL     1      37.878  45.152  19.849 -0.07 +0.01    -0.206 F  BRANCH  20  22ATOM     22  C   UNL     1      34.632  43.082  16.945 -0.31 -0.07    +0.193 C  ATOM     23  O   UNL     1      34.522  41.943  17.392 -0.33 +0.12    -0.289 OA BRANCH  22  24ATOM     24  C   UNL     1      33.473  43.707  16.257 -0.32 -0.01    +0.026 A  ATOM     25  C   UNL     1      33.645  44.973  15.674 -0.31 -0.01    +0.016 A  ATOM     26  C   UNL     1      32.247  43.047  16.137 -0.27 -0.03    +0.055 A  ATOM     27  C   UNL     1      32.588  45.591  14.999 -0.30 -0.04    +0.050 A  ATOM     28  C   UNL     1      31.199  43.672  15.466 -0.25 -0.09    +0.165 A  ATOM     29  C   UNL     1      31.363  44.937  14.902 -0.31 -0.09    +0.151 A  ATOM     30  F   UNL     1      30.024  43.033  15.369 -0.06 +0.14    -0.203 F  BRANCH  29  31ATOM     31  O   UNL     1      30.310  45.514  14.252 -0.15 +0.40    -0.505 OA ATOM     32  H   UNL     1      29.813  44.830  13.770 -0.34 -0.51    +0.293 HD ENDBRANCH  29  31ENDBRANCH  22  24ENDBRANCH  20  22ENDBRANCH   6  15BRANCH   3  33ATOM     33  N   UNL     1      43.227  47.524  18.737 -0.31 -0.05    -0.368 N  ATOM     34  H   UNL     1      43.076  48.448  19.114 -0.41 -0.01    +0.159 HD ATOM     35  H   UNL     1      43.869  47.430  17.963 -0.44 +0.01    +0.159 HD ENDBRANCH   3  33TORSDOF 8TERENDMDL