REMARK SMILES C#CC[C@@H]1CCCN1c1nc(N)ncc1-c1ccc(C(=O)c2ccc(O)c(F)c2)cc1F
REMARK SMILES IDX 9 1 10 2 11 3 13 4 14 5 15 6 8 7 4 8 5 9 6 10 7 11 3 12 2 13
REMARK SMILES IDX 1 14 16 15 17 16 31 17 18 18 30 19 19 20 32 21 20 22 21 23
REMARK SMILES IDX 22 24 23 25 29 26 24 27 27 28 25 29 28 30 26 31 12 33
REMARK H PARENT 26 32 12 34 12 35
ROOT
ATOM      1  C   UNL     1      -2.558  -0.974   0.319  1.00  0.00     0.142 A 
ATOM      2  N   UNL     1      -3.811  -1.348   0.680  1.00  0.00    -0.195 NA
ATOM      3  C   UNL     1      -4.050  -2.602   1.065  1.00  0.00     0.221 A 
ATOM      4  N   UNL     1      -3.130  -3.550   1.164  1.00  0.00    -0.221 NA
ATOM      5  C   UNL     1      -1.895  -3.188   0.778  1.00  0.00     0.127 A 
ATOM      6  C   UNL     1      -1.527  -1.919   0.340  1.00  0.00     0.046 A 
ENDROOT
BRANCH   1   7
ATOM      7  N   UNL     1      -2.423   0.348  -0.077  1.00  0.00    -0.352 N 
ATOM      8  C   UNL     1      -3.609   1.238   0.023  1.00  0.00     0.095 C 
ATOM      9  C   UNL     1      -3.004   2.625   0.313  1.00  0.00     0.028 C 
ATOM     10  C   UNL     1      -1.617   2.551  -0.297  1.00  0.00     0.024 C 
ATOM     11  C   UNL     1      -1.187   1.122   0.013  1.00  0.00     0.118 C 
BRANCH   8  12
ATOM     12  C   UNL     1      -4.418   1.191  -1.287  1.00  0.00     0.114 C 
BRANCH  12  13
ATOM     13  C   UNL     1      -5.672   1.963  -1.197  1.00  0.00    -0.105 C 
ATOM     14  C   UNL     1      -6.702   2.578  -1.135  1.00  0.00     0.004 C 
ENDBRANCH  12  13
ENDBRANCH   8  12
ENDBRANCH   1   7
BRANCH   6  15
ATOM     15  C   UNL     1      -0.139  -1.719  -0.081  1.00  0.00     0.023 A 
ATOM     16  C   UNL     1       0.877  -1.501   0.867  1.00  0.00     0.013 A 
ATOM     17  C   UNL     1       0.225  -1.794  -1.435  1.00  0.00     0.131 A 
ATOM     18  C   UNL     1       2.206  -1.329   0.465  1.00  0.00     0.013 A 
ATOM     19  C   UNL     1       1.544  -1.624  -1.846  1.00  0.00     0.052 A 
ATOM     20  C   UNL     1       2.537  -1.368  -0.896  1.00  0.00     0.025 A 
ATOM     21  F   UNL     1      -0.708  -2.036  -2.367  1.00  0.00    -0.206 F 
BRANCH  20  22
ATOM     22  C   UNL     1       3.933  -1.194  -1.366  1.00  0.00     0.193 C 
ATOM     23  O   UNL     1       4.327  -1.866  -2.315  1.00  0.00    -0.289 OA
BRANCH  22  24
ATOM     24  C   UNL     1       4.863  -0.228  -0.726  1.00  0.00     0.026 A 
ATOM     25  C   UNL     1       6.238  -0.514  -0.740  1.00  0.00     0.016 A 
ATOM     26  C   UNL     1       4.408   0.967  -0.162  1.00  0.00     0.055 A 
ATOM     27  C   UNL     1       7.153   0.375  -0.167  1.00  0.00     0.050 A 
ATOM     28  C   UNL     1       5.326   1.845   0.409  1.00  0.00     0.165 A 
ATOM     29  C   UNL     1       6.690   1.553   0.411  1.00  0.00     0.151 A 
ATOM     30  F   UNL     1       4.874   2.982   0.957  1.00  0.00    -0.203 F 
BRANCH  29  31
ATOM     31  O   UNL     1       7.556   2.442   0.981  1.00  0.00    -0.505 OA
ATOM     32  H   UNL     1       8.469   2.130   0.856  1.00  0.00     0.293 HD
ENDBRANCH  29  31
ENDBRANCH  22  24
ENDBRANCH  20  22
ENDBRANCH   6  15
BRANCH   3  33
ATOM     33  N   UNL     1      -5.339  -2.920   1.440  1.00  0.00    -0.368 N 
ATOM     34  H   UNL     1      -5.832  -2.084   1.716  1.00  0.00     0.159 HD
ATOM     35  H   UNL     1      -5.328  -3.696   2.086  1.00  0.00     0.159 HD
ENDBRANCH   3  33
TORSDOF 8
