REMARK SMILES Oc1nc2ccccc2n1C1CCN(Cc2ccc(-c3cnc4ccccc4n3)cc2)CC1
REMARK SMILES IDX 11 1 12 2 13 3 14 4 32 5 33 6 10 7 2 8 3 9 4 10 9 11 5 12
REMARK SMILES IDX 8 13 6 14 7 15 1 16 15 18 16 19 17 20 31 21 18 22 30 23
REMARK SMILES IDX 19 24 20 25 21 26 29 27 22 28 28 29 23 30 27 31 24 32 26 33
REMARK SMILES IDX 25 34
REMARK H PARENT 1 17
ROOT
ATOM      1  C   UNL     1      -3.506   0.519  -0.129  1.00  0.00     0.095 C 
ATOM      2  C   UNL     1      -2.687  -0.420   0.760  1.00  0.00     0.041 C 
ATOM      3  C   UNL     1      -1.322  -0.720   0.131  1.00  0.00     0.087 C 
ATOM      4  N   UNL     1      -1.334  -0.730  -1.342  1.00  0.00    -0.299 NA
ATOM      5  C   UNL     1      -2.636  -1.120  -1.880  1.00  0.00     0.087 C 
ATOM      6  C   UNL     1      -3.672  -0.042  -1.552  1.00  0.00     0.041 C 
ENDROOT
BRANCH   1   7
ATOM      7  N   UNL     1      -4.772   0.903   0.479  1.00  0.00    -0.291 N 
ATOM      8  C   UNL     1      -5.113   2.175   0.851  1.00  0.00     0.295 A 
ATOM      9  N   UNL     1      -6.299   2.260   1.386  1.00  0.00    -0.195 NA
ATOM     10  C   UNL     1      -6.773   0.972   1.365  1.00  0.00     0.092 A 
ATOM     11  C   UNL     1      -5.843   0.094   0.803  1.00  0.00     0.072 A 
ATOM     12  C   UNL     1      -8.007   0.478   1.815  1.00  0.00     0.031 A 
ATOM     13  C   UNL     1      -6.101  -1.277   0.664  1.00  0.00     0.029 A 
ATOM     14  C   UNL     1      -8.277  -0.889   1.687  1.00  0.00     0.002 A 
ATOM     15  C   UNL     1      -7.337  -1.749   1.120  1.00  0.00     0.002 A 
BRANCH   8  16
ATOM     16  O   UNL     1      -4.343   3.234   0.702  1.00  0.00    -0.480 OA
ATOM     17  H   UNL     1      -4.912   3.936   1.068  1.00  0.00     0.296 HD
ENDBRANCH   8  16
ENDBRANCH   1   7
BRANCH   4  18
ATOM     18  C   UNL     1      -0.251  -1.560  -1.896  1.00  0.00     0.120 C 
BRANCH  18  19
ATOM     19  C   UNL     1       1.132  -1.033  -1.574  1.00  0.00    -0.034 A 
ATOM     20  C   UNL     1       1.508   0.261  -1.950  1.00  0.00     0.006 A 
ATOM     21  C   UNL     1       2.064  -1.832  -0.905  1.00  0.00     0.006 A 
ATOM     22  C   UNL     1       2.788   0.749  -1.660  1.00  0.00     0.011 A 
ATOM     23  C   UNL     1       3.343  -1.341  -0.618  1.00  0.00     0.011 A 
ATOM     24  C   UNL     1       3.739  -0.043  -0.992  1.00  0.00     0.002 A 
BRANCH  24  25
ATOM     25  C   UNL     1       5.096   0.448  -0.680  1.00  0.00     0.089 A 
ATOM     26  C   UNL     1       5.765   1.406  -1.434  1.00  0.00     0.140 A 
ATOM     27  N   UNL     1       5.701  -0.099   0.406  1.00  0.00    -0.245 NA
ATOM     28  N   UNL     1       7.010   1.856  -1.142  1.00  0.00    -0.252 NA
ATOM     29  C   UNL     1       6.939   0.334   0.718  1.00  0.00     0.089 A 
ATOM     30  C   UNL     1       7.597   1.317  -0.059  1.00  0.00     0.089 A 
ATOM     31  C   UNL     1       7.590  -0.193   1.827  1.00  0.00     0.030 A 
ATOM     32  C   UNL     1       8.873   1.728   0.308  1.00  0.00     0.030 A 
ATOM     33  C   UNL     1       8.871   0.227   2.188  1.00  0.00     0.002 A 
ATOM     34  C   UNL     1       9.515   1.192   1.425  1.00  0.00     0.002 A 
ENDBRANCH  24  25
ENDBRANCH  18  19
ENDBRANCH   4  18
TORSDOF 5
