MODEL        9USER    Run = 9USERUSER    Estimated Free Energy of Binding    = -10.38 kcal/mol  [=(1)+(2)+(3)-(4)]USERUSER    (1) Final Intermolecular Energy     = -11.87 kcal/molUSER        vdW + Hbond + desolv Energy     = -11.85 kcal/molUSER        Electrostatic Energy            =  -0.02 kcal/molUSER        Moving Ligand-Fixed Receptor    = -11.87 kcal/molUSER        Moving Ligand-Moving Receptor   =  +0.00 kcal/molUSER    (2) Final Total Internal Energy     =  -0.79 kcal/molUSER    (3) Torsional Free Energy           =  +1.49 kcal/molUSER    (4) Unbound System's Energy         =  -0.79 kcal/molUSERUSERREMARK SMILES Oc1nc2ccccc2n1C1CCN(Cc2ccc(-c3cnc4ccccc4n3)cc2)CC1REMARK SMILES IDX 11 1 12 2 13 3 14 4 32 5 33 6 10 7 2 8 3 9 4 10 9 11 5 12REMARK SMILES IDX 8 13 6 14 7 15 1 16 15 18 16 19 17 20 31 21 18 22 30 23REMARK SMILES IDX 19 24 20 25 21 26 29 27 22 28 28 29 23 30 27 31 24 32 26 33REMARK SMILES IDX 25 34REMARK H PARENT 1 17USER                              x       y       z     vdW  Elec       q    TypeUSER                           _______ _______ _______ _____ _____    ______ ____ROOTATOM      1  C   UNL     1      38.261  45.338  24.693 -0.26 +0.01    +0.095 C  ATOM      2  C   UNL     1      39.723  44.935  24.895 -0.15 +0.00    +0.041 C  ATOM      3  C   UNL     1      40.568  45.298  23.669 -0.16 +0.00    +0.087 C  ATOM      4  N   UNL     1      39.830  45.231  22.396 -0.11 -0.02    -0.299 NA ATOM      5  C   UNL     1      38.748  44.249  22.437 -0.30 +0.00    +0.087 C  ATOM      6  C   UNL     1      37.668  44.715  23.417 -0.34 +0.00    +0.041 C  ENDROOTBRANCH   1   7ATOM      7  N   UNL     1      37.444  45.095  25.873 -0.16 +0.01    -0.291 N  ATOM      8  C   UNL     1      37.267  45.978  26.904 -0.18 -0.04    +0.295 A  ATOM      9  N   UNL     1      36.499  45.522  27.854 -0.29 +0.05    -0.195 NA ATOM     10  C   UNL     1      36.144  44.266  27.428 -0.38 -0.02    +0.092 A  ATOM     11  C   UNL     1      36.718  43.964  26.190 -0.32 -0.01    +0.072 A  ATOM     12  C   UNL     1      35.323  43.319  28.059 -0.47 -0.01    +0.031 A  ATOM     13  C   UNL     1      36.496  42.740  25.544 -0.38 -0.00    +0.029 A  ATOM     14  C   UNL     1      35.096  42.091  27.428 -0.61 -0.00    +0.002 A  ATOM     15  C   UNL     1      35.674  41.810  26.191 -0.48 -0.00    +0.002 A  BRANCH   8  16ATOM     16  O   UNL     1      37.807  47.179  26.966 -0.10 +0.04    -0.480 OA ATOM     17  H   UNL     1      38.020  47.242  27.915 -0.05 -0.07    +0.296 HD ENDBRANCH   8  16ENDBRANCH   1   7BRANCH   4  18ATOM     18  C   UNL     1      40.726  44.997  21.251 -0.29 +0.01    +0.120 C  BRANCH  18  19ATOM     19  C   UNL     1      40.129  45.422  19.926 -0.38 -0.00    -0.034 A  ATOM     20  C   UNL     1      38.868  44.962  19.531 -0.38 -0.00    +0.006 A  ATOM     21  C   UNL     1      40.830  46.274  19.066 -0.46 -0.00    +0.006 A  ATOM     22  C   UNL     1      38.316  45.348  18.303 -0.38 -0.00    +0.011 A  ATOM     23  C   UNL     1      40.275  46.656  17.839 -0.48 -0.00    +0.011 A  ATOM     24  C   UNL     1      39.009  46.200  17.425 -0.42 -0.00    +0.002 A  BRANCH  24  25ATOM     25  C   UNL     1      38.449  46.616  16.124 -0.35 -0.03    +0.089 A  ATOM     26  C   UNL     1      38.328  47.942  15.722 -0.36 -0.08    +0.140 A  ATOM     27  N   UNL     1      38.027  45.621  15.302 -0.20 +0.08    -0.245 NA ATOM     28  N   UNL     1      37.816  48.320  14.525 -0.35 +0.15    -0.252 NA ATOM     29  C   UNL     1      37.516  45.971  14.105 -0.36 -0.03    +0.089 A  ATOM     30  C   UNL     1      37.410  47.327  13.713 -0.46 -0.04    +0.089 A  ATOM     31  C   UNL     1      37.081  44.983  13.230 -0.43 -0.01    +0.030 A  ATOM     32  C   UNL     1      36.876  47.632  12.467 -0.58 -0.01    +0.030 A  ATOM     33  C   UNL     1      36.547  45.300  11.980 -0.57 -0.00    +0.002 A  ATOM     34  C   UNL     1      36.444  46.630  11.597 -0.63 -0.00    +0.002 A  ENDBRANCH  24  25ENDBRANCH  18  19ENDBRANCH   4  18TORSDOF 5TERENDMDL