MODEL        7USER    Run = 7USERUSER    Estimated Free Energy of Binding    =  -9.09 kcal/mol  [=(1)+(2)+(3)-(4)]USERUSER    (1) Final Intermolecular Energy     = -10.88 kcal/molUSER        vdW + Hbond + desolv Energy     = -10.73 kcal/molUSER        Electrostatic Energy            =  -0.16 kcal/molUSER        Moving Ligand-Fixed Receptor    = -10.88 kcal/molUSER        Moving Ligand-Moving Receptor   =  +0.00 kcal/molUSER    (2) Final Total Internal Energy     =  -1.03 kcal/molUSER    (3) Torsional Free Energy           =  +1.79 kcal/molUSER    (4) Unbound System's Energy         =  -1.03 kcal/molUSERUSERREMARK SMILES CN1CCN(c2nc3ccccc3nc2NC2=CC(=CS(N)(=O)=O)[C@H]2F)CC1REMARK SMILES IDX 17 1 18 2 19 3 25 4 26 5 16 6 15 8 6 9 7 10 8 11 14 12 9 13REMARK SMILES IDX 13 14 10 15 12 16 11 17 5 18 2 19 3 20 28 21 4 22 27 23 1 24REMARK SMILES IDX 20 25 21 26 23 27 24 28 22 29REMARK H PARENT 16 7 22 30 22 31USER                              x       y       z     vdW  Elec       q    TypeUSER                           _______ _______ _______ _____ _____    ______ ____ROOTATOM      1  C   UNL     1      40.419  45.863  18.745 -0.49 -0.00    +0.056 C  ATOM      2  C   UNL     1      41.450  46.603  19.243 -0.50 +0.00    +0.033 C  ATOM      3  C   UNL     1      41.648  45.747  20.373 -0.42 +0.00    +0.006 C  ATOM      4  C   UNL     1      40.565  44.805  19.887 -0.29 +0.01    +0.244 C  ATOM      5  F   UNL     1      39.517  44.604  20.734 -0.05 -0.00    -0.235 F  ENDROOTBRANCH   1   6ATOM      6  N   UNL     1      39.588  45.914  17.731 -0.20 +0.05    -0.338 N  ATOM      7  H   UNL     1      39.845  46.298  16.820 +0.12 -0.03    +0.168 HD BRANCH   6   8ATOM      8  C   UNL     1      38.365  45.200  17.588 -0.27 -0.04    +0.174 A  ATOM      9  C   UNL     1      37.718  45.213  16.319 -0.23 -0.06    +0.172 A  ATOM     10  N   UNL     1      36.549  44.563  16.117 -0.20 +0.09    -0.225 NA ATOM     11  C   UNL     1      36.030  43.907  17.169 -0.27 -0.03    +0.091 A  ATOM     12  N   UNL     1      37.826  44.549  18.642 -0.22 +0.03    -0.225 NA ATOM     13  C   UNL     1      34.830  43.220  17.019 -0.36 -0.01    +0.031 A  ATOM     14  C   UNL     1      36.669  43.902  18.432 -0.24 -0.02    +0.091 A  ATOM     15  C   UNL     1      34.252  42.522  18.082 -0.39 -0.00    +0.002 A  ATOM     16  C   UNL     1      36.079  43.211  19.486 -0.37 -0.00    +0.031 A  ATOM     17  C   UNL     1      34.879  42.518  19.322 -0.43 -0.00    +0.002 A  BRANCH   9  18ATOM     18  N   UNL     1      38.317  45.948  15.250 -0.14 +0.11    -0.351 N  ATOM     19  N   UNL     1      37.318  47.451  12.839 -0.76 +0.09    -0.303 NA ATOM     20  C   UNL     1      37.979  48.100  13.997 -0.52 -0.04    +0.105 C  ATOM     21  C   UNL     1      36.931  46.059  13.152 -0.51 -0.04    +0.105 C  ATOM     22  C   UNL     1      37.838  47.354  15.347 -0.41 -0.07    +0.133 C  ATOM     23  C   UNL     1      38.037  45.320  13.934 -0.30 -0.04    +0.133 C  ATOM     24  C   UNL     1      36.171  48.215  12.340 -0.51 -0.05    +0.105 C  ENDBRANCH   9  18ENDBRANCH   6   8ENDBRANCH   1   6BRANCH   3  25ATOM     25  C   UNL     1      42.435  45.783  21.453 -0.27 +0.03    +0.129 C  BRANCH  25  26ATOM     26  S   UNL     1      43.674  46.982  21.540 -0.37 +0.10    +0.231 S  ATOM     27  O   UNL     1      43.160  48.192  22.144 -0.41 -0.03    -0.208 OA ATOM     28  O   UNL     1      44.898  46.379  22.016 -0.67 -0.20    -0.208 OA BRANCH  26  29ATOM     29  N   UNL     1      43.981  47.400  19.938 -0.23 -0.11    -0.225 NA ATOM     30  H   UNL     1      43.301  48.101  19.622 -0.50 -0.01    +0.137 HD ATOM     31  H   UNL     1      44.938  47.737  19.848 -0.31 +0.12    +0.137 HD ENDBRANCH  26  29ENDBRANCH  25  26ENDBRANCH   3  25TORSDOF 6TERENDMDL