MODEL        1USER    Run = 1USERUSER    Estimated Free Energy of Binding    =  -8.66 kcal/mol  [=(1)+(2)+(3)-(4)]USERUSER    (1) Final Intermolecular Energy     = -11.05 kcal/molUSER        vdW + Hbond + desolv Energy     = -10.91 kcal/molUSER        Electrostatic Energy            =  -0.14 kcal/molUSER        Moving Ligand-Fixed Receptor    = -11.05 kcal/molUSER        Moving Ligand-Moving Receptor   =  +0.00 kcal/molUSER    (2) Final Total Internal Energy     =  -1.63 kcal/molUSER    (3) Torsional Free Energy           =  +2.39 kcal/molUSER    (4) Unbound System's Energy         =  -1.63 kcal/molUSERUSERREMARK SMILES COc1cc(OCc2ccncc2)ccc1C(=O)NCCc1ccccc1FREMARK SMILES IDX 17 1 18 2 19 3 16 5 3 6 4 7 5 8 15 9 14 10 2 11 1 12 6 13REMARK SMILES IDX 7 14 8 15 9 16 13 17 10 18 12 19 11 20 20 21 21 22 22 23REMARK SMILES IDX 23 24 27 25 24 26 26 27 25 28 28 29REMARK H PARENT 19 4USER                              x       y       z     vdW  Elec       q    TypeUSER                           _______ _______ _______ _____ _____    ______ ____ROOTATOM      1  C   UNL     1      40.646  48.266  16.620 -0.39 -0.05    +0.255 C  ATOM      2  O   UNL     1      41.434  49.102  16.184 -1.03 -0.00    -0.269 OA ATOM      3  N   UNL     1      39.391  48.084  16.084 -0.23 +0.14    -0.352 N  ATOM      4  H   UNL     1      38.891  47.251  16.381 +0.11 -0.06    +0.163 HD ENDROOTBRANCH   1   5ATOM      5  C   UNL     1      41.032  47.408  17.790 -0.46 -0.01    +0.082 A  ATOM      6  C   UNL     1      40.267  46.333  18.292 -0.38 -0.01    +0.135 A  ATOM      7  C   UNL     1      40.738  45.612  19.405 -0.38 +0.00    +0.093 A  ATOM      8  C   UNL     1      41.955  45.937  20.011 -0.29 +0.02    +0.123 A  ATOM      9  C   UNL     1      42.257  47.718  18.404 -0.49 -0.00    +0.021 A  ATOM     10  C   UNL     1      42.710  46.990  19.503 -0.47 +0.01    +0.047 A  BRANCH   6  11ATOM     11  O   UNL     1      39.083  46.046  17.658 -0.14 +0.10    -0.496 OA ATOM     12  C   UNL     1      38.149  45.199  18.321 -0.26 -0.05    +0.278 C  ENDBRANCH   6  11BRANCH   8  13ATOM     13  O   UNL     1      42.513  45.314  21.092 -0.07 -0.14    -0.489 OA BRANCH  13  14ATOM     14  C   UNL     1      41.844  45.439  22.346 -0.14 +0.03    +0.265 C  BRANCH  14  15ATOM     15  C   UNL     1      42.214  46.766  22.956 -0.22 -0.00    -0.008 A  ATOM     16  C   UNL     1      41.246  47.585  23.545 -0.26 +0.00    +0.027 A  ATOM     17  C   UNL     1      43.538  47.217  22.931 -0.26 +0.01    +0.027 A  ATOM     18  C   UNL     1      41.641  48.805  24.075 -0.33 +0.02    +0.111 A  ATOM     19  C   UNL     1      43.833  48.451  23.488 -0.26 +0.03    +0.111 A  ATOM     20  N   UNL     1      42.912  49.258  24.056 -0.79 -0.10    -0.265 NA ENDBRANCH  14  15ENDBRANCH  13  14ENDBRANCH   8  13ENDBRANCH   1   5BRANCH   3  21ATOM     21  C   UNL     1      38.989  48.715  14.842 -0.41 -0.06    +0.121 C  BRANCH  21  22ATOM     22  C   UNL     1      37.481  48.594  14.621 -0.56 -0.04    +0.060 C  BRANCH  22  23ATOM     23  C   UNL     1      37.136  47.457  13.697 -0.54 +0.00    -0.010 A  ATOM     24  C   UNL     1      36.510  47.695  12.466 -0.67 -0.00    +0.007 A  ATOM     25  C   UNL     1      37.465  46.142  14.037 -0.34 -0.05    +0.126 A  ATOM     26  C   UNL     1      36.213  46.632  11.609 -0.60 -0.00    +0.000 A  ATOM     27  C   UNL     1      37.171  45.079  13.188 -0.44 -0.01    +0.039 A  ATOM     28  C   UNL     1      36.541  45.325  11.970 -0.57 -0.00    +0.003 A  ATOM     29  F   UNL     1      38.078  45.889  15.202 -0.07 +0.07    -0.207 F  ENDBRANCH  22  23ENDBRANCH  21  22ENDBRANCH   3  21TORSDOF 8TERENDMDL