REMARK SMILES COc1cc(OCc2ccncc2)ccc1C(=O)NCCc1ccccc1F
REMARK SMILES IDX 17 1 18 2 19 3 16 5 3 6 4 7 5 8 15 9 14 10 2 11 1 12 6 13
REMARK SMILES IDX 7 14 8 15 9 16 13 17 10 18 12 19 11 20 20 21 21 22 22 23
REMARK SMILES IDX 23 24 27 25 24 26 26 27 25 28 28 29
REMARK H PARENT 19 4
ROOT
ATOM      1  C   UNL     1      -1.297   0.162  -1.535  1.00  0.00     0.255 C 
ATOM      2  O   UNL     1      -1.656   0.168  -2.710  1.00  0.00    -0.269 OA
ATOM      3  N   UNL     1      -2.181   0.322  -0.492  1.00  0.00    -0.352 N 
ATOM      4  H   UNL     1      -1.825   0.113   0.436  1.00  0.00     0.163 HD
ENDROOT
BRANCH   1   5
ATOM      5  C   UNL     1       0.155  -0.008  -1.194  1.00  0.00     0.082 A 
ATOM      6  C   UNL     1       0.655  -0.291   0.095  1.00  0.00     0.135 A 
ATOM      7  C   UNL     1       2.045  -0.416   0.284  1.00  0.00     0.093 A 
ATOM      8  C   UNL     1       2.932  -0.276  -0.787  1.00  0.00     0.123 A 
ATOM      9  C   UNL     1       1.058   0.123  -2.262  1.00  0.00     0.021 A 
ATOM     10  C   UNL     1       2.431  -0.009  -2.058  1.00  0.00     0.047 A 
BRANCH   6  11
ATOM     11  O   UNL     1      -0.256  -0.429   1.114  1.00  0.00    -0.496 OA
ATOM     12  C   UNL     1       0.214  -0.860   2.387  1.00  0.00     0.278 C 
ENDBRANCH   6  11
BRANCH   8  13
ATOM     13  O   UNL     1       4.294  -0.374  -0.728  1.00  0.00    -0.489 OA
BRANCH  13  14
ATOM     14  C   UNL     1       4.882  -0.674   0.537  1.00  0.00     0.265 C 
BRANCH  14  15
ATOM     15  C   UNL     1       6.380  -0.706   0.374  1.00  0.00    -0.008 A 
ATOM     16  C   UNL     1       7.117  -1.851   0.691  1.00  0.00     0.027 A 
ATOM     17  C   UNL     1       7.070   0.421  -0.084  1.00  0.00     0.027 A 
ATOM     18  C   UNL     1       8.495  -1.817   0.538  1.00  0.00     0.111 A 
ATOM     19  C   UNL     1       8.449   0.356  -0.204  1.00  0.00     0.111 A 
ATOM     20  N   UNL     1       9.178  -0.738   0.102  1.00  0.00    -0.265 NA
ENDBRANCH  14  15
ENDBRANCH  13  14
ENDBRANCH   8  13
ENDBRANCH   1   5
BRANCH   3  21
ATOM     21  C   UNL     1      -3.617   0.298  -0.693  1.00  0.00     0.121 C 
BRANCH  21  22
ATOM     22  C   UNL     1      -4.343   1.093   0.392  1.00  0.00     0.060 C 
BRANCH  22  23
ATOM     23  C   UNL     1      -5.838   1.032   0.230  1.00  0.00    -0.010 A 
ATOM     24  C   UNL     1      -6.525   2.019  -0.490  1.00  0.00     0.007 A 
ATOM     25  C   UNL     1      -6.567  -0.032   0.769  1.00  0.00     0.126 A 
ATOM     26  C   UNL     1      -7.911   1.940  -0.649  1.00  0.00     0.000 A 
ATOM     27  C   UNL     1      -7.948  -0.116   0.615  1.00  0.00     0.039 A 
ATOM     28  C   UNL     1      -8.623   0.875  -0.096  1.00  0.00     0.003 A 
ATOM     29  F   UNL     1      -5.932  -0.997   1.449  1.00  0.00    -0.207 F 
ENDBRANCH  22  23
ENDBRANCH  21  22
ENDBRANCH   3  21
TORSDOF 8
