REMARK SMILES OCCN1CCN(c2ccc(-c3nc4cccnc4nc3-c3ccc(CN4CCC(n5c(O)nc6ccccc65)CC4)cc3)cn2)CC1
REMARK SMILES IDX 12 1 13 2 14 3 15 4 16 5 17 6 18 7 19 8 20 9 21 10 11 11
REMARK SMILES IDX 8 12 9 13 46 14 10 15 45 16 7 17 4 18 5 19 48 20 6 21 47 22
REMARK SMILES IDX 3 23 2 24 1 25 22 27 23 28 44 29 24 30 43 31 25 32 26 33
REMARK SMILES IDX 27 34 28 35 42 36 29 37 41 38 30 39 31 40 32 41 40 42 34 43
REMARK SMILES IDX 39 44 35 45 38 46 36 47 37 48 33 49
REMARK H PARENT 1 26 33 50
ROOT
ATOM      1  C   UNL     1      -2.197  -3.108  -1.493  1.00  0.00     0.099 A 
ATOM      2  N   UNL     1      -2.737  -4.191  -2.118  1.00  0.00    -0.242 NA
ATOM      3  C   UNL     1      -1.956  -5.283  -2.247  1.00  0.00     0.108 A 
ATOM      4  C   UNL     1      -2.459  -6.415  -2.867  1.00  0.00     0.034 A 
ATOM      5  C   UNL     1      -1.675  -7.553  -3.005  1.00  0.00     0.022 A 
ATOM      6  C   UNL     1      -0.390  -7.507  -2.506  1.00  0.00     0.114 A 
ATOM      7  N   UNL     1       0.133  -6.425  -1.897  1.00  0.00    -0.235 NA
ATOM      8  C   UNL     1      -0.629  -5.333  -1.768  1.00  0.00     0.178 A 
ATOM      9  N   UNL     1      -0.108  -4.262  -1.171  1.00  0.00    -0.224 NA
ATOM     10  C   UNL     1      -0.870  -3.137  -1.041  1.00  0.00     0.099 A 
ENDROOT
BRANCH   1  11
ATOM     11  C   UNL     1      -3.138  -1.987  -1.347  1.00  0.00     0.021 A 
ATOM     12  C   UNL     1      -4.967   0.118  -1.016  1.00  0.00     0.128 A 
ATOM     13  C   UNL     1      -4.803  -0.483  -2.264  1.00  0.00     0.047 A 
ATOM     14  N   UNL     1      -4.232  -0.302   0.035  1.00  0.00    -0.239 NA
ATOM     15  C   UNL     1      -3.900  -1.536  -2.426  1.00  0.00     0.016 A 
ATOM     16  C   UNL     1      -3.361  -1.330  -0.142  1.00  0.00     0.124 A 
BRANCH  12  17
ATOM     17  N   UNL     1      -5.866   1.185  -0.862  1.00  0.00    -0.354 N 
ATOM     18  N   UNL     1      -8.400   1.451   0.720  1.00  0.00    -0.298 NA
ATOM     19  C   UNL     1      -8.302   1.754  -0.721  1.00  0.00     0.106 C 
ATOM     20  C   UNL     1      -7.059   1.300   1.335  1.00  0.00     0.106 C 
ATOM     21  C   UNL     1      -7.209   0.925  -1.431  1.00  0.00     0.133 C 
ATOM     22  C   UNL     1      -5.885   1.819   0.472  1.00  0.00     0.133 C 
BRANCH  18  23
ATOM     23  C   UNL     1      -9.257   2.429   1.411  1.00  0.00     0.112 C 
BRANCH  23  24
ATOM     24  C   UNL     1      -9.800   1.916   2.756  1.00  0.00     0.171 C 
BRANCH  24  25
ATOM     25  O   UNL     1     -10.791   0.913   2.547  1.00  0.00    -0.395 OA
ATOM     26  H   UNL     1     -10.907   0.445   3.391  1.00  0.00     0.210 HD
ENDBRANCH  24  25
ENDBRANCH  23  24
ENDBRANCH  18  23
ENDBRANCH  12  17
ENDBRANCH   1  11
BRANCH  10  27
ATOM     27  C   UNL     1      -0.141  -2.008  -0.427  1.00  0.00     0.002 A 
ATOM     28  C   UNL     1       0.635  -2.211   0.729  1.00  0.00     0.011 A 
ATOM     29  C   UNL     1      -0.142  -0.719  -0.987  1.00  0.00     0.011 A 
ATOM     30  C   UNL     1       1.366  -1.170   1.310  1.00  0.00     0.006 A 
ATOM     31  C   UNL     1       0.583   0.329  -0.405  1.00  0.00     0.006 A 
ATOM     32  C   UNL     1       1.348   0.112   0.747  1.00  0.00    -0.034 A 
BRANCH  32  33
ATOM     33  C   UNL     1       2.167   1.225   1.367  1.00  0.00     0.120 C 
BRANCH  33  34
ATOM     34  N   UNL     1       3.620   0.971   1.309  1.00  0.00    -0.299 NA
ATOM     35  C   UNL     1       4.129   1.054  -0.069  1.00  0.00     0.087 C 
ATOM     36  C   UNL     1       4.335   1.890   2.204  1.00  0.00     0.087 C 
ATOM     37  C   UNL     1       5.623   0.732  -0.134  1.00  0.00     0.041 C 
ATOM     38  C   UNL     1       5.833   1.589   2.226  1.00  0.00     0.041 C 
ATOM     39  C   UNL     1       6.409   1.649   0.809  1.00  0.00     0.095 C 
BRANCH  39  40
ATOM     40  N   UNL     1       7.845   1.412   0.775  1.00  0.00    -0.291 N 
ATOM     41  C   UNL     1       8.494   0.250   1.088  1.00  0.00     0.295 A 
ATOM     42  C   UNL     1       8.817   2.331   0.432  1.00  0.00     0.072 A 
ATOM     43  N   UNL     1       9.791   0.331   0.970  1.00  0.00    -0.195 NA
ATOM     44  C   UNL     1       8.781   3.674   0.029  1.00  0.00     0.029 A 
ATOM     45  C   UNL     1      10.014   1.623   0.562  1.00  0.00     0.092 A 
ATOM     46  C   UNL     1      10.006   4.296  -0.241  1.00  0.00     0.002 A 
ATOM     47  C   UNL     1      11.231   2.265   0.283  1.00  0.00     0.031 A 
ATOM     48  C   UNL     1      11.213   3.606  -0.117  1.00  0.00     0.002 A 
BRANCH  41  49
ATOM     49  O   UNL     1       7.903  -0.863   1.475  1.00  0.00    -0.480 OA
ATOM     50  H   UNL     1       8.665  -1.457   1.595  1.00  0.00     0.296 HD
ENDBRANCH  41  49
ENDBRANCH  39  40
ENDBRANCH  33  34
ENDBRANCH  32  33
ENDBRANCH  10  27
TORSDOF 10
