MODEL        5USER    Run = 5USERUSER    Estimated Free Energy of Binding    = -13.14 kcal/mol  [=(1)+(2)+(3)-(4)]USERUSER    (1) Final Intermolecular Energy     = -16.13 kcal/molUSER        vdW + Hbond + desolv Energy     = -16.01 kcal/molUSER        Electrostatic Energy            =  -0.11 kcal/molUSER        Moving Ligand-Fixed Receptor    = -16.13 kcal/molUSER        Moving Ligand-Moving Receptor   =  +0.00 kcal/molUSER    (2) Final Total Internal Energy     =  -2.93 kcal/molUSER    (3) Torsional Free Energy           =  +2.98 kcal/molUSER    (4) Unbound System's Energy         =  -2.93 kcal/molUSERUSERREMARK SMILES OCCN1CCN(c2ccc(-c3nc4cccnc4nc3-c3ccc(CN4CCC(n5c(O)nc6ccccc65)CC4)cc3)cn2)CC1REMARK SMILES IDX 12 1 13 2 14 3 15 4 16 5 17 6 18 7 19 8 20 9 21 10 11 11REMARK SMILES IDX 8 12 9 13 46 14 10 15 45 16 7 17 4 18 5 19 48 20 6 21 47 22REMARK SMILES IDX 3 23 2 24 1 25 22 27 23 28 44 29 24 30 43 31 25 32 26 33REMARK SMILES IDX 27 34 28 35 42 36 29 37 41 38 30 39 31 40 32 41 40 42 34 43REMARK SMILES IDX 39 44 35 45 38 46 36 47 37 48 33 49REMARK H PARENT 1 26 33 50USER                              x       y       z     vdW  Elec       q    TypeUSER                           _______ _______ _______ _____ _____    ______ ____ROOTATOM      1  C   UNL     1      37.920  42.994  23.375 -0.29 +0.01    +0.099 A  ATOM      2  N   UNL     1      37.442  42.395  24.502 -0.23 -0.01    -0.242 NA ATOM      3  C   UNL     1      38.199  42.478  25.614 -0.22 -0.00    +0.108 A  ATOM      4  C   UNL     1      37.756  41.894  26.789 -0.37 -0.00    +0.034 A  ATOM      5  C   UNL     1      38.516  41.973  27.949 -0.37 -0.00    +0.022 A  ATOM      6  C   UNL     1      39.717  42.648  27.880 -0.21 -0.00    +0.114 A  ATOM      7  N   UNL     1      40.180  43.228  26.756 -0.09 +0.01    -0.235 NA ATOM      8  C   UNL     1      39.442  43.148  25.644 -0.11 -0.00    +0.178 A  ATOM      9  N   UNL     1      39.904  43.718  24.532 -0.09 -0.01    -0.224 NA ATOM     10  C   UNL     1      39.167  43.635  23.386 -0.19 +0.00    +0.099 A  ENDROOTBRANCH   1  11ATOM     11  C   UNL     1      37.002  42.902  22.229 -0.42 +0.00    +0.021 A  ATOM     12  C   UNL     1      35.294  42.678  20.012 -0.35 -0.00    +0.128 A  ATOM     13  C   UNL     1      35.793  43.924  20.394 -0.36 -0.00    +0.047 A  ATOM     14  N   UNL     1      35.620  41.577  20.720 -0.19 +0.00    -0.239 NA ATOM     15  C   UNL     1      36.650  44.033  21.491 -0.33 +0.00    +0.016 A  ATOM     16  C   UNL     1      36.457  41.703  21.783 -0.46 +0.00    +0.124 A  BRANCH  12  17ATOM     17  N   UNL     1      34.422  42.576  18.916 -0.16 +0.05    -0.354 N  ATOM     18  N   UNL     1      33.704  44.517  16.745 -0.11 +0.16    -0.298 NA ATOM     19  C   UNL     1      32.707  43.832  17.591 -0.29 -0.03    +0.106 C  ATOM     20  C   UNL     1      35.049  43.909  16.893 -0.32 -0.04    +0.106 C  ATOM     21  C   UNL     1      33.253  43.483  18.993 -0.36 -0.02    +0.133 C  ATOM     22  C   UNL     1      35.066  42.527  17.588 -0.38 -0.04    +0.133 C  BRANCH  18  23ATOM     23  C   UNL     1      33.247  44.601  15.348 -0.20 -0.07    +0.112 C  BRANCH  23  24ATOM     24  C   UNL     1      32.075  45.578  15.151 -0.34 -0.13    +0.171 C  BRANCH  24  25ATOM     25  O   UNL     1      31.705  46.174  16.392 -0.41 +0.21    -0.395 OA ATOM     26  H   UNL     1      32.528  46.410  16.852 -0.31 -0.25    +0.210 HD ENDBRANCH  24  25ENDBRANCH  23  24ENDBRANCH  18  23ENDBRANCH  12  17ENDBRANCH   1  11BRANCH  10  27ATOM     27  C   UNL     1      39.834  44.247  22.219 -0.26 +0.00    +0.002 A  ATOM     28  C   UNL     1      39.577  45.588  21.878 -0.30 +0.00    +0.011 A  ATOM     29  C   UNL     1      40.779  43.552  21.444 -0.17 +0.00    +0.011 A  ATOM     30  C   UNL     1      40.223  46.204  20.801 +0.14 +0.00    +0.006 A  ATOM     31  C   UNL     1      41.424  44.163  20.360 -0.31 +0.00    +0.006 A  ATOM     32  C   UNL     1      41.155  45.497  20.032 -0.38 -0.00    -0.034 A  BRANCH  32  33ATOM     33  C   UNL     1      41.871  46.183  18.887 -0.44 +0.01    +0.120 C  BRANCH  33  34ATOM     34  N   UNL     1      41.009  46.378  17.704 -0.27 +0.02    -0.299 NA ATOM     35  C   UNL     1      39.656  45.846  17.927 -0.44 -0.01    +0.087 C  ATOM     36  C   UNL     1      40.975  47.796  17.325 -0.52 -0.01    +0.087 C  ATOM     37  C   UNL     1      38.783  45.995  16.679 -0.43 -0.01    +0.041 C  ATOM     38  C   UNL     1      40.159  48.011  16.051 -0.59 -0.01    +0.041 C  ATOM     39  C   UNL     1      38.742  47.459  16.228 -0.43 -0.04    +0.095 C  BRANCH  39  40ATOM     40  N   UNL     1      37.904  47.675  15.057 -0.24 +0.16    -0.291 N  ATOM     41  C   UNL     1      37.297  48.842  14.685 -0.27 -0.24    +0.295 A  ATOM     42  C   UNL     1      37.557  46.727  14.115 -0.40 -0.03    +0.072 A  ATOM     43  N   UNL     1      36.601  48.738  13.586 -0.46 +0.11    -0.195 NA ATOM     44  C   UNL     1      37.857  45.367  13.953 -0.36 -0.01    +0.029 A  ATOM     45  C   UNL     1      36.749  47.425  13.214 -0.53 -0.04    +0.092 A  ATOM     46  C   UNL     1      37.308  44.716  12.842 -0.38 -0.00    +0.002 A  ATOM     47  C   UNL     1      36.211  46.754  12.104 -0.66 -0.02    +0.031 A  ATOM     48  C   UNL     1      36.497  45.395  11.930 -0.55 -0.00    +0.002 A  BRANCH  41  49ATOM     49  O   UNL     1      37.384  49.981  15.344 -0.28 +0.51    -0.480 OA ATOM     50  H   UNL     1      37.243  50.629  14.631 -0.28 -0.33    +0.296 HD ENDBRANCH  41  49ENDBRANCH  39  40ENDBRANCH  33  34ENDBRANCH  32  33ENDBRANCH  10  27TORSDOF 10TERENDMDL