REMARK SMILES CN1CCN(c2cc(-c3nc4cccnc4nc3-c3ccc(CN4CCC(n5c(O)nc6ncccc65)CC4)cc3)ccn2)CC1
REMARK SMILES IDX 19 1 20 2 21 3 22 4 40 5 41 6 18 7 9 8 10 9 11 10 17 11
REMARK SMILES IDX 12 12 16 13 13 14 15 15 14 16 8 17 6 18 7 19 44 20 43 21
REMARK SMILES IDX 42 22 5 23 2 24 3 25 46 26 4 27 45 28 1 29 23 30 24 31 25 32
REMARK SMILES IDX 39 33 26 34 38 35 27 36 28 37 29 38 37 39 31 40 36 41 32 42
REMARK SMILES IDX 35 43 33 44 34 45 30 46
REMARK H PARENT 30 47
ROOT
ATOM      1  C   UNL     1       0.618  -1.847   3.057  1.00  0.00     0.002 A 
ATOM      2  C   UNL     1       0.104  -2.168   1.789  1.00  0.00     0.011 A 
ATOM      3  C   UNL     1      -1.249  -1.984   1.492  1.00  0.00     0.006 A 
ATOM      4  C   UNL     1      -2.131  -1.471   2.452  1.00  0.00    -0.034 A 
ATOM      5  C   UNL     1      -1.632  -1.166   3.723  1.00  0.00     0.006 A 
ATOM      6  C   UNL     1      -0.278  -1.356   4.021  1.00  0.00     0.011 A 
ENDROOT
BRANCH   1   7
ATOM      7  C   UNL     1       2.039  -2.054   3.384  1.00  0.00     0.099 A 
ATOM      8  C   UNL     1       3.110  -1.545   2.635  1.00  0.00     0.098 A 
ATOM      9  N   UNL     1       4.392  -1.870   2.943  1.00  0.00    -0.242 NA
ATOM     10  C   UNL     1       4.575  -2.668   4.015  1.00  0.00     0.108 A 
ATOM     11  N   UNL     1       2.251  -2.836   4.479  1.00  0.00    -0.224 NA
ATOM     12  C   UNL     1       5.860  -3.037   4.378  1.00  0.00     0.034 A 
ATOM     13  C   UNL     1       3.505  -3.151   4.804  1.00  0.00     0.178 A 
ATOM     14  C   UNL     1       6.076  -3.850   5.484  1.00  0.00     0.022 A 
ATOM     15  N   UNL     1       3.706  -3.928   5.874  1.00  0.00    -0.235 NA
ATOM     16  C   UNL     1       4.972  -4.265   6.197  1.00  0.00     0.114 A 
BRANCH   8  17
ATOM     17  C   UNL     1       2.980  -0.613   1.506  1.00  0.00     0.008 A 
ATOM     18  C   UNL     1       3.399  -0.049  -0.826  1.00  0.00     0.129 A 
ATOM     19  C   UNL     1       3.530  -0.925   0.254  1.00  0.00     0.057 A 
ATOM     20  N   UNL     1       2.725   1.112  -0.682  1.00  0.00    -0.239 NA
ATOM     21  C   UNL     1       2.214   1.421   0.527  1.00  0.00     0.114 A 
ATOM     22  C   UNL     1       2.319   0.608   1.637  1.00  0.00     0.030 A 
BRANCH  18  23
ATOM     23  N   UNL     1       3.913  -0.405  -2.081  1.00  0.00    -0.354 N 
ATOM     24  N   UNL     1       5.851   1.434  -3.338  1.00  0.00    -0.303 NA
ATOM     25  C   UNL     1       6.213   0.583  -2.183  1.00  0.00     0.105 C 
ATOM     26  C   UNL     1       4.404   1.756  -3.271  1.00  0.00     0.105 C 
ATOM     27  C   UNL     1       5.361  -0.707  -2.111  1.00  0.00     0.133 C 
ATOM     28  C   UNL     1       3.519   0.488  -3.193  1.00  0.00     0.133 C 
ATOM     29  C   UNL     1       6.647   2.658  -3.349  1.00  0.00     0.105 C 
ENDBRANCH  18  23
ENDBRANCH   8  17
ENDBRANCH   1   7
BRANCH   4  30
ATOM     30  C   UNL     1      -3.608  -1.328   2.144  1.00  0.00     0.120 C 
BRANCH  30  31
ATOM     31  N   UNL     1      -3.878  -0.666   0.857  1.00  0.00    -0.299 NA
ATOM     32  C   UNL     1      -5.258  -0.860   0.424  1.00  0.00     0.087 C 
ATOM     33  C   UNL     1      -3.492   0.754   0.873  1.00  0.00     0.087 C 
ATOM     34  C   UNL     1      -5.389  -0.479  -1.054  1.00  0.00     0.041 C 
ATOM     35  C   UNL     1      -4.224   1.598  -0.179  1.00  0.00     0.041 C 
ATOM     36  C   UNL     1      -4.549   0.759  -1.417  1.00  0.00     0.095 C 
BRANCH  36  37
ATOM     37  N   UNL     1      -5.135   1.547  -2.493  1.00  0.00    -0.289 N 
ATOM     38  C   UNL     1      -4.553   1.768  -3.713  1.00  0.00     0.296 A 
ATOM     39  C   UNL     1      -6.340   2.211  -2.505  1.00  0.00     0.091 A 
ATOM     40  N   UNL     1      -5.274   2.510  -4.508  1.00  0.00    -0.175 NA
ATOM     41  C   UNL     1      -7.385   2.376  -1.594  1.00  0.00     0.032 A 
ATOM     42  C   UNL     1      -6.391   2.793  -3.773  1.00  0.00     0.181 A 
ATOM     43  C   UNL     1      -8.456   3.148  -2.039  1.00  0.00     0.022 A 
ATOM     44  N   UNL     1      -7.426   3.545  -4.210  1.00  0.00    -0.235 NA
ATOM     45  C   UNL     1      -8.425   3.691  -3.318  1.00  0.00     0.114 A 
BRANCH  38  46
ATOM     46  O   UNL     1      -3.381   1.294  -4.080  1.00  0.00    -0.480 OA
ATOM     47  H   UNL     1      -3.308   1.637  -4.991  1.00  0.00     0.296 HD
ENDBRANCH  38  46
ENDBRANCH  36  37
ENDBRANCH  30  31
ENDBRANCH   4  30
TORSDOF 7
