REMARK SMILES CC(C)Oc1ccc(-c2nc(N=N)c(C3=CNCCOCC3)cc2-c2ccc(N)nc2)cc1
REMARK SMILES IDX 9 1 10 2 11 3 14 4 23 5 24 6 8 7 5 8 6 9 33 10 7 11 32 12
REMARK SMILES IDX 4 13 2 14 1 15 3 16 25 17 26 18 31 19 27 20 30 21 28 22
REMARK SMILES IDX 29 23 12 26 13 27 15 29 16 30 17 31 18 33 22 35 21 36 20 37
REMARK SMILES IDX 19 38
REMARK H PARENT 29 24 29 25 13 28 17 32
REMARK Flexibility Score:   24.900
ROOT
ATOM      1  C   UNL     1      -0.156  -0.255   0.379  1.00  0.00     0.081 A 
ATOM      2  N   UNL     1       0.495  -1.373   0.799  1.00  0.00    -0.226 NA
ATOM      3  C   UNL     1       1.855  -1.423   0.681  1.00  0.00     0.181 A 
ATOM      4  C   UNL     1       2.612  -0.386   0.134  1.00  0.00     0.026 A 
ATOM      5  C   UNL     1       1.908   0.744  -0.311  1.00  0.00     0.023 A 
ATOM      6  C   UNL     1       0.509   0.839  -0.200  1.00  0.00     0.010 A 
ENDROOT
BRANCH   1   7
ATOM      7  C   UNL     1      -1.612  -0.317   0.599  1.00  0.00     0.001 A 
ATOM      8  C   UNL     1      -4.411  -0.473   0.999  1.00  0.00     0.119 A 
ATOM      9  C   UNL     1      -3.665   0.555   1.577  1.00  0.00     0.047 A 
ATOM     10  C   UNL     1      -3.756  -1.441   0.242  1.00  0.00     0.047 A 
ATOM     11  C   UNL     1      -2.283   0.635   1.380  1.00  0.00     0.014 A 
ATOM     12  C   UNL     1      -2.371  -1.364   0.047  1.00  0.00     0.014 A 
BRANCH   8  13
ATOM     13  O   UNL     1      -5.747  -0.434   1.279  1.00  0.00    -0.491 OA
BRANCH  13  14
ATOM     14  C   UNL     1      -6.642  -1.201   0.463  1.00  0.00     0.167 C 
ATOM     15  C   UNL     1      -7.932  -0.392   0.345  1.00  0.00     0.052 C 
ATOM     16  C   UNL     1      -6.926  -2.544   1.133  1.00  0.00     0.052 C 
ENDBRANCH  13  14
ENDBRANCH   8  13
ENDBRANCH   1   7
BRANCH   6  17
ATOM     17  C   UNL     1      -0.171   2.037  -0.712  1.00  0.00     0.002 A 
ATOM     18  C   UNL     1       0.089   3.308  -0.188  1.00  0.00     0.014 A 
ATOM     19  C   UNL     1      -1.089   1.980  -1.760  1.00  0.00     0.122 A 
ATOM     20  C   UNL     1      -0.565   4.424  -0.709  1.00  0.00     0.047 A 
ATOM     21  N   UNL     1      -1.733   3.051  -2.284  1.00  0.00    -0.239 NA
ATOM     22  C   UNL     1      -1.468   4.251  -1.746  1.00  0.00     0.123 A 
BRANCH  22  23
ATOM     23  N   UNL     1      -2.124   5.343  -2.305  1.00  0.00    -0.384 N 
ATOM     24  H   UNL     1      -2.624   5.874  -1.602  1.00  0.00     0.158 HD
ATOM     25  H   UNL     1      -2.754   4.973  -3.013  1.00  0.00     0.158 HD
ENDBRANCH  22  23
ENDBRANCH   6  17
BRANCH   3  26
ATOM     26  N   UNL     1       2.464  -2.608   1.161  1.00  0.00    -0.138 NA
BRANCH  26  27
ATOM     27  N   UNL     1       1.646  -3.428   1.642  1.00  0.00    -0.203 NA
ATOM     28  H   UNL     1       0.672  -3.074   1.615  1.00  0.00     0.214 HD
ENDBRANCH  26  27
ENDBRANCH   3  26
BRANCH   4  29
ATOM     29  C   UNL     1       4.086  -0.426  -0.034  1.00  0.00    -0.019 C 
BRANCH  29  30
ATOM     30  C   UNL     1       4.823   0.556   0.520  1.00  0.00     0.082 C 
BRANCH  30  31
ATOM     31  N   UNL     1       6.179   0.812   0.491  1.00  0.00    -0.388 N 
ATOM     32  H   UNL     1       6.492   1.328   1.313  1.00  0.00     0.160 HD
BRANCH  31  33
ATOM     33  C   UNL     1       7.215  -0.044  -0.076  1.00  0.00     0.140 CG0
ATOM     34  G   UNL     1       7.423  -1.344   0.710  1.00  0.00     0.000 G0
ENDBRANCH  31  33
ENDBRANCH  30  31
ENDBRANCH  29  30
BRANCH  29  35
ATOM     35  C   UNL     1       4.656  -1.561  -0.854  1.00  0.00     0.066 C 
BRANCH  35  36
ATOM     36  C   UNL     1       5.516  -2.587  -0.096  1.00  0.00     0.165 C 
BRANCH  36  37
ATOM     37  O   UNL     1       6.244  -2.081   1.017  1.00  0.00    -0.379 OA
BRANCH  37  38
ATOM     38  C   UNL     1       7.423  -1.344   0.710  1.00  0.00     0.181 CG0
ATOM     39  G   UNL     1       7.215  -0.044  -0.076  1.00  0.00     0.000 G0
ENDBRANCH  37  38
ENDBRANCH  36  37
ENDBRANCH  35  36
ENDBRANCH  29  35
ENDBRANCH   4  29
TORSDOF 8
