REMARK SMILES CCC[C@H]1OC[C@@H]1NCc1nnc(Cc2cc3ccncc3[nH]2)n1CC
REMARK SMILES IDX 8 1 7 3 4 4 5 5 6 6 3 7 2 8 1 9 9 10 10 11 11 12 24 13 12 14
REMARK SMILES IDX 13 15 25 16 26 17 14 18 15 19 16 20 23 21 17 22 22 23 18 24
REMARK SMILES IDX 21 25 19 26 20 27
REMARK H PARENT 8 2 23 28
ROOT
ATOM      1  N   UNL     1      -1.750  -1.185  -1.056  1.00  0.00    -0.302 NA
ATOM      2  H   UNL     1      -1.252  -1.977  -0.636  1.00  0.00     0.123 HD
ENDROOT
BRANCH   1   3
ATOM      3  C   UNL     1      -3.219  -1.320  -0.998  1.00  0.00     0.109 C 
ATOM      4  C   UNL     1      -3.647  -1.460   0.483  1.00  0.00     0.137 C 
ATOM      5  O   UNL     1      -3.853  -2.891   0.322  1.00  0.00    -0.375 OA
ATOM      6  C   UNL     1      -3.643  -2.794  -1.106  1.00  0.00     0.182 C 
BRANCH   4   7
ATOM      7  C   UNL     1      -4.948  -0.751   0.854  1.00  0.00     0.033 C 
BRANCH   7   8
ATOM      8  C   UNL     1      -5.442  -1.138   2.249  1.00  0.00    -0.001 C 
ATOM      9  C   UNL     1      -4.576  -0.582   3.370  1.00  0.00     0.004 C 
ENDBRANCH   7   8
ENDBRANCH   4   7
ENDBRANCH   1   3
BRANCH   1  10
ATOM     10  C   UNL     1      -1.319  -1.064  -2.450  1.00  0.00     0.159 C 
BRANCH  10  11
ATOM     11  C   UNL     1       0.167  -0.970  -2.542  1.00  0.00     0.147 A 
ATOM     12  N   UNL     1       0.962  -1.917  -2.995  1.00  0.00    -0.134 NA
ATOM     13  N   UNL     1       0.932   0.120  -2.191  1.00  0.00    -0.314 N 
ATOM     14  N   UNL     1       2.245  -1.443  -2.983  1.00  0.00    -0.135 NA
ATOM     15  C   UNL     1       2.229  -0.211  -2.515  1.00  0.00     0.138 A 
BRANCH  13  16
ATOM     16  C   UNL     1       0.454   1.381  -1.663  1.00  0.00     0.122 C 
ATOM     17  C   UNL     1       0.392   1.427  -0.145  1.00  0.00     0.028 C 
ENDBRANCH  13  16
BRANCH  15  18
ATOM     18  C   UNL     1       3.422   0.679  -2.397  1.00  0.00     0.131 C 
BRANCH  18  19
ATOM     19  C   UNL     1       3.916   0.840  -0.994  1.00  0.00     0.023 A 
ATOM     20  C   UNL     1       4.071  -0.084   0.024  1.00  0.00     0.032 A 
ATOM     21  N   UNL     1       4.354   2.051  -0.509  1.00  0.00    -0.357 N 
ATOM     22  C   UNL     1       4.578   0.595   1.164  1.00  0.00     0.003 A 
ATOM     23  C   UNL     1       4.744   1.930   0.804  1.00  0.00     0.064 A 
ATOM     24  C   UNL     1       4.915   0.205   2.466  1.00  0.00     0.030 A 
ATOM     25  C   UNL     1       5.231   2.878   1.695  1.00  0.00     0.137 A 
ATOM     26  C   UNL     1       5.391   1.202   3.305  1.00  0.00     0.111 A 
ATOM     27  N   UNL     1       5.549   2.498   2.953  1.00  0.00    -0.263 NA
ATOM     28  H   UNL     1       4.391   2.913  -1.035  1.00  0.00     0.166 HD
ENDBRANCH  18  19
ENDBRANCH  15  18
ENDBRANCH  10  11
ENDBRANCH   1  10
TORSDOF 8
