MODEL        1USER    Run = 1USERUSER    Estimated Free Energy of Binding    =  -9.71 kcal/mol  [=(1)+(2)+(3)-(4)]USERUSER    (1) Final Intermolecular Energy     = -11.20 kcal/molUSER        vdW + Hbond + desolv Energy     = -11.00 kcal/molUSER        Electrostatic Energy            =  -0.20 kcal/molUSER        Moving Ligand-Fixed Receptor    = -11.20 kcal/molUSER        Moving Ligand-Moving Receptor   =  +0.00 kcal/molUSER    (2) Final Total Internal Energy     =  -1.15 kcal/molUSER    (3) Torsional Free Energy           =  +1.49 kcal/molUSER    (4) Unbound System's Energy         =  -1.15 kcal/molUSERUSERREMARK SMILES COC=C1C(c2ccccc2)=CC(c2ccnc(NC(C)=O)c2)=C1CREMARK SMILES IDX 4 1 5 2 12 3 13 4 24 5 25 6 3 7 2 8 1 9 6 10 7 11 11 12 8 13REMARK SMILES IDX 10 14 9 15 14 16 15 17 23 18 16 19 18 20 17 21 19 22 20 23REMARK SMILES IDX 21 25 22 26REMARK H PARENT 19 24USER                              x       y       z     vdW  Elec       q    TypeUSER                           _______ _______ _______ _____ _____    ______ ____ROOTATOM      1  C   UNL     1      40.451  47.392  16.674 -0.57 -0.00    +0.020 C  ATOM      2  C   UNL     1      39.187  46.726  16.356 -0.50 +0.00    -0.007 C  ATOM      3  C   UNL     1      38.931  45.889  17.377 -0.46 -0.00    +0.018 C  ATOM      4  C   UNL     1      39.994  45.971  18.373 -0.51 +0.00    -0.014 C  ATOM      5  C   UNL     1      40.916  46.871  17.962 -0.56 +0.00    -0.032 C  ATOM      6  C   UNL     1      42.178  47.292  18.631 -0.58 +0.00    +0.046 C  ENDROOTBRANCH   1   7ATOM      7  C   UNL     1      41.030  48.322  15.899 -0.44 -0.02    +0.195 C  BRANCH   7   8ATOM      8  O   UNL     1      41.431  49.554  16.342 -0.87 +0.00    -0.504 OA ATOM      9  C   UNL     1      41.412  50.529  15.303 -0.41 -0.07    +0.277 C  ENDBRANCH   7   8ENDBRANCH   1   7BRANCH   2  10ATOM     10  C   UNL     1      38.317  46.875  15.194 -0.42 +0.01    -0.018 A  ATOM     11  C   UNL     1      38.007  45.766  14.398 -0.40 -0.00    +0.009 A  ATOM     12  C   UNL     1      37.789  48.127  14.860 -0.52 -0.01    +0.009 A  ATOM     13  C   UNL     1      37.178  45.909  13.283 -0.50 -0.00    +0.001 A  ATOM     14  C   UNL     1      36.962  48.269  13.744 -0.57 -0.00    +0.001 A  ATOM     15  C   UNL     1      36.657  47.159  12.957 -0.63 -0.00    +0.000 A  ENDBRANCH   2  10BRANCH   4  16ATOM     16  C   UNL     1      40.054  45.200  19.614 -0.41 +0.00    -0.013 A  ATOM     17  C   UNL     1      38.938  45.126  20.442 -0.34 +0.00    +0.029 A  ATOM     18  C   UNL     1      41.229  44.542  19.985 -0.32 +0.01    +0.056 A  ATOM     19  C   UNL     1      39.043  44.389  21.605 -0.25 +0.00    +0.114 A  ATOM     20  C   UNL     1      41.242  43.825  21.172 -0.23 +0.01    +0.133 A  ATOM     21  N   UNL     1      40.166  43.741  21.985 -0.14 -0.01    -0.239 NA BRANCH  20  22ATOM     22  N   UNL     1      42.345  43.121  21.656 -0.21 -0.02    -0.311 N  ATOM     23  C   UNL     1      43.547  43.614  22.098 -0.19 +0.05    +0.222 C  ATOM     24  H   UNL     1      42.185  42.123  21.650 -0.50 -0.03    +0.171 HD ATOM     25  C   UNL     1      44.502  42.529  22.526 -0.31 +0.01    +0.114 C  ATOM     26  O   UNL     1      43.881  44.794  22.143 -0.16 -0.12    -0.275 OA ENDBRANCH  20  22ENDBRANCH   4  16TORSDOF 5TERENDMDL