REMARK SMILES CCC[C@@H](C)NC(=O)c1ccc(-c2ccc(OC)cc2)cc1C#N
REMARK SMILES IDX 6 1 7 2 8 3 4 5 5 6 3 7 2 8 1 9 9 10 10 11 22 12 11 13 21 14
REMARK SMILES IDX 12 15 23 16 24 17 13 18 14 19 20 20 15 21 19 22 16 23 17 24
REMARK SMILES IDX 18 25
REMARK H PARENT 6 4
ROOT
ATOM      1  N   UNL     1      -2.798  -0.398   0.076  1.00  0.00    -0.350 N 
ATOM      2  C   UNL     1      -1.906  -1.362   0.493  1.00  0.00     0.252 C 
ATOM      3  O   UNL     1      -2.216  -2.459   0.935  1.00  0.00    -0.269 OA
ATOM      4  H   UNL     1      -2.452   0.467  -0.320  1.00  0.00     0.164 HD
ENDROOT
BRANCH   1   5
ATOM      5  C   UNL     1      -4.238  -0.642   0.050  1.00  0.00     0.079 C 
ATOM      6  C   UNL     1      -4.614  -1.347  -1.251  1.00  0.00     0.031 C 
BRANCH   5   7
ATOM      7  C   UNL     1      -4.981   0.689   0.262  1.00  0.00     0.024 C 
BRANCH   7   8
ATOM      8  C   UNL     1      -6.503   0.563   0.383  1.00  0.00    -0.001 C 
ATOM      9  C   UNL     1      -7.234   0.855  -0.920  1.00  0.00     0.004 C 
ENDBRANCH   7   8
ENDBRANCH   5   7
ENDBRANCH   1   5
BRANCH   2  10
ATOM     10  C   UNL     1      -0.478  -0.998   0.370  1.00  0.00     0.057 A 
ATOM     11  C   UNL     1       0.004  -0.557  -0.869  1.00  0.00     0.016 A 
ATOM     12  C   UNL     1       0.392  -1.126   1.458  1.00  0.00     0.065 A 
ATOM     13  C   UNL     1       1.355  -0.234  -1.018  1.00  0.00     0.009 A 
ATOM     14  C   UNL     1       1.748  -0.795   1.293  1.00  0.00     0.029 A 
ATOM     15  C   UNL     1       2.250  -0.345   0.058  1.00  0.00    -0.017 A 
BRANCH  12  16
ATOM     16  C   UNL     1      -0.059  -1.537   2.757  1.00  0.00     0.100 C 
ATOM     17  N   UNL     1      -0.365  -1.822   3.840  1.00  0.00    -0.192 NA
ENDBRANCH  12  16
BRANCH  15  18
ATOM     18  C   UNL     1       3.672  -0.004  -0.101  1.00  0.00    -0.018 A 
ATOM     19  C   UNL     1       4.301   0.909   0.761  1.00  0.00     0.012 A 
ATOM     20  C   UNL     1       4.446  -0.579  -1.120  1.00  0.00     0.012 A 
ATOM     21  C   UNL     1       5.655   1.238   0.613  1.00  0.00     0.047 A 
ATOM     22  C   UNL     1       5.798  -0.251  -1.268  1.00  0.00     0.047 A 
ATOM     23  C   UNL     1       6.410   0.657  -0.404  1.00  0.00     0.118 A 
BRANCH  23  24
ATOM     24  O   UNL     1       7.732   0.888  -0.660  1.00  0.00    -0.497 OA
ATOM     25  C   UNL     1       8.408   1.790   0.208  1.00  0.00     0.278 C 
ENDBRANCH  23  24
ENDBRANCH  15  18
ENDBRANCH   2  10
TORSDOF 7
