MODEL        6USER    Run = 6USERUSER    Estimated Free Energy of Binding    =  -8.06 kcal/mol  [=(1)+(2)+(3)-(4)]USERUSER    (1) Final Intermolecular Energy     = -10.45 kcal/molUSER        vdW + Hbond + desolv Energy     = -10.41 kcal/molUSER        Electrostatic Energy            =  -0.04 kcal/molUSER        Moving Ligand-Fixed Receptor    = -10.45 kcal/molUSER        Moving Ligand-Moving Receptor   =  +0.00 kcal/molUSER    (2) Final Total Internal Energy     =  -1.90 kcal/molUSER    (3) Torsional Free Energy           =  +2.39 kcal/molUSER    (4) Unbound System's Energy         =  -1.90 kcal/molUSERUSERREMARK SMILES CCC[C@H]1OC[C@@H]1NCc1nnc(Cc2cc3ccncc3[nH]2)n1CCREMARK SMILES IDX 8 1 7 3 4 4 5 5 6 6 3 7 2 8 1 9 9 10 10 11 11 12 24 13 12 14REMARK SMILES IDX 13 15 25 16 26 17 14 18 15 19 16 20 23 21 17 22 22 23 18 24REMARK SMILES IDX 21 25 19 26 20 27REMARK H PARENT 8 2 23 28USER                              x       y       z     vdW  Elec       q    TypeUSER                           _______ _______ _______ _____ _____    ______ ____ROOTATOM      1  N   UNL     1      37.643  48.858  14.243 -0.33 +0.19    -0.302 NA ATOM      2  H   UNL     1      37.560  49.002  15.255 +0.02 -0.11    +0.123 HD ENDROOTBRANCH   1   3ATOM      3  C   UNL     1      36.694  47.857  13.715 -0.54 -0.06    +0.109 C  ATOM      4  C   UNL     1      37.488  46.788  12.925 -0.49 -0.04    +0.137 C  ATOM      5  O   UNL     1      37.071  47.367  11.658 -0.94 +0.11    -0.375 OA ATOM      6  C   UNL     1      36.166  48.273  12.331 -0.39 -0.08    +0.182 C  BRANCH   4   7ATOM      7  C   UNL     1      36.977  45.356  13.076 -0.55 -0.01    +0.033 C  BRANCH   7   8ATOM      8  C   UNL     1      36.192  45.154  14.373 -0.44 +0.00    -0.001 C  ATOM      9  C   UNL     1      37.070  44.764  15.553 -0.42 -0.00    +0.004 C  ENDBRANCH   7   8ENDBRANCH   4   7ENDBRANCH   1   3BRANCH   1  10ATOM     10  C   UNL     1      39.015  48.439  13.953 -0.30 -0.05    +0.159 C  BRANCH  10  11ATOM     11  C   UNL     1      39.696  47.954  15.189 -0.42 -0.04    +0.147 A  ATOM     12  N   UNL     1      39.548  46.759  15.720 -0.34 +0.03    -0.134 NA ATOM     13  N   UNL     1      40.596  48.668  15.950 -0.33 +0.07    -0.314 N  ATOM     14  N   UNL     1      40.375  46.664  16.805 -0.37 +0.02    -0.135 NA ATOM     15  C   UNL     1      41.021  47.806  16.937 -0.40 -0.02    +0.138 A  BRANCH  13  16ATOM     16  C   UNL     1      41.055  50.020  15.708 -0.63 -0.03    +0.122 C  ATOM     17  C   UNL     1      41.911  50.164  14.460 -0.74 -0.01    +0.028 C  ENDBRANCH  13  16BRANCH  15  18ATOM     18  C   UNL     1      42.063  48.090  17.967 -0.33 -0.00    +0.131 C  BRANCH  18  19ATOM     19  C   UNL     1      42.077  47.108  19.095 -0.49 +0.00    +0.023 A  ATOM     20  C   UNL     1      42.954  46.958  20.155 -0.42 +0.01    +0.032 A  ATOM     21  N   UNL     1      41.094  46.157  19.247 -0.21 -0.01    -0.357 N  ATOM     22  C   UNL     1      42.510  45.863  20.944 -0.29 +0.00    +0.003 A  ATOM     23  C   UNL     1      41.346  45.379  20.353 -0.33 +0.01    +0.064 A  ATOM     24  C   UNL     1      42.982  45.238  22.105 -0.22 +0.01    +0.030 A  ATOM     25  C   UNL     1      40.646  44.301  20.879 -0.24 +0.01    +0.137 A  ATOM     26  C   UNL     1      42.238  44.166  22.575 -0.19 +0.01    +0.111 A  ATOM     27  N   UNL     1      41.109  43.696  21.997 -0.17 -0.01    -0.263 NA ATOM     28  H   UNL     1      40.295  46.040  18.640 +0.10 -0.01    +0.166 HD ENDBRANCH  18  19ENDBRANCH  15  18ENDBRANCH  10  11ENDBRANCH   1  10TORSDOF 8TERENDMDL