MODEL        8USER    Run = 8USERUSER    Estimated Free Energy of Binding    =  -9.12 kcal/mol  [=(1)+(2)+(3)-(4)]USERUSER    (1) Final Intermolecular Energy     = -10.01 kcal/molUSER        vdW + Hbond + desolv Energy     =  -9.71 kcal/molUSER        Electrostatic Energy            =  -0.30 kcal/molUSER        Moving Ligand-Fixed Receptor    = -10.01 kcal/molUSER        Moving Ligand-Moving Receptor   =  +0.00 kcal/molUSER    (2) Final Total Internal Energy     =  -0.33 kcal/molUSER    (3) Torsional Free Energy           =  +0.89 kcal/molUSER    (4) Unbound System's Energy         =  -0.33 kcal/molUSERUSERREMARK SMILES Cc1cc(-c2nc3ccccc3n3ccnc23)ccc1C(=O)OREMARK SMILES IDX 21 1 22 2 20 3 2 4 3 5 4 6 19 7 18 8 1 9 5 10 6 11 17 12REMARK SMILES IDX 7 13 16 14 13 15 8 16 12 17 15 18 14 19 9 20 11 21 10 22REMARK SMILES IDX 23 23REMARK H PARENT 23 24USER                              x       y       z     vdW  Elec       q    TypeUSER                           _______ _______ _______ _____ _____    ______ ____ROOTATOM      1  C   UNL     1      43.610  46.613  21.839 -0.18 +0.14    +0.335 C  ATOM      2  O   UNL     1      43.326  46.129  22.919 -0.11 -0.06    -0.246 OA ENDROOTBRANCH   1   3ATOM      3  C   UNL     1      42.749  46.683  20.620 -0.35 +0.02    +0.062 A  ATOM      4  C   UNL     1      41.481  46.066  20.577 -0.33 -0.00    -0.036 A  ATOM      5  C   UNL     1      40.704  46.172  19.404 -0.40 +0.00    +0.014 A  ATOM      6  C   UNL     1      41.169  46.866  18.280 -0.52 -0.00    +0.004 A  ATOM      7  C   UNL     1      43.205  47.391  19.494 -0.45 +0.00    +0.016 A  ATOM      8  C   UNL     1      42.422  47.483  18.339 -0.44 -0.00    +0.011 A  ATOM      9  C   UNL     1      40.913  45.295  21.739 -0.30 +0.00    +0.045 C  BRANCH   6  10ATOM     10  C   UNL     1      40.362  47.008  17.029 -0.42 -0.02    +0.114 A  ATOM     11  N   UNL     1      39.390  46.161  16.812 -0.25 +0.05    -0.242 NA ATOM     12  C   UNL     1      40.623  48.063  16.072 -0.43 -0.03    +0.163 A  ATOM     13  C   UNL     1      38.616  46.270  15.634 -0.34 -0.03    +0.088 A  ATOM     14  N   UNL     1      41.520  49.030  16.139 -0.91 -0.01    -0.235 NA ATOM     15  N   UNL     1      39.865  48.164  14.931 -0.30 +0.08    -0.296 N  ATOM     16  C   UNL     1      37.595  45.345  15.421 -0.34 -0.01    +0.030 A  ATOM     17  C   UNL     1      38.827  47.263  14.661 -0.42 -0.02    +0.073 A  ATOM     18  C   UNL     1      41.344  49.762  14.993 -0.56 -0.03    +0.132 A  ATOM     19  C   UNL     1      40.326  49.243  14.225 -0.16 -0.04    +0.113 A  ATOM     20  C   UNL     1      36.802  45.411  14.271 -0.41 -0.00    +0.002 A  ATOM     21  C   UNL     1      38.043  47.343  13.507 -0.49 -0.01    +0.029 A  ATOM     22  C   UNL     1      37.027  46.406  13.319 -0.52 -0.00    +0.002 A  ENDBRANCH   6  10ENDBRANCH   1   3BRANCH   1  23ATOM     23  O   UNL     1      44.826  47.160  21.646 -0.67 -0.42    -0.478 OA ATOM     24  H   UNL     1      44.638  48.119  21.572 -0.41 +0.08    +0.297 HD ENDBRANCH   1  23TORSDOF 3TERENDMDL