REMARK SMILES NCCCCN1Cc2ccccc2C=Cc2cc(F)ccc2NO1
REMARK SMILES IDX 5 1 4 2 3 3 2 4 1 5 6 8 7 9 8 10 9 11 13 12 10 13 12 14
REMARK SMILES IDX 11 15 14 16 24 18 23 19 22 21 21 22 16 23 20 24 17 25 18 26
REMARK SMILES IDX 19 27 15 28
REMARK H PARENT 1 6 1 7 23 20
REMARK Flexibility Score:  104.900
ROOT
ATOM      1  C   UNL     1       1.770   0.494   0.462  1.00  0.00     0.118 C 
ENDROOT
BRANCH   1   2
ATOM      2  C   UNL     1       3.002  -0.419   0.401  1.00  0.00     0.019 C 
BRANCH   2   3
ATOM      3  C   UNL     1       4.294   0.403   0.394  1.00  0.00     0.016 C 
BRANCH   3   4
ATOM      4  C   UNL     1       5.523  -0.501   0.326  1.00  0.00     0.077 C 
BRANCH   4   5
ATOM      5  N   UNL     1       6.738   0.304   0.314  1.00  0.00    -0.330 NA
ATOM      6  H   UNL     1       6.806   0.837   1.180  1.00  0.00     0.118 HD
ATOM      7  H   UNL     1       7.550  -0.313   0.296  1.00  0.00     0.118 HD
ENDBRANCH   4   5
ENDBRANCH   3   4
ENDBRANCH   2   3
ENDBRANCH   1   2
BRANCH   1   8
ATOM      8  N   UNL     1       0.529  -0.273   0.579  1.00  0.00    -0.159 NA
BRANCH   8   9
ATOM      9  C   UNL     1       0.083  -0.920  -0.663  1.00  0.00     0.154 C 
BRANCH   9  10
ATOM     10  C   UNL     1      -0.892  -2.071  -0.437  1.00  0.00    -0.024 A 
ATOM     11  C   UNL     1      -0.381  -3.341  -0.116  1.00  0.00     0.006 A 
ATOM     12  C   UNL     1      -2.292  -1.913  -0.535  1.00  0.00    -0.021 A 
ATOM     13  C   UNL     1      -1.236  -4.428   0.076  1.00  0.00     0.000 A 
ATOM     14  C   UNL     1      -3.143  -3.008  -0.340  1.00  0.00     0.008 A 
ATOM     15  C   UNL     1      -2.614  -4.263  -0.041  1.00  0.00     0.001 A 
BRANCH  12  16
ATOM     16  C   UNL     1      -2.859  -0.587  -0.772  1.00  0.00     0.009 CG0
ATOM     17  G   UNL     1      -3.164   0.170   0.292  1.00  0.00     0.000 G0
ENDBRANCH  12  16
ENDBRANCH   9  10
ENDBRANCH   8   9
BRANCH   8  18
ATOM     18  O   UNL     1      -0.545   0.589   1.052  1.00  0.00    -0.183 OA
BRANCH  18  19
ATOM     19  N   UNL     1      -0.682   1.799   0.365  1.00  0.00    -0.247 N 
ATOM     20  H   UNL     1      -0.040   2.481   0.757  1.00  0.00     0.197 HD
BRANCH  19  21
ATOM     21  C   UNL     1      -1.979   2.379   0.220  1.00  0.00     0.070 A 
ATOM     22  C   UNL     1      -2.053   3.765  -0.011  1.00  0.00     0.032 A 
ATOM     23  C   UNL     1      -3.181   1.626   0.160  1.00  0.00     0.003 A 
ATOM     24  C   UNL     1      -3.282   4.394  -0.226  1.00  0.00     0.041 A 
ATOM     25  C   UNL     1      -4.409   2.262  -0.057  1.00  0.00     0.049 A 
ATOM     26  C   UNL     1      -4.446   3.638  -0.240  1.00  0.00     0.123 A 
ATOM     27  F   UNL     1      -5.622   4.244  -0.452  1.00  0.00    -0.207 F 
BRANCH  23  28
ATOM     28  C   UNL     1      -3.164   0.170   0.292  1.00  0.00     0.011 CG0
ATOM     29  G   UNL     1      -2.859  -0.587  -0.772  1.00  0.00     0.000 G0
ENDBRANCH  23  28
ENDBRANCH  19  21
ENDBRANCH  18  19
ENDBRANCH   8  18
ENDBRANCH   1   8
TORSDOF 5
