MODEL        7USER    Run = 7USERUSER    Estimated Free Energy of Binding    =  -5.99 kcal/mol  [=(1)+(2)+(3)-(4)]USERUSER    (1) Final Intermolecular Energy     =  -9.57 kcal/molUSER        vdW + Hbond + desolv Energy     = -10.14 kcal/molUSER        Electrostatic Energy            =  -0.08 kcal/molUSER        Moving Ligand-Fixed Receptor    = -10.22 kcal/molUSER        Moving Ligand-Moving Receptor   =  +0.64 kcal/molUSER    (2) Final Total Internal Energy     =  -2.86 kcal/molUSER    (3) Torsional Free Energy           =  +3.58 kcal/molUSER    (4) Unbound System's Energy         =  -2.86 kcal/molUSERUSERREMARK SMILES NCCCCN1Cc2ccccc2C=Cc2cc(F)ccc2NO1REMARK SMILES IDX 5 1 4 2 3 3 2 4 1 5 6 8 7 9 8 10 9 11 13 12 10 13 12 14REMARK SMILES IDX 11 15 14 16 24 18 23 19 22 21 21 22 16 23 20 24 17 25 18 26REMARK SMILES IDX 19 27 15 28REMARK H PARENT 1 6 1 7 23 20REMARK Flexibility Score:  104.900USER                              x       y       z     vdW  Elec       q    TypeUSER                           _______ _______ _______ _____ _____    ______ ____ROOTATOM      1  C   UNL     1      35.609  43.695  17.445 -0.31 -0.04    +0.118 C  ENDROOTBRANCH   1   2ATOM      2  C   UNL     1      34.097  43.676  17.186 -0.36 -0.01    +0.019 C  BRANCH   2   3ATOM      3  C   UNL     1      33.531  45.099  17.143 -0.39 -0.01    +0.016 C  BRANCH   3   4ATOM      4  C   UNL     1      33.789  45.836  18.455 -0.50 -0.04    +0.077 C  BRANCH   4   5ATOM      5  N   UNL     1      34.630  47.003  18.218 -0.54 +0.30    -0.330 NA ATOM      6  H   UNL     1      35.490  46.718  17.752 +0.05 -0.10    +0.118 HD ATOM      7  H   UNL     1      34.154  47.634  17.573 -0.45 -0.26    +0.118 HD ENDBRANCH   4   5ENDBRANCH   3   4ENDBRANCH   2   3ENDBRANCH   1   2BRANCH   1   8ATOM      8  N   UNL     1      36.252  44.861  16.837 -0.21 +0.07    -0.159 NA BRANCH   8   9ATOM      9  C   UNL     1      37.108  44.562  15.681 -0.30 -0.05    +0.154 C  BRANCH   9  10ATOM     10  C   UNL     1      36.996  45.587  14.556 -0.38 +0.01    -0.024 A  ATOM     11  C   UNL     1      35.855  45.572  13.734 -0.36 -0.00    +0.006 A  ATOM     12  C   UNL     1      37.993  46.556  14.307 -0.42 +0.01    -0.021 A  ATOM     13  C   UNL     1      35.723  46.477  12.679 -0.59 -0.00    +0.000 A  ATOM     14  C   UNL     1      37.852  47.460  13.247 -0.50 -0.00    +0.008 A  ATOM     15  C   UNL     1      36.722  47.415  12.433 -0.68 -0.00    +0.001 A  BRANCH  12  16ATOM     16  C   UNL     1      39.144  46.660  15.202 -0.50 -0.00    +0.009 CG0ATOM     17  G   UNL     1      38.969  47.254  16.391 +0.00 +0.00    +0.000 G0 ENDBRANCH  12  16ENDBRANCH   9  10ENDBRANCH   8   9BRANCH   8  18ATOM     18  O   UNL     1      37.058  45.557  17.830 -0.29 +0.06    -0.183 OA BRANCH  18  19ATOM     19  N   UNL     1      38.278  44.948  18.138 -0.23 +0.04    -0.247 N  ATOM     20  H   UNL     1      38.148  44.316  18.922 +0.12 -0.02    +0.197 HD BRANCH  19  21ATOM     21  C   UNL     1      39.432  45.761  18.355 -0.39 -0.01    +0.070 A  ATOM     22  C   UNL     1      40.325  45.371  19.369 -0.41 +0.00    +0.032 A  ATOM     23  C   UNL     1      39.798  46.854  17.525 -0.46 -0.00    +0.003 A  ATOM     24  C   UNL     1      41.508  46.079  19.599 -0.41 +0.00    +0.041 A  ATOM     25  C   UNL     1      40.985  47.559  17.760 -0.47 -0.01    +0.049 A  ATOM     26  C   UNL     1      41.821  47.168  18.797 -0.42 +0.00    +0.123 A  ATOM     27  F   UNL     1      42.958  47.842  19.017 -0.23 -0.01    -0.207 F  BRANCH  23  28ATOM     28  C   UNL     1      38.965  47.249  16.391 -0.50 -0.00    +0.011 CG0ATOM     29  G   UNL     1      39.141  46.655  15.202 +0.00 +0.00    +0.000 G0 ENDBRANCH  23  28ENDBRANCH  19  21ENDBRANCH  18  19ENDBRANCH   8  18ENDBRANCH   1   8TORSDOF 5TERENDMDL