REMARK SMILES Cc1cc(-c2nc3ccccc3n3ccnc23)ccc1C(=O)O
REMARK SMILES IDX 21 1 22 2 20 3 2 4 3 5 4 6 19 7 18 8 1 9 5 10 6 11 17 12
REMARK SMILES IDX 7 13 16 14 13 15 8 16 12 17 15 18 14 19 9 20 11 21 10 22
REMARK SMILES IDX 23 23
REMARK H PARENT 23 24
ROOT
ATOM      1  C   UNL     1      -5.208  -1.139  -0.009  1.00  0.00     0.335 C 
ATOM      2  O   UNL     1      -6.098  -0.476   0.491  1.00  0.00    -0.246 OA
ENDROOT
BRANCH   1   3
ATOM      3  C   UNL     1      -3.745  -0.836  -0.018  1.00  0.00     0.062 A 
ATOM      4  C   UNL     1      -3.245   0.397   0.451  1.00  0.00    -0.036 A 
ATOM      5  C   UNL     1      -1.853   0.627   0.431  1.00  0.00     0.014 A 
ATOM      6  C   UNL     1      -0.960  -0.336  -0.056  1.00  0.00     0.004 A 
ATOM      7  C   UNL     1      -2.843  -1.805  -0.492  1.00  0.00     0.016 A 
ATOM      8  C   UNL     1      -1.467  -1.558  -0.508  1.00  0.00     0.011 A 
ATOM      9  C   UNL     1      -4.138   1.487   0.982  1.00  0.00     0.045 C 
BRANCH   6  10
ATOM     10  C   UNL     1       0.520  -0.126  -0.077  1.00  0.00     0.114 A 
ATOM     11  N   UNL     1       1.302  -1.171  -0.001  1.00  0.00    -0.242 NA
ATOM     12  C   UNL     1       1.098   1.197  -0.196  1.00  0.00     0.163 A 
ATOM     13  C   UNL     1       2.705  -0.999  -0.013  1.00  0.00     0.088 A 
ATOM     14  N   UNL     1       0.479   2.355  -0.330  1.00  0.00    -0.235 NA
ATOM     15  N   UNL     1       2.463   1.356  -0.210  1.00  0.00    -0.296 N 
ATOM     16  C   UNL     1       3.515  -2.130   0.083  1.00  0.00     0.030 A 
ATOM     17  C   UNL     1       3.328   0.258  -0.114  1.00  0.00     0.073 A 
ATOM     18  C   UNL     1       1.480   3.289  -0.412  1.00  0.00     0.132 A 
ATOM     19  C   UNL     1       2.719   2.695  -0.336  1.00  0.00     0.113 A 
ATOM     20  C   UNL     1       4.908  -2.011   0.076  1.00  0.00     0.002 A 
ATOM     21  C   UNL     1       4.718   0.393  -0.123  1.00  0.00     0.029 A 
ATOM     22  C   UNL     1       5.506  -0.754  -0.027  1.00  0.00     0.002 A 
ENDBRANCH   6  10
ENDBRANCH   1   3
BRANCH   1  23
ATOM     23  O   UNL     1      -5.503  -2.286  -0.651  1.00  0.00    -0.478 OA
ATOM     24  H   UNL     1      -6.478  -2.349  -0.572  1.00  0.00     0.297 HD
ENDBRANCH   1  23
TORSDOF 3
