MODEL        8USER    Run = 8USERUSER    Estimated Free Energy of Binding    =  -7.79 kcal/mol  [=(1)+(2)+(3)-(4)]USERUSER    (1) Final Intermolecular Energy     =  -9.58 kcal/molUSER        vdW + Hbond + desolv Energy     =  -9.57 kcal/molUSER        Electrostatic Energy            =  -0.01 kcal/molUSER        Moving Ligand-Fixed Receptor    =  -9.58 kcal/molUSER        Moving Ligand-Moving Receptor   =  +0.00 kcal/molUSER    (2) Final Total Internal Energy     =  -1.42 kcal/molUSER    (3) Torsional Free Energy           =  +1.79 kcal/molUSER    (4) Unbound System's Energy         =  -1.42 kcal/molUSERUSERREMARK SMILES CCCCCOc1ccccc1C(=O)NC1=NN=C(N)[S@H]1CREMARK SMILES IDX 5 1 4 2 3 3 2 4 1 5 6 6 7 7 8 8 12 9 9 10 11 11 10 12 13 13REMARK SMILES IDX 15 14 16 15 17 16 21 17 18 18 19 19 20 20 14 21 22 23REMARK H PARENT 15 22 21 24 20 25 20 26USER                              x       y       z     vdW  Elec       q    TypeUSER                           _______ _______ _______ _____ _____    ______ ____ROOTATOM      1  C   UNL     1      41.048  48.870  16.596 -0.37 -0.02    +0.229 C  ENDROOTBRANCH   1   2ATOM      2  C   UNL     1      40.363  49.393  15.338 -0.62 -0.02    +0.042 C  BRANCH   2   3ATOM      3  C   UNL     1      41.237  49.379  14.082 -0.60 -0.00    +0.003 C  BRANCH   3   4ATOM      4  C   UNL     1      42.394  50.383  14.093 -0.75 +0.00    -0.003 C  ATOM      5  C   UNL     1      42.898  50.734  12.701 -0.75 -0.00    +0.004 C  ENDBRANCH   3   4ENDBRANCH   2   3ENDBRANCH   1   2BRANCH   1   6ATOM      6  O   UNL     1      40.962  47.441  16.568 -0.17 +0.06    -0.493 OA BRANCH   6   7ATOM      7  C   UNL     1      40.955  46.766  17.764 -0.41 -0.01    +0.132 A  ATOM      8  C   UNL     1      41.966  46.907  18.728 -0.51 +0.00    +0.047 A  ATOM      9  C   UNL     1      39.872  45.896  18.024 -0.40 -0.01    +0.082 A  ATOM     10  C   UNL     1      41.911  46.201  19.933 -0.41 +0.00    +0.004 A  ATOM     11  C   UNL     1      39.837  45.196  19.246 -0.41 -0.00    +0.018 A  ATOM     12  C   UNL     1      40.849  45.345  20.193 -0.39 +0.00    +0.001 A  BRANCH   9  13ATOM     13  C   UNL     1      38.720  45.646  17.084 -0.27 -0.06    +0.260 C  ATOM     14  N   UNL     1      38.621  46.493  16.009 -0.19 +0.10    -0.301 N  ATOM     15  C   UNL     1      37.653  46.385  15.059 -0.33 -0.08    +0.176 C  ATOM     16  N   UNL     1      36.669  45.532  14.914 -0.29 +0.06    -0.124 NA ATOM     17  S   UNL     1      37.702  47.537  13.865 -0.63 +0.05    -0.135 S  ATOM     18  N   UNL     1      35.967  45.763  13.728 -0.36 +0.07    -0.125 NA ATOM     19  C   UNL     1      36.458  46.777  13.050 -0.53 -0.08    +0.167 C  ATOM     20  N   UNL     1      36.028  47.188  11.849 -0.32 +0.21    -0.378 N  ATOM     21  O   UNL     1      37.952  44.721  17.331 -0.23 +0.06    -0.269 OA ATOM     22  H   UNL     1      39.296  47.235  15.896 +0.13 -0.05    +0.172 HD ATOM     23  C   UNL     1      36.940  48.938  14.543 -0.45 -0.07    +0.077 C  ATOM     24  H   UNL     1      38.808  47.486  13.095 +0.05 -0.01    +0.098 HD ATOM     25  H   UNL     1      35.121  46.831  11.571 -0.10 -0.13    +0.158 HD ATOM     26  H   UNL     1      36.190  48.152  11.587 -0.27 -0.09    +0.158 HD ENDBRANCH   9  13ENDBRANCH   6   7ENDBRANCH   1   6TORSDOF 6TERENDMDL