REMARK SMILES N#CC=CC=C(C=C1N=CC(NCc2ccccc2)=C(Cl)C1=N)SN
REMARK SMILES IDX 6 1 5 2 4 3 3 4 2 5 1 6 7 7 8 8 9 9 22 10 10 11 20 12 11 13
REMARK SMILES IDX 21 14 23 15 12 17 13 19 14 20 15 21 19 22 16 23 18 24 17 25
REMARK SMILES IDX 24 26 25 27
REMARK H PARENT 23 16 12 18 25 28 25 29
ROOT
ATOM      1  C   UNL     1       3.945   1.159  -0.529  1.00  0.00     0.025 C 
ENDROOT
BRANCH   1   2
ATOM      2  C   UNL     1       5.130   0.522  -0.632  1.00  0.00     0.017 C 
BRANCH   2   3
ATOM      3  C   UNL     1       5.661  -0.458   0.299  1.00  0.00     0.012 C 
BRANCH   3   4
ATOM      4  C   UNL     1       6.858  -1.042   0.137  1.00  0.00     0.090 C 
BRANCH   4   5
ATOM      5  C   UNL     1       7.365  -1.992   1.065  1.00  0.00     0.091 C 
ATOM      6  N   UNL     1       7.783  -2.766   1.819  1.00  0.00    -0.193 NA
ENDBRANCH   4   5
ENDBRANCH   3   4
ENDBRANCH   2   3
ENDBRANCH   1   2
BRANCH   1   7
ATOM      7  C   UNL     1       3.022   0.960   0.573  1.00  0.00     0.047 C 
BRANCH   7   8
ATOM      8  C   UNL     1       1.949   0.151   0.652  1.00  0.00     0.091 C 
ATOM      9  N   UNL     1       1.179   0.189   1.792  1.00  0.00    -0.252 NA
ATOM     10  C   UNL     1       1.518  -0.737  -0.492  1.00  0.00     0.100 C 
ATOM     11  C   UNL     1      -0.073  -0.101   1.641  1.00  0.00     0.139 C 
ATOM     12  C   UNL     1       0.033  -0.817  -0.628  1.00  0.00     0.092 C 
ATOM     13  C   UNL     1      -0.785  -0.472   0.381  1.00  0.00     0.074 C 
ATOM     14  Cl  UNL     1      -0.599  -1.350  -2.150  1.00  0.00    -0.080 Cl
BRANCH  10  15
ATOM     15  N   UNL     1       2.311  -1.388  -1.288  1.00  0.00    -0.297 NA
ATOM     16  H   UNL     1       3.285  -1.256  -1.008  1.00  0.00     0.188 HD
ENDBRANCH  10  15
BRANCH  13  17
ATOM     17  N   UNL     1      -2.175  -0.498   0.363  1.00  0.00    -0.378 N 
ATOM     18  H   UNL     1      -2.550  -0.670  -0.572  1.00  0.00     0.161 HD
BRANCH  17  19
ATOM     19  C   UNL     1      -3.048   0.307   1.200  1.00  0.00     0.148 C 
BRANCH  19  20
ATOM     20  C   UNL     1      -4.461   0.222   0.681  1.00  0.00    -0.029 A 
ATOM     21  C   UNL     1      -5.004   1.260  -0.091  1.00  0.00     0.005 A 
ATOM     22  C   UNL     1      -5.240  -0.919   0.930  1.00  0.00     0.005 A 
ATOM     23  C   UNL     1      -6.305   1.165  -0.588  1.00  0.00     0.000 A 
ATOM     24  C   UNL     1      -6.541  -1.010   0.433  1.00  0.00     0.000 A 
ATOM     25  C   UNL     1      -7.073   0.032  -0.325  1.00  0.00     0.000 A 
ENDBRANCH  19  20
ENDBRANCH  17  19
ENDBRANCH  13  17
ENDBRANCH   7   8
ENDBRANCH   1   7
BRANCH   1  26
ATOM     26  S   UNL     1       3.533   2.368  -1.728  1.00  0.00    -0.048 SA
BRANCH  26  27
ATOM     27  N   UNL     1       2.164   1.698  -2.370  1.00  0.00    -0.274 NA
ATOM     28  H   UNL     1       2.326   0.733  -2.674  1.00  0.00     0.132 HD
ATOM     29  H   UNL     1       1.878   2.203  -3.210  1.00  0.00     0.132 HD
ENDBRANCH  26  27
ENDBRANCH   1  26
TORSDOF 12
