REMARK SMILES CCCCCOc1ccccc1C(=O)NC1=NN=C(N)[S@H]1C
REMARK SMILES IDX 5 1 4 2 3 3 2 4 1 5 6 6 7 7 8 8 12 9 9 10 11 11 10 12 13 13
REMARK SMILES IDX 15 14 16 15 17 16 21 17 18 18 19 19 20 20 14 21 22 23
REMARK H PARENT 15 22 21 24 20 25 20 26
ROOT
ATOM      1  C   UNL     1       1.622  -0.609   0.228  1.00  0.00     0.229 C 
ENDROOT
BRANCH   1   2
ATOM      2  C   UNL     1       1.165   0.229   1.417  1.00  0.00     0.042 C 
BRANCH   2   3
ATOM      3  C   UNL     1       2.119   0.216   2.613  1.00  0.00     0.003 C 
BRANCH   3   4
ATOM      4  C   UNL     1       3.501   0.817   2.339  1.00  0.00    -0.003 C 
ATOM      5  C   UNL     1       4.548  -0.225   1.973  1.00  0.00     0.004 C 
ENDBRANCH   3   4
ENDBRANCH   2   3
ENDBRANCH   1   2
BRANCH   1   6
ATOM      6  O   UNL     1       0.555  -0.615  -0.727  1.00  0.00    -0.493 OA
BRANCH   6   7
ATOM      7  C   UNL     1       0.747  -1.280  -1.913  1.00  0.00     0.132 A 
ATOM      8  C   UNL     1       1.910  -2.012  -2.201  1.00  0.00     0.047 A 
ATOM      9  C   UNL     1      -0.285  -1.221  -2.877  1.00  0.00     0.082 A 
ATOM     10  C   UNL     1       2.056  -2.676  -3.422  1.00  0.00     0.004 A 
ATOM     11  C   UNL     1      -0.117  -1.899  -4.100  1.00  0.00     0.018 A 
ATOM     12  C   UNL     1       1.045  -2.620  -4.372  1.00  0.00     0.001 A 
BRANCH   9  13
ATOM     13  C   UNL     1      -1.585  -0.475  -2.706  1.00  0.00     0.260 C 
ATOM     14  N   UNL     1      -1.738   0.212  -1.528  1.00  0.00    -0.301 N 
ATOM     15  C   UNL     1      -2.841   0.951  -1.233  1.00  0.00     0.176 C 
ATOM     16  N   UNL     1      -3.932   1.197  -1.916  1.00  0.00    -0.124 NA
ATOM     17  S   UNL     1      -2.830   1.671   0.263  1.00  0.00    -0.135 S 
ATOM     18  N   UNL     1      -4.768   2.087  -1.237  1.00  0.00    -0.125 NA
ATOM     19  C   UNL     1      -4.263   2.457  -0.080  1.00  0.00     0.167 C 
ATOM     20  N   UNL     1      -4.812   3.349   0.756  1.00  0.00    -0.378 N 
ATOM     21  O   UNL     1      -2.414  -0.528  -3.609  1.00  0.00    -0.269 OA
ATOM     22  H   UNL     1      -1.002   0.186  -0.837  1.00  0.00     0.172 HD
ATOM     23  C   UNL     1      -3.309   0.433   1.376  1.00  0.00     0.077 C 
ATOM     24  H   UNL     1      -1.864   2.599   0.421  1.00  0.00     0.098 HD
ATOM     25  H   UNL     1      -5.787   3.564   0.577  1.00  0.00     0.158 HD
ATOM     26  H   UNL     1      -4.576   3.293   1.738  1.00  0.00     0.158 HD
ENDBRANCH   9  13
ENDBRANCH   6   7
ENDBRANCH   1   6
TORSDOF 6
