REMARK SMILES O=C1/C(=C\c2ccc3ncccc3c2O)CC/C1=C\c1ccccc1F
REMARK SMILES IDX 1 1 2 2 3 3 16 4 17 5 18 6 4 7 5 8 6 9 14 10 7 11 13 12 8 13
REMARK SMILES IDX 12 14 9 15 11 16 10 17 15 18 19 20 20 21 21 22 25 23 22 24
REMARK SMILES IDX 24 25 23 26 26 27
REMARK H PARENT 15 19
ROOT
ATOM      1  O   UNL     1      -0.281  -0.819  -0.415  1.00  0.00    -0.289 OA
ATOM      2  C   UNL     1       0.396  -0.079   0.275  1.00  0.00     0.185 C 
ATOM      3  C   UNL     1      -0.098   0.809   1.359  1.00  0.00     0.001 C 
ATOM      4  C   UNL     1       1.094   1.204   2.184  1.00  0.00     0.044 C 
ATOM      5  C   UNL     1       2.284   1.089   1.235  1.00  0.00     0.044 C 
ATOM      6  C   UNL     1       1.876   0.041   0.247  1.00  0.00     0.001 C 
ENDROOT
BRANCH   3   7
ATOM      7  C   UNL     1      -1.350   1.245   1.566  1.00  0.00     0.019 C 
BRANCH   7   8
ATOM      8  C   UNL     1      -2.567   1.006   0.773  1.00  0.00     0.017 A 
ATOM      9  C   UNL     1      -3.261   2.133   0.323  1.00  0.00     0.014 A 
ATOM     10  C   UNL     1      -3.135  -0.250   0.520  1.00  0.00     0.132 A 
ATOM     11  C   UNL     1      -4.475   2.001  -0.362  1.00  0.00     0.030 A 
ATOM     12  C   UNL     1      -4.369  -0.389  -0.158  1.00  0.00     0.043 A 
ATOM     13  C   UNL     1      -5.046   0.762  -0.609  1.00  0.00     0.074 A 
ATOM     14  C   UNL     1      -4.971  -1.633  -0.421  1.00  0.00     0.016 A 
ATOM     15  N   UNL     1      -6.219   0.707  -1.265  1.00  0.00    -0.256 NA
ATOM     16  C   UNL     1      -6.182  -1.697  -1.098  1.00  0.00     0.021 A 
ATOM     17  C   UNL     1      -6.760  -0.509  -1.496  1.00  0.00     0.112 A 
BRANCH  10  18
ATOM     18  O   UNL     1      -2.490  -1.394   0.925  1.00  0.00    -0.507 OA
ATOM     19  H   UNL     1      -1.653  -1.394   0.407  1.00  0.00     0.293 HD
ENDBRANCH  10  18
ENDBRANCH   7   8
ENDBRANCH   3   7
BRANCH   6  20
ATOM     20  C   UNL     1       2.621  -0.759  -0.527  1.00  0.00     0.019 C 
BRANCH  20  21
ATOM     21  C   UNL     1       4.086  -0.733  -0.593  1.00  0.00     0.011 A 
ATOM     22  C   UNL     1       4.784   0.439  -0.912  1.00  0.00     0.011 A 
ATOM     23  C   UNL     1       4.815  -1.909  -0.383  1.00  0.00     0.130 A 
ATOM     24  C   UNL     1       6.181   0.431  -0.990  1.00  0.00     0.001 A 
ATOM     25  C   UNL     1       6.205  -1.922  -0.460  1.00  0.00     0.040 A 
ATOM     26  C   UNL     1       6.891  -0.747  -0.761  1.00  0.00     0.003 A 
ATOM     27  F   UNL     1       4.179  -3.055  -0.095  1.00  0.00    -0.206 F 
ENDBRANCH  20  21
ENDBRANCH   6  20
TORSDOF 5
