MODEL        4USER    Run = 4USERUSER    Estimated Free Energy of Binding    =  -8.81 kcal/mol  [=(1)+(2)+(3)-(4)]USERUSER    (1) Final Intermolecular Energy     = -12.39 kcal/molUSER        vdW + Hbond + desolv Energy     = -12.33 kcal/molUSER        Electrostatic Energy            =  -0.06 kcal/molUSER        Moving Ligand-Fixed Receptor    = -12.39 kcal/molUSER        Moving Ligand-Moving Receptor   =  +0.00 kcal/molUSER    (2) Final Total Internal Energy     =  -2.85 kcal/molUSER    (3) Torsional Free Energy           =  +3.58 kcal/molUSER    (4) Unbound System's Energy         =  -2.85 kcal/molUSERUSERREMARK SMILES N#CC=CC=C(C=C1N=CC(NCc2ccccc2)=C(Cl)C1=N)SNREMARK SMILES IDX 6 1 5 2 4 3 3 4 2 5 1 6 7 7 8 8 9 9 22 10 10 11 20 12 11 13REMARK SMILES IDX 21 14 23 15 12 17 13 19 14 20 15 21 19 22 16 23 18 24 17 25REMARK SMILES IDX 24 26 25 27REMARK H PARENT 23 16 12 18 25 28 25 29USER                              x       y       z     vdW  Elec       q    TypeUSER                           _______ _______ _______ _____ _____    ______ ____ROOTATOM      1  C   UNL     1      39.959  46.936  15.295 -0.52 -0.00    +0.025 C  ENDROOTBRANCH   1   2ATOM      2  C   UNL     1      38.965  46.414  14.547 -0.48 -0.00    +0.017 C  BRANCH   2   3ATOM      3  C   UNL     1      37.547  46.448  14.860 -0.46 -0.01    +0.012 C  BRANCH   3   4ATOM      4  C   UNL     1      36.734  47.432  14.449 -0.46 -0.06    +0.090 C  BRANCH   4   5ATOM      5  C   UNL     1      36.648  47.817  13.083 -0.63 -0.04    +0.091 C  ATOM      6  N   UNL     1      36.576  48.126  11.969 -0.92 +0.07    -0.193 NA ENDBRANCH   4   5ENDBRANCH   3   4ENDBRANCH   2   3ENDBRANCH   1   2BRANCH   1   7ATOM      7  C   UNL     1      40.562  46.246  16.421 -0.44 -0.00    +0.047 C  BRANCH   7   8ATOM      8  C   UNL     1      40.308  46.376  17.736 -0.48 -0.01    +0.091 C  ATOM      9  N   UNL     1      39.082  45.972  18.213 -0.26 +0.04    -0.252 NA ATOM     10  C   UNL     1      41.344  46.876  18.716 -0.49 -0.00    +0.100 C  ATOM     11  C   UNL     1      39.057  45.560  19.439 -0.34 -0.01    +0.139 C  ATOM     12  C   UNL     1      41.285  46.164  20.027 -0.38 +0.01    +0.092 C  ATOM     13  C   UNL     1      40.197  45.469  20.401 -0.38 +0.00    +0.074 C  ATOM     14  Cl  UNL     1      42.687  46.246  21.041 -0.45 -0.02    -0.080 Cl BRANCH  10  15ATOM     15  N   UNL     1      42.203  47.824  18.494 -0.37 +0.00    -0.297 NA ATOM     16  H   UNL     1      42.632  47.709  17.573 -0.44 -0.02    +0.188 HD ENDBRANCH  10  15BRANCH  13  17ATOM     17  N   UNL     1      40.036  44.764  21.588 -0.08 -0.02    -0.378 N  ATOM     18  H   UNL     1      40.524  43.866  21.578 +0.09 +0.01    +0.161 HD BRANCH  17  19ATOM     19  C   UNL     1      38.845  44.768  22.421 -0.28 +0.01    +0.148 C  BRANCH  19  20ATOM     20  C   UNL     1      37.908  43.679  21.965 -0.34 -0.00    -0.029 A  ATOM     21  C   UNL     1      38.015  42.379  22.484 -0.38 +0.00    +0.005 A  ATOM     22  C   UNL     1      36.887  43.961  21.044 -0.41 +0.00    +0.005 A  ATOM     23  C   UNL     1      37.129  41.380  22.075 -0.56 +0.00    +0.000 A  ATOM     24  C   UNL     1      36.005  42.960  20.636 -0.45 +0.00    +0.000 A  ATOM     25  C   UNL     1      36.127  41.670  21.151 -0.51 +0.00    +0.000 A  ENDBRANCH  19  20ENDBRANCH  17  19ENDBRANCH  13  17ENDBRANCH   7   8ENDBRANCH   1   7BRANCH   1  26ATOM     26  S   UNL     1      40.637  48.483  14.831 -0.75 +0.01    -0.048 SA BRANCH  26  27ATOM     27  N   UNL     1      41.428  48.893  16.224 -0.89 +0.00    -0.274 NA ATOM     28  H   UNL     1      42.241  48.290  16.385 -0.30 +0.02    +0.132 HD ATOM     29  H   UNL     1      40.823  48.755  17.034 +0.07 -0.02    +0.132 HD ENDBRANCH  26  27ENDBRANCH   1  26TORSDOF 12TERENDMDL