MODEL        4USER    Run = 4USERUSER    Estimated Free Energy of Binding    =  -8.44 kcal/mol  [=(1)+(2)+(3)-(4)]USERUSER    (1) Final Intermolecular Energy     = -10.53 kcal/molUSER        vdW + Hbond + desolv Energy     = -10.21 kcal/molUSER        Electrostatic Energy            =  -0.31 kcal/molUSER        Moving Ligand-Fixed Receptor    = -10.53 kcal/molUSER        Moving Ligand-Moving Receptor   =  +0.00 kcal/molUSER    (2) Final Total Internal Energy     =  -0.98 kcal/molUSER    (3) Torsional Free Energy           =  +2.09 kcal/molUSER    (4) Unbound System's Energy         =  -0.98 kcal/molUSERUSERREMARK SMILES CCC[C@@H](C)NC(=O)c1ccc(-c2ccc(OC)cc2)cc1C#NREMARK SMILES IDX 6 1 7 2 8 3 4 5 5 6 3 7 2 8 1 9 9 10 10 11 22 12 11 13 21 14REMARK SMILES IDX 12 15 23 16 24 17 13 18 14 19 20 20 15 21 19 22 16 23 17 24REMARK SMILES IDX 18 25REMARK H PARENT 6 4USER                              x       y       z     vdW  Elec       q    TypeUSER                           _______ _______ _______ _____ _____    ______ ____ROOTATOM      1  N   UNL     1      32.432  45.309  15.694 -0.13 +0.26    -0.350 N  ATOM      2  C   UNL     1      33.565  44.620  16.068 -0.20 -0.15    +0.252 C  ATOM      3  O   UNL     1      33.583  43.464  16.468 -0.22 +0.12    -0.269 OA ATOM      4  H   UNL     1      32.516  46.250  15.330 -0.37 -0.22    +0.164 HD ENDROOTBRANCH   1   5ATOM      5  C   UNL     1      31.119  44.671  15.665 -0.37 -0.04    +0.079 C  ATOM      6  C   UNL     1      31.229  43.303  14.996 -0.36 -0.02    +0.031 C  BRANCH   5   7ATOM      7  C   UNL     1      30.115  45.611  14.974 -0.48 -0.01    +0.024 C  BRANCH   7   8ATOM      8  C   UNL     1      30.728  46.555  13.936 -0.63 +0.00    -0.001 C  ATOM      9  C   UNL     1      30.228  46.297  12.521 -0.70 -0.00    +0.004 C  ENDBRANCH   7   8ENDBRANCH   5   7ENDBRANCH   1   5BRANCH   2  10ATOM     10  C   UNL     1      34.832  45.375  15.953 -0.29 -0.04    +0.057 A  ATOM     11  C   UNL     1      35.678  45.115  14.868 -0.33 -0.01    +0.016 A  ATOM     12  C   UNL     1      35.204  46.306  16.928 -0.28 -0.06    +0.065 A  ATOM     13  C   UNL     1      36.893  45.795  14.751 -0.38 -0.00    +0.009 A  ATOM     14  C   UNL     1      36.428  46.984  16.796 -0.02 -0.02    +0.029 A  ATOM     15  C   UNL     1      37.289  46.741  15.710 -0.39 +0.01    -0.017 A  BRANCH  12  16ATOM     16  C   UNL     1      34.356  46.635  18.038 -0.46 -0.09    +0.100 C  ATOM     17  N   UNL     1      33.732  46.946  18.967 -0.82 +0.12    -0.192 NA ENDBRANCH  12  16BRANCH  15  18ATOM     18  C   UNL     1      38.569  47.456  15.586 -0.45 +0.01    -0.018 A  ATOM     19  C   UNL     1      39.515  47.439  16.624 -0.47 -0.00    +0.012 A  ATOM     20  C   UNL     1      38.885  48.179  14.426 -0.51 -0.00    +0.012 A  ATOM     21  C   UNL     1      40.734  48.119  16.511 -0.52 -0.01    +0.047 A  ATOM     22  C   UNL     1      40.103  48.859  14.313 -0.38 -0.02    +0.047 A  ATOM     23  C   UNL     1      41.034  48.832  15.351 -0.50 -0.02    +0.118 A  BRANCH  23  24ATOM     24  O   UNL     1      42.179  49.537  15.111 -0.44 -0.04    -0.497 OA ATOM     25  C   UNL     1      42.216  50.322  13.925 -0.50 -0.06    +0.278 C  ENDBRANCH  23  24ENDBRANCH  15  18ENDBRANCH   2  10TORSDOF 7TERENDMDL