MODEL        6USER    Run = 6USERUSER    Estimated Free Energy of Binding    =  -6.89 kcal/mol  [=(1)+(2)+(3)-(4)]USERUSER    (1) Final Intermolecular Energy     = -11.37 kcal/molUSER        vdW + Hbond + desolv Energy     = -11.67 kcal/molUSER        Electrostatic Energy            =  -0.15 kcal/molUSER        Moving Ligand-Fixed Receptor    = -11.83 kcal/molUSER        Moving Ligand-Moving Receptor   =  +0.46 kcal/molUSER    (2) Final Total Internal Energy     =  -1.56 kcal/molUSER    (3) Torsional Free Energy           =  +4.47 kcal/molUSER    (4) Unbound System's Energy         =  -1.56 kcal/molUSERUSERREMARK SMILES CC(C)Oc1ccc(-c2nc(N=N)c(C3=CNCCOCC3)cc2-c2ccc(N)nc2)cc1REMARK SMILES IDX 9 1 10 2 11 3 14 4 23 5 24 6 8 7 5 8 6 9 33 10 7 11 32 12REMARK SMILES IDX 4 13 2 14 1 15 3 16 25 17 26 18 31 19 27 20 30 21 28 22REMARK SMILES IDX 29 23 12 26 13 27 15 29 16 30 17 31 18 33 22 35 21 36 20 37REMARK SMILES IDX 19 38REMARK H PARENT 29 24 29 25 13 28 17 32REMARK Flexibility Score:   24.900USER                              x       y       z     vdW  Elec       q    TypeUSER                           _______ _______ _______ _____ _____    ______ ____ROOTATOM      1  C   UNL     1      38.974  47.680  15.950 -0.42 -0.03    +0.081 A  ATOM      2  N   UNL     1      37.889  47.593  15.134 -0.28 +0.12    -0.226 NA ATOM      3  C   UNL     1      36.870  46.754  15.486 -0.26 -0.12    +0.181 A  ATOM      4  C   UNL     1      36.893  45.967  16.638 -0.35 -0.01    +0.026 A  ATOM      5  C   UNL     1      38.037  46.063  17.446 -0.35 -0.01    +0.023 A  ATOM      6  C   UNL     1      39.105  46.920  17.124 -0.42 -0.00    +0.010 A  ENDROOTBRANCH   1   7ATOM      7  C   UNL     1      39.979  48.648  15.474 -0.58 -0.00    +0.001 A  ATOM      8  C   UNL     1      41.920  50.479  14.527 -0.53 -0.03    +0.119 A  ATOM      9  C   UNL     1      41.102  50.804  15.610 -0.15 -0.02    +0.047 A  ATOM     10  C   UNL     1      41.752  49.248  13.897 -0.43 -0.01    +0.047 A  ATOM     11  C   UNL     1      40.144  49.901  16.080 -0.18 -0.01    +0.014 A  ATOM     12  C   UNL     1      40.789  48.344  14.365 -0.28 -0.00    +0.014 A  BRANCH   8  13ATOM     13  O   UNL     1      42.806  51.455  14.169 -0.21 +0.11    -0.491 OA BRANCH  13  14ATOM     14  C   UNL     1      43.570  51.282  12.968 -0.25 -0.08    +0.167 C  ATOM     15  C   UNL     1      44.614  52.396  12.947 -0.28 -0.02    +0.052 C  ATOM     16  C   UNL     1      42.652  51.402  11.753 -0.48 -0.03    +0.052 C  ENDBRANCH  13  14ENDBRANCH   8  13ENDBRANCH   1   7BRANCH   6  17ATOM     17  C   UNL     1      40.287  46.952  17.997 -0.47 -0.00    +0.002 A  ATOM     18  C   UNL     1      41.391  47.760  17.706 -0.51 -0.00    +0.014 A  ATOM     19  C   UNL     1      40.364  46.204  19.171 -0.33 -0.00    +0.122 A  ATOM     20  C   UNL     1      42.490  47.775  18.565 -0.46 +0.00    +0.047 A  ATOM     21  N   UNL     1      41.419  46.206  20.022 -0.26 -0.02    -0.239 NA ATOM     22  C   UNL     1      42.465  46.983  19.702 -0.39 +0.02    +0.123 A  BRANCH  22  23ATOM     23  N   UNL     1      43.533  46.987  20.593 -0.19 -0.18    -0.384 N  ATOM     24  H   UNL     1      43.259  46.635  21.502 +0.07 +0.06    +0.158 HD ATOM     25  H   UNL     1      43.863  47.948  20.648 -0.47 +0.01    +0.158 HD ENDBRANCH  22  23ENDBRANCH   6  17BRANCH   3  26ATOM     26  N   UNL     1      35.765  46.735  14.601 -0.32 +0.12    -0.138 NA BRANCH  26  27ATOM     27  N   UNL     1      36.032  47.188  13.462 -0.39 +0.13    -0.203 NA ATOM     28  H   UNL     1      36.566  48.075  13.507 +0.17 -0.12    +0.214 HD ENDBRANCH  26  27ENDBRANCH   3  26BRANCH   4  29ATOM     29  C   UNL     1      35.815  45.025  17.028 -0.37 +0.01    -0.019 C  BRANCH  29  30ATOM     30  C   UNL     1      34.685  45.528  17.563 -0.38 -0.05    +0.082 C  BRANCH  30  31ATOM     31  N   UNL     1      33.366  45.442  17.167 -0.09 +0.27    -0.388 N  ATOM     32  H   UNL     1      33.032  46.310  16.747 -0.37 -0.24    +0.160 HD BRANCH  31  33ATOM     33  C   UNL     1      32.687  44.259  16.652 -0.28 -0.06    +0.140 CG0ATOM     34  G   UNL     1      32.895  43.015  17.523 +0.00 +0.00    +0.000 G0 ENDBRANCH  31  33ENDBRANCH  30  31ENDBRANCH  29  30BRANCH  29  35ATOM     35  C   UNL     1      36.080  43.551  16.827 -0.38 -0.02    +0.066 C  BRANCH  35  36ATOM     36  C   UNL     1      35.262  42.583  17.700 -0.33 -0.05    +0.165 C  BRANCH  36  37ATOM     37  O   UNL     1      34.001  42.190  17.172 -0.22 +0.16    -0.379 OA BRANCH  37  38ATOM     38  C   UNL     1      32.893  43.015  17.518 -0.26 -0.06    +0.181 CG0ATOM     39  G   UNL     1      32.688  44.261  16.648 +0.00 +0.00    +0.000 G0 ENDBRANCH  37  38ENDBRANCH  36  37ENDBRANCH  35  36ENDBRANCH  29  35ENDBRANCH   4  29TORSDOF 8TERENDMDL