MODEL        7USER    Run = 7USERUSER    Estimated Free Energy of Binding    =  -9.17 kcal/mol  [=(1)+(2)+(3)-(4)]USERUSER    (1) Final Intermolecular Energy     = -10.66 kcal/molUSER        vdW + Hbond + desolv Energy     = -10.63 kcal/molUSER        Electrostatic Energy            =  -0.03 kcal/molUSER        Moving Ligand-Fixed Receptor    = -10.66 kcal/molUSER        Moving Ligand-Moving Receptor   =  +0.00 kcal/molUSER    (2) Final Total Internal Energy     =  -1.67 kcal/molUSER    (3) Torsional Free Energy           =  +1.49 kcal/molUSER    (4) Unbound System's Energy         =  -1.67 kcal/molUSERUSERREMARK SMILES O=C1/C(=C\c2ccc3ncccc3c2O)CC/C1=C\c1ccccc1FREMARK SMILES IDX 1 1 2 2 3 3 16 4 17 5 18 6 4 7 5 8 6 9 14 10 7 11 13 12 8 13REMARK SMILES IDX 12 14 9 15 11 16 10 17 15 18 19 20 20 21 21 22 25 23 22 24REMARK SMILES IDX 24 25 23 26 26 27REMARK H PARENT 15 19USER                              x       y       z     vdW  Elec       q    TypeUSER                           _______ _______ _______ _____ _____    ______ ____ROOTATOM      1  O   UNL     1      38.019  45.817  18.363 -0.25 +0.06    -0.289 OA ATOM      2  C   UNL     1      39.121  45.771  18.879 -0.33 -0.02    +0.185 C  ATOM      3  C   UNL     1      40.404  46.176  18.250 -0.54 -0.00    +0.001 C  ATOM      4  C   UNL     1      41.407  46.337  19.357 -0.49 +0.00    +0.044 C  ATOM      5  C   UNL     1      40.904  45.433  20.478 -0.40 +0.00    +0.044 C  ATOM      6  C   UNL     1      39.421  45.379  20.280 -0.42 +0.00    +0.001 C  ENDROOTBRANCH   3   7ATOM      7  C   UNL     1      40.675  46.326  16.944 -0.51 -0.00    +0.019 C  BRANCH   7   8ATOM      8  C   UNL     1      39.774  46.686  15.837 -0.45 -0.00    +0.017 A  ATOM      9  C   UNL     1      40.015  47.904  15.195 -0.53 -0.00    +0.014 A  ATOM     10  C   UNL     1      38.643  45.958  15.444 -0.29 -0.04    +0.132 A  ATOM     11  C   UNL     1      39.156  48.368  14.192 -0.44 -0.01    +0.030 A  ATOM     12  C   UNL     1      37.763  46.428  14.441 -0.39 -0.02    +0.043 A  ATOM     13  C   UNL     1      38.031  47.656  13.803 -0.46 -0.03    +0.074 A  ATOM     14  C   UNL     1      36.615  45.727  14.029 -0.42 -0.01    +0.016 A  ATOM     15  N   UNL     1      37.243  48.163  12.838 -0.88 +0.06    -0.256 NA ATOM     16  C   UNL     1      35.797  46.245  13.033 -0.54 -0.01    +0.021 A  ATOM     17  C   UNL     1      36.152  47.455  12.474 -0.58 -0.06    +0.112 A  BRANCH  10  18ATOM     18  O   UNL     1      38.364  44.746  16.029 +0.05 +0.12    -0.507 OA ATOM     19  H   UNL     1      37.929  44.984  16.879 +0.19 -0.08    +0.293 HD ENDBRANCH  10  18ENDBRANCH   7   8ENDBRANCH   3   7BRANCH   6  20ATOM     20  C   UNL     1      38.438  45.111  21.149 -0.35 +0.00    +0.019 C  BRANCH  20  21ATOM     21  C   UNL     1      37.671  43.861  21.187 -0.38 +0.00    +0.011 A  ATOM     22  C   UNL     1      36.651  43.600  20.262 -0.40 -0.00    +0.011 A  ATOM     23  C   UNL     1      37.919  42.919  22.192 -0.28 +0.01    +0.130 A  ATOM     24  C   UNL     1      35.920  42.410  20.334 -0.47 -0.00    +0.001 A  ATOM     25  C   UNL     1      37.194  41.734  22.267 -0.50 +0.00    +0.040 A  ATOM     26  C   UNL     1      36.193  41.476  21.333 -0.52 +0.00    +0.003 A  ATOM     27  F   UNL     1      38.875  43.144  23.106 -0.05 -0.01    -0.206 F  ENDBRANCH  20  21ENDBRANCH   6  20TORSDOF 5TERENDMDL