REMARK SMILES COC=C1C(c2ccccc2)=CC(c2ccnc(NC(C)=O)c2)=C1C
REMARK SMILES IDX 4 1 5 2 12 3 13 4 24 5 25 6 3 7 2 8 1 9 6 10 7 11 11 12 8 13
REMARK SMILES IDX 10 14 9 15 14 16 15 17 23 18 16 19 18 20 17 21 19 22 20 23
REMARK SMILES IDX 21 25 22 26
REMARK H PARENT 19 24
ROOT
ATOM      1  C   UNL     1      -1.512   1.104   0.164  1.00  0.00     0.020 C 
ATOM      2  C   UNL     1      -1.873  -0.131  -0.532  1.00  0.00    -0.007 C 
ATOM      3  C   UNL     1      -0.732  -0.628  -1.042  1.00  0.00     0.018 C 
ATOM      4  C   UNL     1       0.388   0.245  -0.710  1.00  0.00    -0.014 C 
ATOM      5  C   UNL     1      -0.067   1.293   0.014  1.00  0.00    -0.032 C 
ATOM      6  C   UNL     1       0.692   2.445   0.574  1.00  0.00     0.046 C 
ENDROOT
BRANCH   1   7
ATOM      7  C   UNL     1      -2.384   1.882   0.824  1.00  0.00     0.195 C 
BRANCH   7   8
ATOM      8  O   UNL     1      -2.047   3.042   1.470  1.00  0.00    -0.504 OA
ATOM      9  C   UNL     1      -2.947   3.344   2.533  1.00  0.00     0.277 C 
ENDBRANCH   7   8
ENDBRANCH   1   7
BRANCH   2  10
ATOM     10  C   UNL     1      -3.177  -0.768  -0.693  1.00  0.00    -0.018 A 
ATOM     11  C   UNL     1      -4.128  -0.218  -1.561  1.00  0.00     0.009 A 
ATOM     12  C   UNL     1      -3.491  -1.929   0.022  1.00  0.00     0.009 A 
ATOM     13  C   UNL     1      -5.377  -0.824  -1.712  1.00  0.00     0.001 A 
ATOM     14  C   UNL     1      -4.741  -2.533  -0.129  1.00  0.00     0.001 A 
ATOM     15  C   UNL     1      -5.682  -1.980  -0.996  1.00  0.00     0.000 A 
ENDBRANCH   2  10
BRANCH   4  16
ATOM     16  C   UNL     1       1.779   0.025  -1.103  1.00  0.00    -0.013 A 
ATOM     17  C   UNL     1       2.192   0.325  -2.398  1.00  0.00     0.029 A 
ATOM     18  C   UNL     1       2.701  -0.496  -0.192  1.00  0.00     0.056 A 
ATOM     19  C   UNL     1       3.515   0.098  -2.724  1.00  0.00     0.114 A 
ATOM     20  C   UNL     1       4.009  -0.691  -0.609  1.00  0.00     0.133 A 
ATOM     21  N   UNL     1       4.426  -0.402  -1.861  1.00  0.00    -0.239 NA
BRANCH  20  22
ATOM     22  N   UNL     1       5.027  -1.199   0.199  1.00  0.00    -0.311 N 
ATOM     23  C   UNL     1       4.961  -1.590   1.513  1.00  0.00     0.222 C 
ATOM     24  H   UNL     1       5.906  -1.256  -0.297  1.00  0.00     0.171 HD
ATOM     25  C   UNL     1       6.287  -2.068   2.048  1.00  0.00     0.114 C 
ATOM     26  O   UNL     1       3.971  -1.558   2.236  1.00  0.00    -0.275 OA
ENDBRANCH  20  22
ENDBRANCH   4  16
TORSDOF 5
