
     RDKit          3D

 38 40  0  0  0  0  0  0  0  0999 V2000
    1.9802   -2.6171    1.8363 N   0  0  0  0  0  0  0  0  0  0  0  0
    1.2380   -1.4831    2.0046 C   0  0  0  0  0  0  0  0  0  0  0  0
    0.4624   -1.3949    2.9531 O   0  0  0  0  0  0  0  0  0  0  0  0
    1.3358   -0.3954    0.9913 C   0  0  0  0  0  0  0  0  0  0  0  0
    0.1584    0.3366    0.6918 C   0  0  0  0  0  0  0  0  0  0  0  0
   -1.0775    0.0227    1.3061 N   0  0  0  0  0  0  0  0  0  0  0  0
   -2.4079    0.0671    0.8480 C   0  0  0  0  0  0  0  0  0  0  0  0
   -3.4361    0.1215    1.8030 C   0  0  0  0  0  0  0  0  0  0  0  0
   -4.7891    0.2105    1.4471 C   0  0  0  0  0  0  0  0  0  0  0  0
   -5.0790    0.2482    0.0832 C   0  0  0  0  0  0  0  0  0  0  0  0
   -6.2654    0.3285   -0.5976 N   0  0  0  0  0  0  0  0  0  0  0  0
   -6.1316    0.3361   -1.9363 N   0  0  0  0  0  0  0  0  0  0  0  0
   -4.8102    0.2566   -2.1145 C   0  0  0  0  0  0  0  0  0  0  0  0
   -4.0966    0.2029   -0.8968 C   0  0  0  0  0  0  0  0  0  0  0  0
   -2.7447    0.1174   -0.5140 C   0  0  0  0  0  0  0  0  0  0  0  0
    0.2323    1.3600   -0.2569 C   0  0  0  0  0  0  0  0  0  0  0  0
    1.4428    1.6313   -0.8586 C   0  0  0  0  0  0  0  0  0  0  0  0
    2.5790    0.9586   -0.5850 N   0  0  0  0  0  0  0  0  0  0  0  0
    2.5213   -0.0467    0.3282 C   0  0  0  0  0  0  0  0  0  0  0  0
    4.1148   -0.7927    0.6700 S   0  0  0  0  0  0  0  0  0  0  0  0
    4.9202   -0.7499   -0.9796 C   0  0  0  0  0  0  0  0  0  0  0  0
    5.7776    0.5005   -1.1770 C   0  0  0  0  0  0  0  0  0  0  0  0
    5.0125    1.6258   -1.5891 O   0  0  0  0  0  0  0  0  0  0  0  0
    2.7612   -2.6598    1.1937 H   0  0  0  0  0  0  0  0  0  0  0  0
    1.9586   -3.2933    2.5895 H   0  0  0  0  0  0  0  0  0  0  0  0
   -0.9648   -0.4869    2.1911 H   0  0  0  0  0  0  0  0  0  0  0  0
   -3.1828    0.1025    2.8622 H   0  0  0  0  0  0  0  0  0  0  0  0
   -5.5654    0.2500    2.2034 H   0  0  0  0  0  0  0  0  0  0  0  0
   -7.1995    0.3780   -0.2076 H   0  0  0  0  0  0  0  0  0  0  0  0
   -4.4179    0.2406   -3.1227 H   0  0  0  0  0  0  0  0  0  0  0  0
   -1.9821    0.0539   -1.2820 H   0  0  0  0  0  0  0  0  0  0  0  0
   -0.6337    1.9670   -0.5000 H   0  0  0  0  0  0  0  0  0  0  0  0
    1.5366    2.4294   -1.5912 H   0  0  0  0  0  0  0  0  0  0  0  0
    5.5738   -1.6278   -1.0111 H   0  0  0  0  0  0  0  0  0  0  0  0
    4.1730   -0.8605   -1.7719 H   0  0  0  0  0  0  0  0  0  0  0  0
    6.3390    0.7647   -0.2748 H   0  0  0  0  0  0  0  0  0  0  0  0
    6.5072    0.3137   -1.9718 H   0  0  0  0  0  0  0  0  0  0  0  0
    4.1599    1.5836   -1.1046 H   0  0  0  0  0  0  0  0  0  0  0  0
  1  2  1  0
  2  3  2  0
  2  4  1  0
  4  5  2  0
  5  6  1  0
  6  7  1  0
  7  8  2  0
  8  9  1  0
  9 10  2  0
 10 11  1  0
 11 12  1  0
 12 13  2  0
 13 14  1  0
 14 15  2  0
  5 16  1  0
 16 17  2  0
 17 18  1  0
 18 19  2  0
 19 20  1  0
 20 21  1  0
 21 22  1  0
 22 23  1  0
 19  4  1  0
 15  7  1  0
 14 10  1  0
  1 24  1  0
  1 25  1  0
  6 26  1  0
  8 27  1  0
  9 28  1  0
 11 29  1  0
 13 30  1  0
 15 31  1  0
 16 32  1  0
 17 33  1  0
 21 34  1  0
 21 35  1  0
 22 36  1  0
 22 37  1  0
 23 38  1  0
M  END
$$$$
