
     RDKit          3D

 42 43  0  0  0  0  0  0  0  0999 V2000
    6.9341   -1.2522    0.1686 C   0  0  0  0  0  0  0  0  0  0  0  0
    5.5370   -1.5238    0.1554 O   0  0  0  0  0  0  0  0  0  0  0  0
    4.7142   -0.4897   -0.2151 C   0  0  0  0  0  0  0  0  0  0  0  0
    5.1216    0.7890   -0.5892 C   0  0  0  0  0  0  0  0  0  0  0  0
    4.1685    1.7430   -0.9535 C   0  0  0  0  0  0  0  0  0  0  0  0
    2.8086    1.4248   -0.9389 C   0  0  0  0  0  0  0  0  0  0  0  0
    2.3715    0.1490   -0.5479 C   0  0  0  0  0  0  0  0  0  0  0  0
    0.9001   -0.1946   -0.5610 C   0  0  0  0  0  0  0  0  0  0  0  0
    0.1339    0.8510    0.1217 N   0  0  0  0  0  0  0  0  0  0  0  0
   -1.2478    0.7204    0.2849 C   0  0  0  0  0  0  0  0  0  0  0  0
   -2.0551   -0.0926   -0.5293 C   0  0  0  0  0  0  0  0  0  0  0  0
   -3.4538   -0.1361   -0.3869 C   0  0  0  0  0  0  0  0  0  0  0  0
   -4.2884   -0.8979   -1.1636 O   0  0  0  0  0  0  0  0  0  0  0  0
   -3.7212   -1.5847   -2.2711 C   0  0  0  0  0  0  0  0  0  0  0  0
   -4.0680    0.6517    0.5963 C   0  0  0  0  0  0  0  0  0  0  0  0
   -5.4315    0.6891    0.7382 O   0  0  0  0  0  0  0  0  0  0  0  0
   -5.9302   -0.5167    1.3217 C   0  0  0  0  0  0  0  0  0  0  0  0
   -3.2728    1.5014    1.3628 C   0  0  0  0  0  0  0  0  0  0  0  0
   -3.8763    2.3555    2.3628 N   0  0  0  0  0  0  0  0  0  0  0  0
   -4.5001    1.8060    3.2820 O   0  0  0  0  0  0  0  0  0  0  0  0
   -3.6727    3.5737    2.2600 O   0  0  0  0  0  0  0  0  0  0  0  0
   -1.8827    1.5532    1.2104 C   0  0  0  0  0  0  0  0  0  0  0  0
    3.3431   -0.7956   -0.2051 C   0  0  0  0  0  0  0  0  0  0  0  0
    2.9557   -2.0635    0.1487 O   0  0  0  0  0  0  0  0  0  0  0  0
    7.2967   -1.0026   -0.8340 H   0  0  0  0  0  0  0  0  0  0  0  0
    7.4477   -2.1630    0.4913 H   0  0  0  0  0  0  0  0  0  0  0  0
    7.1761   -0.4617    0.8868 H   0  0  0  0  0  0  0  0  0  0  0  0
    6.1670    1.0766   -0.6154 H   0  0  0  0  0  0  0  0  0  0  0  0
    4.4853    2.7392   -1.2540 H   0  0  0  0  0  0  0  0  0  0  0  0
    2.0816    2.1803   -1.2342 H   0  0  0  0  0  0  0  0  0  0  0  0
    0.5920   -0.2828   -1.6095 H   0  0  0  0  0  0  0  0  0  0  0  0
    0.7153   -1.1536   -0.0648 H   0  0  0  0  0  0  0  0  0  0  0  0
    0.5979    1.1403    0.9810 H   0  0  0  0  0  0  0  0  0  0  0  0
   -1.5789   -0.6962   -1.2927 H   0  0  0  0  0  0  0  0  0  0  0  0
   -3.2324   -0.8901   -2.9621 H   0  0  0  0  0  0  0  0  0  0  0  0
   -4.5364   -2.0735   -2.8136 H   0  0  0  0  0  0  0  0  0  0  0  0
   -3.0299   -2.3649   -1.9363 H   0  0  0  0  0  0  0  0  0  0  0  0
   -6.8893   -0.2846    1.7945 H   0  0  0  0  0  0  0  0  0  0  0  0
   -6.1116   -1.2718    0.5514 H   0  0  0  0  0  0  0  0  0  0  0  0
   -5.2612   -0.9135    2.0942 H   0  0  0  0  0  0  0  0  0  0  0  0
   -1.2970    2.2430    1.8147 H   0  0  0  0  0  0  0  0  0  0  0  0
    3.7895   -2.5335    0.3510 H   0  0  0  0  0  0  0  0  0  0  0  0
  1  2  1  0
  2  3  1  0
  3  4  2  0
  4  5  1  0
  5  6  2  0
  6  7  1  0
  7  8  1  0
  8  9  1  0
  9 10  1  0
 10 11  2  0
 11 12  1  0
 12 13  1  0
 13 14  1  0
 12 15  2  0
 15 16  1  0
 16 17  1  0
 15 18  1  0
 18 19  1  0
 19 20  2  0
 19 21  1  0
 18 22  2  0
  7 23  2  0
 23 24  1  0
 23  3  1  0
 22 10  1  0
  1 25  1  0
  1 26  1  0
  1 27  1  0
  4 28  1  0
  5 29  1  0
  6 30  1  0
  8 31  1  0
  8 32  1  0
  9 33  1  0
 11 34  1  0
 14 35  1  0
 14 36  1  0
 14 37  1  0
 17 38  1  0
 17 39  1  0
 17 40  1  0
 22 41  1  0
 24 42  1  0
M  CHG  2  19   1  21  -1
M  END
$$$$
