MODEL        9USER    Run = 9USERUSER    Estimated Free Energy of Binding    =  -8.94 kcal/mol  [=(1)+(2)+(3)-(4)]USERUSER    (1) Final Intermolecular Energy     = -10.72 kcal/molUSER        vdW + Hbond + desolv Energy     = -10.63 kcal/molUSER        Electrostatic Energy            =  -0.09 kcal/molUSER        Moving Ligand-Fixed Receptor    = -10.72 kcal/molUSER        Moving Ligand-Moving Receptor   =  +0.00 kcal/molUSER    (2) Final Total Internal Energy     =  -1.43 kcal/molUSER    (3) Torsional Free Energy           =  +1.79 kcal/molUSER    (4) Unbound System's Energy         =  -1.43 kcal/molUSERUSERREMARK SMILES CC[C@@H]1Cc2cc(NCC(N)=O)cc(-c3ccccc3)c2[S@H]1OREMARK SMILES IDX 8 1 7 3 3 4 4 5 22 6 5 7 21 8 6 9 14 10 13 11 2 13 1 14REMARK SMILES IDX 23 15 15 17 16 18 20 19 17 20 19 21 18 22 9 23 10 24 11 25REMARK SMILES IDX 12 26REMARK H PARENT 8 2 22 12 23 16 11 27 11 28USER                              x       y       z     vdW  Elec       q    TypeUSER                           _______ _______ _______ _____ _____    ______ ____ROOTATOM      1  N   UNL     1      42.004  49.704  15.004 -0.26 +0.01    -0.376 N  ATOM      2  H   UNL     1      42.926  49.269  14.964 +0.12 +0.04    +0.161 HD ENDROOTBRANCH   1   3ATOM      3  C   UNL     1      41.027  48.743  15.315 -0.57 -0.01    +0.035 A  ATOM      4  C   UNL     1      39.025  45.395  18.195 -0.43 -0.01    +0.058 C  ATOM      5  C   UNL     1      39.984  46.600  18.334 -0.45 -0.01    +0.052 C  ATOM      6  S   UNL     1      37.977  45.808  16.807 -0.46 +0.04    -0.120 S  ATOM      7  C   UNL     1      40.075  47.264  16.983 -0.48 +0.01    -0.030 A  ATOM      8  C   UNL     1      39.041  46.970  16.096 -0.43 -0.01    +0.021 A  ATOM      9  C   UNL     1      41.052  48.173  16.601 -0.52 -0.00    +0.030 A  ATOM     10  C   UNL     1      38.933  47.521  14.829 -0.49 +0.00    -0.002 A  ATOM     11  C   UNL     1      39.946  48.430  14.464 -0.45 -0.01    +0.035 A  ATOM     12  H   UNL     1      36.721  46.199  17.125 +0.07 -0.06    +0.115 HD BRANCH   4  13ATOM     13  C   UNL     1      38.191  45.117  19.442 -0.37 -0.00    +0.012 C  ATOM     14  C   UNL     1      36.897  44.383  19.128 -0.42 -0.00    +0.005 C  ENDBRANCH   4  13BRANCH   6  15ATOM     15  O   UNL     1      38.065  44.440  15.943 -0.08 +0.09    -0.350 OA ATOM     16  H   UNL     1      37.259  44.231  15.410 +0.15 -0.07    +0.226 HD ENDBRANCH   6  15BRANCH  10  17ATOM     17  C   UNL     1      37.848  47.194  13.899 -0.49 +0.01    -0.017 A  ATOM     18  C   UNL     1      36.977  48.195  13.436 -0.58 -0.00    +0.009 A  ATOM     19  C   UNL     1      37.653  45.881  13.443 -0.43 -0.00    +0.009 A  ATOM     20  C   UNL     1      35.949  47.893  12.540 -0.55 -0.00    +0.001 A  ATOM     21  C   UNL     1      36.625  45.578  12.548 -0.57 -0.00    +0.001 A  ATOM     22  C   UNL     1      35.774  46.584  12.096 -0.60 -0.00    +0.000 A  ENDBRANCH  10  17ENDBRANCH   1   3BRANCH   1  23ATOM     23  C   UNL     1      41.791  50.568  13.826 -0.35 -0.06    +0.213 C  BRANCH  23  24ATOM     24  C   UNL     1      42.773  50.202  12.704 -0.52 -0.08    +0.236 C  ATOM     25  N   UNL     1      42.696  50.982  11.581 -0.28 +0.21    -0.368 N  ATOM     26  O   UNL     1      43.563  49.267  12.771 -0.64 +0.07    -0.273 OA ATOM     27  H   UNL     1      43.216  50.674  10.770 -0.45 -0.12    +0.159 HD ATOM     28  H   UNL     1      41.847  51.520  11.440 -0.09 -0.12    +0.159 HD ENDBRANCH  23  24ENDBRANCH   1  23TORSDOF 6TERENDMDL