MODEL        8USER    Run = 8USERUSER    Estimated Free Energy of Binding    =  -9.82 kcal/mol  [=(1)+(2)+(3)-(4)]USERUSER    (1) Final Intermolecular Energy     = -11.61 kcal/molUSER        vdW + Hbond + desolv Energy     = -11.38 kcal/molUSER        Electrostatic Energy            =  -0.23 kcal/molUSER        Moving Ligand-Fixed Receptor    = -11.61 kcal/molUSER        Moving Ligand-Moving Receptor   =  +0.00 kcal/molUSER    (2) Final Total Internal Energy     =  -2.11 kcal/molUSER    (3) Torsional Free Energy           =  +1.79 kcal/molUSER    (4) Unbound System's Energy         =  -2.11 kcal/molUSERUSERREMARK SMILES Nc1ncnc2c1ncn2[C@H]1CC[C@@H](O)C[C@@H]1NCc1ccccc1REMARK SMILES IDX 11 1 12 2 13 3 14 4 16 5 17 6 10 7 2 8 3 9 7 10 4 11 6 12REMARK SMILES IDX 8 13 5 14 9 15 1 16 18 19 19 21 20 22 21 23 25 24 22 25REMARK SMILES IDX 24 26 23 27 15 28REMARK H PARENT 1 17 1 18 18 20 15 29USER                              x       y       z     vdW  Elec       q    TypeUSER                           _______ _______ _______ _____ _____    ______ ____ROOTATOM      1  C   UNL     1      38.011  47.488  15.847 -0.41 -0.06    +0.107 C  ATOM      2  C   UNL     1      37.425  48.811  15.308 -0.52 -0.03    +0.030 C  ATOM      3  C   UNL     1      37.407  48.858  13.788 -0.45 -0.02    +0.034 C  ATOM      4  C   UNL     1      36.584  47.714  13.188 -0.60 -0.06    +0.116 C  ATOM      5  C   UNL     1      36.622  46.425  14.019 -0.48 -0.03    +0.052 C  ATOM      6  C   UNL     1      37.932  46.317  14.817 -0.41 -0.03    +0.079 C  ENDROOTBRANCH   1   7ATOM      7  N   UNL     1      39.363  47.679  16.368 -0.25 +0.11    -0.310 N  ATOM      8  C   UNL     1      42.004  46.965  18.553 -0.40 +0.00    +0.155 A  ATOM      9  N   UNL     1      41.483  46.001  19.346 -0.30 -0.02    -0.217 NA ATOM     10  C   UNL     1      41.198  47.511  17.540 -0.38 -0.02    +0.150 A  ATOM     11  C   UNL     1      40.217  45.594  19.108 -0.29 -0.00    +0.226 A  ATOM     12  C   UNL     1      39.919  46.993  17.416 -0.35 -0.03    +0.165 A  ATOM     13  N   UNL     1      41.416  48.514  16.617 -0.85 +0.01    -0.231 NA ATOM     14  N   UNL     1      39.355  46.035  18.171 -0.29 +0.03    -0.217 NA ATOM     15  C   UNL     1      40.295  48.585  15.931 -0.41 -0.05    +0.202 A  BRANCH   8  16ATOM     16  N   UNL     1      43.307  47.384  18.798 -0.30 -0.07    -0.382 N  ATOM     17  H   UNL     1      43.880  47.408  17.961 -0.45 +0.01    +0.158 HD ATOM     18  H   UNL     1      43.338  48.183  19.416 -0.48 -0.01    +0.158 HD ENDBRANCH   8  16ENDBRANCH   1   7BRANCH   6  19ATOM     19  N   UNL     1      38.036  45.035  15.528 -0.13 +0.09    -0.308 NA ATOM     20  H   UNL     1      38.334  45.163  16.494 +0.08 -0.03    +0.123 HD BRANCH  19  21ATOM     21  C   UNL     1      36.804  44.251  15.498 -0.34 -0.04    +0.117 C  BRANCH  21  22ATOM     22  C   UNL     1      35.994  44.485  16.751 -0.30 +0.01    -0.034 A  ATOM     23  C   UNL     1      35.395  45.732  16.982 -0.35 -0.00    +0.005 A  ATOM     24  C   UNL     1      35.820  43.465  17.697 -0.33 -0.00    +0.005 A  ATOM     25  C   UNL     1      34.644  45.957  18.136 -0.46 -0.00    +0.000 A  ATOM     26  C   UNL     1      35.068  43.691  18.851 -0.36 -0.00    +0.000 A  ATOM     27  C   UNL     1      34.481  44.937  19.070 -0.41 -0.00    +0.000 A  ENDBRANCH  21  22ENDBRANCH  19  21ENDBRANCH   6  19BRANCH   4  28ATOM     28  O   UNL     1      37.104  47.456  11.886 -0.96 +0.10    -0.393 OA ATOM     29  H   UNL     1      36.756  48.138  11.285 -0.20 -0.09    +0.210 HD ENDBRANCH   4  28TORSDOF 6TERENDMDL