MODEL        4USER    Run = 4USERUSER    Estimated Free Energy of Binding    =  -8.91 kcal/mol  [=(1)+(2)+(3)-(4)]USERUSER    (1) Final Intermolecular Energy     = -10.40 kcal/molUSER        vdW + Hbond + desolv Energy     = -10.23 kcal/molUSER        Electrostatic Energy            =  -0.17 kcal/molUSER        Moving Ligand-Fixed Receptor    = -10.40 kcal/molUSER        Moving Ligand-Moving Receptor   =  +0.00 kcal/molUSER    (2) Final Total Internal Energy     =  -1.08 kcal/molUSER    (3) Torsional Free Energy           =  +1.49 kcal/molUSER    (4) Unbound System's Energy         =  -1.08 kcal/molUSERUSERREMARK SMILES N#CC[C@H](C1CCCC1)n1cc(-c2ncnc3[nH]ccc23)cn1REMARK SMILES IDX 4 1 3 2 2 3 1 4 5 5 6 6 9 7 7 8 8 9 10 10 11 11 23 12 12 13REMARK SMILES IDX 22 14 13 15 14 16 21 17 15 18 20 19 17 20 16 21 19 22 18 23REMARK H PARENT 18 24USER                              x       y       z     vdW  Elec       q    TypeUSER                           _______ _______ _______ _____ _____    ______ ____ROOTATOM      1  C   UNL     1      35.618  45.643  14.475 -0.35 -0.08    +0.124 C  ENDROOTBRANCH   1   2ATOM      2  C   UNL     1      35.045  46.644  13.456 -0.40 -0.11    +0.147 C  BRANCH   2   3ATOM      3  C   UNL     1      36.085  47.271  12.632 -0.68 -0.03    +0.064 C  ATOM      4  N   UNL     1      36.911  47.742  11.968 -1.08 +0.05    -0.198 NA ENDBRANCH   2   3ENDBRANCH   1   2BRANCH   1   5ATOM      5  C   UNL     1      34.797  45.485  15.790 -0.38 -0.01    +0.015 C  ATOM      6  C   UNL     1      33.853  44.278  15.797 -0.35 -0.00    +0.006 C  ATOM      7  C   UNL     1      35.682  45.166  17.004 -0.38 -0.00    +0.006 C  ATOM      8  C   UNL     1      34.741  43.087  16.138 -0.46 -0.00    +0.000 C  ATOM      9  C   UNL     1      35.898  43.655  16.958 -0.42 -0.00    +0.000 C  ENDBRANCH   1   5BRANCH   1  10ATOM     10  N   UNL     1      37.031  45.953  14.718 -0.19 +0.13    -0.268 N  ATOM     11  C   UNL     1      37.560  47.039  15.358 -0.33 -0.07    +0.119 A  ATOM     12  N   UNL     1      37.967  45.125  14.218 -0.27 +0.05    -0.181 NA ATOM     13  C   UNL     1      38.931  46.915  15.269 -0.42 -0.01    +0.039 A  ATOM     14  C   UNL     1      39.119  45.695  14.586 -0.20 -0.03    +0.145 A  BRANCH  13  15ATOM     15  C   UNL     1      39.917  47.811  15.823 -0.47 -0.02    +0.086 A  ATOM     16  N   UNL     1      40.070  49.011  15.209 -0.37 +0.09    -0.235 NA ATOM     17  C   UNL     1      40.679  47.510  16.960 -0.50 -0.01    +0.045 A  ATOM     18  C   UNL     1      40.990  49.858  15.705 -0.46 -0.06    +0.224 A  ATOM     19  C   UNL     1      40.803  46.452  17.909 -0.48 -0.00    +0.032 A  ATOM     20  C   UNL     1      41.582  48.489  17.350 -0.13 +0.00    +0.141 A  ATOM     21  N   UNL     1      41.794  49.678  16.766 -0.85 -0.04    -0.219 NA ATOM     22  C   UNL     1      41.778  46.809  18.817 -0.47 +0.00    +0.085 A  ATOM     23  N   UNL     1      42.245  48.047  18.462 -0.29 +0.00    -0.346 N  ATOM     24  H   UNL     1      42.957  48.581  18.940 -0.32 -0.01    +0.167 HD ENDBRANCH  13  15ENDBRANCH   1  10TORSDOF 5TERENDMDL