MODEL        5USER    Run = 5USERUSER    Estimated Free Energy of Binding    =  -9.16 kcal/mol  [=(1)+(2)+(3)-(4)]USERUSER    (1) Final Intermolecular Energy     = -10.36 kcal/molUSER        vdW + Hbond + desolv Energy     = -10.09 kcal/molUSER        Electrostatic Energy            =  -0.27 kcal/molUSER        Moving Ligand-Fixed Receptor    = -10.36 kcal/molUSER        Moving Ligand-Moving Receptor   =  +0.00 kcal/molUSER    (2) Final Total Internal Energy     =  -1.48 kcal/molUSER    (3) Torsional Free Energy           =  +1.19 kcal/molUSER    (4) Unbound System's Energy         =  -1.48 kcal/molUSERUSERREMARK SMILES COC1=c2cc[nH]c2=C(N2CC[C@@H](Cc3ccccc3)C2=O)C[C@@H]1CREMARK SMILES IDX 3 1 4 2 5 3 6 4 7 5 8 6 9 7 23 8 24 9 25 10 2 12 1 13 10 14REMARK SMILES IDX 11 15 21 16 12 17 13 18 22 19 14 20 15 21 16 22 20 23 17 24REMARK SMILES IDX 19 25 18 26REMARK H PARENT 7 11USER                              x       y       z     vdW  Elec       q    TypeUSER                           _______ _______ _______ _____ _____    ______ ____ROOTATOM      1  C   UNL     1      40.964  48.224  16.607 -0.53 -0.01    +0.108 C  ATOM      2  C   UNL     1      41.194  47.515  17.724 -0.48 -0.00    +0.039 A  ATOM      3  C   UNL     1      42.330  47.558  18.633 -0.50 +0.00    +0.031 A  ATOM      4  C   UNL     1      42.129  46.551  19.501 -0.41 +0.01    +0.083 A  ATOM      5  N   UNL     1      40.976  45.857  19.209 -0.20 -0.01    -0.360 N  ATOM      6  C   UNL     1      40.260  46.486  18.214 -0.42 -0.01    +0.069 A  ATOM      7  C   UNL     1      38.993  46.374  17.765 -0.42 -0.01    +0.046 C  ATOM      8  C   UNL     1      38.558  47.365  16.681 -0.37 -0.03    +0.067 C  ATOM      9  C   UNL     1      39.688  48.001  15.827 -0.55 -0.02    +0.058 C  ATOM     10  C   UNL     1      39.969  47.138  14.591 -0.49 -0.00    +0.016 C  ATOM     11  H   UNL     1      40.457  45.349  19.930 +0.10 +0.01    +0.166 HD ENDROOTBRANCH   1  12ATOM     12  O   UNL     1      41.786  49.221  16.123 -0.76 -0.08    -0.500 OA ATOM     13  C   UNL     1      41.058  50.359  15.660 -0.44 -0.09    +0.278 C  ENDBRANCH   1  12BRANCH   7  14ATOM     14  N   UNL     1      38.033  45.480  18.260 -0.19 +0.06    -0.314 N  ATOM     15  C   UNL     1      36.739  45.294  17.631 -0.32 -0.04    +0.126 C  ATOM     16  C   UNL     1      38.083  44.742  19.464 -0.27 -0.02    +0.230 C  ATOM     17  C   UNL     1      36.205  44.009  18.227 -0.36 -0.01    +0.036 C  ATOM     18  C   UNL     1      36.738  44.058  19.649 -0.38 -0.01    +0.085 C  ATOM     19  O   UNL     1      38.976  44.681  20.297 -0.24 +0.00    -0.274 OA BRANCH  18  20ATOM     20  C   UNL     1      36.878  42.696  20.322 -0.38 -0.00    +0.049 C  BRANCH  20  21ATOM     21  C   UNL     1      36.901  42.793  21.828 -0.42 -0.00    -0.047 A  ATOM     22  C   UNL     1      37.276  43.986  22.460 -0.37 +0.00    +0.004 A  ATOM     23  C   UNL     1      36.565  41.683  22.614 -0.54 +0.00    +0.004 A  ATOM     24  C   UNL     1      37.313  44.066  23.852 -0.33 +0.00    +0.000 A  ATOM     25  C   UNL     1      36.603  41.766  24.008 -0.41 -0.00    +0.000 A  ATOM     26  C   UNL     1      36.978  42.957  24.626 -0.39 +0.00    +0.000 A  ENDBRANCH  20  21ENDBRANCH  18  20ENDBRANCH   7  14TORSDOF 4TERENDMDL