REMARK SMILES CN(C)c1ccc(-c2ccc(-c3ccnc(N)n3)cc2)cc1
REMARK SMILES IDX 8 1 9 2 10 3 11 4 19 5 20 6 7 7 4 8 5 9 22 10 6 11 21 12
REMARK SMILES IDX 2 13 1 14 3 15 12 16 13 17 18 18 14 19 16 20 15 21 17 22
REMARK H PARENT 17 23 17 24
ROOT
ATOM      1  C   UNL     1      -0.156  -0.147  -0.170  1.00  0.00    -0.018 A 
ATOM      2  C   UNL     1      -0.945   0.596   0.718  1.00  0.00     0.009 A 
ATOM      3  C   UNL     1      -2.341   0.477   0.719  1.00  0.00     0.011 A 
ATOM      4  C   UNL     1      -3.007  -0.391  -0.163  1.00  0.00     0.000 A 
ATOM      5  C   UNL     1      -2.211  -1.127  -1.058  1.00  0.00     0.011 A 
ATOM      6  C   UNL     1      -0.814  -1.009  -1.059  1.00  0.00     0.009 A 
ENDROOT
BRANCH   1   7
ATOM      7  C   UNL     1       1.309  -0.023  -0.174  1.00  0.00    -0.018 A 
ATOM      8  C   UNL     1       4.181   0.224  -0.174  1.00  0.00     0.036 A 
ATOM      9  C   UNL     1       3.536  -1.020  -0.075  1.00  0.00     0.026 A 
ATOM     10  C   UNL     1       3.334   1.337  -0.295  1.00  0.00     0.026 A 
ATOM     11  C   UNL     1       2.137  -1.145  -0.071  1.00  0.00     0.011 A 
ATOM     12  C   UNL     1       1.934   1.222  -0.289  1.00  0.00     0.011 A 
BRANCH   8  13
ATOM     13  N   UNL     1       5.577   0.340  -0.196  1.00  0.00    -0.378 N 
ATOM     14  C   UNL     1       6.386  -0.789   0.257  1.00  0.00     0.143 C 
ATOM     15  C   UNL     1       6.180   1.660  -0.016  1.00  0.00     0.143 C 
ENDBRANCH   8  13
ENDBRANCH   1   7
BRANCH   4  16
ATOM     16  C   UNL     1      -4.481  -0.504  -0.142  1.00  0.00     0.076 A 
ATOM     17  C   UNL     1      -5.150  -1.674  -0.447  1.00  0.00     0.049 A 
ATOM     18  N   UNL     1      -5.150   0.619   0.209  1.00  0.00    -0.213 NA
ATOM     19  C   UNL     1      -6.521  -1.623  -0.386  1.00  0.00     0.117 A 
ATOM     20  C   UNL     1      -6.482   0.558   0.251  1.00  0.00     0.220 A 
ATOM     21  N   UNL     1      -7.208  -0.518  -0.051  1.00  0.00    -0.222 NA
BRANCH  20  22
ATOM     22  N   UNL     1      -7.162   1.711   0.586  1.00  0.00    -0.368 N 
ATOM     23  H   UNL     1      -8.089   1.682   0.188  1.00  0.00     0.159 HD
ATOM     24  H   UNL     1      -6.588   2.514   0.370  1.00  0.00     0.159 HD
ENDBRANCH  20  22
ENDBRANCH   4  16
TORSDOF 4
