REMARK SMILES CCN1C(Oc2ccc(Cl)cc2)=CC2=C(I)C(N[C@H]3CC[C@@H](N)CC3)=N[C@]21C
REMARK SMILES IDX 3 1 4 2 13 3 14 4 15 5 16 6 17 7 18 8 26 9 27 10 28 11 2 13
REMARK SMILES IDX 1 14 5 15 6 16 7 17 12 18 8 19 11 20 9 21 10 22 19 23 25 24
REMARK SMILES IDX 20 25 24 26 21 27 22 28 23 29
REMARK H PARENT 18 12 23 30 23 31
ROOT
ATOM      1  N   UNL     1      -1.590   0.165  -0.823  1.00  0.00    -0.314 N 
ATOM      2  C   UNL     1      -2.637  -0.434  -0.122  1.00  0.00     0.198 C 
ATOM      3  C   UNL     1      -2.439  -0.351   1.210  1.00  0.00     0.076 C 
ATOM      4  C   UNL     1      -1.156   0.284   1.371  1.00  0.00     0.022 C 
ATOM      5  C   UNL     1      -0.153   0.105   2.218  1.00  0.00     0.063 C 
ATOM      6  I   UNL     1      -0.036  -0.881   3.936  1.00  0.00    -0.040 I 
ATOM      7  C   UNL     1       1.010   0.435   1.326  1.00  0.00     0.138 C 
ATOM      8  N   UNL     1       2.317   0.319   1.748  1.00  0.00    -0.367 N 
ATOM      9  N   UNL     1       0.718   0.789   0.093  1.00  0.00    -0.235 NA
ATOM     10  C   UNL     1      -0.738   0.922   0.083  1.00  0.00     0.161 C 
ATOM     11  C   UNL     1      -1.087   2.415   0.031  1.00  0.00     0.067 C 
ATOM     12  H   UNL     1       2.454  -0.191   2.615  1.00  0.00     0.162 HD
ENDROOT
BRANCH   1  13
ATOM     13  C   UNL     1      -1.361   0.154  -2.250  1.00  0.00     0.119 C 
ATOM     14  C   UNL     1      -2.321   1.083  -2.977  1.00  0.00     0.027 C 
ENDBRANCH   1  13
BRANCH   2  15
ATOM     15  O   UNL     1      -3.644  -1.101  -0.776  1.00  0.00    -0.441 OA
BRANCH  15  16
ATOM     16  C   UNL     1      -4.923  -0.979  -0.287  1.00  0.00     0.129 A 
ATOM     17  C   UNL     1      -5.494   0.261   0.009  1.00  0.00     0.049 A 
ATOM     18  C   UNL     1      -5.675  -2.148  -0.167  1.00  0.00     0.049 A 
ATOM     19  C   UNL     1      -6.812   0.327   0.467  1.00  0.00     0.024 A 
ATOM     20  C   UNL     1      -6.994  -2.082   0.287  1.00  0.00     0.024 A 
ATOM     21  C   UNL     1      -7.555  -0.846   0.606  1.00  0.00     0.041 A 
ATOM     22  Cl  UNL     1      -9.179  -0.765   1.169  1.00  0.00    -0.084 Cl
ENDBRANCH  15  16
ENDBRANCH   2  15
BRANCH   8  23
ATOM     23  C   UNL     1       3.440   0.276   0.823  1.00  0.00     0.080 C 
ATOM     24  C   UNL     1       4.721   0.658   1.568  1.00  0.00     0.026 C 
ATOM     25  C   UNL     1       3.558  -1.126   0.204  1.00  0.00     0.026 C 
ATOM     26  C   UNL     1       5.947   0.671   0.649  1.00  0.00     0.021 C 
ATOM     27  C   UNL     1       4.979  -1.482  -0.249  1.00  0.00     0.021 C 
ATOM     28  C   UNL     1       5.793  -0.232  -0.584  1.00  0.00     0.050 C 
BRANCH  28  29
ATOM     29  N   UNL     1       7.102  -0.600  -1.117  1.00  0.00    -0.328 NA
ATOM     30  H   UNL     1       7.635  -1.116  -0.419  1.00  0.00     0.119 HD
ATOM     31  H   UNL     1       7.640   0.240  -1.323  1.00  0.00     0.119 HD
ENDBRANCH  28  29
ENDBRANCH   8  23
TORSDOF 5
