REMARK SMILES COc1cc(O)cc(NS(=O)(=O)c2ccc(OC)c(N)c2)c1
REMARK SMILES IDX 9 1 8 3 3 4 4 5 22 6 5 7 7 8 2 9 1 10 6 11 10 13 11 14 12 15
REMARK SMILES IDX 13 16 14 17 21 18 15 19 19 20 16 21 20 22 17 25 18 26
REMARK H PARENT 9 2 6 12 20 23 20 24
ROOT
ATOM      1  N   UNL     1      -0.344   0.299   3.046  1.00  0.00    -0.279 N 
ATOM      2  H   UNL     1      -0.273  -0.622   3.477  1.00  0.00     0.180 HD
ENDROOT
BRANCH   1   3
ATOM      3  C   UNL     1      -1.343   0.488   2.049  1.00  0.00     0.056 A 
ATOM      4  C   UNL     1      -2.723  -0.446   0.287  1.00  0.00     0.124 A 
ATOM      5  C   UNL     1      -3.241   0.823   0.032  1.00  0.00     0.092 A 
ATOM      6  C   UNL     1      -1.772  -0.609   1.299  1.00  0.00     0.073 A 
ATOM      7  C   UNL     1      -2.809   1.910   0.788  1.00  0.00     0.121 A 
ATOM      8  C   UNL     1      -1.866   1.755   1.797  1.00  0.00     0.073 A 
BRANCH   4   9
ATOM      9  O   UNL     1      -3.052  -1.598  -0.374  1.00  0.00    -0.497 OA
ATOM     10  C   UNL     1      -4.014  -1.487  -1.416  1.00  0.00     0.278 C 
ENDBRANCH   4   9
BRANCH   7  11
ATOM     11  O   UNL     1      -3.344   3.132   0.502  1.00  0.00    -0.508 OA
ATOM     12  H   UNL     1      -2.960   3.792   1.105  1.00  0.00     0.293 HD
ENDBRANCH   7  11
ENDBRANCH   1   3
BRANCH   1  13
ATOM     13  S   UNL     1       1.175   1.011   2.837  1.00  0.00     0.261 S 
ATOM     14  O   UNL     1       1.019   2.447   2.734  1.00  0.00    -0.201 OA
ATOM     15  O   UNL     1       2.037   0.420   3.838  1.00  0.00    -0.201 OA
BRANCH  13  16
ATOM     16  C   UNL     1       1.687   0.395   1.250  1.00  0.00     0.090 A 
ATOM     17  C   UNL     1       1.508   1.179   0.108  1.00  0.00     0.026 A 
ATOM     18  C   UNL     1       2.303  -0.856   1.169  1.00  0.00     0.051 A 
ATOM     19  C   UNL     1       1.935   0.700  -1.132  1.00  0.00     0.050 A 
ATOM     20  C   UNL     1       2.690  -1.359  -0.075  1.00  0.00     0.076 A 
ATOM     21  C   UNL     1       2.540  -0.557  -1.229  1.00  0.00     0.141 A 
BRANCH  20  22
ATOM     22  N   UNL     1       3.413  -2.565  -0.138  1.00  0.00    -0.396 N 
ATOM     23  H   UNL     1       3.440  -2.923  -1.092  1.00  0.00     0.156 HD
ATOM     24  H   UNL     1       3.137  -3.261   0.545  1.00  0.00     0.156 HD
ENDBRANCH  20  22
BRANCH  21  25
ATOM     25  O   UNL     1       2.995  -1.124  -2.396  1.00  0.00    -0.495 OA
ATOM     26  C   UNL     1       3.039  -0.285  -3.543  1.00  0.00     0.278 C 
ENDBRANCH  21  25
ENDBRANCH  13  16
ENDBRANCH   1  13
TORSDOF 7
