MODEL        4USER    Run = 4USERUSER    Estimated Free Energy of Binding    =  -7.63 kcal/mol  [=(1)+(2)+(3)-(4)]USERUSER    (1) Final Intermolecular Energy     =  -9.71 kcal/molUSER        vdW + Hbond + desolv Energy     =  -9.35 kcal/molUSER        Electrostatic Energy            =  -0.36 kcal/molUSER        Moving Ligand-Fixed Receptor    =  -9.71 kcal/molUSER        Moving Ligand-Moving Receptor   =  +0.00 kcal/molUSER    (2) Final Total Internal Energy     =  -1.43 kcal/molUSER    (3) Torsional Free Energy           =  +2.09 kcal/molUSER    (4) Unbound System's Energy         =  -1.43 kcal/molUSERUSERREMARK SMILES COc1cc(O)cc(NS(=O)(=O)c2ccc(OC)c(N)c2)c1REMARK SMILES IDX 9 1 8 3 3 4 4 5 22 6 5 7 7 8 2 9 1 10 6 11 10 13 11 14 12 15REMARK SMILES IDX 13 16 14 17 21 18 15 19 19 20 16 21 20 22 17 25 18 26REMARK H PARENT 9 2 6 12 20 23 20 24USER                              x       y       z     vdW  Elec       q    TypeUSER                           _______ _______ _______ _____ _____    ______ ____ROOTATOM      1  N   UNL     1      39.088  48.863  15.896 -0.26 +0.16    -0.279 N  ATOM      2  H   UNL     1      38.819  49.154  16.836 +0.22 -0.14    +0.180 HD ENDROOTBRANCH   1   3ATOM      3  C   UNL     1      38.151  48.095  15.148 -0.47 -0.03    +0.056 A  ATOM      4  C   UNL     1      36.508  46.312  15.081 -0.30 -0.08    +0.124 A  ATOM      5  C   UNL     1      36.360  46.512  13.709 -0.43 -0.05    +0.092 A  ATOM      6  C   UNL     1      37.407  47.108  15.798 -0.36 -0.05    +0.073 A  ATOM      7  C   UNL     1      37.104  47.502  13.071 -0.50 -0.04    +0.121 A  ATOM      8  C   UNL     1      37.997  48.298  13.778 -0.41 -0.03    +0.073 A  BRANCH   4   9ATOM      9  O   UNL     1      35.848  45.381  15.835 -0.04 +0.29    -0.497 OA ATOM     10  C   UNL     1      35.031  45.872  16.891 -0.22 -0.23    +0.278 C  ENDBRANCH   4   9BRANCH   7  11ATOM     11  O   UNL     1      36.925  47.661  11.728 -0.81 +0.15    -0.508 OA ATOM     12  H   UNL     1      36.298  48.390  11.579 -0.17 -0.15    +0.293 HD ENDBRANCH   7  11ENDBRANCH   1   3BRANCH   1  13ATOM     13  S   UNL     1      40.731  48.476  15.806 -0.59 -0.05    +0.261 S  ATOM     14  O   UNL     1      40.972  47.695  14.611 -0.40 +0.01    -0.201 OA ATOM     15  O   UNL     1      41.448  49.708  16.054 -1.14 +0.01    -0.201 OA BRANCH  13  16ATOM     16  C   UNL     1      40.967  47.419  17.215 -0.44 -0.01    +0.090 A  ATOM     17  C   UNL     1      40.185  46.272  17.365 -0.46 -0.00    +0.026 A  ATOM     18  C   UNL     1      41.967  47.728  18.141 -0.44 -0.00    +0.051 A  ATOM     19  C   UNL     1      40.392  45.432  18.461 -0.43 -0.00    +0.050 A  ATOM     20  C   UNL     1      42.148  46.916  19.263 -0.45 +0.01    +0.076 A  ATOM     21  C   UNL     1      41.380  45.738  19.402 -0.34 +0.01    +0.141 A  BRANCH  20  22ATOM     22  N   UNL     1      43.229  47.165  20.129 -0.22 -0.12    -0.396 N  ATOM     23  H   UNL     1      43.256  46.480  20.883 +0.07 +0.07    +0.156 HD ATOM     24  H   UNL     1      43.301  48.123  20.453 -0.47 -0.02    +0.156 HD ENDBRANCH  20  22BRANCH  21  25ATOM     25  O   UNL     1      41.667  44.983  20.515 -0.09 -0.08    -0.495 OA ATOM     26  C   UNL     1      40.575  44.326  21.145 -0.20 +0.02    +0.278 C  ENDBRANCH  21  25ENDBRANCH  13  16ENDBRANCH   1  13TORSDOF 7TERENDMDL