REMARK SMILES CCCNC=NC=NC(=O)N(C)Cc1cc(-c2ccc(Cl)cc2)cnc1C1=CN=CNC1
REMARK SMILES IDX 8 1 7 2 6 3 5 4 4 5 3 7 2 8 1 9 9 10 10 11 11 12 12 13 13 14
REMARK SMILES IDX 14 15 15 16 26 17 16 18 25 19 24 20 27 21 28 22 32 23 29 24
REMARK SMILES IDX 31 25 30 26 17 28 18 29 23 30 19 31 22 32 20 33 21 34
REMARK H PARENT 4 6 31 27
ROOT
ATOM      1  N   UNL     1       2.330   0.043   1.031  1.00  0.00    -0.182 NA
ENDROOT
BRANCH   1   2
ATOM      2  C   UNL     1       3.508  -0.417   0.766  1.00  0.00     0.229 C 
BRANCH   2   3
ATOM      3  N   UNL     1       3.807  -1.158  -0.338  1.00  0.00    -0.227 NA
BRANCH   3   4
ATOM      4  C   UNL     1       4.900  -0.893  -0.959  1.00  0.00     0.194 C 
ATOM      5  N   UNL     1       5.857   0.080  -0.792  1.00  0.00    -0.376 N 
ATOM      6  H   UNL     1       6.661  -0.062  -1.399  1.00  0.00     0.161 HD
BRANCH   5   7
ATOM      7  C   UNL     1       5.501   1.497  -0.757  1.00  0.00     0.113 C 
BRANCH   7   8
ATOM      8  C   UNL     1       6.682   2.322  -0.244  1.00  0.00     0.018 C 
ATOM      9  C   UNL     1       7.000   2.039   1.218  1.00  0.00     0.006 C 
ENDBRANCH   7   8
ENDBRANCH   5   7
ENDBRANCH   3   4
ENDBRANCH   2   3
ENDBRANCH   1   2
BRANCH   1  10
ATOM     10  C   UNL     1       1.374  -0.182   0.085  1.00  0.00     0.345 C 
ATOM     11  O   UNL     1       1.336   0.447  -0.969  1.00  0.00    -0.246 OA
BRANCH  10  12
ATOM     12  N   UNL     1       0.399  -1.112   0.424  1.00  0.00    -0.322 N 
ATOM     13  C   UNL     1       0.393  -1.827   1.690  1.00  0.00     0.149 C 
BRANCH  12  14
ATOM     14  C   UNL     1      -0.604  -1.486  -0.566  1.00  0.00     0.159 C 
BRANCH  14  15
ATOM     15  C   UNL     1      -1.969  -0.900  -0.285  1.00  0.00    -0.002 A 
ATOM     16  C   UNL     1      -2.096   0.498  -0.158  1.00  0.00     0.018 A 
ATOM     17  C   UNL     1      -3.145  -1.655  -0.235  1.00  0.00     0.074 A 
ATOM     18  C   UNL     1      -3.340   1.110   0.017  1.00  0.00     0.000 A 
ATOM     19  N   UNL     1      -4.368  -1.091  -0.088  1.00  0.00    -0.255 NA
ATOM     20  C   UNL     1      -4.435   0.255   0.041  1.00  0.00     0.120 A 
BRANCH  17  21
ATOM     21  C   UNL     1      -3.199  -3.114  -0.361  1.00  0.00     0.016 C 
ATOM     22  C   UNL     1      -2.647  -3.941   0.544  1.00  0.00     0.120 C 
ATOM     23  C   UNL     1      -3.975  -3.652  -1.524  1.00  0.00     0.153 C 
ATOM     24  N   UNL     1      -2.687  -5.310   0.464  1.00  0.00    -0.247 NA
ATOM     25  N   UNL     1      -3.712  -5.072  -1.675  1.00  0.00    -0.372 N 
ATOM     26  C   UNL     1      -3.213  -5.781  -0.618  1.00  0.00     0.192 C 
ATOM     27  H   UNL     1      -4.320  -5.562  -2.320  1.00  0.00     0.161 HD
ENDBRANCH  17  21
BRANCH  18  28
ATOM     28  C   UNL     1      -3.481   2.568   0.144  1.00  0.00    -0.017 A 
ATOM     29  C   UNL     1      -2.845   3.438  -0.759  1.00  0.00     0.010 A 
ATOM     30  C   UNL     1      -4.256   3.138   1.171  1.00  0.00     0.010 A 
ATOM     31  C   UNL     1      -2.983   4.826  -0.645  1.00  0.00     0.021 A 
ATOM     32  C   UNL     1      -4.395   4.526   1.287  1.00  0.00     0.021 A 
ATOM     33  C   UNL     1      -3.760   5.364   0.376  1.00  0.00     0.041 A 
ATOM     34  Cl  UNL     1      -3.930   7.071   0.515  1.00  0.00    -0.084 Cl
ENDBRANCH  18  28
ENDBRANCH  14  15
ENDBRANCH  12  14
ENDBRANCH  10  12
ENDBRANCH   1  10
TORSDOF 11
