REMARK SMILES Cc1cc(-n2nnc(C(=O)Nc3cccnc3F)c2N)ccc1C(=O)O
REMARK SMILES IDX 1 1 2 2 3 3 4 4 21 5 22 6 23 7 24 8 25 9 26 10 5 12 6 13
REMARK SMILES IDX 19 14 7 15 8 16 20 17 9 20 11 21 10 22 12 24 13 25 17 26
REMARK SMILES IDX 14 27 16 28 15 29 18 30
REMARK H PARENT 26 11 20 18 20 19 11 23
ROOT
ATOM      1  C   UNL     1      -5.240  -0.882  -0.999  1.00  0.00     0.045 C 
ATOM      2  C   UNL     1      -4.376  -0.093  -0.053  1.00  0.00    -0.034 A 
ATOM      3  C   UNL     1      -2.974  -0.212  -0.171  1.00  0.00     0.032 A 
ATOM      4  C   UNL     1      -2.109   0.478   0.690  1.00  0.00     0.069 A 
ATOM      5  C   UNL     1      -2.653   1.328   1.663  1.00  0.00     0.029 A 
ATOM      6  C   UNL     1      -4.038   1.464   1.784  1.00  0.00     0.018 A 
ATOM      7  C   UNL     1      -4.905   0.771   0.926  1.00  0.00     0.062 A 
ENDROOT
BRANCH   7   8
ATOM      8  C   UNL     1      -6.354   1.011   1.141  1.00  0.00     0.335 C 
ATOM      9  O   UNL     1      -6.873   1.283   2.208  1.00  0.00    -0.246 OA
BRANCH   8  10
ATOM     10  O   UNL     1      -7.071   0.987   0.006  1.00  0.00    -0.478 OA
ATOM     11  H   UNL     1      -7.979   1.213   0.296  1.00  0.00     0.297 HD
ENDBRANCH   8  10
ENDBRANCH   7   8
BRANCH   4  12
ATOM     12  N   UNL     1      -0.692   0.361   0.585  1.00  0.00    -0.197 N 
ATOM     13  N   UNL     1       0.116   1.272   1.200  1.00  0.00    -0.059 NA
ATOM     14  C   UNL     1       0.105  -0.567  -0.096  1.00  0.00     0.161 A 
ATOM     15  N   UNL     1       1.368   1.049   0.837  1.00  0.00    -0.122 NA
ATOM     16  C   UNL     1       1.392  -0.072   0.048  1.00  0.00     0.194 A 
BRANCH  14  17
ATOM     17  N   UNL     1      -0.332  -1.703  -0.715  1.00  0.00    -0.382 N 
ATOM     18  H   UNL     1      -1.069  -2.251  -0.271  1.00  0.00     0.158 HD
ATOM     19  H   UNL     1       0.402  -2.330  -1.069  1.00  0.00     0.158 HD
ENDBRANCH  14  17
BRANCH  16  20
ATOM     20  C   UNL     1       2.633  -0.635  -0.480  1.00  0.00     0.280 C 
ATOM     21  N   UNL     1       3.728   0.145  -0.161  1.00  0.00    -0.317 N 
ATOM     22  O   UNL     1       2.633  -1.665  -1.139  1.00  0.00    -0.267 OA
ATOM     23  H   UNL     1       3.501   1.017   0.308  1.00  0.00     0.170 HD
BRANCH  21  24
ATOM     24  C   UNL     1       5.090  -0.084  -0.459  1.00  0.00     0.097 A 
ATOM     25  C   UNL     1       5.965   0.979  -0.197  1.00  0.00     0.032 A 
ATOM     26  C   UNL     1       5.664  -1.255  -0.966  1.00  0.00     0.236 A 
ATOM     27  C   UNL     1       7.327   0.853  -0.463  1.00  0.00     0.022 A 
ATOM     28  N   UNL     1       6.987  -1.400  -1.231  1.00  0.00    -0.226 NA
ATOM     29  C   UNL     1       7.785  -0.344  -0.980  1.00  0.00     0.114 A 
ATOM     30  F   UNL     1       4.929  -2.357  -1.157  1.00  0.00    -0.183 F 
ENDBRANCH  21  24
ENDBRANCH  16  20
ENDBRANCH   4  12
TORSDOF 6
