MODEL        5USER    Run = 5USERUSER    Estimated Free Energy of Binding    = -10.17 kcal/mol  [=(1)+(2)+(3)-(4)]USERUSER    (1) Final Intermolecular Energy     = -11.96 kcal/molUSER        vdW + Hbond + desolv Energy     = -11.76 kcal/molUSER        Electrostatic Energy            =  -0.20 kcal/molUSER        Moving Ligand-Fixed Receptor    = -11.96 kcal/molUSER        Moving Ligand-Moving Receptor   =  +0.00 kcal/molUSER    (2) Final Total Internal Energy     =  -1.06 kcal/molUSER    (3) Torsional Free Energy           =  +1.79 kcal/molUSER    (4) Unbound System's Energy         =  -1.06 kcal/molUSERUSERREMARK SMILES Cc1cc(-c2nnc3ccc(-c4cnn(CCN5CCOCC5)c4F)cn23)ccc1OREMARK SMILES IDX 5 1 6 2 7 3 8 4 9 5 10 6 11 7 26 8 27 9 4 10 2 11 3 12 30 13REMARK SMILES IDX 29 14 28 15 1 16 31 17 12 19 13 20 24 21 14 22 15 23 25 24REMARK SMILES IDX 16 25 17 26 18 27 19 28 23 29 20 30 22 31 21 32REMARK H PARENT 31 18USER                              x       y       z     vdW  Elec       q    TypeUSER                           _______ _______ _______ _____ _____    ______ ____ROOTATOM      1  C   UNL     1      37.764  47.590  14.207 -0.38 -0.08    +0.168 A  ATOM      2  N   UNL     1      37.715  47.904  12.923 -0.93 +0.02    -0.129 NA ATOM      3  N   UNL     1      36.487  47.544  12.425 -0.82 +0.06    -0.130 NA ATOM      4  C   UNL     1      35.811  46.985  13.400 -0.41 -0.10    +0.161 A  ATOM      5  C   UNL     1      34.513  46.418  13.466 -0.06 -0.04    +0.050 A  ATOM      6  C   UNL     1      34.088  45.863  14.618 -0.24 -0.01    +0.014 A  ATOM      7  C   UNL     1      34.921  45.811  15.831 -0.32 -0.00    +0.005 A  ATOM      8  C   UNL     1      36.152  46.366  15.743 -0.30 -0.08    +0.104 A  ATOM      9  N   UNL     1      36.580  46.958  14.552 -0.21 +0.19    -0.282 N  ENDROOTBRANCH   1  10ATOM     10  C   UNL     1      38.902  47.830  15.090 -0.50 -0.01    +0.020 A  ATOM     11  C   UNL     1      40.885  49.166  15.633 -0.64 +0.00    -0.009 A  ATOM     12  C   UNL     1      39.776  48.895  14.814 -0.46 -0.01    +0.019 A  ATOM     13  C   UNL     1      41.094  48.353  16.751 -0.43 -0.01    +0.118 A  ATOM     14  C   UNL     1      40.226  47.305  17.051 -0.47 -0.01    +0.047 A  ATOM     15  C   UNL     1      39.129  47.048  16.229 -0.44 -0.01    +0.016 A  ATOM     16  C   UNL     1      41.791  50.312  15.289 -0.66 -0.01    +0.048 C  BRANCH  13  17ATOM     17  O   UNL     1      42.137  48.531  17.614 -0.42 -0.06    -0.508 OA ATOM     18  H   UNL     1      42.767  47.802  17.515 -0.33 -0.03    +0.293 HD ENDBRANCH  13  17ENDBRANCH   1  10BRANCH   7  19ATOM     19  C   UNL     1      34.446  45.193  17.034 -0.29 -0.04    +0.058 A  ATOM     20  C   UNL     1      33.967  45.806  18.220 -0.37 -0.09    +0.147 A  ATOM     21  C   UNL     1      34.339  43.850  17.305 -0.16 -0.08    +0.219 A  ATOM     22  N   UNL     1      33.589  44.922  19.152 -0.32 +0.06    -0.178 NA ATOM     23  N   UNL     1      33.829  43.733  18.563 -0.18 +0.06    -0.238 N  ATOM     24  F   UNL     1      34.649  42.831  16.492 -0.13 +0.08    -0.185 F  BRANCH  23  25ATOM     25  C   UNL     1      33.545  42.496  19.265 -0.33 -0.00    +0.163 C  BRANCH  25  26ATOM     26  C   UNL     1      33.026  41.418  18.306 -0.39 -0.02    +0.108 C  BRANCH  26  27ATOM     27  N   UNL     1      31.577  41.381  18.062 -0.14 +0.05    -0.297 NA ATOM     28  C   UNL     1      31.046  42.512  17.284 -0.27 -0.03    +0.113 C  ATOM     29  C   UNL     1      31.094  40.085  17.554 -0.35 -0.01    +0.113 C  ATOM     30  C   UNL     1      30.567  42.116  15.878 -0.28 -0.08    +0.175 C  ATOM     31  C   UNL     1      29.663  40.207  17.011 -0.31 +0.00    +0.175 C  ATOM     32  O   UNL     1      29.572  41.086  15.879 -0.24 +0.11    -0.379 OA ENDBRANCH  26  27ENDBRANCH  25  26ENDBRANCH  23  25ENDBRANCH   7  19TORSDOF 6TERENDMDL