MODEL        7USER    Run = 7USERUSER    Estimated Free Energy of Binding    =  -8.39 kcal/mol  [=(1)+(2)+(3)-(4)]USERUSER    (1) Final Intermolecular Energy     = -10.18 kcal/molUSER        vdW + Hbond + desolv Energy     =  -9.78 kcal/molUSER        Electrostatic Energy            =  -0.40 kcal/molUSER        Moving Ligand-Fixed Receptor    = -10.18 kcal/molUSER        Moving Ligand-Moving Receptor   =  +0.00 kcal/molUSER    (2) Final Total Internal Energy     =  -1.67 kcal/molUSER    (3) Torsional Free Energy           =  +1.79 kcal/molUSER    (4) Unbound System's Energy         =  -1.67 kcal/molUSERUSERREMARK SMILES Cc1cc(-n2nnc(C(=O)Nc3cccnc3F)c2N)ccc1C(=O)OREMARK SMILES IDX 1 1 2 2 3 3 4 4 21 5 22 6 23 7 24 8 25 9 26 10 5 12 6 13REMARK SMILES IDX 19 14 7 15 8 16 20 17 9 20 11 21 10 22 12 24 13 25 17 26REMARK SMILES IDX 14 27 16 28 15 29 18 30REMARK H PARENT 26 11 20 18 20 19 11 23USER                              x       y       z     vdW  Elec       q    TypeUSER                           _______ _______ _______ _____ _____    ______ ____ROOTATOM      1  C   UNL     1      39.263  48.440  14.596 -0.57 -0.02    +0.045 C  ATOM      2  C   UNL     1      38.946  47.513  15.738 -0.45 +0.01    -0.034 A  ATOM      3  C   UNL     1      37.759  46.751  15.671 -0.38 -0.02    +0.032 A  ATOM      4  C   UNL     1      37.391  45.883  16.709 -0.32 -0.03    +0.069 A  ATOM      5  C   UNL     1      38.240  45.748  17.816 -0.37 -0.01    +0.029 A  ATOM      6  C   UNL     1      39.423  46.487  17.891 -0.41 -0.00    +0.018 A  ATOM      7  C   UNL     1      39.790  47.360  16.855 -0.44 -0.02    +0.062 A  ENDROOTBRANCH   7   8ATOM      8  C   UNL     1      41.077  48.075  17.041 -0.31 -0.04    +0.335 C  ATOM      9  O   UNL     1      41.415  49.085  16.450 -1.07 -0.00    -0.246 OA BRANCH   8  10ATOM     10  O   UNL     1      41.842  47.552  18.013 -0.30 +0.03    -0.478 OA ATOM     11  H   UNL     1      42.695  47.368  17.569 -0.38 -0.07    +0.297 HD ENDBRANCH   8  10ENDBRANCH   7   8BRANCH   4  12ATOM     12  N   UNL     1      36.192  45.114  16.656 -0.19 +0.09    -0.197 N  ATOM     13  N   UNL     1      36.232  43.815  16.241 -0.35 +0.02    -0.059 NA ATOM     14  C   UNL     1      34.867  45.457  16.950 -0.23 -0.11    +0.161 A  ATOM     15  N   UNL     1      34.994  43.362  16.130 -0.34 +0.05    -0.122 NA ATOM     16  C   UNL     1      34.139  44.343  16.561 -0.18 -0.10    +0.194 A  BRANCH  14  17ATOM     17  N   UNL     1      34.444  46.623  17.521 -0.11 +0.46    -0.382 N  ATOM     18  H   UNL     1      33.442  46.805  17.581 -0.37 -0.24    +0.158 HD ATOM     19  H   UNL     1      34.934  47.474  17.216 -0.19 -0.30    +0.158 HD ENDBRANCH  14  17BRANCH  16  20ATOM     20  C   UNL     1      32.691  44.150  16.625 -0.18 -0.12    +0.280 C  ATOM     21  N   UNL     1      32.334  42.842  16.360 -0.13 +0.15    -0.317 N  ATOM     22  O   UNL     1      31.937  45.082  16.867 -0.61 +0.08    -0.267 OA ATOM     23  H   UNL     1      33.106  42.244  16.081 -0.41 -0.12    +0.170 HD BRANCH  21  24ATOM     24  C   UNL     1      31.046  42.263  16.363 -0.24 -0.04    +0.097 A  ATOM     25  C   UNL     1      30.023  43.031  15.789 -0.28 -0.02    +0.032 A  ATOM     26  C   UNL     1      30.681  41.005  16.855 -0.18 -0.06    +0.236 A  ATOM     27  C   UNL     1      28.716  42.548  15.750 -0.22 -0.01    +0.022 A  ATOM     28  N   UNL     1      29.416  40.515  16.826 -0.22 +0.01    -0.226 NA ATOM     29  C   UNL     1      28.464  41.298  16.281 -0.24 -0.03    +0.114 A  ATOM     30  F   UNL     1      31.600  40.157  17.332 -0.12 +0.04    -0.183 F  ENDBRANCH  21  24ENDBRANCH  16  20ENDBRANCH   4  12TORSDOF 6TERENDMDL