REMARK SMILES Cc1cc(-c2nnc3ccc(-c4cnn(CCN5CCOCC5)c4F)cn23)ccc1O
REMARK SMILES IDX 5 1 6 2 7 3 8 4 9 5 10 6 11 7 26 8 27 9 4 10 2 11 3 12 30 13
REMARK SMILES IDX 29 14 28 15 1 16 31 17 12 19 13 20 24 21 14 22 15 23 25 24
REMARK SMILES IDX 16 25 17 26 18 27 19 28 23 29 20 30 22 31 21 32
REMARK H PARENT 31 18
ROOT
ATOM      1  C   UNL     1      -4.527   1.663  -0.760  1.00  0.00     0.168 A 
ATOM      2  N   UNL     1      -5.167   2.780  -1.065  1.00  0.00    -0.129 NA
ATOM      3  N   UNL     1      -4.255   3.804  -1.151  1.00  0.00    -0.130 NA
ATOM      4  C   UNL     1      -3.074   3.309  -0.866  1.00  0.00     0.161 A 
ATOM      5  C   UNL     1      -1.784   3.891  -0.785  1.00  0.00     0.050 A 
ATOM      6  C   UNL     1      -0.734   3.131  -0.417  1.00  0.00     0.014 A 
ATOM      7  C   UNL     1      -0.863   1.702  -0.086  1.00  0.00     0.005 A 
ATOM      8  C   UNL     1      -2.104   1.170  -0.179  1.00  0.00     0.104 A 
ATOM      9  N   UNL     1      -3.186   1.958  -0.580  1.00  0.00    -0.282 N 
ENDROOT
BRANCH   1  10
ATOM     10  C   UNL     1      -5.152   0.353  -0.595  1.00  0.00     0.020 A 
ATOM     11  C   UNL     1      -6.943  -1.003   0.387  1.00  0.00    -0.009 A 
ATOM     12  C   UNL     1      -6.306   0.235   0.197  1.00  0.00     0.019 A 
ATOM     13  C   UNL     1      -6.406  -2.126  -0.251  1.00  0.00     0.118 A 
ATOM     14  C   UNL     1      -5.274  -2.023  -1.056  1.00  0.00     0.047 A 
ATOM     15  C   UNL     1      -4.652  -0.787  -1.235  1.00  0.00     0.016 A 
ATOM     16  C   UNL     1      -8.170  -1.075   1.248  1.00  0.00     0.048 C 
BRANCH  13  17
ATOM     17  O   UNL     1      -6.948  -3.374  -0.137  1.00  0.00    -0.508 OA
ATOM     18  H   UNL     1      -7.764  -3.326   0.383  1.00  0.00     0.293 HD
ENDBRANCH  13  17
ENDBRANCH   1  10
BRANCH   7  19
ATOM     19  C   UNL     1       0.272   0.928   0.323  1.00  0.00     0.058 A 
ATOM     20  C   UNL     1       0.312  -0.223   1.151  1.00  0.00     0.147 A 
ATOM     21  C   UNL     1       1.591   1.127  -0.009  1.00  0.00     0.219 A 
ATOM     22  N   UNL     1       1.550  -0.704   1.320  1.00  0.00    -0.178 NA
ATOM     23  N   UNL     1       2.311   0.143   0.598  1.00  0.00    -0.238 N 
ATOM     24  F   UNL     1       2.093   2.087  -0.798  1.00  0.00    -0.185 F 
BRANCH  23  25
ATOM     25  C   UNL     1       3.748  -0.043   0.525  1.00  0.00     0.163 C 
BRANCH  25  26
ATOM     26  C   UNL     1       4.125  -1.036  -0.581  1.00  0.00     0.108 C 
BRANCH  26  27
ATOM     27  N   UNL     1       5.558  -1.271  -0.809  1.00  0.00    -0.297 NA
ATOM     28  C   UNL     1       6.326  -0.086  -1.226  1.00  0.00     0.113 C 
ATOM     29  C   UNL     1       6.220  -2.003   0.284  1.00  0.00     0.113 C 
ATOM     30  C   UNL     1       7.312   0.411  -0.156  1.00  0.00     0.175 C 
ATOM     31  C   UNL     1       7.748  -1.926   0.150  1.00  0.00     0.175 C 
ATOM     32  O   UNL     1       8.249  -0.586   0.268  1.00  0.00    -0.379 OA
ENDBRANCH  26  27
ENDBRANCH  25  26
ENDBRANCH  23  25
ENDBRANCH   7  19
TORSDOF 6
