MODEL        1USER    Run = 1USERUSER    Estimated Free Energy of Binding    =  -8.46 kcal/mol  [=(1)+(2)+(3)-(4)]USERUSER    (1) Final Intermolecular Energy     =  -9.36 kcal/molUSER        vdW + Hbond + desolv Energy     =  -9.17 kcal/molUSER        Electrostatic Energy            =  -0.19 kcal/molUSER        Moving Ligand-Fixed Receptor    =  -9.36 kcal/molUSER        Moving Ligand-Moving Receptor   =  +0.00 kcal/molUSER    (2) Final Total Internal Energy     =  -0.47 kcal/molUSER    (3) Torsional Free Energy           =  +0.89 kcal/molUSER    (4) Unbound System's Energy         =  -0.47 kcal/molUSERUSERREMARK SMILES Cc1cc(-c2ccc3nnc(C(C)C)n3c2)ccc1OREMARK SMILES IDX 5 1 6 2 7 3 8 4 9 5 10 6 11 7 15 8 16 9 4 10 2 11 3 12 19 13REMARK SMILES IDX 18 14 17 15 1 16 20 17 12 19 13 20 14 21REMARK H PARENT 20 18USER                              x       y       z     vdW  Elec       q    TypeUSER                           _______ _______ _______ _____ _____    ______ ____ROOTATOM      1  C   UNL     1      35.343  45.943  15.614 -0.35 +0.00    -0.001 A  ATOM      2  C   UNL     1      34.667  45.984  14.317 -0.29 -0.01    +0.014 A  ATOM      3  C   UNL     1      35.232  46.560  13.239 -0.43 -0.03    +0.050 A  ATOM      4  C   UNL     1      36.522  47.145  13.352 -0.45 -0.08    +0.160 A  ATOM      5  N   UNL     1      37.290  47.761  12.486 -1.11 +0.02    -0.130 NA ATOM      6  N   UNL     1      38.442  48.124  13.134 -0.53 +0.01    -0.134 NA ATOM      7  C   UNL     1      38.366  47.728  14.392 -0.40 -0.06    +0.139 A  ATOM      8  N   UNL     1      37.151  47.093  14.590 -0.21 +0.16    -0.286 N  ATOM      9  C   UNL     1      36.570  46.499  15.710 -0.31 -0.07    +0.103 A  ENDROOTBRANCH   1  10ATOM     10  C   UNL     1      34.752  45.317  16.807 -0.32 +0.01    -0.016 A  ATOM     11  C   UNL     1      34.093  43.309  18.037 -0.32 +0.00    -0.009 A  ATOM     12  C   UNL     1      34.651  43.921  16.902 -0.31 -0.01    +0.016 A  ATOM     13  C   UNL     1      33.642  44.131  19.077 -0.33 -0.02    +0.118 A  ATOM     14  C   UNL     1      33.741  45.518  18.994 -0.30 -0.02    +0.047 A  ATOM     15  C   UNL     1      34.297  46.113  17.862 -0.45 -0.01    +0.012 A  ATOM     16  C   UNL     1      34.003  41.812  18.099 -0.44 -0.01    +0.048 C  BRANCH  13  17ATOM     17  O   UNL     1      33.084  43.639  20.223 -0.73 -0.04    -0.508 OA ATOM     18  H   UNL     1      33.076  44.330  20.903 -0.14 -0.01    +0.293 HD ENDBRANCH  13  17ENDBRANCH   1  10BRANCH   7  19ATOM     19  C   UNL     1      39.447  47.950  15.408 -0.56 -0.02    +0.052 C  ATOM     20  C   UNL     1      40.036  46.644  15.936 -0.52 -0.00    +0.016 C  ATOM     21  C   UNL     1      40.526  48.913  14.917 -0.67 -0.00    +0.016 C  ENDBRANCH   7  19TORSDOF 3TERENDMDL