REMARK SMILES Cc1cc(-c2ccc3nnc(C(C)C)n3c2)ccc1O
REMARK SMILES IDX 5 1 6 2 7 3 8 4 9 5 10 6 11 7 15 8 16 9 4 10 2 11 3 12 19 13
REMARK SMILES IDX 18 14 17 15 1 16 20 17 12 19 13 20 14 21
REMARK H PARENT 20 18
ROOT
ATOM      1  C   UNL     1      -0.252   1.185   0.453  1.00  0.00    -0.001 A 
ATOM      2  C   UNL     1      -0.059   2.349   1.319  1.00  0.00     0.014 A 
ATOM      3  C   UNL     1       1.159   2.705   1.770  1.00  0.00     0.050 A 
ATOM      4  C   UNL     1       2.295   1.938   1.399  1.00  0.00     0.160 A 
ATOM      5  N   UNL     1       3.569   2.053   1.688  1.00  0.00    -0.130 NA
ATOM      6  N   UNL     1       4.234   1.034   1.056  1.00  0.00    -0.134 NA
ATOM      7  C   UNL     1       3.359   0.305   0.387  1.00  0.00     0.139 A 
ATOM      8  N   UNL     1       2.095   0.839   0.573  1.00  0.00    -0.286 N 
ATOM      9  C   UNL     1       0.835   0.465   0.104  1.00  0.00     0.103 A 
ENDROOT
BRANCH   1  10
ATOM     10  C   UNL     1      -1.569   0.775  -0.058  1.00  0.00    -0.016 A 
ATOM     11  C   UNL     1      -3.486  -0.742   0.007  1.00  0.00    -0.009 A 
ATOM     12  C   UNL     1      -2.226  -0.341   0.482  1.00  0.00     0.016 A 
ATOM     13  C   UNL     1      -4.074   0.005  -1.021  1.00  0.00     0.118 A 
ATOM     14  C   UNL     1      -3.431   1.117  -1.562  1.00  0.00     0.047 A 
ATOM     15  C   UNL     1      -2.181   1.504  -1.081  1.00  0.00     0.012 A 
ATOM     16  C   UNL     1      -4.155  -1.941   0.613  1.00  0.00     0.048 C 
BRANCH  13  17
ATOM     17  O   UNL     1      -5.294  -0.298  -1.554  1.00  0.00    -0.508 OA
ATOM     18  H   UNL     1      -5.665  -1.070  -1.099  1.00  0.00     0.293 HD
ENDBRANCH  13  17
ENDBRANCH   1  10
BRANCH   7  19
ATOM     19  C   UNL     1       3.721  -0.900  -0.430  1.00  0.00     0.052 C 
ATOM     20  C   UNL     1       3.108  -2.187   0.117  1.00  0.00     0.016 C 
ATOM     21  C   UNL     1       3.432  -0.710  -1.917  1.00  0.00     0.016 C 
ENDBRANCH   7  19
TORSDOF 3
