REMARK SMILES O=C(Nc1cccc(-c2ccc(F)cc2O)c1)c1ccc(O)c(CF)c1
REMARK SMILES IDX 4 1 5 2 6 3 7 4 8 5 17 6 3 7 2 8 1 9 18 11 19 12 26 13 20 14
REMARK SMILES IDX 23 15 21 16 24 17 25 18 22 19 9 21 10 22 15 23 11 24 14 25
REMARK SMILES IDX 12 26 13 27 16 28
REMARK H PARENT 3 10 22 20 16 29
ROOT
ATOM      1  C   UNL     1      -0.484  -1.241  -0.816  1.00  0.00     0.042 A 
ATOM      2  C   UNL     1      -0.813  -2.382  -1.555  1.00  0.00     0.026 A 
ATOM      3  C   UNL     1      -2.128  -2.843  -1.598  1.00  0.00     0.003 A 
ATOM      4  C   UNL     1      -3.128  -2.162  -0.903  1.00  0.00     0.009 A 
ATOM      5  C   UNL     1      -2.834  -1.008  -0.162  1.00  0.00    -0.013 A 
ATOM      6  C   UNL     1      -1.497  -0.561  -0.133  1.00  0.00     0.035 A 
ENDROOT
BRANCH   1   7
ATOM      7  N   UNL     1       0.869  -0.837  -0.825  1.00  0.00    -0.322 N 
ATOM      8  C   UNL     1       1.447   0.173  -0.079  1.00  0.00     0.255 C 
ATOM      9  O   UNL     1       0.909   0.845   0.794  1.00  0.00    -0.269 OA
ATOM     10  H   UNL     1       1.489  -1.408  -1.384  1.00  0.00     0.170 HD
BRANCH   8  11
ATOM     11  C   UNL     1       2.894   0.409  -0.352  1.00  0.00     0.040 A 
ATOM     12  C   UNL     1       3.439   0.261  -1.631  1.00  0.00     0.017 A 
ATOM     13  C   UNL     1       3.714   0.823   0.710  1.00  0.00     0.024 A 
ATOM     14  C   UNL     1       4.800   0.494  -1.835  1.00  0.00     0.047 A 
ATOM     15  C   UNL     1       5.085   1.062   0.514  1.00  0.00     0.026 A 
ATOM     16  C   UNL     1       5.611   0.886  -0.770  1.00  0.00     0.121 A 
BRANCH  15  17
ATOM     17  C   UNL     1       5.918   1.508   1.683  1.00  0.00     0.254 C 
ATOM     18  F   UNL     1       7.240   1.655   1.369  1.00  0.00    -0.246 F 
ENDBRANCH  15  17
BRANCH  16  19
ATOM     19  O   UNL     1       6.929   1.091  -1.062  1.00  0.00    -0.508 OA
ATOM     20  H   UNL     1       7.395   1.356  -0.244  1.00  0.00     0.293 HD
ENDBRANCH  16  19
ENDBRANCH   8  11
ENDBRANCH   1   7
BRANCH   5  21
ATOM     21  C   UNL     1      -3.887  -0.289   0.584  1.00  0.00     0.024 A 
ATOM     22  C   UNL     1      -3.716  -0.036   1.961  1.00  0.00     0.015 A 
ATOM     23  C   UNL     1      -5.077   0.168  -0.019  1.00  0.00     0.126 A 
ATOM     24  C   UNL     1      -4.689   0.639   2.700  1.00  0.00     0.040 A 
ATOM     25  C   UNL     1      -6.053   0.844   0.716  1.00  0.00     0.086 A 
ATOM     26  C   UNL     1      -5.847   1.071   2.070  1.00  0.00     0.126 A 
ATOM     27  F   UNL     1      -6.782   1.718   2.778  1.00  0.00    -0.207 F 
BRANCH  23  28
ATOM     28  O   UNL     1      -5.280  -0.041  -1.358  1.00  0.00    -0.507 OA
ATOM     29  H   UNL     1      -6.086   0.422  -1.637  1.00  0.00     0.293 HD
ENDBRANCH  23  28
ENDBRANCH   5  21
TORSDOF 6
