REMARK SMILES CC(C)Nc1ncc2c(n1)nc([C@@H](C)c1ccc(F)cc1)c(=O)n2CN1CCOCC1
REMARK SMILES IDX 5 1 6 2 7 3 8 4 9 5 10 6 11 7 12 8 22 9 23 10 24 11 4 12
REMARK SMILES IDX 2 14 1 15 3 16 25 17 26 18 27 19 31 20 28 21 30 22 29 23
REMARK SMILES IDX 13 24 14 25 15 26 16 27 21 28 17 29 20 30 18 31 19 32
REMARK H PARENT 4 13
ROOT
ATOM      1  C   UNL     1       2.665  -1.377  -1.030  1.00  0.00     0.225 A 
ATOM      2  N   UNL     1       2.851  -0.082  -1.317  1.00  0.00    -0.219 NA
ATOM      3  C   UNL     1       1.772   0.726  -1.253  1.00  0.00     0.145 A 
ATOM      4  C   UNL     1       0.506   0.289  -0.932  1.00  0.00     0.109 A 
ATOM      5  C   UNL     1       0.430  -1.067  -0.673  1.00  0.00     0.182 A 
ATOM      6  N   UNL     1       1.479  -1.906  -0.724  1.00  0.00    -0.191 NA
ATOM      7  N   UNL     1      -0.770  -1.700  -0.337  1.00  0.00    -0.225 NA
ATOM      8  C   UNL     1      -1.847  -0.980  -0.233  1.00  0.00     0.115 A 
ATOM      9  C   UNL     1      -1.870   0.527  -0.496  1.00  0.00     0.274 A 
ATOM     10  O   UNL     1      -2.927   1.140  -0.391  1.00  0.00    -0.267 OA
ATOM     11  N   UNL     1      -0.656   1.102  -0.857  1.00  0.00    -0.289 N 
ENDROOT
BRANCH   1  12
ATOM     12  N   UNL     1       3.727  -2.265  -1.033  1.00  0.00    -0.352 N 
ATOM     13  H   UNL     1       3.318  -3.191  -1.101  1.00  0.00     0.163 HD
BRANCH  12  14
ATOM     14  C   UNL     1       4.847  -1.970  -1.914  1.00  0.00     0.076 C 
ATOM     15  C   UNL     1       5.894  -1.142  -1.169  1.00  0.00     0.030 C 
ATOM     16  C   UNL     1       5.472  -3.291  -2.373  1.00  0.00     0.030 C 
ENDBRANCH  12  14
ENDBRANCH   1  12
BRANCH  11  17
ATOM     17  C   UNL     1      -0.616   2.515  -1.185  1.00  0.00     0.214 C 
BRANCH  17  18
ATOM     18  N   UNL     1       0.153   3.246  -0.175  1.00  0.00    -0.281 NA
ATOM     19  C   UNL     1      -0.564   3.359   1.118  1.00  0.00     0.115 C 
ATOM     20  C   UNL     1       0.473   4.616  -0.637  1.00  0.00     0.115 C 
ATOM     21  C   UNL     1      -1.747   4.345   1.103  1.00  0.00     0.175 C 
ATOM     22  C   UNL     1      -0.726   5.580  -0.633  1.00  0.00     0.175 C 
ATOM     23  O   UNL     1      -1.333   5.644   0.660  1.00  0.00    -0.379 OA
ENDBRANCH  17  18
ENDBRANCH  11  17
BRANCH   8  24
ATOM     24  C   UNL     1      -3.169  -1.631   0.167  1.00  0.00     0.071 C 
ATOM     25  C   UNL     1      -3.519  -2.762  -0.811  1.00  0.00     0.020 C 
BRANCH  24  26
ATOM     26  C   UNL     1      -3.137  -2.084   1.624  1.00  0.00    -0.039 A 
ATOM     27  C   UNL     1      -2.407  -3.216   2.031  1.00  0.00     0.007 A 
ATOM     28  C   UNL     1      -3.826  -1.337   2.599  1.00  0.00     0.007 A 
ATOM     29  C   UNL     1      -2.378  -3.599   3.371  1.00  0.00     0.039 A 
ATOM     30  C   UNL     1      -3.796  -1.724   3.940  1.00  0.00     0.039 A 
ATOM     31  C   UNL     1      -3.074  -2.850   4.314  1.00  0.00     0.123 A 
ATOM     32  F   UNL     1      -3.039  -3.209   5.602  1.00  0.00    -0.207 F 
ENDBRANCH  24  26
ENDBRANCH   8  24
TORSDOF 6
