MODEL        5USER    Run = 5USERUSER    Estimated Free Energy of Binding    =  -9.71 kcal/mol  [=(1)+(2)+(3)-(4)]USERUSER    (1) Final Intermolecular Energy     = -11.50 kcal/molUSER        vdW + Hbond + desolv Energy     = -11.35 kcal/molUSER        Electrostatic Energy            =  -0.15 kcal/molUSER        Moving Ligand-Fixed Receptor    = -11.50 kcal/molUSER        Moving Ligand-Moving Receptor   =  +0.00 kcal/molUSER    (2) Final Total Internal Energy     =  -1.13 kcal/molUSER    (3) Torsional Free Energy           =  +1.79 kcal/molUSER    (4) Unbound System's Energy         =  -1.13 kcal/molUSERUSERREMARK SMILES CC(C)Nc1ncc2c(n1)nc([C@@H](C)c1ccc(F)cc1)c(=O)n2CN1CCOCC1REMARK SMILES IDX 5 1 6 2 7 3 8 4 9 5 10 6 11 7 12 8 22 9 23 10 24 11 4 12REMARK SMILES IDX 2 14 1 15 3 16 25 17 26 18 27 19 31 20 28 21 30 22 29 23REMARK SMILES IDX 13 24 14 25 15 26 16 27 21 28 17 29 20 30 18 31 19 32REMARK H PARENT 4 13USER                              x       y       z     vdW  Elec       q    TypeUSER                           _______ _______ _______ _____ _____    ______ ____ROOTATOM      1  C   UNL     1      40.488  46.377  17.725 -0.33 -0.02    +0.225 A  ATOM      2  N   UNL     1      40.100  47.140  16.694 -0.33 +0.04    -0.219 NA ATOM      3  C   UNL     1      38.810  47.047  16.309 -0.33 -0.05    +0.145 A  ATOM      4  C   UNL     1      37.892  46.207  16.901 -0.31 -0.04    +0.109 A  ATOM      5  C   UNL     1      38.409  45.456  17.940 -0.27 -0.04    +0.182 A  ATOM      6  N   UNL     1      39.685  45.519  18.356 -0.30 +0.02    -0.191 NA ATOM      7  N   UNL     1      37.636  44.541  18.660 -0.22 +0.03    -0.225 NA ATOM      8  C   UNL     1      36.377  44.416  18.360 -0.26 -0.03    +0.115 A  ATOM      9  C   UNL     1      35.708  45.201  17.231 -0.14 -0.13    +0.274 A  ATOM     10  O   UNL     1      34.518  45.022  16.996 -0.18 +0.16    -0.267 OA ATOM     11  N   UNL     1      36.529  46.076  16.526 -0.17 +0.17    -0.289 N  ENDROOTBRANCH   1  12ATOM     12  N   UNL     1      41.784  46.442  18.208 -0.24 +0.01    -0.352 N  ATOM     13  H   UNL     1      42.308  46.989  17.532 -0.45 -0.04    +0.163 HD BRANCH  12  14ATOM     14  C   UNL     1      41.961  46.779  19.612 -0.44 +0.01    +0.076 C  ATOM     15  C   UNL     1      41.815  45.524  20.473 -0.38 +0.01    +0.030 C  ATOM     16  C   UNL     1      43.362  47.368  19.803 -0.42 +0.01    +0.030 C  ENDBRANCH  12  14ENDBRANCH   1  12BRANCH  11  17ATOM     17  C   UNL     1      35.978  46.805  15.399 -0.21 -0.21    +0.214 C  BRANCH  17  18ATOM     18  N   UNL     1      36.037  45.983  14.188 -0.21 +0.16    -0.281 NA ATOM     19  C   UNL     1      37.425  45.763  13.715 -0.43 -0.04    +0.115 C  ATOM     20  C   UNL     1      35.275  46.607  13.082 -0.46 -0.08    +0.115 C  ATOM     21  C   UNL     1      38.081  47.001  13.075 -0.32 -0.04    +0.175 C  ATOM     22  C   UNL     1      35.959  47.835  12.458 -0.48 -0.10    +0.175 C  ATOM     23  O   UNL     1      37.278  47.519  12.007 -0.99 +0.07    -0.379 OA ENDBRANCH  17  18ENDBRANCH  11  17BRANCH   8  24ATOM     24  C   UNL     1      35.493  43.452  19.148 -0.39 -0.01    +0.071 C  ATOM     25  C   UNL     1      35.144  42.230  18.286 -0.45 -0.00    +0.020 C  BRANCH  24  26ATOM     26  C   UNL     1      36.139  43.083  20.481 -0.42 +0.00    -0.039 A  ATOM     27  C   UNL     1      36.654  44.063  21.350 -0.36 +0.00    +0.007 A  ATOM     28  C   UNL     1      36.195  41.732  20.876 -0.50 -0.00    +0.007 A  ATOM     29  C   UNL     1      37.222  43.702  22.571 -0.35 +0.00    +0.039 A  ATOM     30  C   UNL     1      36.765  41.374  22.099 -0.55 +0.00    +0.039 A  ATOM     31  C   UNL     1      37.274  42.361  22.934 -0.36 +0.01    +0.123 A  ATOM     32  F   UNL     1      37.808  42.013  24.110 -0.07 -0.02    -0.207 F  ENDBRANCH  24  26ENDBRANCH   8  24TORSDOF 6TERENDMDL