MODEL        5USER    Run = 5USERUSER    Estimated Free Energy of Binding    = -12.11 kcal/mol  [=(1)+(2)+(3)-(4)]USERUSER    (1) Final Intermolecular Energy     = -13.90 kcal/molUSER        vdW + Hbond + desolv Energy     = -13.80 kcal/molUSER        Electrostatic Energy            =  -0.10 kcal/molUSER        Moving Ligand-Fixed Receptor    = -13.90 kcal/molUSER        Moving Ligand-Moving Receptor   =  +0.00 kcal/molUSER    (2) Final Total Internal Energy     =  -1.56 kcal/molUSER    (3) Torsional Free Energy           =  +1.79 kcal/molUSER    (4) Unbound System's Energy         =  -1.56 kcal/molUSERUSERREMARK SMILES Oc1nc2ccccc2n1C1CCN(Cc2ccc(-c3nc4ccccc4nc3-c3ccc(F)cc3)cc2)CC1REMARK SMILES IDX 15 1 14 2 11 3 12 4 40 5 13 6 39 7 10 8 2 9 3 10 4 11 9 12REMARK SMILES IDX 5 13 8 14 6 15 7 16 1 17 16 19 17 20 38 21 18 22 37 23 19 24REMARK SMILES IDX 20 25 21 26 29 27 22 28 28 29 23 30 27 31 24 32 26 33 25 34REMARK SMILES IDX 30 35 31 36 36 37 32 38 35 39 33 40 34 41REMARK H PARENT 1 18USER                              x       y       z     vdW  Elec       q    TypeUSER                           _______ _______ _______ _____ _____    ______ ____ROOTATOM      1  C   UNL     1      41.024  44.165  20.843 -0.31 +0.01    +0.120 C  ENDROOTBRANCH   1   2ATOM      2  N   UNL     1      40.761  44.800  19.540 -0.21 -0.02    -0.299 NA ATOM      3  C   UNL     1      40.222  46.330  17.283 -0.47 -0.01    +0.095 C  ATOM      4  C   UNL     1      39.114  45.414  17.833 -0.44 -0.01    +0.041 C  ATOM      5  C   UNL     1      40.981  47.041  18.406 -0.52 -0.00    +0.041 C  ATOM      6  C   UNL     1      39.338  45.041  19.301 -0.40 -0.00    +0.087 C  ATOM      7  C   UNL     1      41.556  46.032  19.406 -0.44 +0.01    +0.087 C  BRANCH   3   8ATOM      8  N   UNL     1      39.742  47.255  16.263 -0.27 +0.07    -0.291 N  ATOM      9  C   UNL     1      40.337  48.443  15.936 -0.33 -0.07    +0.295 A  ATOM     10  N   UNL     1      39.708  49.100  15.002 -0.33 +0.09    -0.195 NA ATOM     11  C   UNL     1      38.635  48.301  14.690 -0.45 -0.04    +0.092 A  ATOM     12  C   UNL     1      38.623  47.136  15.463 -0.40 -0.03    +0.072 A  ATOM     13  C   UNL     1      37.620  48.512  13.742 -0.45 -0.01    +0.031 A  ATOM     14  C   UNL     1      37.625  46.161  15.327 -0.36 -0.01    +0.029 A  ATOM     15  C   UNL     1      36.618  47.546  13.595 -0.57 -0.00    +0.002 A  ATOM     16  C   UNL     1      36.623  46.391  14.376 -0.43 -0.00    +0.002 A  BRANCH   9  17ATOM     17  O   UNL     1      41.435  48.912  16.493 -0.82 -0.01    -0.480 OA ATOM     18  H   UNL     1      41.247  49.868  16.511 +0.20 -0.03    +0.296 HD ENDBRANCH   9  17ENDBRANCH   3   8ENDBRANCH   1   2BRANCH   1  19ATOM     19  C   UNL     1      40.201  44.746  21.973 -0.25 -0.00    -0.034 A  ATOM     20  C   UNL     1      39.004  44.138  22.370 -0.28 +0.00    +0.006 A  ATOM     21  C   UNL     1      40.636  45.887  22.659 -0.23 +0.00    +0.006 A  ATOM     22  C   UNL     1      38.255  44.660  23.431 -0.30 +0.00    +0.011 A  ATOM     23  C   UNL     1      39.880  46.410  23.714 -0.25 +0.00    +0.011 A  ATOM     24  C   UNL     1      38.671  45.816  24.113 -0.28 +0.00    +0.002 A  BRANCH  24  25ATOM     25  C   UNL     1      37.898  46.386  25.233 -0.24 +0.01    +0.097 A  ATOM     26  N   UNL     1      37.540  47.689  25.045 -0.58 -0.03    -0.244 NA ATOM     27  C   UNL     1      37.551  45.706  26.412 -0.27 -0.01    +0.097 A  ATOM     28  C   UNL     1      36.874  48.304  26.037 -0.38 -0.00    +0.089 A  ATOM     29  N   UNL     1      36.891  46.341  27.423 -0.23 +0.05    -0.244 NA ATOM     30  C   UNL     1      36.492  49.632  25.886 -0.44 -0.00    +0.030 A  ATOM     31  C   UNL     1      36.553  47.628  27.235 -0.28 -0.02    +0.089 A  ATOM     32  C   UNL     1      35.801  50.309  26.892 -0.27 +0.00    +0.002 A  ATOM     33  C   UNL     1      35.868  48.312  28.232 -0.33 -0.00    +0.030 A  ATOM     34  C   UNL     1      35.489  49.646  28.072 -0.25 +0.00    +0.002 A  BRANCH  27  35ATOM     35  C   UNL     1      37.810  44.279  26.682 -0.28 -0.00    +0.003 A  ATOM     36  C   UNL     1      39.095  43.808  27.012 -0.20 -0.00    +0.013 A  ATOM     37  C   UNL     1      36.768  43.336  26.582 -0.37 -0.00    +0.013 A  ATOM     38  C   UNL     1      39.322  42.451  27.260 -0.26 -0.00    +0.040 A  ATOM     39  C   UNL     1      36.994  41.979  26.828 -0.41 -0.01    +0.040 A  ATOM     40  C   UNL     1      38.270  41.550  27.168 -0.33 -0.01    +0.123 A  ATOM     41  F   UNL     1      38.490  40.250  27.401 -0.09 -0.00    -0.207 F  ENDBRANCH  27  35ENDBRANCH  24  25ENDBRANCH   1  19TORSDOF 6TERENDMDL