MODEL        7USER    Run = 7USERUSER    Estimated Free Energy of Binding    =  -8.44 kcal/mol  [=(1)+(2)+(3)-(4)]USERUSER    (1) Final Intermolecular Energy     = -10.23 kcal/molUSER        vdW + Hbond + desolv Energy     =  -9.67 kcal/molUSER        Electrostatic Energy            =  -0.56 kcal/molUSER        Moving Ligand-Fixed Receptor    = -10.23 kcal/molUSER        Moving Ligand-Moving Receptor   =  +0.00 kcal/molUSER    (2) Final Total Internal Energy     =  -0.51 kcal/molUSER    (3) Torsional Free Energy           =  +1.79 kcal/molUSER    (4) Unbound System's Energy         =  -0.51 kcal/molUSERUSERREMARK SMILES O=C(Nc1cccc(-c2ccc(F)cc2O)c1)c1ccc(O)c(CF)c1REMARK SMILES IDX 4 1 5 2 6 3 7 4 8 5 17 6 3 7 2 8 1 9 18 11 19 12 26 13 20 14REMARK SMILES IDX 23 15 21 16 24 17 25 18 22 19 9 21 10 22 15 23 11 24 14 25REMARK SMILES IDX 12 26 13 27 16 28REMARK H PARENT 3 10 22 20 16 29USER                              x       y       z     vdW  Elec       q    TypeUSER                           _______ _______ _______ _____ _____    ______ ____ROOTATOM      1  C   UNL     1      35.609  46.707  13.774 -0.45 -0.03    +0.042 A  ATOM      2  C   UNL     1      35.975  46.887  12.436 -0.63 -0.01    +0.026 A  ATOM      3  C   UNL     1      37.298  47.167  12.095 -0.58 -0.00    +0.003 A  ATOM      4  C   UNL     1      38.268  47.266  13.092 -0.29 -0.00    +0.009 A  ATOM      5  C   UNL     1      37.937  47.080  14.443 -0.45 +0.01    -0.013 A  ATOM      6  C   UNL     1      36.593  46.798  14.763 -0.39 -0.02    +0.035 A  ENDROOTBRANCH   1   7ATOM      7  N   UNL     1      34.251  46.424  14.037 -0.16 +0.32    -0.322 N  ATOM      8  C   UNL     1      33.745  45.538  14.969 -0.12 -0.23    +0.255 C  ATOM      9  O   UNL     1      34.381  44.900  15.801 -0.21 +0.18    -0.269 OA ATOM     10  H   UNL     1      33.584  46.996  13.536 -0.32 -0.18    +0.170 HD BRANCH   8  11ATOM     11  C   UNL     1      32.260  45.406  14.972 -0.37 -0.03    +0.040 A  ATOM     12  C   UNL     1      31.577  44.752  16.002 -0.34 -0.01    +0.017 A  ATOM     13  C   UNL     1      31.537  45.990  13.919 -0.51 -0.02    +0.024 A  ATOM     14  C   UNL     1      30.185  44.656  15.959 -0.30 -0.02    +0.047 A  ATOM     15  C   UNL     1      30.135  45.900  13.868 -0.47 -0.02    +0.026 A  ATOM     16  C   UNL     1      29.477  45.221  14.899 -0.15 -0.09    +0.121 A  BRANCH  15  17ATOM     17  C   UNL     1      29.408  46.546  12.722 -0.37 -0.19    +0.254 C  ATOM     18  F   UNL     1      30.250  46.994  11.743 -0.22 +0.10    -0.246 F  ENDBRANCH  15  17BRANCH  16  19ATOM     19  O   UNL     1      28.119  45.078  14.939 +0.03 +0.38    -0.508 OA ATOM     20  H   UNL     1      27.810  44.766  14.065 -0.24 -0.57    +0.293 HD ENDBRANCH  16  19ENDBRANCH   8  11ENDBRANCH   1   7BRANCH   5  21ATOM     21  C   UNL     1      38.959  47.193  15.504 -0.45 -0.01    +0.024 A  ATOM     22  C   UNL     1      38.989  46.244  16.546 -0.41 -0.00    +0.015 A  ATOM     23  C   UNL     1      39.925  48.220  15.530 -0.45 -0.04    +0.126 A  ATOM     24  C   UNL     1      39.938  46.318  17.567 -0.44 -0.01    +0.040 A  ATOM     25  C   UNL     1      40.876  48.299  16.549 -0.48 -0.01    +0.086 A  ATOM     26  C   UNL     1      40.871  47.345  17.558 -0.42 -0.02    +0.126 A  ATOM     27  F   UNL     1      41.782  47.419  18.537 -0.19 +0.00    -0.207 F  BRANCH  23  28ATOM     28  O   UNL     1      39.944  49.157  14.530 -0.13 +0.22    -0.507 OA ATOM     29  H   UNL     1      39.166  49.732  14.613 -0.15 -0.27    +0.293 HD ENDBRANCH  23  28ENDBRANCH   5  21TORSDOF 6TERENDMDL