MODEL        5USER    Run = 5USERUSER    Estimated Free Energy of Binding    = -12.27 kcal/mol  [=(1)+(2)+(3)-(4)]USERUSER    (1) Final Intermolecular Energy     = -14.36 kcal/molUSER        vdW + Hbond + desolv Energy     = -14.26 kcal/molUSER        Electrostatic Energy            =  -0.10 kcal/molUSER        Moving Ligand-Fixed Receptor    = -14.36 kcal/molUSER        Moving Ligand-Moving Receptor   =  +0.00 kcal/molUSER    (2) Final Total Internal Energy     =  -2.00 kcal/molUSER    (3) Torsional Free Energy           =  +2.09 kcal/molUSER    (4) Unbound System's Energy         =  -2.00 kcal/molUSERUSERREMARK SMILES CN1CCN(c2cc(-c3nc4cccnc4nc3-c3ccc(CN4CCC(n5c(O)nc6ncccc65)CC4)cc3)ccn2)CC1REMARK SMILES IDX 19 1 20 2 21 3 22 4 40 5 41 6 18 7 9 8 10 9 11 10 17 11REMARK SMILES IDX 12 12 16 13 13 14 15 15 14 16 8 17 6 18 7 19 44 20 43 21REMARK SMILES IDX 42 22 5 23 2 24 3 25 46 26 4 27 45 28 1 29 23 30 24 31 25 32REMARK SMILES IDX 39 33 26 34 38 35 27 36 28 37 29 38 37 39 31 40 36 41 32 42REMARK SMILES IDX 35 43 33 44 34 45 30 46REMARK H PARENT 30 47USER                              x       y       z     vdW  Elec       q    TypeUSER                           _______ _______ _______ _____ _____    ______ ____ROOTATOM      1  C   UNL     1      38.305  45.764  23.985 -0.28 +0.00    +0.002 A  ATOM      2  C   UNL     1      37.677  44.749  23.242 -0.31 +0.00    +0.011 A  ATOM      3  C   UNL     1      38.223  44.292  22.040 -0.35 +0.00    +0.006 A  ATOM      4  C   UNL     1      39.416  44.833  21.543 -0.30 -0.00    -0.034 A  ATOM      5  C   UNL     1      40.039  45.856  22.266 -0.27 +0.00    +0.006 A  ATOM      6  C   UNL     1      39.488  46.317  23.467 -0.28 +0.00    +0.011 A  ENDROOTBRANCH   1   7ATOM      7  C   UNL     1      37.726  46.264  25.243 -0.23 +0.01    +0.099 A  ATOM      8  C   UNL     1      37.324  45.450  26.313 -0.28 -0.01    +0.098 A  ATOM      9  N   UNL     1      36.702  45.981  27.396 -0.22 +0.06    -0.242 NA ATOM     10  C   UNL     1      36.528  47.318  27.402 -0.24 -0.02    +0.108 A  ATOM     11  N   UNL     1      37.564  47.616  25.285 -0.56 -0.02    -0.224 NA ATOM     12  C   UNL     1      35.896  47.919  28.479 -0.34 -0.01    +0.034 A  ATOM     13  C   UNL     1      36.969  48.154  26.349 -0.30 -0.01    +0.178 A  ATOM     14  C   UNL     1      35.714  49.296  28.513 -0.27 -0.00    +0.022 A  ATOM     15  N   UNL     1      36.803  49.481  26.379 -0.24 -0.01    -0.235 NA ATOM     16  C   UNL     1      36.184  50.029  27.445 -0.23 +0.01    +0.114 A  BRANCH   8  17ATOM     17  C   UNL     1      37.553  44.001  26.400 -0.28 -0.00    +0.008 A  ATOM     18  C   UNL     1      39.079  42.110  26.570 -0.21 -0.01    +0.129 A  ATOM     19  C   UNL     1      38.856  43.485  26.474 -0.18 -0.00    +0.057 A  ATOM     20  N   UNL     1      38.037  41.252  26.605 -0.25 +0.02    -0.239 NA ATOM     21  C   UNL     1      36.786  41.747  26.513 -0.37 -0.02    +0.114 A  ATOM     22  C   UNL     1      36.496  43.091  26.403 -0.38 -0.00    +0.030 A  BRANCH  18  23ATOM     23  N   UNL     1      40.388  41.621  26.695 -0.05 +0.04    -0.354 N  ATOM     24  N   UNL     1      42.250  43.123  28.425 -0.04 -0.00    -0.303 NA ATOM     25  C   UNL     1      41.155  42.299  28.981 -0.17 +0.00    +0.105 C  ATOM     26  C   UNL     1      41.847  43.632  27.090 -0.09 -0.00    +0.105 C  ATOM     27  C   UNL     1      40.757  41.135  28.042 -0.21 -0.01    +0.133 C  ATOM     28  C   UNL     1      41.437  42.494  26.123 -0.13 -0.01    +0.133 C  ATOM     29  C   UNL     1      42.569  44.232  29.319 -0.06 +0.01    +0.105 C  ENDBRANCH  18  23ENDBRANCH   8  17ENDBRANCH   1   7BRANCH   4  30ATOM     30  C   UNL     1      39.974  44.375  20.210 -0.31 +0.00    +0.120 C  BRANCH  30  31ATOM     31  N   UNL     1      39.609  45.254  19.087 -0.22 +0.01    -0.299 NA ATOM     32  C   UNL     1      40.561  45.154  17.986 -0.41 -0.00    +0.087 C  ATOM     33  C   UNL     1      38.221  45.043  18.647 -0.38 -0.01    +0.087 C  ATOM     34  C   UNL     1      40.352  46.326  17.021 -0.50 -0.00    +0.041 C  ATOM     35  C   UNL     1      37.963  45.490  17.202 -0.40 -0.01    +0.041 C  ATOM     36  C   UNL     1      38.864  46.671  16.832 -0.42 -0.03    +0.095 C  BRANCH  36  37ATOM     37  N   UNL     1      38.570  47.210  15.510 -0.22 +0.12    -0.289 N  ATOM     38  C   UNL     1      38.917  48.462  15.077 -0.28 -0.14    +0.296 A  ATOM     39  C   UNL     1      37.905  46.603  14.470 -0.36 -0.04    +0.091 A  ATOM     40  N   UNL     1      38.539  48.714  13.854 -0.38 +0.07    -0.175 NA ATOM     41  C   UNL     1      37.312  45.354  14.273 -0.39 -0.01    +0.032 A  ATOM     42  C   UNL     1      37.909  47.566  13.460 -0.37 -0.05    +0.181 A  ATOM     43  C   UNL     1      36.739  45.151  13.019 -0.47 -0.01    +0.022 A  ATOM     44  N   UNL     1      37.353  47.376  12.242 -1.03 +0.05    -0.235 NA ATOM     45  C   UNL     1      36.788  46.165  12.070 -0.54 -0.04    +0.114 A  BRANCH  38  46ATOM     46  O   UNL     1      39.568  49.350  15.798 -0.20 +0.25    -0.480 OA ATOM     47  H   UNL     1      39.260  50.187  15.402 -0.23 -0.26    +0.296 HD ENDBRANCH  38  46ENDBRANCH  36  37ENDBRANCH  30  31ENDBRANCH   4  30TORSDOF 7TERENDMDL