MODEL        7USER    Run = 7USERUSER    Estimated Free Energy of Binding    = -10.67 kcal/mol  [=(1)+(2)+(3)-(4)]USERUSER    (1) Final Intermolecular Energy     = -12.75 kcal/molUSER        vdW + Hbond + desolv Energy     = -12.52 kcal/molUSER        Electrostatic Energy            =  -0.23 kcal/molUSER        Moving Ligand-Fixed Receptor    = -12.75 kcal/molUSER        Moving Ligand-Moving Receptor   =  +0.00 kcal/molUSER    (2) Final Total Internal Energy     =  -1.66 kcal/molUSER    (3) Torsional Free Energy           =  +2.09 kcal/molUSER    (4) Unbound System's Energy         =  -1.66 kcal/molUSERUSERREMARK SMILES COc1ccc(O)c(C(=O)c2ccc(Nc3nc4c(s3)CCC[C@H]4C(=O)N3CCOCC3)cc2)c1FREMARK SMILES IDX 11 1 12 2 13 3 14 4 33 5 34 6 9 7 10 8 8 9 3 10 4 11 35 12REMARK SMILES IDX 5 13 6 14 36 15 2 16 1 17 7 18 15 20 16 22 17 23 20 24 18 25REMARK SMILES IDX 19 26 24 27 21 28 23 29 22 30 25 31 27 32 28 33 32 34 29 35REMARK SMILES IDX 31 36 30 37 26 38REMARK H PARENT 7 19 15 21USER                              x       y       z     vdW  Elec       q    TypeUSER                           _______ _______ _______ _____ _____    ______ ____ROOTATOM      1  C   UNL     1      37.452  44.381  23.688 -0.31 +0.00    +0.023 A  ATOM      2  C   UNL     1      36.941  43.400  22.834 -0.36 +0.00    +0.014 A  ATOM      3  C   UNL     1      37.337  43.352  21.492 -0.38 +0.00    +0.027 A  ATOM      4  C   UNL     1      38.246  44.280  20.973 -0.34 +0.00    +0.040 A  ATOM      5  C   UNL     1      38.733  45.274  21.841 -0.32 +0.00    +0.027 A  ATOM      6  C   UNL     1      38.339  45.333  23.182 -0.30 +0.00    +0.014 A  ENDROOTBRANCH   1   7ATOM      7  C   UNL     1      36.969  44.422  25.089 -0.26 +0.01    +0.199 C  ATOM      8  O   UNL     1      36.635  45.505  25.573 -0.61 +0.01    -0.288 OA BRANCH   7   9ATOM      9  C   UNL     1      36.928  43.234  25.968 -0.28 -0.01    +0.104 A  ATOM     10  C   UNL     1      37.961  41.249  26.938 -0.32 -0.02    +0.155 A  ATOM     11  C   UNL     1      36.800  41.007  27.675 -0.50 -0.02    +0.053 A  ATOM     12  C   UNL     1      38.011  42.360  26.082 -0.20 -0.01    +0.179 A  ATOM     13  C   UNL     1      35.697  41.855  27.542 -0.53 -0.02    +0.051 A  ATOM     14  C   UNL     1      35.758  42.950  26.683 -0.38 -0.02    +0.130 A  ATOM     15  F   UNL     1      39.119  42.560  25.351 -0.04 -0.00    -0.202 F  BRANCH  10  16ATOM     16  O   UNL     1      39.095  40.481  26.971 -0.16 +0.01    -0.494 OA ATOM     17  C   UNL     1      40.181  40.954  27.756 -0.18 -0.02    +0.278 C  ENDBRANCH  10  16BRANCH  14  18ATOM     18  O   UNL     1      34.623  43.711  26.589 -0.12 +0.06    -0.507 OA ATOM     19  H   UNL     1      34.893  44.622  26.325 -0.16 -0.12    +0.293 HD ENDBRANCH  14  18ENDBRANCH   7   9ENDBRANCH   1   7BRANCH   4  20ATOM     20  N   UNL     1      38.652  44.322  19.630 -0.15 +0.01    -0.332 N  ATOM     21  H   UNL     1      39.617  44.050  19.485 +0.10 -0.00    +0.169 HD BRANCH  20  22ATOM     22  C   UNL     1      37.952  44.480  18.482 -0.22 -0.03    +0.187 A  ATOM     23  N   UNL     1      38.520  45.025  17.422 -0.22 +0.04    -0.224 NA ATOM     24  S   UNL     1      36.270  44.118  18.268 -0.42 +0.02    -0.102 S  ATOM     25  C   UNL     1      37.605  45.166  16.398 -0.30 -0.02    +0.069 A  ATOM     26  C   UNL     1      36.342  44.692  16.673 -0.31 -0.01    +0.031 A  ATOM     27  C   UNL     1      37.993  45.755  15.075 -0.35 -0.04    +0.129 C  ATOM     28  C   UNL     1      35.203  44.650  15.715 -0.36 -0.03    +0.049 C  ATOM     29  C   UNL     1      36.956  45.381  13.987 -0.48 -0.01    +0.020 C  ATOM     30  C   UNL     1      35.500  45.520  14.481 -0.42 -0.00    +0.007 C  BRANCH  27  31ATOM     31  C   UNL     1      38.111  47.284  15.159 -0.34 -0.11    +0.231 C  ATOM     32  N   UNL     1      39.245  47.818  15.762 -0.23 +0.13    -0.337 N  ATOM     33  C   UNL     1      39.466  49.266  15.710 -0.40 -0.08    +0.148 C  ATOM     34  C   UNL     1      40.266  47.059  16.490 -0.45 -0.03    +0.148 C  ATOM     35  C   UNL     1      40.961  49.577  15.576 -0.58 -0.04    +0.181 C  ATOM     36  C   UNL     1      41.145  47.969  17.355 -0.42 -0.02    +0.181 C  ATOM     37  O   UNL     1      41.782  49.009  16.608 -0.86 -0.07    -0.378 OA ATOM     38  O   UNL     1      37.273  48.022  14.632 -0.35 +0.19    -0.274 OA ENDBRANCH  27  31ENDBRANCH  20  22ENDBRANCH   4  20TORSDOF 7TERENDMDL