MODEL        6USER    Run = 6USERUSER    Estimated Free Energy of Binding    = -13.04 kcal/mol  [=(1)+(2)+(3)-(4)]USERUSER    (1) Final Intermolecular Energy     = -15.72 kcal/molUSER        vdW + Hbond + desolv Energy     = -15.47 kcal/molUSER        Electrostatic Energy            =  -0.25 kcal/molUSER        Moving Ligand-Fixed Receptor    = -15.72 kcal/molUSER        Moving Ligand-Moving Receptor   =  +0.00 kcal/molUSER    (2) Final Total Internal Energy     =  -3.84 kcal/molUSER    (3) Torsional Free Energy           =  +2.68 kcal/molUSER    (4) Unbound System's Energy         =  -3.84 kcal/molUSERUSERREMARK SMILES CC(C)c1cn(C)nc1C(=O)Nc1ccc(-c2nc3ccccc3nc2-c2ccc(CN3CCC(n4c(O)nc5ccccc54)CC3)cc2)cc1REMARK SMILES IDX 17 1 18 2 19 3 20 4 21 5 22 6 23 7 24 8 25 9 26 10 16 11REMARK SMILES IDX 13 12 14 13 51 14 15 15 50 16 12 17 10 18 11 19 9 21 4 22REMARK SMILES IDX 5 23 6 24 8 25 7 26 2 27 1 28 3 29 27 30 28 31 49 32 29 33REMARK SMILES IDX 48 34 30 35 31 36 32 37 33 38 47 39 34 40 46 41 35 42 36 43REMARK SMILES IDX 37 44 45 45 39 46 44 47 40 48 43 49 41 50 42 51 38 52REMARK H PARENT 12 20 38 53USER                              x       y       z     vdW  Elec       q    TypeUSER                           _______ _______ _______ _____ _____    ______ ____ROOTATOM      1  C   UNL     1      38.407  42.830  23.679 -0.24 +0.01    +0.097 A  ATOM      2  N   UNL     1      37.949  42.223  24.810 -0.17 -0.01    -0.244 NA ATOM      3  C   UNL     1      38.816  42.079  25.831 -0.16 +0.00    +0.089 A  ATOM      4  C   UNL     1      38.401  41.458  27.001 -0.38 -0.00    +0.030 A  ATOM      5  C   UNL     1      39.273  41.275  28.079 -0.35 -0.00    +0.002 A  ATOM      6  C   UNL     1      40.583  41.722  27.979 -0.23 -0.00    +0.002 A  ATOM      7  C   UNL     1      41.011  42.353  26.808 -0.15 -0.00    +0.030 A  ATOM      8  C   UNL     1      40.148  42.543  25.736 -0.14 -0.00    +0.089 A  ATOM      9  N   UNL     1      40.590  43.173  24.634 -0.10 -0.00    -0.244 NA ATOM     10  C   UNL     1      39.714  43.345  23.606 -0.19 +0.00    +0.097 A  ENDROOTBRANCH   1  11ATOM     11  C   UNL     1      37.442  42.836  22.566 -0.41 +0.00    +0.003 A  ATOM     12  C   UNL     1      35.543  42.859  20.449 -0.41 +0.00    +0.041 A  ATOM     13  C   UNL     1      36.067  44.056  20.949 -0.25 +0.00    +0.027 A  ATOM     14  C   UNL     1      35.969  41.652  21.008 -0.43 +0.00    +0.027 A  ATOM     15  C   UNL     1      36.997  44.043  22.002 -0.36 +0.00    +0.012 A  ATOM     16  C   UNL     1      36.904  41.644  22.054 -0.55 +0.00    +0.012 A  BRANCH  12  17ATOM     17  N   UNL     1      34.590  42.946  19.416 -0.19 +0.03    -0.321 N  ATOM     18  C   UNL     1      34.393  44.017  18.549 -0.21 -0.07    +0.276 C  ATOM     19  O   UNL     1      34.982  45.100  18.555 -0.26 +0.10    -0.267 OA ATOM     20  H   UNL     1      34.022  42.124  19.232 +0.11 -0.01    +0.170 HD BRANCH  18  21ATOM     21  C   UNL     1      33.414  43.699  17.502 -0.20 -0.05    +0.153 A  ATOM     22  C   UNL     1      33.231  44.389  16.257 -0.32 -0.00    +0.006 A  ATOM     23  C   UNL     1      32.179  43.721  15.654 -0.27 -0.06    +0.113 A  ATOM     24  N   UNL     1      31.805  42.734  16.520 -0.15 +0.12    -0.275 N  ATOM     25  N   UNL     1      32.588  42.632  17.609 -0.21 +0.05    -0.168 NA ATOM     26  C   UNL     1      30.681  41.848  16.367 -0.26 -0.07    +0.173 C  BRANCH  22  27ATOM     27  C   UNL     1      34.032  45.561  15.739 -0.30 -0.02    +0.017 C  ATOM     28  C   UNL     1      33.622  45.959  14.322 -0.05 -0.01    +0.012 C  ATOM     29  C   UNL     1      35.534  45.265  15.801 -0.39 -0.01    +0.012 C  ENDBRANCH  22  27ENDBRANCH  18  21ENDBRANCH  12  17ENDBRANCH   1  11BRANCH  10  30ATOM     30  C   UNL     1      40.256  44.118  22.470 -0.24 +0.00    +0.002 A  ATOM     31  C   UNL     1      40.214  45.523  22.453 -0.25 +0.00    +0.011 A  ATOM     32  C   UNL     1      40.874  43.469  21.383 -0.11 +0.00    +0.011 A  ATOM     33  C   UNL     1      40.717  46.249  21.369 -0.12 +0.00    +0.006 A  ATOM     34  C   UNL     1      41.375  44.193  20.293 -0.31 +0.00    +0.006 A  ATOM     35  C   UNL     1      41.286  45.590  20.273 -0.36 -0.00    -0.034 A  BRANCH  35  36ATOM     36  C   UNL     1      41.787  46.386  19.083 -0.47 +0.01    +0.120 C  BRANCH  36  37ATOM     37  N   UNL     1      40.849  46.388  17.943 -0.27 +0.02    -0.299 NA ATOM     38  C   UNL     1      41.171  47.504  17.044 -0.36 -0.01    +0.087 C  ATOM     39  C   UNL     1      39.455  46.459  18.414 -0.32 -0.01    +0.087 C  ATOM     40  C   UNL     1      40.253  47.512  15.822 -0.56 -0.01    +0.041 C  ATOM     41  C   UNL     1      38.469  46.453  17.242 -0.42 -0.01    +0.041 C  ATOM     42  C   UNL     1      38.790  47.583  16.264 -0.43 -0.04    +0.095 C  BRANCH  42  43ATOM     43  N   UNL     1      37.877  47.673  15.131 -0.24 +0.16    -0.291 N  ATOM     44  C   UNL     1      37.211  48.814  14.765 -0.24 -0.25    +0.295 A  ATOM     45  C   UNL     1      37.579  46.720  14.175 -0.40 -0.03    +0.072 A  ATOM     46  N   UNL     1      36.513  48.687  13.668 -0.38 +0.12    -0.195 NA ATOM     47  C   UNL     1      37.963  45.386  13.982 -0.35 -0.01    +0.029 A  ATOM     48  C   UNL     1      36.723  47.381  13.287 -0.52 -0.04    +0.092 A  ATOM     49  C   UNL     1      37.447  44.718  12.858 -0.23 -0.00    +0.002 A  ATOM     50  C   UNL     1      36.212  46.695  12.171 -0.66 -0.01    +0.031 A  ATOM     51  C   UNL     1      36.585  45.358  11.973 -0.58 -0.00    +0.002 A  BRANCH  44  52ATOM     52  O   UNL     1      37.264  49.955  15.424 -0.29 +0.53    -0.480 OA ATOM     53  H   UNL     1      36.330  50.060  15.684 -0.14 -0.65    +0.296 HD ENDBRANCH  44  52ENDBRANCH  42  43ENDBRANCH  36  37ENDBRANCH  35  36ENDBRANCH  10  30TORSDOF 9TERENDMDL