REMARK SMILES CC(C)c1cn(C)nc1C(=O)Nc1ccc(-c2nc3ccccc3nc2-c2ccc(CN3CCC(n4c(O)nc5ccccc54)CC3)cc2)cc1
REMARK SMILES IDX 17 1 18 2 19 3 20 4 21 5 22 6 23 7 24 8 25 9 26 10 16 11
REMARK SMILES IDX 13 12 14 13 51 14 15 15 50 16 12 17 10 18 11 19 9 21 4 22
REMARK SMILES IDX 5 23 6 24 8 25 7 26 2 27 1 28 3 29 27 30 28 31 49 32 29 33
REMARK SMILES IDX 48 34 30 35 31 36 32 37 33 38 47 39 34 40 46 41 35 42 36 43
REMARK SMILES IDX 37 44 45 45 39 46 44 47 40 48 43 49 41 50 42 51 38 52
REMARK H PARENT 12 20 38 53
ROOT
ATOM      1  C   UNL     1      -1.703  -3.280  -1.610  1.00  0.00     0.097 A 
ATOM      2  N   UNL     1      -2.310  -4.482  -1.819  1.00  0.00    -0.244 NA
ATOM      3  C   UNL     1      -1.643  -5.394  -2.554  1.00  0.00     0.089 A 
ATOM      4  C   UNL     1      -2.223  -6.630  -2.804  1.00  0.00     0.030 A 
ATOM      5  C   UNL     1      -1.572  -7.599  -3.573  1.00  0.00     0.002 A 
ATOM      6  C   UNL     1      -0.319  -7.322  -4.101  1.00  0.00     0.002 A 
ATOM      7  C   UNL     1       0.277  -6.082  -3.852  1.00  0.00     0.030 A 
ATOM      8  C   UNL     1      -0.362  -5.118  -3.084  1.00  0.00     0.089 A 
ATOM      9  N   UNL     1       0.252  -3.945  -2.848  1.00  0.00    -0.244 NA
ATOM     10  C   UNL     1      -0.404  -3.026  -2.087  1.00  0.00     0.097 A 
ENDROOT
BRANCH   1  11
ATOM     11  C   UNL     1      -2.545  -2.294  -0.910  1.00  0.00     0.003 A 
ATOM     12  C   UNL     1      -4.211  -0.415   0.424  1.00  0.00     0.041 A 
ATOM     13  C   UNL     1      -4.002  -1.690   0.962  1.00  0.00     0.027 A 
ATOM     14  C   UNL     1      -3.587  -0.082  -0.780  1.00  0.00     0.027 A 
ATOM     15  C   UNL     1      -3.187  -2.620   0.296  1.00  0.00     0.012 A 
ATOM     16  C   UNL     1      -2.768  -1.012  -1.438  1.00  0.00     0.012 A 
BRANCH  12  17
ATOM     17  N   UNL     1      -5.066   0.456   1.126  1.00  0.00    -0.321 N 
ATOM     18  C   UNL     1      -5.538   1.692   0.694  1.00  0.00     0.276 C 
ATOM     19  O   UNL     1      -5.259   2.271  -0.358  1.00  0.00    -0.267 OA
ATOM     20  H   UNL     1      -5.436   0.133   2.016  1.00  0.00     0.170 HD
BRANCH  18  21
ATOM     21  C   UNL     1      -6.528   2.253   1.622  1.00  0.00     0.153 A 
ATOM     22  C   UNL     1      -7.952   2.292   1.440  1.00  0.00     0.006 A 
ATOM     23  C   UNL     1      -8.417   2.939   2.572  1.00  0.00     0.113 A 
ATOM     24  N   UNL     1      -7.316   3.243   3.320  1.00  0.00    -0.275 N 
ATOM     25  N   UNL     1      -6.162   2.763   2.821  1.00  0.00    -0.168 NA
ATOM     26  C   UNL     1      -7.298   4.013   4.536  1.00  0.00     0.173 C 
BRANCH  22  27
ATOM     27  C   UNL     1      -8.738   1.729   0.279  1.00  0.00     0.017 C 
ATOM     28  C   UNL     1      -9.632   2.780  -0.377  1.00  0.00     0.012 C 
ATOM     29  C   UNL     1      -9.566   0.517   0.718  1.00  0.00     0.012 C 
ENDBRANCH  22  27
ENDBRANCH  18  21
ENDBRANCH  12  17
ENDBRANCH   1  11
BRANCH  10  30
ATOM     30  C   UNL     1       0.375  -1.802  -1.809  1.00  0.00     0.002 A 
ATOM     31  C   UNL     1       0.562  -1.335  -0.497  1.00  0.00     0.011 A 
ATOM     32  C   UNL     1       0.993  -1.086  -2.853  1.00  0.00     0.011 A 
ATOM     33  C   UNL     1       1.290  -0.168  -0.241  1.00  0.00     0.006 A 
ATOM     34  C   UNL     1       1.718   0.086  -2.601  1.00  0.00     0.006 A 
ATOM     35  C   UNL     1       1.859   0.561  -1.292  1.00  0.00    -0.034 A 
BRANCH  35  36
ATOM     36  C   UNL     1       2.607   1.849  -1.006  1.00  0.00     0.120 C 
BRANCH  36  37
ATOM     37  N   UNL     1       3.925   1.633  -0.376  1.00  0.00    -0.299 NA
ATOM     38  C   UNL     1       4.351   2.863   0.305  1.00  0.00     0.087 C 
ATOM     39  C   UNL     1       4.916   1.199  -1.375  1.00  0.00     0.087 C 
ATOM     40  C   UNL     1       5.690   2.666   1.014  1.00  0.00     0.041 C 
ATOM     41  C   UNL     1       6.287   0.962  -0.735  1.00  0.00     0.041 C 
ATOM     42  C   UNL     1       6.753   2.211   0.013  1.00  0.00     0.095 C 
BRANCH  42  43
ATOM     43  N   UNL     1       8.070   2.086   0.627  1.00  0.00    -0.291 N 
ATOM     44  C   UNL     1       9.124   2.923   0.370  1.00  0.00     0.295 A 
ATOM     45  C   UNL     1       8.489   1.217   1.617  1.00  0.00     0.072 A 
ATOM     46  N   UNL     1      10.181   2.677   1.098  1.00  0.00    -0.195 NA
ATOM     47  C   UNL     1       7.875   0.164   2.309  1.00  0.00     0.029 A 
ATOM     48  C   UNL     1       9.808   1.607   1.879  1.00  0.00     0.092 A 
ATOM     49  C   UNL     1       8.637  -0.506   3.281  1.00  0.00     0.002 A 
ATOM     50  C   UNL     1      10.557   0.921   2.851  1.00  0.00     0.031 A 
ATOM     51  C   UNL     1       9.953  -0.138   3.544  1.00  0.00     0.002 A 
BRANCH  44  52
ATOM     52  O   UNL     1       9.101   3.908  -0.507  1.00  0.00    -0.480 OA
ATOM     53  H   UNL     1       9.981   4.301  -0.364  1.00  0.00     0.296 HD
ENDBRANCH  44  52
ENDBRANCH  42  43
ENDBRANCH  36  37
ENDBRANCH  35  36
ENDBRANCH  10  30
TORSDOF 9
