REMARK SMILES C[C@@](C(N)=O)(c1cccc(-c2ccc(OCCN3CCNCC3)cc2)c1)c1ccccn1
REMARK SMILES IDX 11 1 12 2 13 3 14 4 24 5 25 6 10 7 6 8 7 9 26 10 8 11 9 12
REMARK SMILES IDX 2 13 1 14 3 15 4 16 5 17 27 20 28 21 32 22 29 23 31 24 30 25
REMARK SMILES IDX 15 26 16 27 17 28 18 29 19 30 23 31 20 32 22 33 21 34
REMARK H PARENT 4 18 4 19 21 35
ROOT
ATOM      1  C   UNL     1       0.800  -1.826   0.031  1.00  0.00    -0.018 A 
ATOM      2  C   UNL     1      -0.020  -0.976  -0.727  1.00  0.00     0.012 A 
ATOM      3  C   UNL     1      -1.357  -0.746  -0.375  1.00  0.00     0.047 A 
ATOM      4  C   UNL     1      -1.901  -1.365   0.749  1.00  0.00     0.119 A 
ATOM      5  C   UNL     1      -1.097  -2.212   1.513  1.00  0.00     0.047 A 
ATOM      6  C   UNL     1       0.237  -2.441   1.159  1.00  0.00     0.012 A 
ENDROOT
BRANCH   1   7
ATOM      7  C   UNL     1       2.204  -2.064  -0.342  1.00  0.00    -0.018 A 
ATOM      8  C   UNL     1       4.450  -1.189  -0.883  1.00  0.00    -0.026 A 
ATOM      9  C   UNL     1       4.906  -2.509  -1.015  1.00  0.00     0.005 A 
ATOM     10  C   UNL     1       3.093  -0.992  -0.539  1.00  0.00     0.014 A 
ATOM     11  C   UNL     1       4.037  -3.586  -0.829  1.00  0.00     0.001 A 
ATOM     12  C   UNL     1       2.700  -3.364  -0.501  1.00  0.00     0.009 A 
BRANCH   8  13
ATOM     13  C   UNL     1       5.359   0.054  -1.103  1.00  0.00     0.113 C 
ATOM     14  C   UNL     1       6.794  -0.310  -1.565  1.00  0.00     0.034 C 
BRANCH  13  15
ATOM     15  C   UNL     1       4.703   0.893  -2.250  1.00  0.00     0.233 C 
ATOM     16  N   UNL     1       4.675   0.303  -3.492  1.00  0.00    -0.369 N 
ATOM     17  O   UNL     1       4.198   2.006  -2.132  1.00  0.00    -0.274 OA
ATOM     18  H   UNL     1       4.125   0.796  -4.184  1.00  0.00     0.159 HD
ATOM     19  H   UNL     1       4.665  -0.708  -3.558  1.00  0.00     0.159 HD
ENDBRANCH  13  15
BRANCH  13  20
ATOM     20  C   UNL     1       5.552   0.864   0.205  1.00  0.00     0.060 A 
ATOM     21  C   UNL     1       5.950   2.204   0.196  1.00  0.00     0.025 A 
ATOM     22  N   UNL     1       5.441   0.184   1.380  1.00  0.00    -0.260 NA
ATOM     23  C   UNL     1       6.179   2.864   1.401  1.00  0.00     0.004 A 
ATOM     24  C   UNL     1       5.659   0.848   2.534  1.00  0.00     0.111 A 
ATOM     25  C   UNL     1       6.027   2.177   2.595  1.00  0.00     0.020 A 
ENDBRANCH  13  20
ENDBRANCH   8  13
ENDBRANCH   1   7
BRANCH   4  26
ATOM     26  O   UNL     1      -3.182  -1.229   1.204  1.00  0.00    -0.492 OA
BRANCH  26  27
ATOM     27  C   UNL     1      -4.052  -0.376   0.454  1.00  0.00     0.245 C 
BRANCH  27  28
ATOM     28  C   UNL     1      -5.431  -0.393   1.133  1.00  0.00     0.126 C 
BRANCH  28  29
ATOM     29  N   UNL     1      -6.477   0.351   0.408  1.00  0.00    -0.297 NA
ATOM     30  C   UNL     1      -6.221   1.807   0.381  1.00  0.00     0.100 C 
ATOM     31  C   UNL     1      -7.801   0.096   1.016  1.00  0.00     0.100 C 
ATOM     32  C   UNL     1      -7.394   2.627  -0.223  1.00  0.00     0.096 C 
ATOM     33  C   UNL     1      -8.947   0.900   0.350  1.00  0.00     0.096 C 
ATOM     34  N   UNL     1      -8.496   1.791  -0.734  1.00  0.00    -0.314 NA
ATOM     35  H   UNL     1      -8.078   1.179  -1.440  1.00  0.00     0.122 HD
ENDBRANCH  28  29
ENDBRANCH  27  28
ENDBRANCH  26  27
ENDBRANCH   4  26
TORSDOF 8
