MODEL        6USER    Run = 6USERUSER    Estimated Free Energy of Binding    =  -9.53 kcal/mol  [=(1)+(2)+(3)-(4)]USERUSER    (1) Final Intermolecular Energy     = -11.62 kcal/molUSER        vdW + Hbond + desolv Energy     = -11.64 kcal/molUSER        Electrostatic Energy            =  +0.03 kcal/molUSER        Moving Ligand-Fixed Receptor    = -11.62 kcal/molUSER        Moving Ligand-Moving Receptor   =  +0.00 kcal/molUSER    (2) Final Total Internal Energy     =  -1.34 kcal/molUSER    (3) Torsional Free Energy           =  +2.09 kcal/molUSER    (4) Unbound System's Energy         =  -1.34 kcal/molUSERUSERREMARK SMILES Cc1c(-c2ccc(CO)cc2C#N)cccc1[C@H](C(N)=O)c1ccccn1REMARK SMILES IDX 1 1 2 2 3 3 14 4 15 5 16 6 17 7 4 8 5 9 11 10 6 11 10 12REMARK SMILES IDX 7 13 12 14 13 15 8 16 9 17 18 19 19 20 20 21 21 22 22 25REMARK SMILES IDX 23 26 27 27 24 28 26 29 25 30REMARK H PARENT 9 18 20 23 20 24USER                              x       y       z     vdW  Elec       q    TypeUSER                           _______ _______ _______ _____ _____    ______ ____ROOTATOM      1  C   UNL     1      35.850  45.852  15.718 -0.39 -0.03    +0.045 C  ATOM      2  C   UNL     1      37.042  45.719  16.640 -0.33 +0.02    -0.039 A  ATOM      3  C   UNL     1      36.918  44.966  17.839 -0.34 +0.00    -0.014 A  ATOM      4  C   UNL     1      38.004  44.891  18.729 -0.37 -0.00    +0.009 A  ATOM      5  C   UNL     1      39.196  45.551  18.461 -0.42 -0.00    +0.001 A  ATOM      6  C   UNL     1      39.321  46.299  17.297 -0.44 -0.00    +0.005 A  ATOM      7  C   UNL     1      38.262  46.398  16.369 -0.38 +0.01    -0.026 A  ENDROOTBRANCH   3   8ATOM      8  C   UNL     1      35.680  44.252  18.205 -0.32 +0.00    -0.000 A  ATOM      9  C   UNL     1      35.697  42.849  18.292 -0.31 -0.00    +0.010 A  ATOM     10  C   UNL     1      34.470  44.927  18.463 -0.35 -0.02    +0.060 A  ATOM     11  C   UNL     1      34.546  42.132  18.628 -0.41 -0.00    +0.007 A  ATOM     12  C   UNL     1      33.317  44.200  18.800 -0.38 -0.01    +0.026 A  ATOM     13  C   UNL     1      33.344  42.800  18.879 -0.37 +0.00    -0.021 A  BRANCH  10  14ATOM     14  C   UNL     1      34.385  46.360  18.401 -0.47 -0.07    +0.100 C  ATOM     15  N   UNL     1      34.294  47.517  18.364 -0.93 +0.20    -0.192 NA ENDBRANCH  10  14BRANCH  13  16ATOM     16  C   UNL     1      32.103  42.040  19.260 -0.23 +0.00    +0.191 C  BRANCH  16  17ATOM     17  O   UNL     1      32.417  40.678  19.511 -0.60 -0.07    -0.392 OA ATOM     18  H   UNL     1      32.702  40.280  18.672 +0.13 +0.00    +0.211 HD ENDBRANCH  16  17ENDBRANCH  13  16ENDBRANCH   3   8BRANCH   7  19ATOM     19  C   UNL     1      38.521  47.246  15.111 -0.41 -0.06    +0.157 C  BRANCH  19  20ATOM     20  C   UNL     1      38.530  48.745  15.461 -0.34 -0.15    +0.231 C  ATOM     21  N   UNL     1      37.404  49.483  15.238 -0.16 +0.37    -0.369 N  ATOM     22  O   UNL     1      39.504  49.295  15.977 -0.37 +0.14    -0.274 OA ATOM     23  H   UNL     1      36.797  49.158  14.485 +0.07 -0.15    +0.159 HD ATOM     24  H   UNL     1      37.512  50.482  15.339 -0.42 -0.17    +0.159 HD ENDBRANCH  19  20BRANCH  19  25ATOM     25  C   UNL     1      37.731  46.804  13.869 -0.43 -0.02    +0.057 A  ATOM     26  C   UNL     1      37.694  45.453  13.510 -0.38 -0.01    +0.025 A  ATOM     27  N   UNL     1      37.128  47.752  13.097 -0.76 +0.09    -0.260 NA ATOM     28  C   UNL     1      37.005  45.063  12.364 -0.50 -0.00    +0.004 A  ATOM     29  C   UNL     1      36.472  47.344  11.985 -0.55 -0.05    +0.111 A  ATOM     30  C   UNL     1      36.381  46.025  11.584 -0.48 -0.01    +0.020 A  ENDBRANCH  19  25ENDBRANCH   7  19TORSDOF 7TERENDMDL