REMARK SMILES Cc1c(C(=Cc2ccccn2)C(N)=O)cccc1-c1ccc(OC(F)(F)F)cc1
REMARK SMILES IDX 1 1 2 2 3 3 15 4 16 5 17 6 18 7 4 8 5 9 6 10 7 11 11 12 8 13
REMARK SMILES IDX 10 14 9 15 12 16 13 17 14 18 19 21 20 22 29 23 21 24 28 25
REMARK SMILES IDX 22 26 23 27 24 28 25 29 26 30 27 31
REMARK H PARENT 13 19 13 20
ROOT
ATOM      1  C   UNL     1       0.094   0.227  -1.001  1.00  0.00     0.045 C 
ATOM      2  C   UNL     1       0.230  -0.415   0.362  1.00  0.00    -0.035 A 
ATOM      3  C   UNL     1      -0.895  -0.993   1.000  1.00  0.00    -0.009 A 
ATOM      4  C   UNL     1      -0.763  -1.573   2.272  1.00  0.00     0.009 A 
ATOM      5  C   UNL     1       0.465  -1.582   2.921  1.00  0.00     0.001 A 
ATOM      6  C   UNL     1       1.572  -0.997   2.311  1.00  0.00     0.009 A 
ATOM      7  C   UNL     1       1.476  -0.399   1.040  1.00  0.00    -0.015 A 
ENDROOT
BRANCH   3   8
ATOM      8  C   UNL     1      -2.244  -1.009   0.381  1.00  0.00     0.049 C 
BRANCH   8   9
ATOM      9  C   UNL     1      -2.991   0.095   0.586  1.00  0.00     0.042 C 
BRANCH   9  10
ATOM     10  C   UNL     1      -4.344   0.424   0.130  1.00  0.00     0.064 A 
ATOM     11  C   UNL     1      -4.740   0.337  -1.199  1.00  0.00     0.028 A 
ATOM     12  N   UNL     1      -5.136   0.956   1.092  1.00  0.00    -0.257 NA
ATOM     13  C   UNL     1      -6.024   0.752  -1.548  1.00  0.00     0.004 A 
ATOM     14  C   UNL     1      -6.378   1.345   0.727  1.00  0.00     0.111 A 
ATOM     15  C   UNL     1      -6.863   1.262  -0.567  1.00  0.00     0.020 A 
ENDBRANCH   9  10
ENDBRANCH   8   9
BRANCH   8  16
ATOM     16  C   UNL     1      -2.725  -2.223  -0.365  1.00  0.00     0.249 C 
ATOM     17  N   UNL     1      -1.780  -3.168  -0.632  1.00  0.00    -0.366 N 
ATOM     18  O   UNL     1      -3.878  -2.404  -0.731  1.00  0.00    -0.270 OA
ATOM     19  H   UNL     1      -0.821  -3.108  -0.320  1.00  0.00     0.159 HD
ATOM     20  H   UNL     1      -2.087  -4.010  -1.099  1.00  0.00     0.159 HD
ENDBRANCH   8  16
ENDBRANCH   3   8
BRANCH   7  21
ATOM     21  C   UNL     1       2.678   0.231   0.474  1.00  0.00    -0.018 A 
ATOM     22  C   UNL     1       3.709  -0.547  -0.071  1.00  0.00     0.012 A 
ATOM     23  C   UNL     1       2.828   1.623   0.478  1.00  0.00     0.012 A 
ATOM     24  C   UNL     1       4.858   0.048  -0.607  1.00  0.00     0.047 A 
ATOM     25  C   UNL     1       3.975   2.217  -0.057  1.00  0.00     0.047 A 
ATOM     26  C   UNL     1       4.997   1.435  -0.604  1.00  0.00     0.129 A 
BRANCH  26  27
ATOM     27  O   UNL     1       6.054   2.149  -1.089  1.00  0.00    -0.406 OA
BRANCH  27  28
ATOM     28  C   UNL     1       7.131   1.427  -1.661  1.00  0.00     0.573 C 
ATOM     29  F   UNL     1       7.703   0.605  -0.756  1.00  0.00    -0.132 F 
ATOM     30  F   UNL     1       8.068   2.307  -2.080  1.00  0.00    -0.132 F 
ATOM     31  F   UNL     1       6.724   0.709  -2.730  1.00  0.00    -0.132 F 
ENDBRANCH  27  28
ENDBRANCH  26  27
ENDBRANCH   7  21
TORSDOF 7
