MODEL        4USER    Run = 4USERUSER    Estimated Free Energy of Binding    = -10.88 kcal/mol  [=(1)+(2)+(3)-(4)]USERUSER    (1) Final Intermolecular Energy     = -13.26 kcal/molUSER        vdW + Hbond + desolv Energy     = -13.02 kcal/molUSER        Electrostatic Energy            =  -0.24 kcal/molUSER        Moving Ligand-Fixed Receptor    = -13.26 kcal/molUSER        Moving Ligand-Moving Receptor   =  +0.00 kcal/molUSER    (2) Final Total Internal Energy     =  -1.80 kcal/molUSER    (3) Torsional Free Energy           =  +2.39 kcal/molUSER    (4) Unbound System's Energy         =  -1.80 kcal/molUSERUSERREMARK SMILES C[C@](C(N)=O)(c1cncc(-c2ccc(OCCN3CCNCC3)cc2)c1)c1ccccn1REMARK SMILES IDX 11 1 12 2 13 3 14 4 24 5 25 6 10 7 6 8 7 9 26 10 8 11 9 12REMARK SMILES IDX 2 13 1 14 3 15 4 16 5 17 27 20 28 21 32 22 29 23 31 24 30 25REMARK SMILES IDX 15 26 16 27 17 28 18 29 19 30 23 31 20 32 22 33 21 34REMARK H PARENT 4 18 4 19 21 35USER                              x       y       z     vdW  Elec       q    TypeUSER                           _______ _______ _______ _____ _____    ______ ____ROOTATOM      1  C   UNL     1      37.242  44.474  19.037 -0.35 +0.00    -0.017 A  ATOM      2  C   UNL     1      36.352  44.069  18.030 -0.31 -0.00    +0.012 A  ATOM      3  C   UNL     1      35.232  43.291  18.336 -0.31 -0.01    +0.047 A  ATOM      4  C   UNL     1      34.977  42.892  19.649 -0.35 -0.01    +0.119 A  ATOM      5  C   UNL     1      35.846  43.295  20.661 -0.38 +0.00    +0.047 A  ATOM      6  C   UNL     1      36.966  44.079  20.355 -0.39 -0.00    +0.012 A  ENDROOTBRANCH   1   7ATOM      7  C   UNL     1      38.429  45.282  18.726 -0.39 -0.00    +0.000 A  ATOM      8  C   UNL     1      39.725  46.697  17.197 -0.47 +0.00    -0.008 A  ATOM      9  C   UNL     1      40.653  46.831  18.225 -0.40 -0.01    +0.116 A  ATOM     10  C   UNL     1      38.595  45.904  17.481 -0.39 -0.00    +0.017 A  ATOM     11  N   UNL     1      40.550  46.235  19.434 -0.25 -0.00    -0.264 NA ATOM     12  C   UNL     1      39.444  45.486  19.655 -0.32 -0.00    +0.119 A  BRANCH   8  13ATOM     13  C   UNL     1      39.879  47.374  15.820 -0.49 -0.03    +0.114 C  ATOM     14  C   UNL     1      41.036  46.785  14.967 +0.03 +0.00    +0.034 C  BRANCH  13  15ATOM     15  C   UNL     1      40.270  48.866  16.076 -0.44 -0.07    +0.233 C  ATOM     16  N   UNL     1      39.284  49.814  16.006 +0.09 +0.24    -0.369 N  ATOM     17  O   UNL     1      41.394  49.222  16.430 -1.06 -0.00    -0.274 OA ATOM     18  H   UNL     1      39.625  50.765  16.054 -0.26 -0.11    +0.159 HD ATOM     19  H   UNL     1      38.579  49.640  15.290 -0.37 -0.13    +0.159 HD ENDBRANCH  13  15BRANCH  13  20ATOM     20  C   UNL     1      38.597  47.193  14.964 -0.42 -0.02    +0.060 A  ATOM     21  C   UNL     1      38.288  45.941  14.418 -0.39 -0.01    +0.025 A  ATOM     22  N   UNL     1      37.796  48.272  14.738 -0.32 +0.16    -0.260 NA ATOM     23  C   UNL     1      37.145  45.792  13.636 -0.46 -0.00    +0.004 A  ATOM     24  C   UNL     1      36.695  48.098  13.971 -0.41 -0.07    +0.111 A  ATOM     25  C   UNL     1      36.329  46.890  13.408 -0.54 -0.01    +0.020 A  ENDBRANCH  13  20ENDBRANCH   8  13ENDBRANCH   1   7BRANCH   4  26ATOM     26  O   UNL     1      33.855  42.127  19.808 -0.34 -0.06    -0.492 OA BRANCH  26  27ATOM     27  C   UNL     1      32.758  42.395  18.927 -0.27 -0.02    +0.245 C  BRANCH  27  28ATOM     28  C   UNL     1      32.507  41.133  18.082 -0.38 -0.03    +0.126 C  BRANCH  28  29ATOM     29  N   UNL     1      32.292  39.859  18.784 -0.44 -0.02    -0.297 NA ATOM     30  C   UNL     1      32.611  38.680  17.960 -0.34 -0.01    +0.100 C  ATOM     31  C   UNL     1      30.939  39.730  19.349 -0.33 +0.01    +0.100 C  ATOM     32  C   UNL     1      32.437  37.366  18.754 -0.53 +0.02    +0.096 C  ATOM     33  C   UNL     1      30.769  38.408  20.134 -0.43 +0.01    +0.096 C  ATOM     34  N   UNL     1      31.088  37.219  19.326 -0.69 -0.12    -0.314 NA ATOM     35  H   UNL     1      31.068  36.396  19.925 +0.07 +0.05    +0.122 HD ENDBRANCH  28  29ENDBRANCH  27  28ENDBRANCH  26  27ENDBRANCH   4  26TORSDOF 8TERENDMDL