MODEL        4USER    Run = 4USERUSER    Estimated Free Energy of Binding    =  -9.94 kcal/mol  [=(1)+(2)+(3)-(4)]USERUSER    (1) Final Intermolecular Energy     = -12.03 kcal/molUSER        vdW + Hbond + desolv Energy     = -11.86 kcal/molUSER        Electrostatic Energy            =  -0.17 kcal/molUSER        Moving Ligand-Fixed Receptor    = -12.03 kcal/molUSER        Moving Ligand-Moving Receptor   =  +0.00 kcal/molUSER    (2) Final Total Internal Energy     =  -1.70 kcal/molUSER    (3) Torsional Free Energy           =  +2.09 kcal/molUSER    (4) Unbound System's Energy         =  -1.70 kcal/molUSERUSERREMARK SMILES Cc1c(C(=Cc2ccccn2)C(N)=O)cccc1-c1ccc(OC(F)(F)F)cc1REMARK SMILES IDX 1 1 2 2 3 3 15 4 16 5 17 6 18 7 4 8 5 9 6 10 7 11 11 12 8 13REMARK SMILES IDX 10 14 9 15 12 16 13 17 14 18 19 21 20 22 29 23 21 24 28 25REMARK SMILES IDX 22 26 23 27 24 28 25 29 26 30 27 31REMARK H PARENT 13 19 13 20USER                              x       y       z     vdW  Elec       q    TypeUSER                           _______ _______ _______ _____ _____    ______ ____ROOTATOM      1  C   UNL     1      37.095  46.334  16.514 -0.40 -0.02    +0.045 C  ATOM      2  C   UNL     1      38.345  45.877  17.234 -0.37 +0.01    -0.035 A  ATOM      3  C   UNL     1      39.612  46.402  16.879 -0.45 +0.00    -0.009 A  ATOM      4  C   UNL     1      40.768  45.960  17.543 -0.47 -0.00    +0.009 A  ATOM      5  C   UNL     1      40.686  45.003  18.546 -0.45 +0.00    +0.001 A  ATOM      6  C   UNL     1      39.448  44.466  18.887 -0.37 -0.00    +0.009 A  ATOM      7  C   UNL     1      38.268  44.878  18.238 -0.37 +0.00    -0.015 A  ENDROOTBRANCH   3   8ATOM      8  C   UNL     1      39.786  47.414  15.808 -0.54 -0.01    +0.049 C  BRANCH   8   9ATOM      9  C   UNL     1      39.469  47.003  14.563 -0.49 -0.01    +0.042 C  BRANCH   9  10ATOM     10  C   UNL     1      38.203  47.081  13.831 -0.43 -0.02    +0.064 A  ATOM     11  C   UNL     1      37.650  46.002  13.151 -0.38 -0.01    +0.028 A  ATOM     12  N   UNL     1      37.687  48.331  13.753 -0.54 +0.11    -0.257 NA ATOM     13  C   UNL     1      36.484  46.196  12.414 -0.63 -0.00    +0.004 A  ATOM     14  C   UNL     1      36.552  48.490  13.035 -0.38 -0.05    +0.111 A  ATOM     15  C   UNL     1      35.919  47.463  12.357 -0.61 -0.01    +0.020 A  ENDBRANCH   9  10ENDBRANCH   8   9BRANCH   8  16ATOM     16  C   UNL     1      40.339  48.775  16.129 -0.41 -0.07    +0.249 C  ATOM     17  N   UNL     1      39.602  49.834  15.688 -0.02 +0.23    -0.366 N  ATOM     18  O   UNL     1      41.376  48.978  16.745 -0.99 +0.00    -0.270 OA ATOM     19  H   UNL     1      38.714  49.743  15.215 -0.38 -0.14    +0.159 HD ATOM     20  H   UNL     1      39.934  50.758  15.924 -0.25 -0.10    +0.159 HD ENDBRANCH   8  16ENDBRANCH   3   8BRANCH   7  21ATOM     21  C   UNL     1      37.001  44.240  18.626 -0.32 +0.00    -0.018 A  ATOM     22  C   UNL     1      36.157  43.671  17.661 -0.31 -0.00    +0.012 A  ATOM     23  C   UNL     1      36.600  44.197  19.966 -0.38 -0.00    +0.012 A  ATOM     24  C   UNL     1      34.947  43.067  18.024 -0.32 -0.01    +0.047 A  ATOM     25  C   UNL     1      35.392  43.593  20.329 -0.34 -0.00    +0.047 A  ATOM     26  C   UNL     1      34.558  43.023  19.362 -0.32 -0.01    +0.129 A  BRANCH  26  27ATOM     27  O   UNL     1      33.414  42.471  19.860 -0.52 -0.06    -0.406 OA BRANCH  27  28ATOM     28  C   UNL     1      32.564  41.787  18.956 -0.04 -0.02    +0.573 C  ATOM     29  F   UNL     1      31.642  41.052  19.614 -0.12 -0.01    -0.132 F  ATOM     30  F   UNL     1      33.314  40.947  18.207 -0.16 +0.03    -0.132 F  ATOM     31  F   UNL     1      31.943  42.649  18.122 -0.09 +0.02    -0.132 F  ENDBRANCH  27  28ENDBRANCH  26  27ENDBRANCH   7  21TORSDOF 7TERENDMDL