REMARK SMILES C[C@](C(N)=O)(c1cncc(-c2ccc(OCCN3CCNCC3)cc2)c1)c1ccccn1
REMARK SMILES IDX 11 1 12 2 13 3 14 4 24 5 25 6 10 7 6 8 7 9 26 10 8 11 9 12
REMARK SMILES IDX 2 13 1 14 3 15 4 16 5 17 27 20 28 21 32 22 29 23 31 24 30 25
REMARK SMILES IDX 15 26 16 27 17 28 18 29 19 30 23 31 20 32 22 33 21 34
REMARK H PARENT 4 18 4 19 21 35
ROOT
ATOM      1  C   UNL     1      -0.691  -1.206   1.400  1.00  0.00    -0.017 A 
ATOM      2  C   UNL     1      -0.095  -0.926   2.639  1.00  0.00     0.012 A 
ATOM      3  C   UNL     1       1.197  -0.397   2.709  1.00  0.00     0.047 A 
ATOM      4  C   UNL     1       1.927  -0.142   1.547  1.00  0.00     0.119 A 
ATOM      5  C   UNL     1       1.345  -0.405   0.309  1.00  0.00     0.047 A 
ATOM      6  C   UNL     1       0.049  -0.931   0.239  1.00  0.00     0.012 A 
ENDROOT
BRANCH   1   7
ATOM      7  C   UNL     1      -2.043  -1.773   1.315  1.00  0.00     0.000 A 
ATOM      8  C   UNL     1      -4.340  -1.733   0.453  1.00  0.00    -0.008 A 
ATOM      9  C   UNL     1      -4.545  -2.919   1.152  1.00  0.00     0.116 A 
ATOM     10  C   UNL     1      -3.051  -1.171   0.550  1.00  0.00     0.017 A 
ATOM     11  N   UNL     1      -3.613  -3.527   1.921  1.00  0.00    -0.264 NA
ATOM     12  C   UNL     1      -2.392  -2.946   1.977  1.00  0.00     0.119 A 
BRANCH   8  13
ATOM     13  C   UNL     1      -5.428  -1.052  -0.401  1.00  0.00     0.114 C 
ATOM     14  C   UNL     1      -6.820  -1.733  -0.287  1.00  0.00     0.034 C 
BRANCH  13  15
ATOM     15  C   UNL     1      -5.011  -1.210  -1.899  1.00  0.00     0.233 C 
ATOM     16  N   UNL     1      -4.175  -0.270  -2.440  1.00  0.00    -0.369 N 
ATOM     17  O   UNL     1      -5.315  -2.183  -2.590  1.00  0.00    -0.274 OA
ATOM     18  H   UNL     1      -4.049  -0.359  -3.440  1.00  0.00     0.159 HD
ATOM     19  H   UNL     1      -4.333   0.681  -2.105  1.00  0.00     0.159 HD
ENDBRANCH  13  15
BRANCH  13  20
ATOM     20  C   UNL     1      -5.646   0.419   0.044  1.00  0.00     0.060 A 
ATOM     21  C   UNL     1      -5.915   0.714   1.387  1.00  0.00     0.025 A 
ATOM     22  N   UNL     1      -5.592   1.407  -0.892  1.00  0.00    -0.260 NA
ATOM     23  C   UNL     1      -6.127   2.035   1.774  1.00  0.00     0.004 A 
ATOM     24  C   UNL     1      -5.807   2.680  -0.487  1.00  0.00     0.111 A 
ATOM     25  C   UNL     1      -6.070   3.040   0.821  1.00  0.00     0.020 A 
ENDBRANCH  13  20
ENDBRANCH   8  13
ENDBRANCH   1   7
BRANCH   4  26
ATOM     26  O   UNL     1       3.180   0.365   1.756  1.00  0.00    -0.492 OA
BRANCH  26  27
ATOM     27  C   UNL     1       4.038   0.460   0.613  1.00  0.00     0.245 C 
BRANCH  27  28
ATOM     28  C   UNL     1       5.430   0.904   1.099  1.00  0.00     0.126 C 
BRANCH  28  29
ATOM     29  N   UNL     1       6.501   1.045   0.102  1.00  0.00    -0.297 NA
ATOM     30  C   UNL     1       6.221   2.078  -0.910  1.00  0.00     0.100 C 
ATOM     31  C   UNL     1       6.851  -0.225  -0.556  1.00  0.00     0.100 C 
ATOM     32  C   UNL     1       7.399   2.242  -1.898  1.00  0.00     0.096 C 
ATOM     33  C   UNL     1       8.023  -0.052  -1.550  1.00  0.00     0.096 C 
ATOM     34  N   UNL     1       7.762   0.981  -2.566  1.00  0.00    -0.314 NA
ATOM     35  H   UNL     1       8.607   1.127  -3.115  1.00  0.00     0.122 HD
ENDBRANCH  28  29
ENDBRANCH  27  28
ENDBRANCH  26  27
ENDBRANCH   4  26
TORSDOF 8
