MODEL        10USER    Run = 10USERUSER    Estimated Free Energy of Binding    = -11.11 kcal/mol  [=(1)+(2)+(3)-(4)]USERUSER    (1) Final Intermolecular Energy     = -13.49 kcal/molUSER        vdW + Hbond + desolv Energy     = -13.22 kcal/molUSER        Electrostatic Energy            =  -0.27 kcal/molUSER        Moving Ligand-Fixed Receptor    = -13.49 kcal/molUSER        Moving Ligand-Moving Receptor   =  +0.00 kcal/molUSER    (2) Final Total Internal Energy     =  -1.40 kcal/molUSER    (3) Torsional Free Energy           =  +2.39 kcal/molUSER    (4) Unbound System's Energy         =  -1.40 kcal/molUSERUSERREMARK SMILES C[C@@](C(N)=O)(c1cccc(-c2ccc(OCCN3CCNCC3)cc2)c1)c1ccccn1REMARK SMILES IDX 11 1 12 2 13 3 14 4 24 5 25 6 10 7 6 8 7 9 26 10 8 11 9 12REMARK SMILES IDX 2 13 1 14 3 15 4 16 5 17 27 20 28 21 32 22 29 23 31 24 30 25REMARK SMILES IDX 15 26 16 27 17 28 18 29 19 30 23 31 20 32 22 33 21 34REMARK H PARENT 4 18 4 19 21 35USER                              x       y       z     vdW  Elec       q    TypeUSER                           _______ _______ _______ _____ _____    ______ ____ROOTATOM      1  C   UNL     1      36.234  44.727  18.513 -0.34 +0.00    -0.018 A  ATOM      2  C   UNL     1      34.988  45.366  18.420 -0.39 -0.01    +0.012 A  ATOM      3  C   UNL     1      33.809  44.729  18.830 -0.38 -0.01    +0.047 A  ATOM      4  C   UNL     1      33.855  43.434  19.343 -0.32 -0.01    +0.119 A  ATOM      5  C   UNL     1      35.087  42.787  19.442 -0.39 -0.00    +0.047 A  ATOM      6  C   UNL     1      36.263  43.424  19.032 -0.33 -0.00    +0.012 A  ENDROOTBRANCH   1   7ATOM      7  C   UNL     1      37.471  45.400  18.082 -0.34 +0.00    -0.018 A  ATOM      8  C   UNL     1      38.664  46.868  16.493 -0.40 +0.01    -0.026 A  ATOM      9  C   UNL     1      39.823  46.728  17.272 -0.47 -0.00    +0.005 A  ATOM     10  C   UNL     1      37.496  46.197  16.924 -0.36 -0.01    +0.014 A  ATOM     11  C   UNL     1      39.818  45.936  18.422 -0.45 -0.00    +0.001 A  ATOM     12  C   UNL     1      38.656  45.276  18.819 -0.39 -0.00    +0.009 A  BRANCH   8  13ATOM     13  C   UNL     1      38.610  47.712  15.188 -0.47 -0.05    +0.113 C  ATOM     14  C   UNL     1      37.812  49.033  15.345 -0.45 -0.03    +0.034 C  BRANCH  13  15ATOM     15  C   UNL     1      40.086  48.102  14.843 -0.41 -0.06    +0.233 C  ATOM     16  N   UNL     1      40.356  49.448  14.774 -0.18 +0.15    -0.369 N  ATOM     17  O   UNL     1      41.013  47.319  14.655 -0.28 +0.00    -0.274 OA ATOM     18  H   UNL     1      41.338  49.680  14.691 +0.11 -0.03    +0.159 HD ATOM     19  H   UNL     1      39.794  50.093  15.316 -0.29 -0.11    +0.159 HD ENDBRANCH  13  15BRANCH  13  20ATOM     20  C   UNL     1      37.900  46.950  14.039 -0.43 -0.02    +0.060 A  ATOM     21  C   UNL     1      37.864  45.553  13.987 -0.39 -0.01    +0.025 A  ATOM     22  N   UNL     1      37.417  47.693  13.005 -0.84 +0.07    -0.260 NA ATOM     23  C   UNL     1      37.276  44.918  12.895 -0.43 -0.00    +0.004 A  ATOM     24  C   UNL     1      36.844  47.055  11.963 -0.59 -0.04    +0.111 A  ATOM     25  C   UNL     1      36.751  45.681  11.864 -0.56 -0.01    +0.020 A  ENDBRANCH  13  20ENDBRANCH   8  13ENDBRANCH   1   7BRANCH   4  26ATOM     26  O   UNL     1      32.787  42.701  19.778 -0.51 -0.06    -0.492 OA BRANCH  26  27ATOM     27  C   UNL     1      31.858  42.253  18.786 -0.19 -0.02    +0.245 C  BRANCH  27  28ATOM     28  C   UNL     1      32.398  40.942  18.191 -0.39 -0.02    +0.126 C  BRANCH  28  29ATOM     29  N   UNL     1      32.201  39.757  19.047 -0.49 -0.04    -0.297 NA ATOM     30  C   UNL     1      32.409  38.489  18.316 -0.42 +0.00    +0.100 C  ATOM     31  C   UNL     1      30.843  39.770  19.633 -0.25 +0.01    +0.100 C  ATOM     32  C   UNL     1      32.037  37.231  19.147 -0.57 +0.02    +0.096 C  ATOM     33  C   UNL     1      30.534  38.517  20.493 -0.40 +0.01    +0.096 C  ATOM     34  N   UNL     1      31.635  37.538  20.532 -0.29 -0.06    -0.314 NA ATOM     35  H   UNL     1      32.429  38.030  20.951 +0.06 +0.04    +0.122 HD ENDBRANCH  28  29ENDBRANCH  27  28ENDBRANCH  26  27ENDBRANCH   4  26TORSDOF 8TERENDMDL