REMARK SMILES Cc1c(-c2ccc(CO)cc2C#N)cccc1[C@H](C(N)=O)c1ccccn1
REMARK SMILES IDX 1 1 2 2 3 3 14 4 15 5 16 6 17 7 4 8 5 9 11 10 6 11 10 12
REMARK SMILES IDX 7 13 12 14 13 15 8 16 9 17 18 19 19 20 20 21 21 22 22 25
REMARK SMILES IDX 23 26 27 27 24 28 26 29 25 30
REMARK H PARENT 9 18 20 23 20 24
ROOT
ATOM      1  C   UNL     1       0.201   1.095   0.191  1.00  0.00     0.045 C 
ATOM      2  C   UNL     1       0.217  -0.295   0.786  1.00  0.00    -0.039 A 
ATOM      3  C   UNL     1      -0.968  -1.080   0.759  1.00  0.00    -0.014 A 
ATOM      4  C   UNL     1      -0.976  -2.349   1.366  1.00  0.00     0.009 A 
ATOM      5  C   UNL     1       0.154  -2.845   2.002  1.00  0.00     0.001 A 
ATOM      6  C   UNL     1       1.312  -2.079   2.043  1.00  0.00     0.005 A 
ATOM      7  C   UNL     1       1.372  -0.803   1.442  1.00  0.00    -0.026 A 
ENDROOT
BRANCH   3   8
ATOM      8  C   UNL     1      -2.214  -0.617   0.120  1.00  0.00    -0.000 A 
ATOM      9  C   UNL     1      -3.134   0.133   0.874  1.00  0.00     0.010 A 
ATOM     10  C   UNL     1      -2.524  -0.907  -1.224  1.00  0.00     0.060 A 
ATOM     11  C   UNL     1      -4.330   0.586   0.311  1.00  0.00     0.007 A 
ATOM     12  C   UNL     1      -3.728  -0.449  -1.783  1.00  0.00     0.026 A 
ATOM     13  C   UNL     1      -4.641   0.294  -1.020  1.00  0.00    -0.021 A 
BRANCH  10  14
ATOM     14  C   UNL     1      -1.624  -1.660  -2.053  1.00  0.00     0.100 C 
ATOM     15  N   UNL     1      -0.912  -2.264  -2.743  1.00  0.00    -0.192 NA
ENDBRANCH  10  14
BRANCH  13  16
ATOM     16  C   UNL     1      -5.917   0.791  -1.643  1.00  0.00     0.191 C 
BRANCH  16  17
ATOM     17  O   UNL     1      -5.642   1.853  -2.545  1.00  0.00    -0.392 OA
ATOM     18  H   UNL     1      -4.835   2.300  -2.240  1.00  0.00     0.211 HD
ENDBRANCH  16  17
ENDBRANCH  13  16
ENDBRANCH   3   8
BRANCH   7  19
ATOM     19  C   UNL     1       2.711  -0.052   1.543  1.00  0.00     0.157 C 
BRANCH  19  20
ATOM     20  C   UNL     1       2.583   1.161   2.482  1.00  0.00     0.231 C 
ATOM     21  N   UNL     1       2.660   2.417   1.954  1.00  0.00    -0.369 N 
ATOM     22  O   UNL     1       2.368   1.040   3.689  1.00  0.00    -0.274 OA
ATOM     23  H   UNL     1       3.214   2.511   1.102  1.00  0.00     0.159 HD
ATOM     24  H   UNL     1       2.724   3.168   2.626  1.00  0.00     0.159 HD
ENDBRANCH  19  20
BRANCH  19  25
ATOM     25  C   UNL     1       3.432   0.153   0.201  1.00  0.00     0.057 A 
ATOM     26  C   UNL     1       3.470  -0.885  -0.736  1.00  0.00     0.025 A 
ATOM     27  N   UNL     1       4.080   1.330  -0.028  1.00  0.00    -0.260 NA
ATOM     28  C   UNL     1       4.154  -0.705  -1.936  1.00  0.00     0.004 A 
ATOM     29  C   UNL     1       4.742   1.473  -1.201  1.00  0.00     0.111 A 
ATOM     30  C   UNL     1       4.804   0.497  -2.176  1.00  0.00     0.020 A 
ENDBRANCH  19  25
ENDBRANCH   7  19
TORSDOF 7
