
     RDKit          3D

 33 36  0  0  0  0  0  0  0  0999 V2000
   -6.6689    2.1665    0.5369 Cl  0  0  0  0  0  0  0  0  0  0  0  0
   -5.4939    0.9192    0.6620 C   0  0  0  0  0  0  0  0  0  0  0  0
   -5.1252    0.2457    1.8060 C   0  0  0  0  0  0  0  0  0  0  0  0
   -4.1317   -0.6870    1.4226 C   0  0  0  0  0  0  0  0  0  0  0  0
   -3.9479   -0.5223    0.0647 C   0  0  0  0  0  0  0  0  0  0  0  0
   -3.0671   -1.1843   -0.9376 C   0  0  0  0  0  0  0  0  0  0  0  0
   -1.6182   -1.0168   -0.6196 C   0  0  0  0  0  0  0  0  0  0  0  0
   -0.9645   -1.9059    0.1526 N   0  0  0  0  0  0  0  0  0  0  0  0
    0.2851   -1.4062    0.2213 N   0  0  0  0  0  0  0  0  0  0  0  0
    0.4715   -0.2663   -0.5030 C   0  0  0  0  0  0  0  0  0  0  0  0
    1.5562    0.5657   -0.7303 C   0  0  0  0  0  0  0  0  0  0  0  0
    2.8984    0.3373   -0.1979 C   0  0  0  0  0  0  0  0  0  0  0  0
    3.5362   -0.9113   -0.3081 C   0  0  0  0  0  0  0  0  0  0  0  0
    4.8148   -1.1171    0.2186 C   0  0  0  0  0  0  0  0  0  0  0  0
    5.4814   -0.0755    0.8586 C   0  0  0  0  0  0  0  0  0  0  0  0
    4.8760    1.1737    0.9638 C   0  0  0  0  0  0  0  0  0  0  0  0
    3.5985    1.3778    0.4356 C   0  0  0  0  0  0  0  0  0  0  0  0
    1.3359    1.6765   -1.4767 N   0  0  0  0  0  0  0  0  0  0  0  0
    0.1015    1.8791   -1.9776 C   0  0  0  0  0  0  0  0  0  0  0  0
   -0.9864    1.1100   -1.8239 N   0  0  0  0  0  0  0  0  0  0  0  0
   -0.7623    0.0262   -1.0515 C   0  0  0  0  0  0  0  0  0  0  0  0
   -4.7832    0.4509   -0.4017 O   0  0  0  0  0  0  0  0  0  0  0  0
   -5.5268    0.4103    2.7955 H   0  0  0  0  0  0  0  0  0  0  0  0
   -3.6039   -1.3913    2.0519 H   0  0  0  0  0  0  0  0  0  0  0  0
   -3.3160   -2.2521   -0.9784 H   0  0  0  0  0  0  0  0  0  0  0  0
   -3.2706   -0.7844   -1.9386 H   0  0  0  0  0  0  0  0  0  0  0  0
    0.9681   -1.8972    0.7885 H   0  0  0  0  0  0  0  0  0  0  0  0
    3.0553   -1.7328   -0.8352 H   0  0  0  0  0  0  0  0  0  0  0  0
    5.2959   -2.0868    0.1169 H   0  0  0  0  0  0  0  0  0  0  0  0
    6.4779   -0.2327    1.2636 H   0  0  0  0  0  0  0  0  0  0  0  0
    5.3978    1.9935    1.4509 H   0  0  0  0  0  0  0  0  0  0  0  0
    3.1427    2.3635    0.5198 H   0  0  0  0  0  0  0  0  0  0  0  0
   -0.0268    2.7742   -2.5790 H   0  0  0  0  0  0  0  0  0  0  0  0
  1  2  1  0
  2  3  2  0
  3  4  1  0
  4  5  2  0
  5  6  1  0
  6  7  1  0
  7  8  2  0
  8  9  1  0
  9 10  1  0
 10 11  2  0
 11 12  1  0
 12 13  2  0
 13 14  1  0
 14 15  2  0
 15 16  1  0
 16 17  2  0
 11 18  1  0
 18 19  2  0
 19 20  1  0
 20 21  2  0
  5 22  1  0
 22  2  1  0
 21  7  1  0
 21 10  1  0
 17 12  1  0
  3 23  1  0
  4 24  1  0
  6 25  1  0
  6 26  1  0
  9 27  1  0
 13 28  1  0
 14 29  1  0
 15 30  1  0
 16 31  1  0
 17 32  1  0
 19 33  1  0
M  END
$$$$
