
     RDKit          3D

 52 55  0  0  0  0  0  0  0  0999 V2000
   -5.2453   -1.4559   -1.5216 C   0  0  0  0  0  0  0  0  0  0  0  0
   -4.9531   -0.4134   -0.5035 C   0  0  0  0  0  0  0  0  0  0  0  0
   -5.9648    0.3700    0.0020 N   0  0  0  0  0  0  0  0  0  0  0  0
   -5.4726    1.3004    0.8856 C   0  0  0  0  0  0  0  0  0  0  0  0
   -6.1393    2.2963    1.6101 C   0  0  0  0  0  0  0  0  0  0  0  0
   -5.3732    3.1111    2.4483 C   0  0  0  0  0  0  0  0  0  0  0  0
   -3.9965    2.9339    2.5569 C   0  0  0  0  0  0  0  0  0  0  0  0
   -3.3471    1.9328    1.8251 C   0  0  0  0  0  0  0  0  0  0  0  0
   -4.0960    1.0974    0.9676 C   0  0  0  0  0  0  0  0  0  0  0  0
   -3.7782    0.0028    0.1008 C   0  0  0  0  0  0  0  0  0  0  0  0
   -2.4627   -0.5182   -0.1162 C   0  0  0  0  0  0  0  0  0  0  0  0
   -2.1485   -1.8066   -0.3327 C   0  0  0  0  0  0  0  0  0  0  0  0
   -0.7768   -2.3904   -0.5471 C   0  0  0  0  0  0  0  0  0  0  0  0
    0.4033   -1.4104   -0.5089 C   0  0  0  0  0  0  0  0  0  0  0  0
    1.7672   -2.1068   -0.7068 C   0  0  1  0  0  0  0  0  0  0  0  0
    1.9330   -2.8044   -2.0753 C   0  0  0  0  0  0  0  0  0  0  0  0
    1.5310   -1.9946   -3.1764 O   0  0  0  0  0  0  0  0  0  0  0  0
    2.8956   -1.1210   -0.4198 C   0  0  0  0  0  0  0  0  0  0  0  0
    3.2133   -0.0798   -1.3011 C   0  0  0  0  0  0  0  0  0  0  0  0
    4.2461    0.8207   -1.0106 C   0  0  0  0  0  0  0  0  0  0  0  0
    4.9861    0.7065    0.1733 C   0  0  0  0  0  0  0  0  0  0  0  0
    6.0749    1.6230    0.5163 C   0  0  0  0  0  0  0  0  0  0  0  0
    6.7678    1.6453    1.6423 N   0  0  0  0  0  0  0  0  0  0  0  0
    7.7023    2.6521    1.5679 N   0  0  0  0  0  0  0  0  0  0  0  0
    7.5684    3.2255    0.3982 C   0  0  0  0  0  0  0  0  0  0  0  0
    6.5667    2.6180   -0.2924 N   0  0  0  0  0  0  0  0  0  0  0  0
    4.6587   -0.3292    1.0586 C   0  0  0  0  0  0  0  0  0  0  0  0
    3.6286   -1.2302    0.7691 C   0  0  0  0  0  0  0  0  0  0  0  0
   -5.3135   -2.4409   -1.0496 H   0  0  0  0  0  0  0  0  0  0  0  0
   -4.4633   -1.4868   -2.2868 H   0  0  0  0  0  0  0  0  0  0  0  0
   -6.1945   -1.2596   -2.0315 H   0  0  0  0  0  0  0  0  0  0  0  0
   -6.9392    0.2926   -0.2529 H   0  0  0  0  0  0  0  0  0  0  0  0
   -7.2122    2.4354    1.5292 H   0  0  0  0  0  0  0  0  0  0  0  0
   -5.8609    3.8933    3.0254 H   0  0  0  0  0  0  0  0  0  0  0  0
   -3.4186    3.5756    3.2173 H   0  0  0  0  0  0  0  0  0  0  0  0
   -2.2739    1.8002    1.9232 H   0  0  0  0  0  0  0  0  0  0  0  0
   -1.6630    0.2161   -0.0579 H   0  0  0  0  0  0  0  0  0  0  0  0
   -2.9488   -2.5440   -0.3406 H   0  0  0  0  0  0  0  0  0  0  0  0
   -0.6208   -3.1621    0.2169 H   0  0  0  0  0  0  0  0  0  0  0  0
   -0.7969   -2.9051   -1.5142 H   0  0  0  0  0  0  0  0  0  0  0  0
    0.4061   -0.9016    0.4650 H   0  0  0  0  0  0  0  0  0  0  0  0
    0.2647   -0.6273   -1.2653 H   0  0  0  0  0  0  0  0  0  0  0  0
    1.8454   -2.9058    0.0442 H   0  0  0  0  0  0  0  0  0  0  0  0
    2.9769   -3.0951   -2.2377 H   0  0  0  0  0  0  0  0  0  0  0  0
    1.3377   -3.7236   -2.1088 H   0  0  0  0  0  0  0  0  0  0  0  0
    0.5611   -1.9287   -3.1632 H   0  0  0  0  0  0  0  0  0  0  0  0
    2.6590    0.0436   -2.2297 H   0  0  0  0  0  0  0  0  0  0  0  0
    4.4444    1.6067   -1.7324 H   0  0  0  0  0  0  0  0  0  0  0  0
    8.1496    4.0520    0.0161 H   0  0  0  0  0  0  0  0  0  0  0  0
    6.2533    2.8485   -1.2216 H   0  0  0  0  0  0  0  0  0  0  0  0
    5.2112   -0.4421    1.9911 H   0  0  0  0  0  0  0  0  0  0  0  0
    3.4075   -2.0163    1.4882 H   0  0  0  0  0  0  0  0  0  0  0  0
  1  2  1  0
  2  3  1  0
  3  4  1  0
  4  5  2  0
  5  6  1  0
  6  7  2  0
  7  8  1  0
  8  9  2  0
  9 10  1  0
 10 11  1  0
 11 12  2  3
 12 13  1  0
 13 14  1  0
 14 15  1  0
 15 16  1  0
 16 17  1  0
 15 18  1  0
 18 19  2  0
 19 20  1  0
 20 21  2  0
 21 22  1  0
 22 23  2  0
 23 24  1  0
 24 25  2  0
 25 26  1  0
 21 27  1  0
 27 28  2  0
 10  2  2  0
 28 18  1  0
  9  4  1  0
 26 22  1  0
  1 29  1  0
  1 30  1  0
  1 31  1  0
  3 32  1  0
  5 33  1  0
  6 34  1  0
  7 35  1  0
  8 36  1  0
 11 37  1  0
 12 38  1  0
 13 39  1  0
 13 40  1  0
 14 41  1  0
 14 42  1  0
 15 43  1  1
 16 44  1  0
 16 45  1  0
 17 46  1  0
 19 47  1  0
 20 48  1  0
 25 49  1  0
 26 50  1  0
 27 51  1  0
 28 52  1  0
M  END
$$$$
