
     RDKit          3D

 45 46  0  0  0  0  0  0  0  0999 V2000
   -2.7637   -1.4692    2.7033 C   0  0  0  0  0  0  0  0  0  0  0  0
   -3.5143   -0.5193    1.7647 C   0  0  0  0  0  0  0  0  0  0  0  0
   -5.0015   -0.8938    1.7791 C   0  0  0  0  0  0  0  0  0  0  0  0
   -2.9652   -0.5888    0.3248 C   0  0  0  0  0  0  0  0  0  0  0  0
   -1.8869    0.4354   -0.0775 C   0  0  1  0  0  0  0  0  0  0  0  0
   -2.3969    1.8929   -0.1512 C   0  0  0  0  0  0  0  0  0  0  0  0
   -1.4224    2.8004   -0.5000 N   0  0  0  0  0  0  0  0  0  0  0  0
   -3.5681    2.2494   -0.0008 O   0  0  0  0  0  0  0  0  0  0  0  0
   -0.6283    0.3349    0.7252 N   0  0  0  0  0  0  0  0  0  0  0  0
   -0.4367    1.1436    1.8422 C   0  0  0  0  0  0  0  0  0  0  0  0
    0.5563    2.0079    2.0870 N   0  0  0  0  0  0  0  0  0  0  0  0
    1.6034    2.3328    1.2933 C   0  0  0  0  0  0  0  0  0  0  0  0
    2.2908    2.1180    0.1510 C   0  0  0  0  0  0  0  0  0  0  0  0
    2.3359    1.3380   -0.9415 C   0  0  0  0  0  0  0  0  0  0  0  0
    1.6697    0.2713   -1.4451 C   0  0  0  0  0  0  0  0  0  0  0  0
    2.0638   -0.2308   -2.7053 N   0  0  0  0  0  0  0  0  0  0  0  0
    3.2902   -0.9412   -2.8475 C   0  0  0  0  0  0  0  0  0  0  0  0
    3.7938   -1.6986   -1.8013 C   0  0  0  0  0  0  0  0  0  0  0  0
    4.9550   -2.3967   -2.0320 C   0  0  0  0  0  0  0  0  0  0  0  0
    5.6055   -2.3959   -3.2094 N   0  0  0  0  0  0  0  0  0  0  0  0
    5.0261   -1.6467   -4.1609 C   0  0  0  0  0  0  0  0  0  0  0  0
    3.8987   -0.9313   -4.0539 N   0  0  0  0  0  0  0  0  0  0  0  0
    0.6419   -0.5197   -1.0534 N   0  0  0  0  0  0  0  0  0  0  0  0
    0.4291   -0.4429    0.2646 C   0  0  0  0  0  0  0  0  0  0  0  0
   -3.1413   -1.3754    3.7274 H   0  0  0  0  0  0  0  0  0  0  0  0
   -2.8925   -2.5128    2.3954 H   0  0  0  0  0  0  0  0  0  0  0  0
   -1.6919   -1.2624    2.7285 H   0  0  0  0  0  0  0  0  0  0  0  0
   -3.4375    0.5024    2.1509 H   0  0  0  0  0  0  0  0  0  0  0  0
   -5.4036   -0.8559    2.7973 H   0  0  0  0  0  0  0  0  0  0  0  0
   -5.1608   -1.9047    1.3877 H   0  0  0  0  0  0  0  0  0  0  0  0
   -5.5835   -0.1963    1.1670 H   0  0  0  0  0  0  0  0  0  0  0  0
   -2.5805   -1.5994    0.1331 H   0  0  0  0  0  0  0  0  0  0  0  0
   -3.8008   -0.4547   -0.3758 H   0  0  0  0  0  0  0  0  0  0  0  0
   -1.6732    0.2120   -1.1328 H   0  0  0  0  0  0  0  0  0  0  0  0
   -1.5799    3.7326   -0.1630 H   0  0  0  0  0  0  0  0  0  0  0  0
   -0.4921    2.4306   -0.2243 H   0  0  0  0  0  0  0  0  0  0  0  0
   -1.3085    1.1288    2.4847 H   0  0  0  0  0  0  0  0  0  0  0  0
    2.1404    3.1437    1.8032 H   0  0  0  0  0  0  0  0  0  0  0  0
    3.1144    2.8395    0.0877 H   0  0  0  0  0  0  0  0  0  0  0  0
    3.1361    1.6550   -1.6155 H   0  0  0  0  0  0  0  0  0  0  0  0
    1.3378   -0.9418   -2.8148 H   0  0  0  0  0  0  0  0  0  0  0  0
    3.2924   -1.7275   -0.8399 H   0  0  0  0  0  0  0  0  0  0  0  0
    5.3995   -2.9951   -1.2443 H   0  0  0  0  0  0  0  0  0  0  0  0
    5.5197   -1.6187   -5.1247 H   0  0  0  0  0  0  0  0  0  0  0  0
    1.2295   -0.4501    1.0060 H   0  0  0  0  0  0  0  0  0  0  0  0
  1  2  1  0
  2  3  1  0
  2  4  1  0
  4  5  1  0
  5  6  1  0
  6  7  1  0
  6  8  2  0
  5  9  1  0
  9 10  1  0
 10 11  2  0
 11 12  1  0
 12 13  2  0
 13 14  1  0
 14 15  2  0
 15 16  1  0
 16 17  1  0
 17 18  2  0
 18 19  1  0
 19 20  2  0
 20 21  1  0
 21 22  2  0
 15 23  1  0
 23 24  2  0
 24  9  1  0
 22 17  1  0
  1 25  1  0
  1 26  1  0
  1 27  1  0
  2 28  1  0
  3 29  1  0
  3 30  1  0
  3 31  1  0
  4 32  1  0
  4 33  1  0
  5 34  1  6
  7 35  1  0
  7 36  1  0
 10 37  1  0
 12 38  1  0
 13 39  1  0
 14 40  1  0
 16 41  1  0
 18 42  1  0
 19 43  1  0
 21 44  1  0
 24 45  1  0
M  END
$$$$
