
     RDKit          3D

 42 44  0  0  0  0  0  0  0  0999 V2000
    3.1489   -0.9629    1.3106 N   0  0  0  0  0  0  0  0  0  0  0  0
    4.1459   -0.0203    1.0053 C   0  0  0  0  0  0  0  0  0  0  0  0
    5.4876   -0.4156    1.0314 C   0  0  0  0  0  0  0  0  0  0  0  0
    6.5153    0.5224    0.8948 C   0  0  0  0  0  0  0  0  0  0  0  0
    6.2158    1.8783    0.7757 C   0  0  0  0  0  0  0  0  0  0  0  0
    4.8879    2.2979    0.7917 C   0  0  0  0  0  0  0  0  0  0  0  0
    3.8620    1.3535    0.8980 C   0  0  0  0  0  0  0  0  0  0  0  0
    2.5680    1.8332    0.9365 O   0  0  0  0  0  0  0  0  0  0  0  0
    1.8082    1.5049   -0.1706 C   0  0  0  0  0  0  0  0  0  0  0  0
    2.0307    2.1359   -1.3711 C   0  0  0  0  0  0  0  0  0  0  0  0
    1.1941    1.7524   -2.3848 C   0  0  0  0  0  0  0  0  0  0  0  0
    0.2171    0.8424   -2.2298 N   0  0  0  0  0  0  0  0  0  0  0  0
    0.0631    0.3086   -1.0151 C   0  0  0  0  0  0  0  0  0  0  0  0
   -0.9348   -0.6146   -0.7442 N   0  0  0  0  0  0  0  0  0  0  0  0
   -1.8695   -1.0820   -1.6331 C   0  0  0  0  0  0  0  0  0  0  0  0
   -1.9676   -0.7942   -2.8217 O   0  0  0  0  0  0  0  0  0  0  0  0
   -2.8432   -2.0678   -1.0056 C   0  0  0  0  0  0  0  0  0  0  0  0
   -3.7920   -1.4217   -0.0217 C   0  0  0  0  0  0  0  0  0  0  0  0
   -3.5773   -1.6430    1.3532 C   0  0  0  0  0  0  0  0  0  0  0  0
   -4.4036   -1.0582    2.3145 C   0  0  0  0  0  0  0  0  0  0  0  0
   -5.4613   -0.2450    1.9223 C   0  0  0  0  0  0  0  0  0  0  0  0
   -5.6956   -0.0184    0.5672 C   0  0  0  0  0  0  0  0  0  0  0  0
   -4.8706   -0.5998   -0.4087 C   0  0  0  0  0  0  0  0  0  0  0  0
   -5.1997   -0.3222   -1.8308 C   0  0  0  0  0  0  0  0  0  0  0  0
   -6.1752    0.3512   -2.1476 O   0  0  0  0  0  0  0  0  0  0  0  0
    0.8321    0.5987    0.0421 N   0  0  0  0  0  0  0  0  0  0  0  0
    3.3554   -1.8993    0.9797 H   0  0  0  0  0  0  0  0  0  0  0  0
    2.2154   -0.6466    1.0448 H   0  0  0  0  0  0  0  0  0  0  0  0
    5.7464   -1.4624    1.1729 H   0  0  0  0  0  0  0  0  0  0  0  0
    7.5514    0.1940    0.9081 H   0  0  0  0  0  0  0  0  0  0  0  0
    7.0176    2.6072    0.6906 H   0  0  0  0  0  0  0  0  0  0  0  0
    4.6534    3.3558    0.7263 H   0  0  0  0  0  0  0  0  0  0  0  0
    2.8021    2.8781   -1.5086 H   0  0  0  0  0  0  0  0  0  0  0  0
    1.2781    2.1762   -3.3814 H   0  0  0  0  0  0  0  0  0  0  0  0
   -0.9636   -0.8869    0.2254 H   0  0  0  0  0  0  0  0  0  0  0  0
   -3.4108   -2.5726   -1.7964 H   0  0  0  0  0  0  0  0  0  0  0  0
   -2.2596   -2.8616   -0.5216 H   0  0  0  0  0  0  0  0  0  0  0  0
   -2.7633   -2.2814    1.6933 H   0  0  0  0  0  0  0  0  0  0  0  0
   -4.2232   -1.2391    3.3722 H   0  0  0  0  0  0  0  0  0  0  0  0
   -6.1080    0.2107    2.6685 H   0  0  0  0  0  0  0  0  0  0  0  0
   -6.5307    0.6156    0.2717 H   0  0  0  0  0  0  0  0  0  0  0  0
   -4.5472   -0.7533   -2.6041 H   0  0  0  0  0  0  0  0  0  0  0  0
  1  2  1  0
  2  3  2  0
  3  4  1  0
  4  5  2  0
  5  6  1  0
  6  7  2  0
  7  8  1  0
  8  9  1  0
  9 10  2  0
 10 11  1  0
 11 12  2  0
 12 13  1  0
 13 14  1  0
 14 15  1  0
 15 16  2  0
 15 17  1  0
 17 18  1  0
 18 19  2  0
 19 20  1  0
 20 21  2  0
 21 22  1  0
 22 23  2  0
 23 24  1  0
 24 25  2  0
 13 26  2  0
  7  2  1  0
 26  9  1  0
 23 18  1  0
  1 27  1  0
  1 28  1  0
  3 29  1  0
  4 30  1  0
  5 31  1  0
  6 32  1  0
 10 33  1  0
 11 34  1  0
 14 35  1  0
 17 36  1  0
 17 37  1  0
 19 38  1  0
 20 39  1  0
 21 40  1  0
 22 41  1  0
 24 42  1  0
M  END
$$$$
