MODEL        8USER    Run = 8USERUSER    Estimated Free Energy of Binding    =  -7.59 kcal/mol  [=(1)+(2)+(3)-(4)]USERUSER    (1) Final Intermolecular Energy     = -12.07 kcal/molUSER        vdW + Hbond + desolv Energy     = -12.15 kcal/molUSER        Electrostatic Energy            =  -0.06 kcal/molUSER        Moving Ligand-Fixed Receptor    = -12.22 kcal/molUSER        Moving Ligand-Moving Receptor   =  +0.15 kcal/molUSER    (2) Final Total Internal Energy     =  -2.87 kcal/molUSER    (3) Torsional Free Energy           =  +4.47 kcal/molUSER    (4) Unbound System's Energy         =  -2.87 kcal/molUSERUSERREMARK SMILES COc1ccc(O)c(C(=O)c2ccc(C(=O)N[C@@H]3CCCN(C4CC4)C[C@@H]3NC(=O)c3ccnc(F)c3Cl)cc2)c1FREMARK SMILES IDX 15 1 16 2 17 3 14 5 11 6 12 7 40 8 13 9 39 10 9 11 10 12REMARK SMILES IDX 8 13 3 14 4 15 41 16 5 17 6 18 42 19 2 20 1 21 7 22 18 24REMARK SMILES IDX 19 25 27 27 26 28 22 29 21 30 20 31 23 33 24 34 25 35 28 36REMARK SMILES IDX 29 37 30 39 31 40 32 41 37 42 33 43 35 44 34 45 38 46 36 47REMARK H PARENT 17 4 7 23 28 38REMARK Flexibility Score:   88.900USER                              x       y       z     vdW  Elec       q    TypeUSER                           _______ _______ _______ _____ _____    ______ ____ROOTATOM      1  C   UNL     1      38.613  43.626  22.425 -0.21 +0.01    +0.251 C  ATOM      2  O   UNL     1      38.120  42.503  22.470 -0.24 -0.02    -0.269 OA ATOM      3  N   UNL     1      38.765  44.423  23.535 -0.08 -0.02    -0.347 N  ATOM      4  H   UNL     1      39.005  45.408  23.409 +0.08 +0.01    +0.164 HD ENDROOTBRANCH   1   5ATOM      5  C   UNL     1      39.047  44.208  21.121 -0.28 +0.00    +0.039 A  ATOM      6  C   UNL     1      39.966  45.334  18.716 -0.43 -0.00    +0.023 A  ATOM      7  C   UNL     1      38.705  44.728  18.777 -0.38 -0.00    +0.013 A  ATOM      8  C   UNL     1      40.776  45.362  19.858 -0.40 +0.00    +0.013 A  ATOM      9  C   UNL     1      38.243  44.175  19.975 -0.32 -0.00    +0.014 A  ATOM     10  C   UNL     1      40.311  44.813  21.057 -0.32 +0.00    +0.014 A  BRANCH   6  11ATOM     11  C   UNL     1      40.426  45.871  17.413 -0.37 -0.02    +0.199 C  ATOM     12  O   UNL     1      41.511  45.500  16.963 -0.13 -0.01    -0.288 OA BRANCH  11  13ATOM     13  C   UNL     1      39.676  46.884  16.640 -0.40 -0.02    +0.104 A  ATOM     14  C   UNL     1      37.705  47.602  15.397 -0.34 -0.10    +0.155 A  ATOM     15  C   UNL     1      38.289  48.856  15.201 -0.43 -0.04    +0.053 A  ATOM     16  C   UNL     1      38.410  46.623  16.112 -0.28 -0.07    +0.179 A  ATOM     17  C   UNL     1      39.570  49.116  15.693 -0.47 -0.02    +0.051 A  ATOM     18  C   UNL     1      40.263  48.131  16.394 -0.44 -0.03    +0.130 A  ATOM     19  F   UNL     1      37.856  45.410  16.263 -0.07 +0.07    -0.202 F  BRANCH  14  20ATOM     20  O   UNL     1      36.466  47.225  14.949 -0.10 +0.41    -0.494 OA ATOM     21  C   UNL     1      36.278  47.150  13.542 -0.39 -0.16    +0.278 C  ENDBRANCH  14  20BRANCH  18  22ATOM     22  O   UNL     1      41.525  48.457  16.816 -0.65 +0.00    -0.507 OA ATOM     23  H   UNL     1      42.053  47.625  16.845 -0.31 -0.06    +0.293 HD ENDBRANCH  18  22ENDBRANCH  11  13ENDBRANCH   6  11ENDBRANCH   1   5BRANCH   3  24ATOM     24  C   UNL     1      38.238  44.062  24.855 -0.23 +0.00    +0.106 C  BRANCH  24  25ATOM     25  C   UNL     1      36.831  44.657  25.016 -0.30 +0.00    +0.028 CG0ATOM     26  G   UNL     1      35.869  43.969  25.981 +0.00 +0.00    +0.000 G0 ENDBRANCH  24  25BRANCH  24  27ATOM     27  C   UNL     1      39.255  44.458  25.955 -0.14 -0.00    +0.118 C  BRANCH  27  28ATOM     28  C   UNL     1      38.561  44.771  27.298 -0.20 -0.01    +0.111 C  BRANCH  28  29ATOM     29  N   UNL     1      37.598  43.763  27.765 -0.18 +0.05    -0.298 NA BRANCH  29  30ATOM     30  C   UNL     1      36.197  44.102  27.466 -0.45 -0.02    +0.085 C  BRANCH  30  31ATOM     31  C   UNL     1      35.869  43.970  25.982 -0.34 -0.00    +0.018 CG0ATOM     32  G   UNL     1      36.830  44.657  25.016 +0.00 +0.00    +0.000 G0 ENDBRANCH  30  31ENDBRANCH  29  30BRANCH  29  33ATOM     33  C   UNL     1      37.902  42.364  27.370 -0.39 -0.01    +0.056 C  ATOM     34  C   UNL     1      38.364  41.359  28.395 -0.33 -0.00    +0.021 C  ATOM     35  C   UNL     1      37.051  41.166  27.699 -0.57 -0.01    +0.021 C  ENDBRANCH  29  33ENDBRANCH  28  29ENDBRANCH  27  28BRANCH  27  36ATOM     36  N   UNL     1      40.153  45.554  25.569 -0.01 -0.01    -0.346 N  ATOM     37  C   UNL     1      41.269  45.364  24.793 -0.04 +0.01    +0.253 C  ATOM     38  H   UNL     1      39.780  46.490  25.706 +0.06 +0.01    +0.164 HD ATOM     39  O   UNL     1      41.686  44.267  24.441 -0.05 -0.01    -0.269 OA BRANCH  37  40ATOM     40  C   UNL     1      41.965  46.595  24.380 -0.11 +0.01    +0.064 A  ATOM     41  C   UNL     1      42.203  46.794  23.016 -0.21 +0.01    +0.036 A  ATOM     42  C   UNL     1      42.347  47.555  25.315 -0.12 +0.01    +0.108 A  ATOM     43  C   UNL     1      42.827  47.966  22.633 -0.27 +0.02    +0.115 A  ATOM     44  C   UNL     1      42.968  48.692  24.819 -0.22 +0.04    +0.232 A  ATOM     45  N   UNL     1      43.216  48.918  23.505 -0.82 -0.08    -0.227 NA ATOM     46  Cl  UNL     1      42.146  47.354  27.014 -0.18 -0.01    -0.078 Cl ATOM     47  F   UNL     1      43.379  49.645  25.671 -0.12 -0.01    -0.183 F  ENDBRANCH  37  40ENDBRANCH  27  36ENDBRANCH  24  27ENDBRANCH   3  24TORSDOF 9TERENDMDL