MODEL        7USER    Run = 7USERUSER    Estimated Free Energy of Binding    =  -9.85 kcal/mol  [=(1)+(2)+(3)-(4)]USERUSER    (1) Final Intermolecular Energy     = -13.13 kcal/molUSER        vdW + Hbond + desolv Energy     = -13.05 kcal/molUSER        Electrostatic Energy            =  -0.08 kcal/molUSER        Moving Ligand-Fixed Receptor    = -13.13 kcal/molUSER        Moving Ligand-Moving Receptor   =  +0.00 kcal/molUSER    (2) Final Total Internal Energy     =  -3.02 kcal/molUSER    (3) Torsional Free Energy           =  +3.28 kcal/molUSER    (4) Unbound System's Energy         =  -3.02 kcal/molUSERUSERREMARK SMILES COc1cc(F)c(O)c(C(=O)c2ccc(C(=O)N[C@@H]3CCN(C)C[C@@H]3NC(=O)c3cnc(OCC(F)F)nc3)cc2)c1REMARK SMILES IDX 19 1 20 2 21 3 22 4 23 5 24 6 25 7 18 8 16 9 17 10 15 12REMARK SMILES IDX 12 13 13 14 41 15 14 16 40 17 10 18 11 19 9 20 3 21 4 22REMARK SMILES IDX 42 23 5 24 7 25 6 26 2 27 1 28 8 29 26 31 27 32 28 34 29 35REMARK SMILES IDX 30 36 39 37 31 38 38 39 32 40 33 41 34 42 35 43 36 44 37 45REMARK H PARENT 18 11 8 30 26 33USER                              x       y       z     vdW  Elec       q    TypeUSER                           _______ _______ _______ _____ _____    ______ ____ROOTATOM      1  C   UNL     1      39.786  44.737  21.650 -0.28 +0.00    +0.107 C  ATOM      2  C   UNL     1      39.627  46.036  22.453 -0.29 +0.00    +0.042 C  ATOM      3  C   UNL     1      40.857  46.292  23.327 -0.21 +0.01    +0.086 C  ATOM      4  N   UNL     1      42.105  46.284  22.540 -0.09 -0.05    -0.304 NA ATOM      5  C   UNL     1      43.251  46.541  23.417 -0.16 +0.02    +0.105 C  ATOM      6  C   UNL     1      42.271  44.987  21.849 -0.25 +0.02    +0.111 C  ATOM      7  C   UNL     1      41.114  44.769  20.851 -0.32 +0.01    +0.118 C  ENDROOTBRANCH   1   8ATOM      8  N   UNL     1      38.627  44.477  20.801 -0.14 -0.00    -0.347 N  ATOM      9  C   UNL     1      37.406  44.123  21.328 -0.28 +0.01    +0.251 C  ATOM     10  O   UNL     1      37.185  44.056  22.532 -0.28 -0.03    -0.269 OA ATOM     11  H   UNL     1      38.813  44.312  19.812 +0.10 -0.01    +0.164 HD BRANCH   9  12ATOM     12  C   UNL     1      36.335  43.774  20.355 -0.39 -0.00    +0.039 A  ATOM     13  C   UNL     1      34.327  43.014  18.560 -0.35 -0.00    +0.023 A  ATOM     14  C   UNL     1      35.103  42.036  19.189 -0.29 -0.00    +0.013 A  ATOM     15  C   UNL     1      34.561  44.371  18.809 -0.36 -0.00    +0.013 A  ATOM     16  C   UNL     1      36.095  42.417  20.095 -0.43 -0.00    +0.014 A  ATOM     17  C   UNL     1      35.561  44.751  19.711 -0.25 -0.00    +0.014 A  BRANCH  13  18ATOM     18  C   UNL     1      33.291  42.582  17.596 -0.28 -0.06    +0.196 C  ATOM     19  O   UNL     1      33.268  43.096  16.481 -0.22 +0.13    -0.288 OA BRANCH  18  20ATOM     20  C   UNL     1      32.263  41.564  17.939 -0.33 -0.02    +0.071 A  ATOM     21  C   UNL     1      31.416  39.798  19.391 -0.30 +0.01    +0.122 A  ATOM     22  C   UNL     1      30.304  39.652  18.566 -0.28 +0.01    +0.089 A  ATOM     23  C   UNL     1      32.391  40.752  19.076 -0.26 +0.00    +0.062 A  ATOM     24  C   UNL     1      30.187  40.443  17.425 -0.24 -0.01    +0.169 A  ATOM     25  C   UNL     1      31.158  41.387  17.097 -0.19 -0.05    +0.162 A  ATOM     26  F   UNL     1      29.111  40.279  16.641 -0.10 -0.01    -0.203 F  BRANCH  21  27ATOM     27  O   UNL     1      31.666  39.086  20.533 -0.83 -0.13    -0.497 OA ATOM     28  C   UNL     1      31.520  37.671  20.453 -0.36 +0.06    +0.278 C  ENDBRANCH  21  27BRANCH  25  29ATOM     29  O   UNL     1      30.981  42.111  15.945 -0.10 +0.26    -0.504 OA ATOM     30  H   UNL     1      31.810  42.052  15.418 -0.34 -0.24    +0.293 HD ENDBRANCH  25  29ENDBRANCH  18  20ENDBRANCH  13  18ENDBRANCH   9  12ENDBRANCH   1   8BRANCH   7  31ATOM     31  N   UNL     1      41.149  45.839  19.835 -0.19 -0.03    -0.346 N  ATOM     32  C   UNL     1      40.549  45.741  18.607 -0.35 -0.01    +0.254 C  ATOM     33  H   UNL     1      41.599  46.690  20.153 +0.09 +0.02    +0.164 HD ATOM     34  O   UNL     1      39.920  44.749  18.250 -0.28 +0.01    -0.269 OA BRANCH  32  35ATOM     35  C   UNL     1      40.678  46.886  17.689 -0.46 -0.01    +0.076 A  ATOM     36  C   UNL     1      41.608  47.872  17.944 -0.37 -0.01    +0.132 A  ATOM     37  C   UNL     1      39.942  47.061  16.539 -0.40 -0.03    +0.132 A  ATOM     38  N   UNL     1      41.787  48.961  17.161 -0.80 -0.03    -0.203 NA ATOM     39  N   UNL     1      40.081  48.127  15.719 -0.37 +0.05    -0.203 NA ATOM     40  C   UNL     1      41.000  49.037  16.073 -0.32 -0.04    +0.316 A  BRANCH  40  41ATOM     41  O   UNL     1      41.111  50.111  15.221 -0.43 +0.13    -0.457 OA BRANCH  41  42ATOM     42  C   UNL     1      41.329  49.725  13.860 -0.31 -0.08    +0.306 C  BRANCH  42  43ATOM     43  C   UNL     1      42.612  50.355  13.347 -0.40 -0.11    +0.379 C  ATOM     44  F   UNL     1      43.425  49.413  12.804 -0.20 +0.05    -0.207 F  ATOM     45  F   UNL     1      43.295  50.941  14.362 -0.17 +0.05    -0.207 F  ENDBRANCH  42  43ENDBRANCH  41  42ENDBRANCH  40  41ENDBRANCH  32  35ENDBRANCH   7  31TORSDOF 11TERENDMDL