REMARK SMILES COc1cc(F)c(O)c(C(=O)c2ccc(C(=O)N[C@@H]3CCN(C)C[C@@H]3NC(=O)c3cnc(OCC(F)F)nc3)cc2)c1
REMARK SMILES IDX 19 1 20 2 21 3 22 4 23 5 24 6 25 7 18 8 16 9 17 10 15 12
REMARK SMILES IDX 12 13 13 14 41 15 14 16 40 17 10 18 11 19 9 20 3 21 4 22
REMARK SMILES IDX 42 23 5 24 7 25 6 26 2 27 1 28 8 29 26 31 27 32 28 34 29 35
REMARK SMILES IDX 30 36 39 37 31 38 38 39 32 40 33 41 34 42 35 43 36 44 37 45
REMARK H PARENT 18 11 8 30 26 33
ROOT
ATOM      1  C   UNL     1       1.261  -3.658   0.711  1.00  0.00     0.107 C 
ATOM      2  C   UNL     1       1.571  -3.471   2.203  1.00  0.00     0.042 C 
ATOM      3  C   UNL     1       2.721  -4.382   2.640  1.00  0.00     0.086 C 
ATOM      4  N   UNL     1       3.922  -4.195   1.803  1.00  0.00    -0.304 NA
ATOM      5  C   UNL     1       4.995  -5.080   2.264  1.00  0.00     0.105 C 
ATOM      6  C   UNL     1       3.609  -4.467   0.383  1.00  0.00     0.111 C 
ATOM      7  C   UNL     1       2.551  -3.465  -0.126  1.00  0.00     0.118 C 
ENDROOT
BRANCH   1   8
ATOM      8  N   UNL     1       0.172  -2.791   0.269  1.00  0.00    -0.347 N 
ATOM      9  C   UNL     1      -1.142  -3.061   0.579  1.00  0.00     0.251 C 
ATOM     10  O   UNL     1      -1.489  -4.001   1.285  1.00  0.00    -0.269 OA
ATOM     11  H   UNL     1       0.385  -2.136  -0.483  1.00  0.00     0.164 HD
BRANCH   9  12
ATOM     12  C   UNL     1      -2.167  -2.166  -0.025  1.00  0.00     0.039 A 
ATOM     13  C   UNL     1      -4.171  -0.556  -1.131  1.00  0.00     0.023 A 
ATOM     14  C   UNL     1      -4.450  -1.887  -0.805  1.00  0.00     0.013 A 
ATOM     15  C   UNL     1      -2.890  -0.031  -0.925  1.00  0.00     0.013 A 
ATOM     16  C   UNL     1      -3.452  -2.684  -0.240  1.00  0.00     0.014 A 
ATOM     17  C   UNL     1      -1.890  -0.834  -0.366  1.00  0.00     0.014 A 
BRANCH  13  18
ATOM     18  C   UNL     1      -5.243   0.262  -1.739  1.00  0.00     0.196 C 
ATOM     19  O   UNL     1      -5.887  -0.205  -2.675  1.00  0.00    -0.288 OA
BRANCH  18  20
ATOM     20  C   UNL     1      -5.553   1.639  -1.271  1.00  0.00     0.071 A 
ATOM     21  C   UNL     1      -5.520   3.359   0.457  1.00  0.00     0.122 A 
ATOM     22  C   UNL     1      -6.146   4.246  -0.414  1.00  0.00     0.089 A 
ATOM     23  C   UNL     1      -5.226   2.059   0.027  1.00  0.00     0.062 A 
ATOM     24  C   UNL     1      -6.491   3.823  -1.696  1.00  0.00     0.169 A 
ATOM     25  C   UNL     1      -6.213   2.528  -2.129  1.00  0.00     0.162 A 
ATOM     26  F   UNL     1      -7.101   4.693  -2.514  1.00  0.00    -0.203 F 
BRANCH  21  27
ATOM     27  O   UNL     1      -5.135   3.633   1.741  1.00  0.00    -0.497 OA
ATOM     28  C   UNL     1      -5.519   4.898   2.271  1.00  0.00     0.278 C 
ENDBRANCH  21  27
BRANCH  25  29
ATOM     29  O   UNL     1      -6.604   2.181  -3.397  1.00  0.00    -0.504 OA
ATOM     30  H   UNL     1      -6.498   1.207  -3.492  1.00  0.00     0.293 HD
ENDBRANCH  25  29
ENDBRANCH  18  20
ENDBRANCH  13  18
ENDBRANCH   9  12
ENDBRANCH   1   8
BRANCH   7  31
ATOM     31  N   UNL     1       3.101  -2.099  -0.030  1.00  0.00    -0.346 N 
ATOM     32  C   UNL     1       2.583  -1.022  -0.702  1.00  0.00     0.254 C 
ATOM     33  H   UNL     1       3.858  -2.008   0.638  1.00  0.00     0.164 HD
ATOM     34  O   UNL     1       1.606  -1.105  -1.440  1.00  0.00    -0.269 OA
BRANCH  32  35
ATOM     35  C   UNL     1       3.245   0.281  -0.519  1.00  0.00     0.076 A 
ATOM     36  C   UNL     1       3.109   1.264  -1.476  1.00  0.00     0.132 A 
ATOM     37  C   UNL     1       4.002   0.633   0.576  1.00  0.00     0.132 A 
ATOM     38  N   UNL     1       3.689   2.484  -1.393  1.00  0.00    -0.203 NA
ATOM     39  N   UNL     1       4.602   1.837   0.713  1.00  0.00    -0.203 NA
ATOM     40  C   UNL     1       4.421   2.711  -0.288  1.00  0.00     0.316 A 
BRANCH  40  41
ATOM     41  O   UNL     1       5.050   3.923  -0.120  1.00  0.00    -0.457 OA
BRANCH  41  42
ATOM     42  C   UNL     1       4.922   4.782  -1.258  1.00  0.00     0.306 C 
BRANCH  42  43
ATOM     43  C   UNL     1       5.663   6.083  -1.005  1.00  0.00     0.379 C 
ATOM     44  F   UNL     1       6.975   5.845  -0.748  1.00  0.00    -0.207 F 
ATOM     45  F   UNL     1       5.150   6.722   0.076  1.00  0.00    -0.207 F 
ENDBRANCH  42  43
ENDBRANCH  41  42
ENDBRANCH  40  41
ENDBRANCH  32  35
ENDBRANCH   7  31
TORSDOF 11
