MODEL        4USER    Run = 4USERUSER    Estimated Free Energy of Binding    = -10.30 kcal/mol  [=(1)+(2)+(3)-(4)]USERUSER    (1) Final Intermolecular Energy     = -13.28 kcal/molUSER        vdW + Hbond + desolv Energy     = -12.78 kcal/molUSER        Electrostatic Energy            =  -0.50 kcal/molUSER        Moving Ligand-Fixed Receptor    = -13.28 kcal/molUSER        Moving Ligand-Moving Receptor   =  +0.00 kcal/molUSER    (2) Final Total Internal Energy     =  -2.23 kcal/molUSER    (3) Torsional Free Energy           =  +2.98 kcal/molUSER    (4) Unbound System's Energy         =  -2.23 kcal/molUSERUSERREMARK SMILES COc1cc(F)c(O)c(C(=O)c2ccc(C(=O)N[C@@H]3CCN(C4CC4)C[C@H]3NC(=O)c3cnc(OC)nc3)cc2)c1REMARK SMILES IDX 16 1 17 2 18 3 15 5 12 6 13 7 40 8 14 9 39 10 10 11 11 12REMARK SMILES IDX 9 13 3 14 4 15 41 16 5 17 7 18 6 19 2 20 1 21 8 22 19 24REMARK SMILES IDX 20 25 27 26 21 27 26 28 22 29 28 30 29 31 30 33 31 34 32 35REMARK SMILES IDX 38 36 33 37 37 38 34 39 35 40 36 41 23 42 24 43 25 44REMARK H PARENT 18 4 8 23 28 32USER                              x       y       z     vdW  Elec       q    TypeUSER                           _______ _______ _______ _____ _____    ______ ____ROOTATOM      1  C   UNL     1      38.449  44.139  22.810 -0.22 +0.02    +0.251 C  ATOM      2  O   UNL     1      37.571  43.285  22.707 -0.24 -0.02    -0.269 OA ATOM      3  N   UNL     1      38.916  44.586  24.030 -0.06 -0.02    -0.347 N  ATOM      4  H   UNL     1      39.482  45.420  24.055 +0.08 +0.01    +0.164 HD ENDROOTBRANCH   1   5ATOM      5  C   UNL     1      39.036  44.761  21.589 -0.31 +0.00    +0.039 A  ATOM      6  C   UNL     1      40.225  45.976  19.349 -0.39 -0.00    +0.023 A  ATOM      7  C   UNL     1      40.879  45.986  20.586 -0.30 +0.00    +0.013 A  ATOM      8  C   UNL     1      38.981  45.343  19.228 -0.39 -0.00    +0.013 A  ATOM      9  C   UNL     1      40.284  45.390  21.702 -0.29 +0.00    +0.014 A  ATOM     10  C   UNL     1      38.381  44.752  20.348 -0.36 -0.00    +0.014 A  BRANCH   6  11ATOM     11  C   UNL     1      40.912  46.593  18.188 -0.43 -0.01    +0.196 C  ATOM     12  O   UNL     1      42.131  46.762  18.234 -0.35 +0.01    -0.288 OA BRANCH  11  13ATOM     13  C   UNL     1      40.199  46.985  16.949 -0.45 -0.01    +0.071 A  ATOM     14  C   UNL     1      38.389  46.688  15.355 -0.33 -0.05    +0.122 A  ATOM     15  C   UNL     1      38.914  47.728  14.585 -0.44 -0.03    +0.089 A  ATOM     16  C   UNL     1      39.030  46.318  16.541 -0.38 -0.02    +0.062 A  ATOM     17  C   UNL     1      40.052  48.408  15.008 -0.43 -0.05    +0.169 A  ATOM     18  C   UNL     1      40.689  48.060  16.193 -0.42 -0.03    +0.162 A  ATOM     19  F   UNL     1      40.521  49.414  14.255 -0.15 +0.07    -0.203 F  BRANCH  14  20ATOM     20  O   UNL     1      37.262  46.111  14.840 -0.05 +0.23    -0.497 OA ATOM     21  C   UNL     1      36.021  46.448  15.445 -0.22 -0.23    +0.278 C  ENDBRANCH  14  20BRANCH  18  22ATOM     22  O   UNL     1      41.790  48.783  16.575 -0.68 -0.07    -0.504 OA ATOM     23  H   UNL     1      42.500  48.148  16.815 -0.29 +0.03    +0.293 HD ENDBRANCH  18  22ENDBRANCH  11  13ENDBRANCH   6  11ENDBRANCH   1   5BRANCH   3  24ATOM     24  C   UNL     1      38.364  44.094  25.306 -0.20 +0.00    +0.107 C  ATOM     25  C   UNL     1      38.229  42.564  25.292 -0.30 +0.00    +0.042 C  ATOM     26  C   UNL     1      37.023  44.812  25.667 -0.32 -0.00    +0.118 C  ATOM     27  C   UNL     1      36.817  42.122  24.927 -0.41 -0.00    +0.087 C  ATOM     28  C   UNL     1      36.164  43.876  26.550 -0.39 -0.02    +0.111 C  ATOM     29  N   UNL     1      35.811  42.634  25.853 -0.19 +0.02    -0.298 NA BRANCH  26  30ATOM     30  N   UNL     1      37.294  46.120  26.283 -0.16 +0.03    -0.346 N  ATOM     31  C   UNL     1      37.908  47.140  25.588 -0.24 +0.01    +0.254 C  ATOM     32  H   UNL     1      37.475  46.060  27.284 +0.07 -0.02    +0.164 HD ATOM     33  O   UNL     1      38.123  47.092  24.384 -0.53 -0.05    -0.269 OA BRANCH  31  34ATOM     34  C   UNL     1      38.325  48.344  26.340 -0.26 +0.00    +0.076 A  ATOM     35  C   UNL     1      39.618  48.681  26.679 -0.20 +0.01    +0.132 A  ATOM     36  C   UNL     1      37.365  49.239  26.773 -0.25 +0.01    +0.132 A  ATOM     37  N   UNL     1      39.950  49.800  27.370 -0.18 -0.05    -0.203 NA ATOM     38  N   UNL     1      37.634  50.364  27.474 -0.13 -0.04    -0.203 NA ATOM     39  C   UNL     1      38.928  50.596  27.737 +0.24 +0.13    +0.316 A  BRANCH  39  40ATOM     40  O   UNL     1      39.168  51.746  28.454 -0.52 -0.47    -0.467 OA ATOM     41  C   UNL     1      38.949  51.590  29.849 -0.13 +0.15    +0.282 C  ENDBRANCH  39  40ENDBRANCH  31  34ENDBRANCH  26  30BRANCH  29  42ATOM     42  C   UNL     1      35.085  41.601  26.601 -0.58 -0.02    +0.056 C  ATOM     43  C   UNL     1      35.819  40.501  27.320 -0.47 -0.01    +0.021 C  ATOM     44  C   UNL     1      35.045  41.524  28.102 -0.51 -0.01    +0.021 C  ENDBRANCH  29  42ENDBRANCH   3  24TORSDOF 10TERENDMDL