REMARK SMILES COc1cc(F)c(O)c(C(=O)c2ccc(C(=O)N[C@@H]3CCN(C4CC4)C[C@H]3NC(=O)c3cnc(OC)nc3)cc2)c1
REMARK SMILES IDX 16 1 17 2 18 3 15 5 12 6 13 7 40 8 14 9 39 10 10 11 11 12
REMARK SMILES IDX 9 13 3 14 4 15 41 16 5 17 7 18 6 19 2 20 1 21 8 22 19 24
REMARK SMILES IDX 20 25 27 26 21 27 26 28 22 29 28 30 29 31 30 33 31 34 32 35
REMARK SMILES IDX 38 36 33 37 37 38 34 39 35 40 36 41 23 42 24 43 25 44
REMARK H PARENT 18 4 8 23 28 32
ROOT
ATOM      1  C   UNL     1      -0.251  -1.324  -0.028  1.00  0.00     0.251 C 
ATOM      2  O   UNL     1      -1.137  -1.403   0.820  1.00  0.00    -0.269 OA
ATOM      3  N   UNL     1      -0.518  -1.201  -1.377  1.00  0.00    -0.347 N 
ATOM      4  H   UNL     1       0.234  -1.344  -2.034  1.00  0.00     0.164 HD
ENDROOT
BRANCH   1   5
ATOM      5  C   UNL     1       1.182  -1.392   0.378  1.00  0.00     0.039 A 
ATOM      6  C   UNL     1       3.851  -1.560   1.244  1.00  0.00     0.023 A 
ATOM      7  C   UNL     1       2.819  -2.063   2.043  1.00  0.00     0.013 A 
ATOM      8  C   UNL     1       3.550  -0.986   0.003  1.00  0.00     0.013 A 
ATOM      9  C   UNL     1       1.491  -1.972   1.617  1.00  0.00     0.014 A 
ATOM     10  C   UNL     1       2.218  -0.888  -0.422  1.00  0.00     0.014 A 
BRANCH   6  11
ATOM     11  C   UNL     1       5.247  -1.710   1.726  1.00  0.00     0.196 C 
ATOM     12  O   UNL     1       5.546  -2.700   2.395  1.00  0.00    -0.288 OA
BRANCH  11  13
ATOM     13  C   UNL     1       6.316  -0.734   1.405  1.00  0.00     0.071 A 
ATOM     14  C   UNL     1       7.054   1.537   0.957  1.00  0.00     0.122 A 
ATOM     15  C   UNL     1       8.351   1.061   0.755  1.00  0.00     0.089 A 
ATOM     16  C   UNL     1       6.035   0.639   1.286  1.00  0.00     0.062 A 
ATOM     17  C   UNL     1       8.633  -0.293   0.906  1.00  0.00     0.169 A 
ATOM     18  C   UNL     1       7.631  -1.194   1.248  1.00  0.00     0.162 A 
ATOM     19  F   UNL     1       9.892  -0.716   0.722  1.00  0.00    -0.203 F 
BRANCH  14  20
ATOM     20  O   UNL     1       6.911   2.887   0.795  1.00  0.00    -0.497 OA
ATOM     21  C   UNL     1       5.652   3.455   1.128  1.00  0.00     0.278 C 
ENDBRANCH  14  20
BRANCH  18  22
ATOM     22  O   UNL     1       7.972  -2.512   1.411  1.00  0.00    -0.504 OA
ATOM     23  H   UNL     1       7.245  -2.953   1.904  1.00  0.00     0.293 HD
ENDBRANCH  18  22
ENDBRANCH  11  13
ENDBRANCH   6  11
ENDBRANCH   1   5
BRANCH   3  24
ATOM     24  C   UNL     1      -1.895  -1.192  -1.904  1.00  0.00     0.107 C 
ATOM     25  C   UNL     1      -1.908  -1.494  -3.410  1.00  0.00     0.042 C 
ATOM     26  C   UNL     1      -2.636   0.139  -1.553  1.00  0.00     0.118 C 
ATOM     27  C   UNL     1      -1.965  -0.221  -4.245  1.00  0.00     0.087 C 
ATOM     28  C   UNL     1      -3.723   0.415  -2.619  1.00  0.00     0.111 C 
ATOM     29  N   UNL     1      -3.148   0.586  -3.958  1.00  0.00    -0.298 NA
BRANCH  26  30
ATOM     30  N   UNL     1      -3.158   0.084  -0.178  1.00  0.00    -0.346 N 
ATOM     31  C   UNL     1      -3.711   1.187   0.436  1.00  0.00     0.254 C 
ATOM     32  H   UNL     1      -2.660  -0.581   0.412  1.00  0.00     0.164 HD
ATOM     33  O   UNL     1      -3.952   2.231  -0.157  1.00  0.00    -0.269 OA
BRANCH  31  34
ATOM     34  C   UNL     1      -4.022   1.099   1.880  1.00  0.00     0.076 A 
ATOM     35  C   UNL     1      -3.682   0.062   2.722  1.00  0.00     0.132 A 
ATOM     36  C   UNL     1      -4.727   2.123   2.484  1.00  0.00     0.132 A 
ATOM     37  N   UNL     1      -3.990   0.029   4.042  1.00  0.00    -0.203 NA
ATOM     38  N   UNL     1      -5.072   2.141   3.792  1.00  0.00    -0.203 NA
ATOM     39  C   UNL     1      -4.678   1.084   4.517  1.00  0.00     0.316 A 
BRANCH  39  40
ATOM     40  O   UNL     1      -5.047   1.131   5.842  1.00  0.00    -0.467 OA
ATOM     41  C   UNL     1      -4.527   0.051   6.605  1.00  0.00     0.282 C 
ENDBRANCH  39  40
ENDBRANCH  31  34
ENDBRANCH  26  30
BRANCH  29  42
ATOM     42  C   UNL     1      -4.066   0.751  -5.091  1.00  0.00     0.056 C 
ATOM     43  C   UNL     1      -4.976  -0.367  -5.524  1.00  0.00     0.021 C 
ATOM     44  C   UNL     1      -5.556   0.894  -4.949  1.00  0.00     0.021 C 
ENDBRANCH  29  42
ENDBRANCH   3  24
TORSDOF 10
