REMARK SMILES CNC1=C(c2ccc(N3CCOCC3)cc2)C=C(C2=NC=c3ccccc3=[SH]2)N[C@H]1N
REMARK SMILES IDX 3 1 4 2 17 3 18 4 29 5 30 6 2 8 1 9 5 11 6 12 16 13 7 14
REMARK SMILES IDX 15 15 8 16 9 17 10 18 14 19 11 20 13 21 12 22 31 23 19 26
REMARK SMILES IDX 20 27 28 28 21 29 27 30 22 31 26 32 23 33 25 34 24 35
REMARK H PARENT 29 7 2 10 31 24 31 25 28 36
ROOT
ATOM      1  C   UNL     1      -0.221  -2.470  -1.228  1.00  0.00     0.056 C 
ATOM      2  C   UNL     1      -0.114  -1.338  -0.478  1.00  0.00     0.006 C 
ATOM      3  C   UNL     1      -1.325  -0.712   0.050  1.00  0.00     0.039 C 
ATOM      4  C   UNL     1      -2.551  -1.084  -0.356  1.00  0.00     0.068 C 
ATOM      5  N   UNL     1      -2.695  -2.113  -1.283  1.00  0.00    -0.363 N 
ATOM      6  C   UNL     1      -1.642  -3.087  -1.468  1.00  0.00     0.193 C 
ATOM      7  H   UNL     1      -3.608  -2.552  -1.219  1.00  0.00     0.162 HD
ENDROOT
BRANCH   1   8
ATOM      8  N   UNL     1       0.820  -3.207  -1.838  1.00  0.00    -0.388 N 
ATOM      9  C   UNL     1       1.985  -2.625  -2.479  1.00  0.00     0.139 C 
ATOM     10  H   UNL     1       0.374  -3.907  -2.447  1.00  0.00     0.160 HD
ENDBRANCH   1   8
BRANCH   2  11
ATOM     11  C   UNL     1       1.192  -0.741  -0.129  1.00  0.00    -0.016 A 
ATOM     12  C   UNL     1       2.020  -1.335   0.822  1.00  0.00     0.011 A 
ATOM     13  C   UNL     1       1.595   0.462  -0.709  1.00  0.00     0.011 A 
ATOM     14  C   UNL     1       3.243  -0.742   1.168  1.00  0.00     0.026 A 
ATOM     15  C   UNL     1       2.819   1.046  -0.354  1.00  0.00     0.026 A 
ATOM     16  C   UNL     1       3.678   0.463   0.591  1.00  0.00     0.037 A 
BRANCH  16  17
ATOM     17  N   UNL     1       4.887   1.042   0.932  1.00  0.00    -0.367 N 
ATOM     18  C   UNL     1       5.963   0.282   1.589  1.00  0.00     0.145 C 
ATOM     19  C   UNL     1       5.168   2.466   0.689  1.00  0.00     0.145 C 
ATOM     20  C   UNL     1       7.327   0.910   1.255  1.00  0.00     0.181 C 
ATOM     21  C   UNL     1       6.208   2.982   1.698  1.00  0.00     0.181 C 
ATOM     22  O   UNL     1       7.459   2.280   1.661  1.00  0.00    -0.378 OA
ENDBRANCH  16  17
ENDBRANCH   2  11
BRANCH   6  23
ATOM     23  N   UNL     1      -1.661  -3.731  -2.782  1.00  0.00    -0.306 NA
ATOM     24  H   UNL     1      -2.600  -4.095  -2.912  1.00  0.00     0.121 HD
ATOM     25  H   UNL     1      -1.587  -2.956  -3.441  1.00  0.00     0.121 HD
ENDBRANCH   6  23
BRANCH   4  26
ATOM     26  C   UNL     1      -3.745  -0.395   0.183  1.00  0.00     0.112 C 
ATOM     27  N   UNL     1      -3.679   0.216   1.389  1.00  0.00    -0.248 NA
ATOM     28  S   UNL     1      -5.311  -0.555  -0.644  1.00  0.00    -0.141 S 
ATOM     29  C   UNL     1      -4.635   1.052   1.866  1.00  0.00     0.121 C 
ATOM     30  C   UNL     1      -6.172   0.869   0.030  1.00  0.00     0.010 A 
ATOM     31  C   UNL     1      -5.802   1.463   1.237  1.00  0.00     0.006 A 
ATOM     32  C   UNL     1      -7.319   1.312  -0.644  1.00  0.00     0.015 A 
ATOM     33  C   UNL     1      -6.607   2.483   1.773  1.00  0.00     0.011 A 
ATOM     34  C   UNL     1      -8.100   2.340  -0.116  1.00  0.00     0.001 A 
ATOM     35  C   UNL     1      -7.748   2.922   1.098  1.00  0.00     0.001 A 
ATOM     36  H   UNL     1      -4.973  -0.101  -1.873  1.00  0.00     0.104 HD
ENDBRANCH   4  26
TORSDOF 5
