MODEL        1USER    Run = 1USERUSER    Estimated Free Energy of Binding    = -10.34 kcal/mol  [=(1)+(2)+(3)-(4)]USERUSER    (1) Final Intermolecular Energy     = -11.83 kcal/molUSER        vdW + Hbond + desolv Energy     = -11.81 kcal/molUSER        Electrostatic Energy            =  -0.02 kcal/molUSER        Moving Ligand-Fixed Receptor    = -11.83 kcal/molUSER        Moving Ligand-Moving Receptor   =  +0.00 kcal/molUSER    (2) Final Total Internal Energy     =  -2.08 kcal/molUSER    (3) Torsional Free Energy           =  +1.49 kcal/molUSER    (4) Unbound System's Energy         =  -2.08 kcal/molUSERUSERREMARK SMILES CNC1=C(c2ccc(N3CCOCC3)cc2)C=C(C2=NC=c3ccccc3=[SH]2)N[C@H]1NREMARK SMILES IDX 3 1 4 2 17 3 18 4 29 5 30 6 2 8 1 9 5 11 6 12 16 13 7 14REMARK SMILES IDX 15 15 8 16 9 17 10 18 14 19 11 20 13 21 12 22 31 23 19 26REMARK SMILES IDX 20 27 28 28 21 29 27 30 22 31 26 32 23 33 25 34 24 35REMARK H PARENT 29 7 2 10 31 24 31 25 28 36USER                              x       y       z     vdW  Elec       q    TypeUSER                           _______ _______ _______ _____ _____    ______ ____ROOTATOM      1  C   UNL     1      41.821  46.131  20.344 -0.41 +0.01    +0.056 C  ATOM      2  C   UNL     1      40.484  45.873  20.296 -0.39 +0.00    +0.006 C  ATOM      3  C   UNL     1      39.752  46.123  19.056 -0.40 -0.00    +0.039 C  ATOM      4  C   UNL     1      40.299  46.799  18.032 -0.49 -0.01    +0.068 C  ATOM      5  N   UNL     1      41.610  47.259  18.123 -0.28 +0.02    -0.363 N  ATOM      6  C   UNL     1      42.538  46.651  19.051 -0.40 +0.03    +0.193 C  ATOM      7  H   UNL     1      42.026  47.393  17.207 -0.42 -0.03    +0.162 HD ENDROOTBRANCH   1   8ATOM      8  N   UNL     1      42.694  45.975  21.445 -0.10 -0.11    -0.388 N  ATOM      9  C   UNL     1      42.529  46.621  22.734 -0.21 +0.02    +0.139 C  ATOM     10  H   UNL     1      43.652  46.102  21.088 +0.07 +0.10    +0.160 HD ENDBRANCH   1   8BRANCH   2  11ATOM     11  C   UNL     1      39.748  45.297  21.440 -0.31 -0.00    -0.016 A  ATOM     12  C   UNL     1      39.508  43.927  21.521 -0.24 +0.00    +0.011 A  ATOM     13  C   UNL     1      39.232  46.127  22.436 -0.26 +0.00    +0.011 A  ATOM     14  C   UNL     1      38.781  43.395  22.596 -0.28 +0.00    +0.026 A  ATOM     15  C   UNL     1      38.505  45.584  23.505 -0.30 +0.00    +0.026 A  ATOM     16  C   UNL     1      38.259  44.207  23.618 -0.27 +0.00    +0.037 A  BRANCH  16  17ATOM     17  N   UNL     1      37.546  43.678  24.679 -0.10 -0.02    -0.367 N  ATOM     18  C   UNL     1      37.024  42.302  24.665 -0.36 -0.00    +0.145 C  ATOM     19  C   UNL     1      37.234  44.467  25.881 -0.29 -0.01    +0.145 C  ATOM     20  C   UNL     1      36.893  41.777  26.105 -0.33 -0.03    +0.181 C  ATOM     21  C   UNL     1      35.953  43.936  26.547 -0.34 -0.03    +0.181 C  ATOM     22  O   UNL     1      36.024  42.557  26.938 -0.22 +0.08    -0.378 OA ENDBRANCH  16  17ENDBRANCH   2  11BRANCH   6  23ATOM     23  N   UNL     1      43.639  47.533  19.444 -0.22 -0.08    -0.306 NA ATOM     24  H   UNL     1      43.498  48.409  18.950 -0.47 -0.01    +0.121 HD ATOM     25  H   UNL     1      43.448  47.749  20.422 -0.40 +0.01    +0.121 HD ENDBRANCH   6  23BRANCH   4  26ATOM     26  C   UNL     1      39.503  47.056  16.810 -0.45 -0.03    +0.112 C  ATOM     27  N   UNL     1      40.025  47.813  15.817 -0.32 +0.06    -0.248 NA ATOM     28  S   UNL     1      37.797  46.559  16.741 -0.44 +0.06    -0.141 S  ATOM     29  C   UNL     1      39.475  47.923  14.582 -0.48 -0.04    +0.121 C  ATOM     30  C   UNL     1      37.541  46.552  14.965 -0.40 -0.00    +0.010 A  ATOM     31  C   UNL     1      38.342  47.288  14.092 -0.48 -0.00    +0.006 A  ATOM     32  C   UNL     1      36.424  45.861  14.473 -0.40 -0.01    +0.015 A  ATOM     33  C   UNL     1      37.996  47.348  12.730 -0.32 -0.00    +0.011 A  ATOM     34  C   UNL     1      36.101  45.907  13.117 -0.52 -0.00    +0.001 A  ATOM     35  C   UNL     1      36.883  46.658  12.245 -0.67 -0.00    +0.001 A  ATOM     36  H   UNL     1      37.930  45.236  16.994 +0.07 -0.03    +0.104 HD ENDBRANCH   4  26TORSDOF 5TERENDMDL