REMARK SMILES CNC1=C(c2ccc(N3CCOCC3)cc2)C=C(c2ccc3cccc(F)c3c2)N[C@H]1N
REMARK SMILES IDX 3 1 4 2 17 3 18 4 30 5 31 6 2 8 1 9 5 11 6 12 16 13 7 14
REMARK SMILES IDX 15 15 8 16 9 17 10 18 14 19 11 20 13 21 12 22 32 23 19 26
REMARK SMILES IDX 20 27 29 28 21 29 28 30 22 31 26 32 23 33 25 34 24 35 27 36
REMARK H PARENT 30 7 2 10 32 24 32 25
ROOT
ATOM      1  C   UNL     1       0.003  -0.465  -2.618  1.00  0.00     0.056 C 
ATOM      2  C   UNL     1      -0.036  -0.124  -1.299  1.00  0.00     0.006 C 
ATOM      3  C   UNL     1      -1.315  -0.022  -0.606  1.00  0.00     0.037 C 
ATOM      4  C   UNL     1      -2.473  -0.138  -1.272  1.00  0.00     0.044 C 
ATOM      5  N   UNL     1      -2.490  -0.321  -2.635  1.00  0.00    -0.364 N 
ATOM      6  C   UNL     1      -1.330  -0.682  -3.410  1.00  0.00     0.193 C 
ATOM      7  H   UNL     1      -3.362  -0.663  -3.020  1.00  0.00     0.162 HD
ENDROOT
BRANCH   1   8
ATOM      8  N   UNL     1       1.207  -0.601  -3.358  1.00  0.00    -0.388 N 
ATOM      9  C   UNL     1       1.506  -1.818  -4.104  1.00  0.00     0.139 C 
ATOM     10  H   UNL     1       2.009  -0.343  -2.781  1.00  0.00     0.160 HD
ENDBRANCH   1   8
BRANCH   2  11
ATOM     11  C   UNL     1       1.216   0.090  -0.544  1.00  0.00    -0.016 A 
ATOM     12  C   UNL     1       1.774   1.364  -0.445  1.00  0.00     0.011 A 
ATOM     13  C   UNL     1       1.854  -0.976   0.089  1.00  0.00     0.011 A 
ATOM     14  C   UNL     1       2.961   1.560   0.274  1.00  0.00     0.026 A 
ATOM     15  C   UNL     1       3.041  -0.766   0.805  1.00  0.00     0.026 A 
ATOM     16  C   UNL     1       3.626   0.505   0.921  1.00  0.00     0.037 A 
BRANCH  16  17
ATOM     17  N   UNL     1       4.798   0.709   1.626  1.00  0.00    -0.367 N 
ATOM     18  C   UNL     1       5.157   2.031   2.167  1.00  0.00     0.145 C 
ATOM     19  C   UNL     1       5.698  -0.395   1.997  1.00  0.00     0.145 C 
ATOM     20  C   UNL     1       6.000   1.873   3.445  1.00  0.00     0.181 C 
ATOM     21  C   UNL     1       7.121   0.144   2.224  1.00  0.00     0.181 C 
ATOM     22  O   UNL     1       7.216   1.136   3.255  1.00  0.00    -0.378 OA
ENDBRANCH  16  17
ENDBRANCH   2  11
BRANCH   6  23
ATOM     23  N   UNL     1      -1.252   0.018  -4.687  1.00  0.00    -0.306 NA
ATOM     24  H   UNL     1      -0.258   0.023  -4.927  1.00  0.00     0.121 HD
ATOM     25  H   UNL     1      -1.448   0.988  -4.450  1.00  0.00     0.121 HD
ENDBRANCH   6  23
BRANCH   4  26
ATOM     26  C   UNL     1      -3.769  -0.032  -0.573  1.00  0.00    -0.002 A 
ATOM     27  C   UNL     1      -4.756   0.836  -1.055  1.00  0.00     0.011 A 
ATOM     28  C   UNL     1      -4.046  -0.802   0.565  1.00  0.00     0.022 A 
ATOM     29  C   UNL     1      -5.991   0.943  -0.407  1.00  0.00     0.009 A 
ATOM     30  C   UNL     1      -5.284  -0.706   1.229  1.00  0.00     0.018 A 
ATOM     31  C   UNL     1      -6.268   0.180   0.736  1.00  0.00    -0.015 A 
ATOM     32  C   UNL     1      -5.574  -1.463   2.374  1.00  0.00     0.131 A 
ATOM     33  C   UNL     1      -7.503   0.280   1.402  1.00  0.00     0.009 A 
ATOM     34  C   UNL     1      -6.799  -1.358   3.028  1.00  0.00     0.040 A 
ATOM     35  C   UNL     1      -7.766  -0.483   2.543  1.00  0.00     0.004 A 
ATOM     36  F   UNL     1      -4.659  -2.312   2.869  1.00  0.00    -0.206 F 
ENDBRANCH   4  26
TORSDOF 5
