MODEL        10USER    Run = 10USERUSER    Estimated Free Energy of Binding    = -10.85 kcal/mol  [=(1)+(2)+(3)-(4)]USERUSER    (1) Final Intermolecular Energy     = -12.34 kcal/molUSER        vdW + Hbond + desolv Energy     = -12.25 kcal/molUSER        Electrostatic Energy            =  -0.09 kcal/molUSER        Moving Ligand-Fixed Receptor    = -12.34 kcal/molUSER        Moving Ligand-Moving Receptor   =  +0.00 kcal/molUSER    (2) Final Total Internal Energy     =  -1.15 kcal/molUSER    (3) Torsional Free Energy           =  +1.49 kcal/molUSER    (4) Unbound System's Energy         =  -1.15 kcal/molUSERUSERREMARK SMILES CNC1=C(c2ccc(N3CCOCC3)cc2)C=C(c2ccc3cccc(F)c3c2)N[C@H]1NREMARK SMILES IDX 3 1 4 2 17 3 18 4 30 5 31 6 2 8 1 9 5 11 6 12 16 13 7 14REMARK SMILES IDX 15 15 8 16 9 17 10 18 14 19 11 20 13 21 12 22 32 23 19 26REMARK SMILES IDX 20 27 29 28 21 29 28 30 22 31 26 32 23 33 25 34 24 35 27 36REMARK H PARENT 30 7 2 10 32 24 32 25USER                              x       y       z     vdW  Elec       q    TypeUSER                           _______ _______ _______ _____ _____    ______ ____ROOTATOM      1  C   UNL     1      41.659  46.034  20.446 -0.39 +0.01    +0.056 C  ATOM      2  C   UNL     1      40.317  45.828  20.332 -0.38 +0.00    +0.006 C  ATOM      3  C   UNL     1      39.639  46.098  19.069 -0.39 -0.00    +0.037 C  ATOM      4  C   UNL     1      40.290  46.665  18.043 -0.51 -0.00    +0.044 C  ATOM      5  N   UNL     1      41.607  47.042  18.162 -0.27 +0.02    -0.364 N  ATOM      6  C   UNL     1      42.466  46.625  19.242 -0.40 +0.03    +0.193 C  ATOM      7  H   UNL     1      42.096  47.207  17.291 -0.42 -0.04    +0.162 HD ENDROOTBRANCH   1   8ATOM      8  N   UNL     1      42.393  45.779  21.634 -0.09 -0.09    -0.388 N  ATOM      9  C   UNL     1      42.669  44.418  22.080 -0.23 +0.03    +0.139 C  ATOM     10  H   UNL     1      42.015  46.327  22.409 +0.08 +0.02    +0.160 HD ENDBRANCH   1   8BRANCH   2  11ATOM     11  C   UNL     1      39.545  45.277  21.464 -0.32 -0.00    -0.016 A  ATOM     12  C   UNL     1      39.435  45.988  22.659 -0.29 +0.00    +0.011 A  ATOM     13  C   UNL     1      38.906  44.042  21.354 -0.30 +0.00    +0.011 A  ATOM     14  C   UNL     1      38.700  45.460  23.729 -0.28 +0.00    +0.026 A  ATOM     15  C   UNL     1      38.174  43.525  22.433 -0.32 +0.00    +0.026 A  ATOM     16  C   UNL     1      38.047  44.218  23.647 -0.29 +0.00    +0.037 A  BRANCH  16  17ATOM     17  N   UNL     1      37.326  43.705  24.710 -0.12 -0.02    -0.367 N  ATOM     18  C   UNL     1      36.896  42.297  24.747 -0.37 -0.00    +0.145 C  ATOM     19  C   UNL     1      37.053  44.485  25.928 -0.30 -0.01    +0.145 C  ATOM     20  C   UNL     1      36.818  41.802  26.202 -0.35 -0.03    +0.181 C  ATOM     21  C   UNL     1      35.806  43.929  26.637 -0.34 -0.03    +0.181 C  ATOM     22  O   UNL     1      35.917  42.554  27.027 -0.23 +0.09    -0.378 OA ENDBRANCH  16  17ENDBRANCH   2  11BRANCH   6  23ATOM     23  N   UNL     1      43.341  47.688  19.722 -0.13 -0.04    -0.306 NA ATOM     24  H   UNL     1      42.919  48.004  20.599 -0.35 -0.00    +0.121 HD ATOM     25  H   UNL     1      43.170  48.459  19.080 -0.48 -0.01    +0.121 HD ENDBRANCH   6  23BRANCH   4  26ATOM     26  C   UNL     1      39.605  46.942  16.765 -0.48 +0.00    -0.002 A  ATOM     27  C   UNL     1      39.858  48.136  16.079 -0.53 -0.00    +0.011 A  ATOM     28  C   UNL     1      38.711  46.019  16.204 -0.38 -0.01    +0.022 A  ATOM     29  C   UNL     1      39.221  48.410  14.864 -0.53 -0.00    +0.009 A  ATOM     30  C   UNL     1      38.061  46.280  14.982 -0.39 -0.01    +0.018 A  ATOM     31  C   UNL     1      38.320  47.492  14.305 -0.49 +0.01    -0.015 A  ATOM     32  C   UNL     1      37.157  45.371  14.413 -0.31 -0.05    +0.131 A  ATOM     33  C   UNL     1      37.668  47.755  13.087 -0.45 -0.00    +0.009 A  ATOM     34  C   UNL     1      36.515  45.639  13.206 -0.48 -0.02    +0.040 A  ATOM     35  C   UNL     1      36.769  46.835  12.542 -0.65 -0.00    +0.004 A  ATOM     36  F   UNL     1      36.888  44.211  15.033 -0.10 +0.07    -0.206 F  ENDBRANCH   4  26TORSDOF 5TERENDMDL