MODEL        5USER    Run = 5USERUSER    Estimated Free Energy of Binding    =  -8.42 kcal/mol  [=(1)+(2)+(3)-(4)]USERUSER    (1) Final Intermolecular Energy     =  -9.32 kcal/molUSER        vdW + Hbond + desolv Energy     =  -9.20 kcal/molUSER        Electrostatic Energy            =  -0.12 kcal/molUSER        Moving Ligand-Fixed Receptor    =  -9.32 kcal/molUSER        Moving Ligand-Moving Receptor   =  +0.00 kcal/molUSER    (2) Final Total Internal Energy     =  -0.28 kcal/molUSER    (3) Torsional Free Energy           =  +0.89 kcal/molUSER    (4) Unbound System's Energy         =  -0.28 kcal/molUSERUSERREMARK SMILES Cc1c(C(=O)Nc2nc3ccccc3s2)ccnc1NREMARK SMILES IDX 1 1 2 2 3 3 16 4 17 5 18 6 19 7 4 8 6 9 5 10 7 12 8 13 15 14REMARK SMILES IDX 9 15 14 16 10 17 13 18 11 19 12 20 20 21REMARK H PARENT 6 11 20 22 20 23USER                              x       y       z     vdW  Elec       q    TypeUSER                           _______ _______ _______ _____ _____    ______ ____ROOTATOM      1  C   UNL     1      36.809  30.886  23.394 -0.46 +0.00    +0.049 C  ATOM      2  C   UNL     1      36.969  30.049  22.158 -0.37 -0.00    +0.004 A  ATOM      3  C   UNL     1      35.979  29.155  21.717 -0.35 -0.01    +0.048 A  ATOM      4  C   UNL     1      36.199  28.331  20.615 -0.30 -0.01    +0.034 A  ATOM      5  C   UNL     1      37.397  28.463  19.950 -0.20 -0.02    +0.114 A  ATOM      6  N   UNL     1      38.349  29.350  20.305 -0.18 -0.03    -0.239 NA ATOM      7  C   UNL     1      38.129  30.120  21.386 -0.31 +0.01    +0.127 A  ENDROOTBRANCH   3   8ATOM      8  C   UNL     1      34.661  29.022  22.385 -0.35 -0.04    +0.257 C  ATOM      9  N   UNL     1      33.724  29.922  21.939 -0.31 +0.04    -0.298 N  ATOM     10  O   UNL     1      34.523  28.122  23.201 -0.28 +0.03    -0.269 OA ATOM     11  H   UNL     1      33.953  30.556  21.186 -0.47 -0.07    +0.172 HD BRANCH   9  12ATOM     12  C   UNL     1      32.430  30.053  22.371 -0.40 +0.01    +0.190 A  ATOM     13  N   UNL     1      31.498  30.486  21.557 -0.84 +0.01    -0.220 NA ATOM     14  S   UNL     1      31.941  29.699  23.959 -0.53 -0.02    -0.097 S  ATOM     15  C   UNL     1      30.285  30.539  22.227 -0.50 -0.01    +0.084 A  ATOM     16  C   UNL     1      30.326  30.142  23.564 -0.56 +0.01    +0.056 A  ATOM     17  C   UNL     1      29.053  30.949  21.678 -0.41 -0.01    +0.030 A  ATOM     18  C   UNL     1      29.179  30.142  24.375 -0.56 +0.01    +0.021 A  ATOM     19  C   UNL     1      27.904  30.953  22.476 -0.48 -0.00    +0.002 A  ATOM     20  C   UNL     1      27.969  30.554  23.808 -0.51 +0.00    +0.002 A  ENDBRANCH   9  12ENDBRANCH   3   8BRANCH   7  21ATOM     21  N   UNL     1      39.169  30.991  21.698 -0.15 -0.07    -0.383 N  ATOM     22  H   UNL     1      39.591  31.394  20.872 -0.41 +0.02    +0.158 HD ATOM     23  H   UNL     1      39.845  30.454  22.238 -0.27 +0.04    +0.158 HD ENDBRANCH   7  21TORSDOF 3TERENDMDL