REMARK SMILES Cc1c(C(=O)Nc2nc3ccccc3s2)ccnc1N
REMARK SMILES IDX 1 1 2 2 3 3 16 4 17 5 18 6 19 7 4 8 6 9 5 10 7 12 8 13 15 14
REMARK SMILES IDX 9 15 14 16 10 17 13 18 11 19 12 20 20 21
REMARK H PARENT 6 11 20 22 20 23
ROOT
ATOM      1  C   UNL     1      -2.361  -1.655   0.221  1.00  0.00     0.049 C 
ATOM      2  C   UNL     1      -3.003  -0.298   0.198  1.00  0.00     0.004 A 
ATOM      3  C   UNL     1      -2.300   0.876   0.518  1.00  0.00     0.048 A 
ATOM      4  C   UNL     1      -2.951   2.107   0.571  1.00  0.00     0.034 A 
ATOM      5  C   UNL     1      -4.289   2.134   0.248  1.00  0.00     0.114 A 
ATOM      6  N   UNL     1      -4.986   1.041  -0.122  1.00  0.00    -0.239 NA
ATOM      7  C   UNL     1      -4.347  -0.143  -0.144  1.00  0.00     0.127 A 
ENDROOT
BRANCH   3   8
ATOM      8  C   UNL     1      -0.849   0.886   0.826  1.00  0.00     0.257 C 
ATOM      9  N   UNL     1      -0.069   0.372  -0.181  1.00  0.00    -0.298 N 
ATOM     10  O   UNL     1      -0.494   1.381   1.886  1.00  0.00    -0.269 OA
ATOM     11  H   UNL     1      -0.495   0.079  -1.049  1.00  0.00     0.172 HD
BRANCH   9  12
ATOM     12  C   UNL     1       1.295   0.236  -0.185  1.00  0.00     0.190 A 
ATOM     13  N   UNL     1       1.912  -0.245  -1.237  1.00  0.00    -0.220 NA
ATOM     14  S   UNL     1       2.273   0.646   1.142  1.00  0.00    -0.097 S 
ATOM     15  C   UNL     1       3.276  -0.291  -0.994  1.00  0.00     0.084 A 
ATOM     16  C   UNL     1       3.672   0.160   0.266  1.00  0.00     0.056 A 
ATOM     17  C   UNL     1       4.263  -0.744  -1.893  1.00  0.00     0.030 A 
ATOM     18  C   UNL     1       5.019   0.174   0.661  1.00  0.00     0.021 A 
ATOM     19  C   UNL     1       5.608  -0.735  -1.510  1.00  0.00     0.002 A 
ATOM     20  C   UNL     1       5.979  -0.281  -0.248  1.00  0.00     0.002 A 
ENDBRANCH   9  12
ENDBRANCH   3   8
BRANCH   7  21
ATOM     21  N   UNL     1      -5.142  -1.224  -0.513  1.00  0.00    -0.383 N 
ATOM     22  H   UNL     1      -4.752  -1.736  -1.294  1.00  0.00     0.158 HD
ATOM     23  H   UNL     1      -6.061  -0.847  -0.735  1.00  0.00     0.158 HD
ENDBRANCH   7  21
TORSDOF 3
