REMARK SMILES Nc1ccc(-c2cnc3cnc(-c4cccs4)cn23)cc1O
REMARK SMILES IDX 2 1 3 2 4 3 5 4 20 5 21 6 1 7 22 10 6 12 7 13 19 14 8 15
REMARK SMILES IDX 18 16 9 17 12 18 10 19 11 20 13 21 14 22 17 23 15 24 16 25
REMARK H PARENT 1 8 1 9 22 11
ROOT
ATOM      1  C   UNL     1      -3.969   0.291   1.264  1.00  0.00     0.074 A 
ATOM      2  C   UNL     1      -4.061   0.315  -0.128  1.00  0.00     0.030 A 
ATOM      3  C   UNL     1      -3.062  -0.260  -0.921  1.00  0.00     0.013 A 
ATOM      4  C   UNL     1      -1.925  -0.829  -0.334  1.00  0.00     0.004 A 
ATOM      5  C   UNL     1      -1.801  -0.807   1.058  1.00  0.00     0.058 A 
ATOM      6  C   UNL     1      -2.799  -0.223   1.836  1.00  0.00     0.139 A 
ENDROOT
BRANCH   1   7
ATOM      7  N   UNL     1      -4.946   0.955   2.021  1.00  0.00    -0.396 N 
ATOM      8  H   UNL     1      -4.800   1.962   2.039  1.00  0.00     0.156 HD
ATOM      9  H   UNL     1      -5.099   0.570   2.946  1.00  0.00     0.156 HD
ENDBRANCH   1   7
BRANCH   6  10
ATOM     10  O   UNL     1      -2.575  -0.153   3.184  1.00  0.00    -0.506 OA
ATOM     11  H   UNL     1      -3.204   0.496   3.536  1.00  0.00     0.293 HD
ENDBRANCH   6  10
BRANCH   4  12
ATOM     12  C   UNL     1      -0.896  -1.432  -1.171  1.00  0.00     0.073 A 
ATOM     13  C   UNL     1      -0.995  -2.430  -2.131  1.00  0.00     0.140 A 
ATOM     14  N   UNL     1       0.442  -1.088  -1.186  1.00  0.00    -0.296 N 
ATOM     15  N   UNL     1       0.220  -2.717  -2.705  1.00  0.00    -0.235 NA
ATOM     16  C   UNL     1       1.187  -0.140  -0.502  1.00  0.00     0.123 A 
ATOM     17  C   UNL     1       1.051  -1.896  -2.109  1.00  0.00     0.155 A 
ATOM     18  C   UNL     1       2.512  -0.050  -0.750  1.00  0.00     0.097 A 
ATOM     19  C   UNL     1       2.460  -1.747  -2.324  1.00  0.00     0.159 A 
ATOM     20  N   UNL     1       3.167  -0.863  -1.674  1.00  0.00    -0.250 NA
BRANCH  18  21
ATOM     21  C   UNL     1       3.359   0.908  -0.088  1.00  0.00     0.054 A 
ATOM     22  C   UNL     1       4.661   1.266  -0.422  1.00  0.00     0.022 A 
ATOM     23  S   UNL     1       2.871   1.793   1.319  1.00  0.00    -0.142 S 
ATOM     24  C   UNL     1       5.232   2.244   0.442  1.00  0.00     0.012 A 
ATOM     25  C   UNL     1       4.359   2.618   1.433  1.00  0.00     0.065 A 
ENDBRANCH  18  21
ENDBRANCH   4  12
TORSDOF 4
