MODEL        7USER    Run = 7USERUSER    Estimated Free Energy of Binding    =  -8.19 kcal/mol  [=(1)+(2)+(3)-(4)]USERUSER    (1) Final Intermolecular Energy     =  -9.39 kcal/molUSER        vdW + Hbond + desolv Energy     =  -9.34 kcal/molUSER        Electrostatic Energy            =  -0.05 kcal/molUSER        Moving Ligand-Fixed Receptor    =  -9.39 kcal/molUSER        Moving Ligand-Moving Receptor   =  +0.00 kcal/molUSER    (2) Final Total Internal Energy     =  -1.38 kcal/molUSER    (3) Torsional Free Energy           =  +1.19 kcal/molUSER    (4) Unbound System's Energy         =  -1.38 kcal/molUSERUSERREMARK SMILES Cc1c(NSc2ccccc2C=O)ccc2ccccc12REMARK SMILES IDX 5 1 4 2 3 4 2 5 21 6 14 7 20 8 16 9 15 10 19 11 17 12 18 13REMARK SMILES IDX 1 14 6 15 7 16 11 17 8 18 10 19 9 20 12 21 13 22REMARK H PARENT 4 3USER                              x       y       z     vdW  Elec       q    TypeUSER                           _______ _______ _______ _____ _____    ______ ____ROOTATOM      1  S   UNL     1      34.634  44.900  15.496 -0.46 +0.01    -0.015 SA ENDROOTBRANCH   1   2ATOM      2  N   UNL     1      35.265  46.390  15.905 -0.09 +0.37    -0.325 N  ATOM      3  H   UNL     1      34.596  46.952  16.444 -0.14 -0.37    +0.175 HD BRANCH   2   4ATOM      4  C   UNL     1      36.605  46.587  16.340 -0.34 -0.03    +0.048 A  ATOM      5  C   UNL     1      37.456  47.501  15.658 -0.42 +0.01    -0.019 A  ATOM      6  C   UNL     1      38.790  47.740  16.129 -0.45 +0.01    -0.013 A  ATOM      7  C   UNL     1      37.159  45.815  17.370 -0.34 -0.01    +0.027 A  ATOM      8  C   UNL     1      39.667  48.712  15.586 -0.55 -0.00    +0.009 A  ATOM      9  C   UNL     1      39.285  46.968  17.208 -0.43 +0.00    -0.018 A  ATOM     10  C   UNL     1      38.471  46.002  17.800 -0.37 -0.00    +0.011 A  ATOM     11  C   UNL     1      40.965  48.900  16.071 -0.61 -0.00    +0.001 A  ATOM     12  C   UNL     1      40.594  47.162  17.684 -0.50 -0.00    +0.009 A  ATOM     13  C   UNL     1      41.429  48.121  17.120 -0.48 -0.00    +0.001 A  ATOM     14  C   UNL     1      36.937  48.261  14.455 -0.54 -0.04    +0.047 C  ENDBRANCH   2   4ENDBRANCH   1   2BRANCH   1  15ATOM     15  C   UNL     1      34.501  44.141  17.117 -0.28 -0.02    +0.039 A  ATOM     16  C   UNL     1      34.884  42.788  17.177 -0.40 -0.01    +0.017 A  ATOM     17  C   UNL     1      33.998  44.744  18.283 -0.35 -0.01    +0.030 A  ATOM     18  C   UNL     1      34.778  42.054  18.361 -0.40 -0.00    +0.001 A  ATOM     19  C   UNL     1      33.883  43.995  19.470 -0.42 -0.00    +0.013 A  ATOM     20  C   UNL     1      34.276  42.658  19.507 -0.42 -0.00    +0.001 A  BRANCH  17  21ATOM     21  C   UNL     1      33.550  46.156  18.387 -0.32 -0.18    +0.261 C  ATOM     22  O   UNL     1      34.289  47.109  18.595 -1.03 +0.23    -0.298 OA ENDBRANCH  17  21ENDBRANCH   1  15TORSDOF 4TERENDMDL