MODEL        8USER    Run = 8USERUSER    Estimated Free Energy of Binding    = -10.30 kcal/mol  [=(1)+(2)+(3)-(4)]USERUSER    (1) Final Intermolecular Energy     = -12.38 kcal/molUSER        vdW + Hbond + desolv Energy     = -12.26 kcal/molUSER        Electrostatic Energy            =  -0.13 kcal/molUSER        Moving Ligand-Fixed Receptor    = -12.38 kcal/molUSER        Moving Ligand-Moving Receptor   =  +0.00 kcal/molUSER    (2) Final Total Internal Energy     =  -1.41 kcal/molUSER    (3) Torsional Free Energy           =  +2.09 kcal/molUSER    (4) Unbound System's Energy         =  -1.41 kcal/molUSERUSERREMARK SMILES CN(C)C1CCN(C(=O)c2ccc(-c3nc(N=Cc4cncn4C)ccc3C#N)cc2F)CC1REMARK SMILES IDX 14 1 15 2 16 3 25 4 26 5 27 6 13 7 10 8 11 9 31 10 12 11REMARK SMILES IDX 30 12 32 13 8 14 4 15 5 16 34 17 6 18 33 19 7 20 9 21 2 22REMARK SMILES IDX 1 23 3 24 28 25 29 26 17 27 18 28 19 29 20 30 23 31 21 32REMARK SMILES IDX 22 33 24 34REMARK H PARENTUSER                              x       y       z     vdW  Elec       q    TypeUSER                           _______ _______ _______ _____ _____    ______ ____ROOTATOM      1  C   UNL     1      37.749  47.080  15.666 -0.35 -0.05    +0.091 A  ATOM      2  N   UNL     1      38.602  46.916  16.717 -0.26 +0.09    -0.227 NA ATOM      3  C   UNL     1      39.868  47.372  16.601 -0.39 -0.04    +0.152 A  ATOM      4  C   UNL     1      40.336  47.996  15.459 -0.51 -0.01    +0.050 A  ATOM      5  C   UNL     1      39.461  48.187  14.394 -0.46 -0.01    +0.025 A  ATOM      6  C   UNL     1      38.143  47.730  14.492 -0.45 -0.03    +0.078 A  ENDROOTBRANCH   1   7ATOM      7  C   UNL     1      36.404  46.516  15.916 -0.38 -0.00    +0.005 A  ATOM      8  C   UNL     1      33.873  45.408  16.473 -0.26 -0.06    +0.075 A  ATOM      9  C   UNL     1      34.400  45.315  15.184 -0.28 -0.01    +0.017 A  ATOM     10  C   UNL     1      34.587  46.048  17.477 -0.30 -0.12    +0.136 A  ATOM     11  C   UNL     1      35.664  45.854  14.915 -0.37 -0.01    +0.011 A  ATOM     12  C   UNL     1      35.840  46.594  17.205 -0.23 -0.04    +0.050 A  ATOM     13  F   UNL     1      34.105  46.129  18.725 -0.19 +0.12    -0.206 F  BRANCH   8  14ATOM     14  C   UNL     1      32.537  44.869  16.763 -0.19 -0.12    +0.256 C  ATOM     15  C   UNL     1      32.345  40.982  18.235 -0.43 -0.01    +0.059 C  ATOM     16  C   UNL     1      31.040  41.691  17.806 -0.32 -0.01    +0.040 C  ATOM     17  C   UNL     1      33.219  41.908  19.092 -0.42 -0.00    +0.040 C  ATOM     18  C   UNL     1      31.124  43.215  17.884 -0.25 -0.02    +0.121 C  ATOM     19  C   UNL     1      33.577  43.164  18.293 -0.32 -0.03    +0.121 C  ATOM     20  N   UNL     1      32.448  43.714  17.541 -0.08 +0.10    -0.338 N  ATOM     21  O   UNL     1      31.574  45.451  16.270 -0.77 +0.10    -0.269 OA BRANCH  15  22ATOM     22  N   UNL     1      32.045  39.652  18.806 -0.48 -0.02    -0.306 NA ATOM     23  C   UNL     1      30.627  39.507  19.148 -0.34 +0.01    +0.105 C  ATOM     24  C   UNL     1      32.474  38.529  17.969 -0.36 -0.00    +0.105 C  ENDBRANCH  15  22ENDBRANCH   8  14ENDBRANCH   1   7BRANCH   6  25ATOM     25  C   UNL     1      37.250  47.966  13.400 -0.55 -0.04    +0.101 C  ATOM     26  N   UNL     1      36.532  48.135  12.504 -0.98 +0.07    -0.192 NA ENDBRANCH   6  25BRANCH   3  27ATOM     27  N   UNL     1      40.744  47.165  17.669 -0.35 +0.03    -0.235 NA BRANCH  27  28ATOM     28  C   UNL     1      40.885  45.959  18.107 -0.45 -0.01    +0.141 C  BRANCH  28  29ATOM     29  C   UNL     1      39.916  45.406  19.014 -0.39 -0.00    +0.079 A  ATOM     30  C   UNL     1      38.716  44.776  18.735 -0.30 -0.01    +0.140 A  ATOM     31  N   UNL     1      39.983  45.390  20.387 -0.17 -0.01    -0.333 N  ATOM     32  N   UNL     1      38.072  44.390  19.882 -0.21 +0.01    -0.245 NA ATOM     33  C   UNL     1      38.861  44.772  20.861 -0.24 +0.00    +0.199 A  ATOM     34  C   UNL     1      41.054  45.902  21.208 -0.27 +0.01    +0.151 C  ENDBRANCH  28  29ENDBRANCH  27  28ENDBRANCH   3  27TORSDOF 7TERENDMDL