MODEL        2USER    Run = 2USERUSER    Estimated Free Energy of Binding    =  -6.04 kcal/mol  [=(1)+(2)+(3)-(4)]USERUSER    (1) Final Intermolecular Energy     = -10.81 kcal/molUSER        vdW + Hbond + desolv Energy     = -11.43 kcal/molUSER        Electrostatic Energy            =  -0.12 kcal/molUSER        Moving Ligand-Fixed Receptor    = -11.55 kcal/molUSER        Moving Ligand-Moving Receptor   =  +0.74 kcal/molUSER    (2) Final Total Internal Energy     =  -2.15 kcal/molUSER    (3) Torsional Free Energy           =  +4.77 kcal/molUSER    (4) Unbound System's Energy         =  -2.15 kcal/molUSERUSERREMARK SMILES C[C@H]1CC=C(C(=O)Nc2cccc(CCC(=NCN)c3c(F)cccc3F)c2)OCOC1REMARK SMILES IDX 9 1 10 2 11 3 12 4 13 5 28 6 8 7 6 8 7 9 5 11 29 12 30 13REMARK SMILES IDX 31 14 32 15 2 16 1 17 3 18 4 20 14 22 15 23 16 24 17 25REMARK SMILES IDX 18 26 19 27 20 30 21 31 26 32 23 33 25 34 24 35 22 36 27 37REMARK H PARENT 8 10 19 28 19 29REMARK Flexibility Score:   79.900USER                              x       y       z     vdW  Elec       q    TypeUSER                           _______ _______ _______ _____ _____    ______ ____ROOTATOM      1  C   UNL     1      35.995  43.349  18.717 -0.30 -0.01    +0.041 A  ATOM      2  C   UNL     1      35.071  42.306  18.596 -0.39 -0.00    +0.026 A  ATOM      3  C   UNL     1      34.277  42.189  17.452 -0.42 -0.00    +0.002 A  ATOM      4  C   UNL     1      34.383  43.132  16.431 -0.39 -0.00    +0.004 A  ATOM      5  C   UNL     1      35.286  44.196  16.546 -0.30 +0.02    -0.046 A  ATOM      6  C   UNL     1      36.099  44.286  17.688 -0.30 -0.01    +0.029 A  ENDROOTBRANCH   1   7ATOM      7  N   UNL     1      36.746  43.421  19.905 -0.17 +0.02    -0.319 N  ATOM      8  C   UNL     1      36.474  42.800  21.107 -0.31 +0.01    +0.290 C  ATOM      9  O   UNL     1      35.465  42.180  21.412 -0.31 -0.02    -0.265 OA ATOM     10  H   UNL     1      37.562  44.022  19.899 +0.11 -0.01    +0.170 HD BRANCH   8  11ATOM     11  C   UNL     1      37.601  42.989  22.094 -0.33 +0.01    +0.183 C  BRANCH  11  12ATOM     12  O   UNL     1      38.533  43.973  21.824 -0.08 -0.02    -0.462 OA BRANCH  12  13ATOM     13  C   UNL     1      38.065  45.220  22.339 -0.11 +0.04    +0.395 C  BRANCH  13  14ATOM     14  O   UNL     1      38.277  45.345  23.740 -0.23 -0.04    -0.345 OA BRANCH  14  15ATOM     15  C   UNL     1      37.174  44.929  24.544 -0.16 +0.02    +0.168 C  BRANCH  15  16ATOM     16  C   UNL     1      37.439  43.658  25.373 -0.35 -0.00    +0.016 C  ATOM     17  C   UNL     1      36.097  43.090  25.861 -0.43 -0.00    +0.010 C  BRANCH  16  18ATOM     18  C   UNL     1      38.167  42.562  24.560 -0.31 +0.00    +0.037 CG0ATOM     19  G   UNL     1      37.646  42.220  23.189 +0.00 +0.00    +0.000 G0 ENDBRANCH  16  18ENDBRANCH  15  16ENDBRANCH  14  15ENDBRANCH  13  14ENDBRANCH  12  13ENDBRANCH  11  12BRANCH  11  20ATOM     20  C   UNL     1      37.643  42.218  23.192 -0.44 +0.00    +0.026 CG0ATOM     21  G   UNL     1      38.158  42.563  24.564 +0.00 +0.00    +0.000 G0 ENDBRANCH  11  20ENDBRANCH   8  11ENDBRANCH   1   7BRANCH   5  22ATOM     22  C   UNL     1      35.367  45.263  15.480 -0.38 -0.03    +0.042 C  BRANCH  22  23ATOM     23  C   UNL     1      36.267  46.431  15.883 -0.39 -0.05    +0.061 C  BRANCH  23  24ATOM     24  C   UNL     1      37.425  46.644  14.911 -0.43 -0.02    +0.050 C  BRANCH  24  25ATOM     25  N   UNL     1      37.227  46.351  13.670 -0.24 +0.11    -0.274 NA BRANCH  25  26ATOM     26  C   UNL     1      36.312  47.113  12.851 -0.52 -0.11    +0.223 C  BRANCH  26  27ATOM     27  N   UNL     1      37.034  47.801  11.801 -0.77 +0.07    -0.312 NA ATOM     28  H   UNL     1      36.515  48.659  11.614 -0.38 -0.04    +0.120 HD ATOM     29  H   UNL     1      36.975  47.245  10.951 -0.14 -0.05    +0.120 HD ENDBRANCH  26  27ENDBRANCH  25  26ENDBRANCH  24  25BRANCH  24  30ATOM     30  C   UNL     1      38.651  47.226  15.491 -0.41 -0.03    +0.067 A  ATOM     31  C   UNL     1      39.214  48.351  14.892 -0.43 -0.06    +0.135 A  ATOM     32  C   UNL     1      39.240  46.702  16.637 -0.35 -0.04    +0.135 A  ATOM     33  C   UNL     1      40.361  48.942  15.420 -0.57 -0.01    +0.040 A  ATOM     34  C   UNL     1      40.387  47.284  17.174 -0.48 -0.01    +0.040 A  ATOM     35  C   UNL     1      40.952  48.406  16.564 -0.55 -0.00    +0.006 A  ATOM     36  F   UNL     1      38.657  48.902  13.802 -0.08 +0.09    -0.206 F  ATOM     37  F   UNL     1      38.725  45.628  17.255 -0.09 +0.05    -0.206 F  ENDBRANCH  24  30ENDBRANCH  23  24ENDBRANCH  22  23ENDBRANCH   5  22TORSDOF 9TERENDMDL