MODEL        10USER    Run = 10USERUSER    Estimated Free Energy of Binding    =  -8.59 kcal/mol  [=(1)+(2)+(3)-(4)]USERUSER    (1) Final Intermolecular Energy     =  -9.49 kcal/molUSER        vdW + Hbond + desolv Energy     =  -9.36 kcal/molUSER        Electrostatic Energy            =  -0.12 kcal/molUSER        Moving Ligand-Fixed Receptor    =  -9.49 kcal/molUSER        Moving Ligand-Moving Receptor   =  +0.00 kcal/molUSER    (2) Final Total Internal Energy     =  -0.67 kcal/molUSER    (3) Torsional Free Energy           =  +0.89 kcal/molUSER    (4) Unbound System's Energy         =  -0.67 kcal/molUSERUSERREMARK SMILES Cc1c(-n2nnc3cc(-c4cnn(C)c4)cnc32)cccc1C(F)(F)FREMARK SMILES IDX 4 1 5 2 6 3 7 4 8 5 9 6 16 7 17 8 18 9 3 10 2 11 22 12 19 13REMARK SMILES IDX 21 14 20 15 1 16 23 17 24 18 25 19 26 20 10 21 11 22 15 23REMARK SMILES IDX 12 24 13 25 14 26REMARK H PARENTUSER                              x       y       z     vdW  Elec       q    TypeUSER                           _______ _______ _______ _____ _____    ______ ____ROOTATOM      1  N   UNL     1      38.121  47.572  14.497 -0.33 +0.08    -0.194 N  ATOM      2  N   UNL     1      38.220  47.809  13.158 -0.82 +0.01    -0.060 NA ATOM      3  N   UNL     1      37.074  47.503  12.567 -1.00 +0.04    -0.128 NA ATOM      4  C   UNL     1      36.219  47.057  13.524 -0.44 -0.08    +0.133 A  ATOM      5  C   UNL     1      34.897  46.600  13.437 -0.35 -0.03    +0.044 A  ATOM      6  C   UNL     1      34.271  46.181  14.617 -0.15 -0.01    +0.006 A  ATOM      7  C   UNL     1      35.006  46.251  15.803 -0.07 -0.14    +0.122 A  ATOM      8  N   UNL     1      36.288  46.687  15.938 -0.23 +0.20    -0.234 NA ATOM      9  C   UNL     1      36.839  47.084  14.766 -0.29 -0.12    +0.183 A  ENDROOTBRANCH   1  10ATOM     10  C   UNL     1      39.199  47.865  15.401 -0.46 -0.03    +0.072 A  ATOM     11  C   UNL     1      39.600  46.975  16.442 -0.47 +0.00    -0.013 A  ATOM     12  C   UNL     1      40.747  47.301  17.226 -0.47 -0.01    +0.061 A  ATOM     13  C   UNL     1      39.901  49.071  15.224 -0.48 -0.01    +0.029 A  ATOM     14  C   UNL     1      41.419  48.515  17.006 -0.43 -0.00    +0.013 A  ATOM     15  C   UNL     1      40.996  49.395  16.021 -0.62 -0.00    +0.003 A  ATOM     16  C   UNL     1      38.843  45.701  16.756 -0.39 -0.01    +0.047 C  BRANCH  12  17ATOM     17  C   UNL     1      41.277  46.388  18.319 -0.26 -0.01    +0.416 C  ATOM     18  F   UNL     1      40.435  46.276  19.389 -0.15 +0.00    -0.166 F  ATOM     19  F   UNL     1      41.480  45.113  17.884 -0.15 -0.01    -0.166 F  ATOM     20  F   UNL     1      42.463  46.809  18.838 -0.21 -0.02    -0.166 F  ENDBRANCH  12  17ENDBRANCH   1  10BRANCH   6  21ATOM     21  C   UNL     1      32.902  45.699  14.592 -0.17 -0.02    +0.021 A  ATOM     22  C   UNL     1      31.784  46.135  13.842 -0.34 -0.10    +0.143 A  ATOM     23  C   UNL     1      32.412  44.641  15.330 -0.26 -0.07    +0.117 A  ATOM     24  N   UNL     1      30.684  45.420  14.090 -0.36 +0.14    -0.181 NA ATOM     25  N   UNL     1      31.093  44.516  14.995 -0.21 +0.17    -0.275 N  ATOM     26  C   UNL     1      30.154  43.544  15.502 -0.23 -0.11    +0.173 C  ENDBRANCH   6  21TORSDOF 3TERENDMDL