REMARK SMILES C[C@H]1CC=C(C(=O)Nc2cccc(CCC(=NCN)c3c(F)cccc3F)c2)OCOC1
REMARK SMILES IDX 9 1 10 2 11 3 12 4 13 5 28 6 8 7 6 8 7 9 5 11 29 12 30 13
REMARK SMILES IDX 31 14 32 15 2 16 1 17 3 18 4 20 14 22 15 23 16 24 17 25
REMARK SMILES IDX 18 26 19 27 20 30 21 31 26 32 23 33 25 34 24 35 22 36 27 37
REMARK H PARENT 8 10 19 28 19 29
REMARK Flexibility Score:   79.900
ROOT
ATOM      1  C   UNL     1       0.091   2.364  -0.213  1.00  0.00     0.041 A 
ATOM      2  C   UNL     1      -0.307   3.185  -1.274  1.00  0.00     0.026 A 
ATOM      3  C   UNL     1      -1.553   3.816  -1.255  1.00  0.00     0.002 A 
ATOM      4  C   UNL     1      -2.423   3.609  -0.186  1.00  0.00     0.004 A 
ATOM      5  C   UNL     1      -2.051   2.772   0.873  1.00  0.00    -0.046 A 
ATOM      6  C   UNL     1      -0.784   2.166   0.856  1.00  0.00     0.029 A 
ENDROOT
BRANCH   1   7
ATOM      7  N   UNL     1       1.349   1.741  -0.307  1.00  0.00    -0.319 N 
ATOM      8  C   UNL     1       2.023   1.060   0.686  1.00  0.00     0.290 C 
ATOM      9  O   UNL     1       1.723   0.980   1.868  1.00  0.00    -0.265 OA
ATOM     10  H   UNL     1       1.841   1.826  -1.189  1.00  0.00     0.170 HD
BRANCH   8  11
ATOM     11  C   UNL     1       3.269   0.395   0.151  1.00  0.00     0.183 C 
BRANCH  11  12
ATOM     12  O   UNL     1       3.376   0.235  -1.217  1.00  0.00    -0.462 OA
BRANCH  12  13
ATOM     13  C   UNL     1       3.063  -1.116  -1.560  1.00  0.00     0.395 C 
BRANCH  13  14
ATOM     14  O   UNL     1       4.130  -1.765  -2.242  1.00  0.00    -0.345 OA
BRANCH  14  15
ATOM     15  C   UNL     1       5.423  -1.506  -1.697  1.00  0.00     0.168 C 
BRANCH  15  16
ATOM     16  C   UNL     1       5.570  -1.882  -0.210  1.00  0.00     0.016 C 
ATOM     17  C   UNL     1       6.905  -2.616  -0.009  1.00  0.00     0.010 C 
BRANCH  16  18
ATOM     18  C   UNL     1       5.548  -0.644   0.718  1.00  0.00     0.037 CG0
ATOM     19  G   UNL     1       4.223   0.007   1.013  1.00  0.00     0.000 G0
ENDBRANCH  16  18
ENDBRANCH  15  16
ENDBRANCH  14  15
ENDBRANCH  13  14
ENDBRANCH  12  13
ENDBRANCH  11  12
BRANCH  11  20
ATOM     20  C   UNL     1       4.223   0.007   1.013  1.00  0.00     0.026 CG0
ATOM     21  G   UNL     1       5.548  -0.644   0.718  1.00  0.00     0.000 G0
ENDBRANCH  11  20
ENDBRANCH   8  11
ENDBRANCH   1   7
BRANCH   5  22
ATOM     22  C   UNL     1      -3.007   2.483   2.006  1.00  0.00     0.042 C 
BRANCH  22  23
ATOM     23  C   UNL     1      -4.149   1.555   1.591  1.00  0.00     0.061 C 
BRANCH  23  24
ATOM     24  C   UNL     1      -3.665   0.153   1.229  1.00  0.00     0.050 C 
BRANCH  24  25
ATOM     25  N   UNL     1      -3.070  -0.531   2.147  1.00  0.00    -0.274 NA
BRANCH  25  26
ATOM     26  C   UNL     1      -2.622  -1.884   1.910  1.00  0.00     0.223 C 
BRANCH  26  27
ATOM     27  N   UNL     1      -3.756  -2.782   1.837  1.00  0.00    -0.312 NA
ATOM     28  H   UNL     1      -4.311  -2.607   2.675  1.00  0.00     0.120 HD
ATOM     29  H   UNL     1      -3.417  -3.738   1.918  1.00  0.00     0.120 HD
ENDBRANCH  26  27
ENDBRANCH  25  26
ENDBRANCH  24  25
BRANCH  24  30
ATOM     30  C   UNL     1      -3.984  -0.304  -0.138  1.00  0.00     0.067 A 
ATOM     31  C   UNL     1      -5.319  -0.465  -0.503  1.00  0.00     0.135 A 
ATOM     32  C   UNL     1      -2.990  -0.544  -1.081  1.00  0.00     0.135 A 
ATOM     33  C   UNL     1      -5.663  -0.876  -1.790  1.00  0.00     0.040 A 
ATOM     34  C   UNL     1      -3.321  -0.956  -2.371  1.00  0.00     0.040 A 
ATOM     35  C   UNL     1      -4.661  -1.125  -2.728  1.00  0.00     0.006 A 
ATOM     36  F   UNL     1      -6.306  -0.213   0.371  1.00  0.00    -0.206 F 
ATOM     37  F   UNL     1      -1.692  -0.389  -0.778  1.00  0.00    -0.206 F 
ENDBRANCH  24  30
ENDBRANCH  23  24
ENDBRANCH  22  23
ENDBRANCH   5  22
TORSDOF 9
