REMARK SMILES CC1=C(c2c[nH]c3ncccc23)C=CN=CNC1
REMARK SMILES IDX 13 1 3 2 2 3 1 4 4 6 5 7 12 8 6 9 11 10 7 11 10 12 8 13 9 14
REMARK SMILES IDX 14 16 15 17 16 18 17 19 18 21
REMARK H PARENT 6 15 17 20
REMARK Flexibility Score:   31.900
ROOT
ATOM      1  C   UNL     1      -1.138  -1.583   0.468  1.00  0.00     0.029 C 
ENDROOT
BRANCH   1   2
ATOM      2  C   UNL     1      -0.545  -0.643  -0.478  1.00  0.00    -0.014 C 
BRANCH   2   3
ATOM      3  C   UNL     1      -1.347   0.098  -1.284  1.00  0.00    -0.046 CG0
ATOM      4  C   UNL     1      -0.857   1.132  -2.263  1.00  0.00     0.042 C 
ATOM      5  G   UNL     1      -2.849  -0.056  -1.243  1.00  0.00     0.000 G0
ENDBRANCH   2   3
BRANCH   2   6
ATOM      6  C   UNL     1       0.888  -0.592  -0.517  1.00  0.00     0.009 A 
ATOM      7  C   UNL     1       1.671  -1.018  -1.574  1.00  0.00     0.093 A 
ATOM      8  C   UNL     1       1.760  -0.133   0.513  1.00  0.00     0.027 A 
ATOM      9  N   UNL     1       2.983  -0.821  -1.224  1.00  0.00    -0.346 N 
ATOM     10  C   UNL     1       1.612   0.403   1.804  1.00  0.00     0.014 A 
ATOM     11  C   UNL     1       3.057  -0.288   0.034  1.00  0.00     0.137 A 
ATOM     12  C   UNL     1       2.772   0.735   2.504  1.00  0.00     0.021 A 
ATOM     13  N   UNL     1       4.207   0.017   0.663  1.00  0.00    -0.239 NA
ATOM     14  C   UNL     1       4.006   0.527   1.900  1.00  0.00     0.113 A 
ATOM     15  H   UNL     1       3.795  -1.033  -1.785  1.00  0.00     0.167 HD
ENDBRANCH   2   6
ENDBRANCH   1   2
BRANCH   1  16
ATOM     16  C   UNL     1      -2.009  -1.302   1.452  1.00  0.00     0.113 C 
BRANCH  16  17
ATOM     17  N   UNL     1      -2.454  -0.086   1.888  1.00  0.00    -0.247 NA
BRANCH  17  18
ATOM     18  C   UNL     1      -3.037   0.758   1.109  1.00  0.00     0.192 C 
ATOM     19  N   UNL     1      -3.383   0.808  -0.219  1.00  0.00    -0.372 N 
ATOM     20  H   UNL     1      -3.618   1.734  -0.558  1.00  0.00     0.161 HD
BRANCH  19  21
ATOM     21  C   UNL     1      -2.849  -0.056  -1.243  1.00  0.00     0.145 CG0
ATOM     22  G   UNL     1      -1.347   0.098  -1.284  1.00  0.00     0.000 G0
ENDBRANCH  19  21
ENDBRANCH  17  18
ENDBRANCH  16  17
ENDBRANCH   1  16
TORSDOF 1
