REMARK SMILES Cc1c(NSc2ccccc2C=O)ccc2ccccc12
REMARK SMILES IDX 5 1 4 2 3 4 2 5 21 6 14 7 20 8 16 9 15 10 19 11 17 12 18 13
REMARK SMILES IDX 1 14 6 15 7 16 11 17 8 18 10 19 9 20 12 21 13 22
REMARK H PARENT 4 3
ROOT
ATOM      1  S   UNL     1      -1.866  -2.428  -0.899  1.00  0.00    -0.015 SA
ENDROOT
BRANCH   1   2
ATOM      2  N   UNL     1      -0.525  -1.595  -1.442  1.00  0.00    -0.325 N 
ATOM      3  H   UNL     1      -0.771  -0.902  -2.158  1.00  0.00     0.175 HD
BRANCH   2   4
ATOM      4  C   UNL     1       0.519  -1.140  -0.590  1.00  0.00     0.048 A 
ATOM      5  C   UNL     1       1.419  -0.131  -1.031  1.00  0.00    -0.019 A 
ATOM      6  C   UNL     1       2.439   0.367  -0.153  1.00  0.00    -0.013 A 
ATOM      7  C   UNL     1       0.762  -1.742   0.652  1.00  0.00     0.027 A 
ATOM      8  C   UNL     1       3.304   1.446  -0.463  1.00  0.00     0.009 A 
ATOM      9  C   UNL     1       2.610  -0.242   1.114  1.00  0.00    -0.018 A 
ATOM     10  C   UNL     1       1.784  -1.301   1.491  1.00  0.00     0.011 A 
ATOM     11  C   UNL     1       4.292   1.888   0.422  1.00  0.00     0.001 A 
ATOM     12  C   UNL     1       3.610   0.207   1.994  1.00  0.00     0.009 A 
ATOM     13  C   UNL     1       4.447   1.265   1.651  1.00  0.00     0.001 A 
ATOM     14  C   UNL     1       1.274   0.455  -2.420  1.00  0.00     0.047 C 
ENDBRANCH   2   4
ENDBRANCH   1   2
BRANCH   1  15
ATOM     15  C   UNL     1      -2.775  -1.104  -0.098  1.00  0.00     0.039 A 
ATOM     16  C   UNL     1      -3.074  -1.320   1.261  1.00  0.00     0.017 A 
ATOM     17  C   UNL     1      -3.260   0.066  -0.709  1.00  0.00     0.030 A 
ATOM     18  C   UNL     1      -3.826  -0.400   1.995  1.00  0.00     0.001 A 
ATOM     19  C   UNL     1      -4.027   0.983   0.035  1.00  0.00     0.013 A 
ATOM     20  C   UNL     1      -4.304   0.751   1.381  1.00  0.00     0.001 A 
BRANCH  17  21
ATOM     21  C   UNL     1      -3.036   0.441  -2.128  1.00  0.00     0.261 C 
ATOM     22  O   UNL     1      -2.109   0.039  -2.819  1.00  0.00    -0.298 OA
ENDBRANCH  17  21
ENDBRANCH   1  15
TORSDOF 4
