REMARK SMILES Cc1c(-n2nnc3cc(-c4cnn(C)c4)cnc32)cccc1C(F)(F)F
REMARK SMILES IDX 4 1 5 2 6 3 7 4 8 5 9 6 16 7 17 8 18 9 3 10 2 11 22 12 19 13
REMARK SMILES IDX 21 14 20 15 1 16 23 17 24 18 25 19 26 20 10 21 11 22 15 23
REMARK SMILES IDX 12 24 13 25 14 26
REMARK H PARENT
ROOT
ATOM      1  N   UNL     1      -1.392  -0.162   0.751  1.00  0.00    -0.194 N 
ATOM      2  N   UNL     1      -1.497  -0.751   1.977  1.00  0.00    -0.060 NA
ATOM      3  N   UNL     1      -0.286  -0.995   2.457  1.00  0.00    -0.128 NA
ATOM      4  C   UNL     1       0.619  -0.568   1.538  1.00  0.00     0.133 A 
ATOM      5  C   UNL     1       2.020  -0.599   1.542  1.00  0.00     0.044 A 
ATOM      6  C   UNL     1       2.689  -0.092   0.422  1.00  0.00     0.006 A 
ATOM      7  C   UNL     1       1.913   0.415  -0.624  1.00  0.00     0.122 A 
ATOM      8  N   UNL     1       0.555   0.468  -0.674  1.00  0.00    -0.234 NA
ATOM      9  C   UNL     1      -0.036  -0.031   0.438  1.00  0.00     0.183 A 
ENDROOT
BRANCH   1  10
ATOM     10  C   UNL     1      -2.549   0.265   0.014  1.00  0.00     0.072 A 
ATOM     11  C   UNL     1      -3.870  -0.183   0.318  1.00  0.00    -0.013 A 
ATOM     12  C   UNL     1      -4.971   0.373  -0.400  1.00  0.00     0.061 A 
ATOM     13  C   UNL     1      -2.364   1.188  -1.032  1.00  0.00     0.029 A 
ATOM     14  C   UNL     1      -4.734   1.297  -1.432  1.00  0.00     0.013 A 
ATOM     15  C   UNL     1      -3.444   1.694  -1.751  1.00  0.00     0.003 A 
ATOM     16  C   UNL     1      -4.145  -1.240   1.367  1.00  0.00     0.047 C 
BRANCH  12  17
ATOM     17  C   UNL     1      -6.413  -0.006  -0.107  1.00  0.00     0.416 C 
ATOM     18  F   UNL     1      -7.323   0.768  -0.768  1.00  0.00    -0.166 F 
ATOM     19  F   UNL     1      -6.700  -1.288  -0.465  1.00  0.00    -0.166 F 
ATOM     20  F   UNL     1      -6.736   0.106   1.211  1.00  0.00    -0.166 F 
ENDBRANCH  12  17
ENDBRANCH   1  10
BRANCH   6  21
ATOM     21  C   UNL     1       4.140  -0.095   0.367  1.00  0.00     0.021 A 
ATOM     22  C   UNL     1       5.102  -0.077   1.405  1.00  0.00     0.143 A 
ATOM     23  C   UNL     1       4.898  -0.142  -0.785  1.00  0.00     0.117 A 
ATOM     24  N   UNL     1       6.356  -0.102   0.948  1.00  0.00    -0.181 NA
ATOM     25  N   UNL     1       6.205  -0.145  -0.386  1.00  0.00    -0.275 N 
ATOM     26  C   UNL     1       7.373  -0.192  -1.232  1.00  0.00     0.173 C 
ENDBRANCH   6  21
TORSDOF 3
