MODEL        3USER    Run = 3USERUSER    Estimated Free Energy of Binding    =  -5.59 kcal/mol  [=(1)+(2)+(3)-(4)]USERUSER    (1) Final Intermolecular Energy     =  -7.68 kcal/molUSER        vdW + Hbond + desolv Energy     =  -7.76 kcal/molUSER        Electrostatic Energy            =  -0.04 kcal/molUSER        Moving Ligand-Fixed Receptor    =  -7.80 kcal/molUSER        Moving Ligand-Moving Receptor   =  +0.12 kcal/molUSER    (2) Final Total Internal Energy     =  -0.62 kcal/molUSER    (3) Torsional Free Energy           =  +2.09 kcal/molUSER    (4) Unbound System's Energy         =  -0.62 kcal/molUSERUSERREMARK SMILES CC1=C(c2c[nH]c3ncccc23)C=CN=CNC1REMARK SMILES IDX 13 1 3 2 2 3 1 4 4 6 5 7 12 8 6 9 11 10 7 11 10 12 8 13 9 14REMARK SMILES IDX 14 16 15 17 16 18 17 19 18 21REMARK H PARENT 6 15 17 20REMARK Flexibility Score:   31.900USER                              x       y       z     vdW  Elec       q    TypeUSER                           _______ _______ _______ _____ _____    ______ ____ROOTATOM      1  C   UNL     1      40.254  46.241  16.494 -0.48 -0.00    +0.029 C  ENDROOTBRANCH   1   2ATOM      2  C   UNL     1      38.806  46.209  16.319 -0.46 +0.00    -0.014 C  BRANCH   2   3ATOM      3  C   UNL     1      38.059  45.334  17.040 -0.39 +0.01    -0.046 CG0ATOM      4  C   UNL     1      37.617  43.980  16.551 -0.26 -0.01    +0.042 C  ATOM      5  G   UNL     1      37.585  45.677  18.432 +0.00 +0.00    +0.000 G0 ENDBRANCH   2   3BRANCH   2   6ATOM      6  C   UNL     1      38.259  47.106  15.342 -0.43 -0.00    +0.009 A  ATOM      7  C   UNL     1      38.285  48.486  15.426 -0.43 -0.06    +0.093 A  ATOM      8  C   UNL     1      37.572  46.756  14.143 -0.44 -0.01    +0.027 A  ATOM      9  N   UNL     1      37.651  48.981  14.315 -0.21 +0.23    -0.346 N  ATOM     10  C   UNL     1      37.209  45.564  13.493 -0.46 -0.01    +0.014 A  ATOM     11  C   UNL     1      37.212  47.951  13.528 -0.46 -0.06    +0.137 A  ATOM     12  C   UNL     1      36.517  45.670  12.286 -0.59 -0.01    +0.021 A  ATOM     13  N   UNL     1      36.549  48.110  12.368 -0.98 +0.09    -0.239 NA ATOM     14  C   UNL     1      36.223  46.933  11.787 -0.50 -0.06    +0.113 A  ATOM     15  H   UNL     1      37.507  49.953  14.086 -0.45 -0.15    +0.167 HD ENDBRANCH   2   6ENDBRANCH   1   2BRANCH   1  16ATOM     16  C   UNL     1      40.946  45.890  17.592 -0.44 -0.01    +0.113 C  BRANCH  16  17ATOM     17  N   UNL     1      40.668  46.148  18.904 -0.29 +0.00    -0.247 NA BRANCH  17  18ATOM     18  C   UNL     1      39.795  45.476  19.572 -0.34 -0.00    +0.192 C  ATOM     19  N   UNL     1      38.488  45.095  19.394 -0.16 +0.03    -0.372 N  ATOM     20  H   UNL     1      38.025  44.774  20.237 +0.09 -0.00    +0.161 HD BRANCH  19  21ATOM     21  C   UNL     1      37.584  45.676  18.433 -0.09 -0.03    +0.145 CG0ATOM     22  G   UNL     1      38.058  45.335  17.040 +0.00 +0.00    +0.000 G0 ENDBRANCH  19  21ENDBRANCH  17  18ENDBRANCH  16  17ENDBRANCH   1  16TORSDOF 1TERENDMDL