REMARK SMILES C=C(F)C(=CC(F)=Cc1ccnc(NCCO)n1)Nc1ccccc1Cl
REMARK SMILES IDX 8 1 6 2 7 3 5 4 4 5 2 6 1 7 3 8 19 9 20 11 21 12 25 13 22 14
REMARK SMILES IDX 24 15 23 16 26 17 9 18 10 19 18 20 11 21 13 22 12 23 14 24
REMARK SMILES IDX 15 26 16 27 17 28
REMARK H PARENT 19 10 14 25 17 29
ROOT
ATOM      1  C   UNL     1       0.355  -1.696  -0.342  1.00  0.00     0.067 C 
ENDROOT
BRANCH   1   2
ATOM      2  C   UNL     1      -0.070  -0.427  -0.452  1.00  0.00     0.127 C 
ATOM      3  F   UNL     1       0.824   0.581  -0.536  1.00  0.00    -0.207 F 
BRANCH   2   4
ATOM      4  C   UNL     1      -1.479  -0.078  -0.486  1.00  0.00     0.068 C 
BRANCH   4   5
ATOM      5  C   UNL     1      -2.050   1.144  -0.571  1.00  0.00     0.077 C 
BRANCH   5   6
ATOM      6  C   UNL     1      -1.238   2.350  -0.678  1.00  0.00     0.139 C 
ATOM      7  C   UNL     1      -1.218   3.160  -1.742  1.00  0.00     0.053 C 
ATOM      8  F   UNL     1      -0.477   2.672   0.392  1.00  0.00    -0.205 F 
ENDBRANCH   5   6
BRANCH   5   9
ATOM      9  N   UNL     1      -3.426   1.336  -0.652  1.00  0.00    -0.352 N 
ATOM     10  H   UNL     1      -3.700   2.253  -1.004  1.00  0.00     0.167 HD
BRANCH   9  11
ATOM     11  C   UNL     1      -4.465   0.767   0.128  1.00  0.00     0.057 A 
ATOM     12  C   UNL     1      -4.223  -0.049   1.242  1.00  0.00     0.027 A 
ATOM     13  C   UNL     1      -5.810   0.970  -0.250  1.00  0.00     0.064 A 
ATOM     14  C   UNL     1      -5.277  -0.633   1.956  1.00  0.00     0.002 A 
ATOM     15  C   UNL     1      -6.864   0.386   0.460  1.00  0.00     0.023 A 
ATOM     16  C   UNL     1      -6.595  -0.418   1.564  1.00  0.00     0.002 A 
ATOM     17  Cl  UNL     1      -6.205   1.969  -1.610  1.00  0.00    -0.082 Cl
ENDBRANCH   9  11
ENDBRANCH   5   9
ENDBRANCH   4   5
ENDBRANCH   2   4
ENDBRANCH   1   2
BRANCH   1  18
ATOM     18  C   UNL     1       1.756  -2.145  -0.309  1.00  0.00     0.071 A 
ATOM     19  C   UNL     1       2.046  -3.468  -0.053  1.00  0.00     0.049 A 
ATOM     20  N   UNL     1       2.717  -1.236  -0.542  1.00  0.00    -0.214 NA
ATOM     21  C   UNL     1       3.379  -3.794  -0.040  1.00  0.00     0.117 A 
ATOM     22  C   UNL     1       3.992  -1.645  -0.512  1.00  0.00     0.223 A 
ATOM     23  N   UNL     1       4.362  -2.906  -0.260  1.00  0.00    -0.222 NA
BRANCH  22  24
ATOM     24  N   UNL     1       5.021  -0.747  -0.752  1.00  0.00    -0.352 N 
ATOM     25  H   UNL     1       5.860  -1.157  -0.351  1.00  0.00     0.163 HD
BRANCH  24  26
ATOM     26  C   UNL     1       4.755   0.600  -0.261  1.00  0.00     0.144 C 
BRANCH  26  27
ATOM     27  C   UNL     1       6.012   1.458  -0.438  1.00  0.00     0.177 C 
BRANCH  27  28
ATOM     28  O   UNL     1       7.073   0.949   0.373  1.00  0.00    -0.395 OA
ATOM     29  H   UNL     1       7.862   1.477   0.163  1.00  0.00     0.210 HD
ENDBRANCH  27  28
ENDBRANCH  26  27
ENDBRANCH  24  26
ENDBRANCH  22  24
ENDBRANCH   1  18
TORSDOF 11
