MODEL        10USER    Run = 10USERUSER    Estimated Free Energy of Binding    =  -8.66 kcal/mol  [=(1)+(2)+(3)-(4)]USERUSER    (1) Final Intermolecular Energy     =  -9.85 kcal/molUSER        vdW + Hbond + desolv Energy     =  -9.65 kcal/molUSER        Electrostatic Energy            =  -0.21 kcal/molUSER        Moving Ligand-Fixed Receptor    =  -9.85 kcal/molUSER        Moving Ligand-Moving Receptor   =  +0.00 kcal/molUSER    (2) Final Total Internal Energy     =  -0.94 kcal/molUSER    (3) Torsional Free Energy           =  +1.19 kcal/molUSER    (4) Unbound System's Energy         =  -0.94 kcal/molUSERUSERREMARK SMILES Nc1ccc(-c2cnc3cnc(-c4cccs4)cn23)cc1OREMARK SMILES IDX 2 1 3 2 4 3 5 4 20 5 21 6 1 7 22 10 6 12 7 13 19 14 8 15REMARK SMILES IDX 18 16 9 17 12 18 10 19 11 20 13 21 14 22 17 23 15 24 16 25REMARK H PARENT 1 8 1 9 22 11USER                              x       y       z     vdW  Elec       q    TypeUSER                           _______ _______ _______ _____ _____    ______ ____ROOTATOM      1  C   UNL     1      35.898  47.018  13.735 -0.44 -0.05    +0.074 A  ATOM      2  C   UNL     1      36.078  46.788  15.099 -0.34 -0.03    +0.030 A  ATOM      3  C   UNL     1      37.279  47.130  15.730 -0.41 -0.01    +0.013 A  ATOM      4  C   UNL     1      38.343  47.665  14.994 -0.49 -0.00    +0.004 A  ATOM      5  C   UNL     1      38.189  47.846  13.616 -0.42 -0.02    +0.058 A  ATOM      6  C   UNL     1      36.990  47.493  12.999 -0.50 -0.05    +0.139 A  ENDROOTBRANCH   1   7ATOM      7  N   UNL     1      34.713  46.581  13.123 -0.08 +0.31    -0.396 N  ATOM      8  H   UNL     1      34.799  46.531  12.110 -0.22 -0.13    +0.156 HD ATOM      9  H   UNL     1      33.878  47.076  13.415 -0.30 -0.16    +0.156 HD ENDBRANCH   1   7BRANCH   6  10ATOM     10  O   UNL     1      36.935  47.610  11.637 -0.79 +0.15    -0.506 OA ATOM     11  H   UNL     1      36.418  48.409  11.448 -0.17 -0.16    +0.293 HD ENDBRANCH   6  10BRANCH   4  12ATOM     12  C   UNL     1      39.586  48.024  15.664 -0.47 -0.02    +0.073 A  ATOM     13  C   UNL     1      40.563  48.943  15.305 -0.50 -0.04    +0.140 A  ATOM     14  N   UNL     1      40.040  47.508  16.862 -0.29 +0.07    -0.296 N  ATOM     15  N   UNL     1      41.590  48.988  16.217 -0.88 -0.02    -0.235 NA ATOM     16  C   UNL     1      39.520  46.585  17.757 -0.35 -0.02    +0.123 A  ATOM     17  C   UNL     1      41.240  48.112  17.128 -0.37 -0.01    +0.155 A  ATOM     18  C   UNL     1      40.226  46.288  18.870 -0.35 -0.01    +0.097 A  ATOM     19  C   UNL     1      41.937  47.751  18.327 -0.38 -0.00    +0.159 A  ATOM     20  N   UNL     1      41.455  46.875  19.167 -0.30 -0.01    -0.250 NA BRANCH  18  21ATOM     21  C   UNL     1      39.759  45.345  19.853 -0.36 -0.00    +0.054 A  ATOM     22  C   UNL     1      38.472  44.838  20.000 -0.35 -0.00    +0.022 A  ATOM     23  S   UNL     1      40.775  44.680  21.088 -0.38 -0.01    -0.142 S  ATOM     24  C   UNL     1      38.331  43.924  21.084 -0.32 +0.00    +0.012 A  ATOM     25  C   UNL     1      39.514  43.748  21.758 -0.20 +0.00    +0.065 A  ENDBRANCH  18  21ENDBRANCH   4  12TORSDOF 4TERENDMDL