MODEL        2USER    Run = 2USERUSER    Estimated Free Energy of Binding    =  -7.41 kcal/mol  [=(1)+(2)+(3)-(4)]USERUSER    (1) Final Intermolecular Energy     = -10.69 kcal/molUSER        vdW + Hbond + desolv Energy     = -10.41 kcal/molUSER        Electrostatic Energy            =  -0.27 kcal/molUSER        Moving Ligand-Fixed Receptor    = -10.69 kcal/molUSER        Moving Ligand-Moving Receptor   =  +0.00 kcal/molUSER    (2) Final Total Internal Energy     =  -2.99 kcal/molUSER    (3) Torsional Free Energy           =  +3.28 kcal/molUSER    (4) Unbound System's Energy         =  -2.99 kcal/molUSERUSERREMARK SMILES C=C(F)C(=CC(F)=Cc1ccnc(NCCO)n1)Nc1ccccc1ClREMARK SMILES IDX 8 1 6 2 7 3 5 4 4 5 2 6 1 7 3 8 19 9 20 11 21 12 25 13 22 14REMARK SMILES IDX 24 15 23 16 26 17 9 18 10 19 18 20 11 21 13 22 12 23 14 24REMARK SMILES IDX 15 26 16 27 17 28REMARK H PARENT 19 10 14 25 17 29USER                              x       y       z     vdW  Elec       q    TypeUSER                           _______ _______ _______ _____ _____    ______ ____ROOTATOM      1  C   UNL     1      37.557  47.641  15.537 -0.46 -0.05    +0.067 C  ENDROOTBRANCH   1   2ATOM      2  C   UNL     1      38.530  47.905  14.650 -0.49 -0.05    +0.127 C  ATOM      3  F   UNL     1      38.241  48.550  13.500 -0.13 +0.06    -0.207 F  BRANCH   2   4ATOM      4  C   UNL     1      39.912  47.521  14.874 -0.52 -0.01    +0.068 C  BRANCH   4   5ATOM      5  C   UNL     1      40.682  47.717  15.968 -0.53 -0.01    +0.077 C  BRANCH   5   6ATOM      6  C   UNL     1      41.146  49.049  16.335 -0.47 -0.01    +0.139 C  ATOM      7  C   UNL     1      40.965  50.147  15.594 -0.66 -0.02    +0.053 C  ATOM      8  F   UNL     1      41.779  49.170  17.523 -0.08 -0.02    -0.205 F  ENDBRANCH   5   6BRANCH   5   9ATOM      9  N   UNL     1      41.010  46.699  16.858 -0.16 +0.04    -0.352 N  ATOM     10  H   UNL     1      41.684  46.026  16.494 -0.16 +0.01    +0.167 HD BRANCH   9  11ATOM     11  C   UNL     1      40.233  46.120  17.895 -0.44 -0.01    +0.057 A  ATOM     12  C   UNL     1      38.957  45.581  17.681 -0.39 -0.00    +0.027 A  ATOM     13  C   UNL     1      40.723  46.129  19.219 -0.40 +0.00    +0.064 A  ATOM     14  C   UNL     1      38.201  45.065  18.741 -0.38 -0.00    +0.002 A  ATOM     15  C   UNL     1      39.969  45.616  20.279 -0.33 +0.00    +0.023 A  ATOM     16  C   UNL     1      38.705  45.084  20.038 -0.36 -0.00    +0.002 A  ATOM     17  Cl  UNL     1      42.293  46.769  19.577 -0.64 -0.01    -0.082 Cl ENDBRANCH   9  11ENDBRANCH   5   9ENDBRANCH   4   5ENDBRANCH   2   4ENDBRANCH   1   2BRANCH   1  18ATOM     18  C   UNL     1      36.676  46.462  15.537 -0.33 -0.05    +0.071 A  ATOM     19  C   UNL     1      37.137  45.262  15.040 -0.34 -0.02    +0.049 A  ATOM     20  N   UNL     1      35.436  46.599  16.036 -0.19 +0.25    -0.214 NA ATOM     21  C   UNL     1      36.245  44.219  15.079 -0.27 -0.05    +0.117 A  ATOM     22  C   UNL     1      34.635  45.526  16.036 -0.16 -0.19    +0.223 A  ATOM     23  N   UNL     1      34.997  44.328  15.564 -0.18 +0.11    -0.222 NA BRANCH  22  24ATOM     24  N   UNL     1      33.348  45.614  16.547 -0.06 +0.33    -0.352 N  ATOM     25  H   UNL     1      33.073  46.589  16.468 -0.38 -0.36    +0.163 HD BRANCH  24  26ATOM     26  C   UNL     1      33.215  45.092  17.902 -0.32 -0.06    +0.144 C  BRANCH  26  27ATOM     27  C   UNL     1      33.923  46.038  18.877 -0.25 -0.10    +0.177 C  BRANCH  27  28ATOM     28  O   UNL     1      33.843  47.384  18.403 -0.95 +0.41    -0.395 OA ATOM     29  H   UNL     1      33.994  47.351  17.444 -0.37 -0.47    +0.210 HD ENDBRANCH  27  28ENDBRANCH  26  27ENDBRANCH  24  26ENDBRANCH  22  24ENDBRANCH   1  18TORSDOF 11TERENDMDL