REMARK SMILES N#Cc1ccc(C(=O)c2ccc(CN3CCN(c4nc5ccccc5[nH]4)CC3)c(F)c2)c(O)c1
REMARK SMILES IDX 9 1 10 2 11 3 12 4 29 5 30 6 31 7 7 8 8 9 6 10 3 11 4 12
REMARK SMILES IDX 34 13 5 14 32 15 2 16 1 17 33 18 13 20 14 21 15 22 28 23
REMARK SMILES IDX 16 24 27 25 17 26 18 27 19 28 26 29 20 30 25 31 21 32 24 33
REMARK SMILES IDX 22 34 23 35
REMARK H PARENT 33 19 26 36
ROOT
ATOM      1  C   UNL     1       3.485   0.792  -0.681  1.00  0.00     0.026 A 
ATOM      2  C   UNL     1       2.765   1.391  -1.720  1.00  0.00     0.013 A 
ATOM      3  C   UNL     1       1.634   0.759  -2.244  1.00  0.00     0.009 A 
ATOM      4  C   UNL     1       1.195  -0.468  -1.724  1.00  0.00     0.002 A 
ATOM      5  C   UNL     1       1.924  -1.040  -0.675  1.00  0.00     0.128 A 
ATOM      6  F   UNL     1       1.549  -2.219  -0.162  1.00  0.00    -0.207 F 
ATOM      7  C   UNL     1       3.053  -0.421  -0.144  1.00  0.00     0.051 A 
ENDROOT
BRANCH   1   8
ATOM      8  C   UNL     1       4.670   1.498  -0.144  1.00  0.00     0.196 C 
ATOM      9  O   UNL     1       4.625   2.719  -0.003  1.00  0.00    -0.288 OA
BRANCH   8  10
ATOM     10  C   UNL     1       5.911   0.784   0.251  1.00  0.00     0.064 A 
ATOM     11  C   UNL     1       8.279  -0.512   1.037  1.00  0.00     0.056 A 
ATOM     12  C   UNL     1       7.475  -1.060   0.029  1.00  0.00     0.020 A 
ATOM     13  C   UNL     1       7.909   0.693   1.640  1.00  0.00     0.066 A 
ATOM     14  C   UNL     1       6.298  -0.412  -0.368  1.00  0.00     0.017 A 
ATOM     15  C   UNL     1       6.740   1.339   1.238  1.00  0.00     0.128 A 
BRANCH  11  16
ATOM     16  C   UNL     1       9.485  -1.177   1.439  1.00  0.00     0.099 C 
ATOM     17  N   UNL     1      10.457  -1.724   1.758  1.00  0.00    -0.192 NA
ENDBRANCH  11  16
BRANCH  15  18
ATOM     18  O   UNL     1       6.461   2.527   1.858  1.00  0.00    -0.507 OA
ATOM     19  H   UNL     1       5.752   2.977   1.343  1.00  0.00     0.293 HD
ENDBRANCH  15  18
ENDBRANCH   8  10
ENDBRANCH   1   8
BRANCH   4  20
ATOM     20  C   UNL     1      -0.020  -1.162  -2.296  1.00  0.00     0.123 C 
BRANCH  20  21
ATOM     21  N   UNL     1      -1.323  -0.751  -1.780  1.00  0.00    -0.295 NA
ATOM     22  C   UNL     1      -1.711   0.641  -2.026  1.00  0.00     0.106 C 
ATOM     23  C   UNL     1      -1.641  -1.207  -0.413  1.00  0.00     0.106 C 
ATOM     24  C   UNL     1      -3.131   0.943  -1.493  1.00  0.00     0.135 C 
ATOM     25  C   UNL     1      -2.138  -0.098   0.542  1.00  0.00     0.135 C 
ATOM     26  N   UNL     1      -3.254   0.659  -0.053  1.00  0.00    -0.340 N 
BRANCH  26  27
ATOM     27  C   UNL     1      -4.477   0.536   0.524  1.00  0.00     0.203 A 
ATOM     28  N   UNL     1      -4.806  -0.151   1.596  1.00  0.00    -0.213 NA
ATOM     29  N   UNL     1      -5.572   1.202   0.031  1.00  0.00    -0.324 N 
ATOM     30  C   UNL     1      -6.152   0.050   1.776  1.00  0.00     0.091 A 
ATOM     31  C   UNL     1      -6.661   0.900   0.804  1.00  0.00     0.067 A 
ATOM     32  C   UNL     1      -7.014  -0.459   2.757  1.00  0.00     0.030 A 
ATOM     33  C   UNL     1      -8.001   1.290   0.744  1.00  0.00     0.028 A 
ATOM     34  C   UNL     1      -8.367  -0.088   2.723  1.00  0.00     0.002 A 
ATOM     35  C   UNL     1      -8.848   0.773   1.734  1.00  0.00     0.002 A 
ATOM     36  H   UNL     1      -5.563   1.827  -0.757  1.00  0.00     0.170 HD
ENDBRANCH  26  27
ENDBRANCH  20  21
ENDBRANCH   4  20
TORSDOF 7
