REMARK SMILES CN(CCO)c1nc(-c2ccc(CN3CCC(n4c(O)nc5ccccc54)CC3)cc2O)nc2ccc(F)cc12
REMARK SMILES IDX 6 1 7 2 8 3 33 4 34 5 35 6 36 7 37 8 38 9 39 10 40 11 2 12
REMARK SMILES IDX 1 13 3 14 4 15 5 16 9 18 10 19 31 20 11 21 30 22 12 23 32 24
REMARK SMILES IDX 13 26 14 27 15 28 29 29 16 30 28 31 17 32 18 33 19 34 27 35
REMARK SMILES IDX 21 36 26 37 22 38 25 39 23 40 24 41 20 42
REMARK H PARENT 5 17 32 25 20 43
ROOT
ATOM      1  C   UNL     1       5.242   0.523   0.225  1.00  0.00     0.140 A 
ATOM      2  N   UNL     1       4.084   0.241  -0.400  1.00  0.00    -0.210 NA
ATOM      3  C   UNL     1       3.301  -0.713   0.139  1.00  0.00     0.165 A 
ATOM      4  N   UNL     1       3.586  -1.368   1.277  1.00  0.00    -0.228 NA
ATOM      5  C   UNL     1       4.742  -1.094   1.883  1.00  0.00     0.077 A 
ATOM      6  C   UNL     1       5.066  -1.786   3.045  1.00  0.00     0.032 A 
ATOM      7  C   UNL     1       6.260  -1.551   3.733  1.00  0.00     0.041 A 
ATOM      8  C   UNL     1       7.146  -0.607   3.244  1.00  0.00     0.124 A 
ATOM      9  F   UNL     1       8.292  -0.373   3.894  1.00  0.00    -0.207 F 
ATOM     10  C   UNL     1       6.854   0.102   2.090  1.00  0.00     0.053 A 
ATOM     11  C   UNL     1       5.641  -0.137   1.400  1.00  0.00     0.046 A 
ENDROOT
BRANCH   1  12
ATOM     12  N   UNL     1       6.071   1.557  -0.310  1.00  0.00    -0.357 N 
ATOM     13  C   UNL     1       5.573   2.835   0.216  1.00  0.00     0.145 C 
BRANCH  12  14
ATOM     14  C   UNL     1       6.082   1.485  -1.787  1.00  0.00     0.146 C 
BRANCH  14  15
ATOM     15  C   UNL     1       7.291   2.225  -2.377  1.00  0.00     0.177 C 
BRANCH  15  16
ATOM     16  O   UNL     1       7.277   2.192  -3.803  1.00  0.00    -0.395 OA
ATOM     17  H   UNL     1       6.419   2.535  -4.103  1.00  0.00     0.210 HD
ENDBRANCH  15  16
ENDBRANCH  14  15
ENDBRANCH  12  14
ENDBRANCH   1  12
BRANCH   3  18
ATOM     18  C   UNL     1       2.019  -0.986  -0.544  1.00  0.00     0.061 A 
ATOM     19  C   UNL     1       1.404   0.032  -1.308  1.00  0.00     0.016 A 
ATOM     20  C   UNL     1       1.351  -2.222  -0.497  1.00  0.00     0.126 A 
ATOM     21  C   UNL     1       0.188  -0.166  -1.976  1.00  0.00     0.006 A 
ATOM     22  C   UNL     1       0.128  -2.421  -1.153  1.00  0.00     0.052 A 
ATOM     23  C   UNL     1      -0.470  -1.394  -1.898  1.00  0.00    -0.030 A 
BRANCH  20  24
ATOM     24  O   UNL     1       1.906  -3.286   0.165  1.00  0.00    -0.507 OA
ATOM     25  H   UNL     1       1.308  -4.049   0.120  1.00  0.00     0.293 HD
ENDBRANCH  20  24
BRANCH  23  26
ATOM     26  C   UNL     1      -1.783  -1.634  -2.613  1.00  0.00     0.120 C 
BRANCH  26  27
ATOM     27  N   UNL     1      -3.000  -1.212  -1.911  1.00  0.00    -0.299 NA
ATOM     28  C   UNL     1      -3.128  -1.695  -0.544  1.00  0.00     0.087 C 
ATOM     29  C   UNL     1      -3.321   0.205  -2.067  1.00  0.00     0.087 C 
ATOM     30  C   UNL     1      -4.595  -1.641  -0.111  1.00  0.00     0.041 C 
ATOM     31  C   UNL     1      -4.368   0.706  -1.064  1.00  0.00     0.041 C 
ATOM     32  C   UNL     1      -5.333  -0.414  -0.673  1.00  0.00     0.095 C 
BRANCH  32  33
ATOM     33  N   UNL     1      -6.413   0.025   0.202  1.00  0.00    -0.291 N 
ATOM     34  C   UNL     1      -7.747  -0.134  -0.068  1.00  0.00     0.295 A 
ATOM     35  C   UNL     1      -6.322   0.578   1.462  1.00  0.00     0.072 A 
ATOM     36  N   UNL     1      -8.524   0.286   0.891  1.00  0.00    -0.195 NA
ATOM     37  C   UNL     1      -5.250   0.927   2.296  1.00  0.00     0.029 A 
ATOM     38  C   UNL     1      -7.655   0.741   1.853  1.00  0.00     0.092 A 
ATOM     39  C   UNL     1      -5.561   1.484   3.543  1.00  0.00     0.002 A 
ATOM     40  C   UNL     1      -7.942   1.296   3.110  1.00  0.00     0.031 A 
ATOM     41  C   UNL     1      -6.883   1.671   3.946  1.00  0.00     0.002 A 
BRANCH  34  42
ATOM     42  O   UNL     1      -8.230  -0.698  -1.156  1.00  0.00    -0.480 OA
ATOM     43  H   UNL     1      -9.185  -0.721  -0.953  1.00  0.00     0.296 HD
ENDBRANCH  34  42
ENDBRANCH  32  33
ENDBRANCH  26  27
ENDBRANCH  23  26
ENDBRANCH   3  18
TORSDOF 10
