MODEL        4USER    Run = 4USERUSER    Estimated Free Energy of Binding    =  -7.85 kcal/mol  [=(1)+(2)+(3)-(4)]USERUSER    (1) Final Intermolecular Energy     = -12.33 kcal/molUSER        vdW + Hbond + desolv Energy     = -12.59 kcal/molUSER        Electrostatic Energy            =  -0.04 kcal/molUSER        Moving Ligand-Fixed Receptor    = -12.62 kcal/molUSER        Moving Ligand-Moving Receptor   =  +0.30 kcal/molUSER    (2) Final Total Internal Energy     =  -3.15 kcal/molUSER    (3) Torsional Free Energy           =  +4.47 kcal/molUSER    (4) Unbound System's Energy         =  -3.15 kcal/molUSERUSERREMARK SMILES Cc1cc(C(=O)N[C@@H]2CNCCC[C@H]2NS(=O)(=O)c2ccc(C(=O)c3cc(C#N)ccc3O)cc2)c(=O)[nH]n1REMARK SMILES IDX 15 1 14 3 8 4 7 5 5 6 6 7 4 9 2 10 3 11 39 12 38 13 36 14REMARK SMILES IDX 1 15 37 17 9 18 10 19 11 21 13 23 12 24 16 26 17 27 18 28REMARK SMILES IDX 19 29 20 30 35 31 21 32 34 33 22 34 23 35 24 36 25 37 26 38REMARK SMILES IDX 32 39 27 40 31 41 30 42 33 43 28 45 29 46REMARK H PARENT 15 2 7 8 38 16 10 20 33 44REMARK Flexibility Score:   99.900USER                              x       y       z     vdW  Elec       q    TypeUSER                           _______ _______ _______ _____ _____    ______ ____ROOTATOM      1  N   UNL     1      40.548  44.682  23.876 -0.07 -0.01    -0.206 NA ATOM      2  H   UNL     1      41.545  44.466  23.843 +0.05 +0.01    +0.141 HD ENDROOTBRANCH   1   3ATOM      3  C   UNL     1      40.093  45.896  24.593 -0.15 +0.01    +0.093 C  BRANCH   3   4ATOM      4  C   UNL     1      40.121  45.647  26.129 -0.12 +0.00    +0.114 C  BRANCH   4   5ATOM      5  N   UNL     1      38.806  45.254  26.651 -0.07 +0.01    -0.346 N  ATOM      6  C   UNL     1      38.247  44.029  26.393 -0.14 -0.01    +0.257 C  ATOM      7  O   UNL     1      38.822  43.171  25.727 -0.12 +0.00    -0.269 OA ATOM      8  H   UNL     1      38.276  45.948  27.182 +0.06 -0.01    +0.164 HD BRANCH   6   9ATOM      9  C   UNL     1      36.891  43.788  26.960 -0.30 -0.02    +0.108 A  ATOM     10  C   UNL     1      34.994  42.325  27.286 -0.54 -0.02    +0.059 A  ATOM     11  C   UNL     1      36.337  42.587  26.733 -0.42 -0.01    +0.045 A  ATOM     12  N   UNL     1      34.321  43.178  27.994 -0.44 +0.04    -0.178 NA ATOM     13  N   UNL     1      34.905  44.389  28.217 -0.42 +0.07    -0.243 N  ATOM     14  C   UNL     1      36.130  44.787  27.744 -0.24 -0.07    +0.277 A  ATOM     15  C   UNL     1      34.374  40.978  27.015 -0.58 -0.03    +0.069 C  ATOM     16  H   UNL     1      34.366  45.056  28.760 +0.06 -0.04    +0.194 HD ATOM     17  O   UNL     1      36.570  45.915  27.957 -0.30 +0.06    -0.267 OA ENDBRANCH   6   9ENDBRANCH   4   5BRANCH   4  18ATOM     18  C   UNL     1      40.673  46.877  26.894 -0.14 +0.01    +0.107 C  BRANCH  18  19ATOM     19  N   UNL     1      39.883  48.108  26.899 -0.13 -0.02    -0.315 NA ATOM     20  H   UNL     1      39.131  48.063  27.587 -0.03 -0.01    +0.122 HD BRANCH  19  21ATOM     21  C   UNL     1      39.375  48.523  25.600 -0.29 +0.01    +0.081 CG0ATOM     22  G   UNL     1      40.441  48.457  24.507 +0.00 +0.00    +0.000 G0 ENDBRANCH  19  21ENDBRANCH  18  19ENDBRANCH   4  18ENDBRANCH   3   4BRANCH   3  23ATOM     23  C   UNL     1      41.024  47.067  24.235 -0.23 +0.00    +0.023 C  BRANCH  23  24ATOM     24  C   UNL     1      40.440  48.454  24.507 -0.36 +0.00    +0.017 CG0ATOM     25  G   UNL     1      39.374  48.521  25.600 +0.00 +0.00    +0.000 G0 ENDBRANCH  23  24ENDBRANCH   3  23ENDBRANCH   1   3BRANCH   1  26ATOM     26  S   UNL     1      39.641  44.015  22.636 -0.24 +0.01    +0.240 S  ATOM     27  O   UNL     1      40.075  42.654  22.422 -0.24 -0.01    -0.207 OA ATOM     28  O   UNL     1      38.261  44.336  22.922 -0.24 -0.01    -0.207 OA BRANCH  26  29ATOM     29  C   UNL     1      40.140  44.975  21.227 -0.27 +0.00    +0.082 A  ATOM     30  C   UNL     1      41.463  45.412  21.125 -0.31 +0.00    +0.022 A  ATOM     31  C   UNL     1      39.195  45.331  20.258 -0.36 -0.00    +0.022 A  ATOM     32  C   UNL     1      41.852  46.182  20.028 -0.40 +0.00    +0.013 A  ATOM     33  C   UNL     1      39.584  46.108  19.165 -0.31 -0.00    +0.013 A  ATOM     34  C   UNL     1      40.911  46.541  19.058 -0.42 -0.00    +0.023 A  BRANCH  34  35ATOM     35  C   UNL     1      41.364  47.337  17.895 -0.43 -0.02    +0.196 C  ATOM     36  O   UNL     1      42.458  47.898  17.945 -0.44 +0.01    -0.288 OA BRANCH  35  37ATOM     37  C   UNL     1      40.553  47.462  16.657 -0.47 -0.01    +0.066 A  ATOM     38  C   UNL     1      39.639  46.469  16.277 -0.43 -0.01    +0.035 A  ATOM     39  C   UNL     1      40.678  48.614  15.867 -0.49 -0.02    +0.126 A  ATOM     40  C   UNL     1      38.892  46.614  15.099 -0.40 -0.02    +0.053 A  ATOM     41  C   UNL     1      39.941  48.757  14.693 -0.49 -0.02    +0.048 A  ATOM     42  C   UNL     1      39.050  47.756  14.307 -0.46 -0.01    +0.023 A  BRANCH  39  43ATOM     43  O   UNL     1      41.516  49.647  16.185 -0.85 -0.01    -0.507 OA ATOM     44  H   UNL     1      41.834  49.509  17.107 +0.20 +0.06    +0.293 HD ENDBRANCH  39  43BRANCH  40  45ATOM     45  C   UNL     1      37.965  45.592  14.708 -0.38 -0.03    +0.099 C  ATOM     46  N   UNL     1      37.213  44.763  14.403 -0.26 +0.07    -0.192 NA ENDBRANCH  40  45ENDBRANCH  35  37ENDBRANCH  34  35ENDBRANCH  26  29ENDBRANCH   1  26TORSDOF 9TERENDMDL