MODEL        9USER    Run = 9USERUSER    Estimated Free Energy of Binding    = -10.48 kcal/mol  [=(1)+(2)+(3)-(4)]USERUSER    (1) Final Intermolecular Energy     = -13.46 kcal/molUSER        vdW + Hbond + desolv Energy     = -13.39 kcal/molUSER        Electrostatic Energy            =  -0.07 kcal/molUSER        Moving Ligand-Fixed Receptor    = -13.46 kcal/molUSER        Moving Ligand-Moving Receptor   =  +0.00 kcal/molUSER    (2) Final Total Internal Energy     =  -3.77 kcal/molUSER    (3) Torsional Free Energy           =  +2.98 kcal/molUSER    (4) Unbound System's Energy         =  -3.77 kcal/molUSERUSERREMARK SMILES CN(CCO)c1nc(-c2ccc(CN3CCC(n4c(O)nc5ccccc54)CC3)cc2O)nc2ccc(F)cc12REMARK SMILES IDX 6 1 7 2 8 3 33 4 34 5 35 6 36 7 37 8 38 9 39 10 40 11 2 12REMARK SMILES IDX 1 13 3 14 4 15 5 16 9 18 10 19 31 20 11 21 30 22 12 23 32 24REMARK SMILES IDX 13 26 14 27 15 28 29 29 16 30 28 31 17 32 18 33 19 34 27 35REMARK SMILES IDX 21 36 26 37 22 38 25 39 23 40 24 41 20 42REMARK H PARENT 5 17 32 25 20 43USER                              x       y       z     vdW  Elec       q    TypeUSER                           _______ _______ _______ _____ _____    ______ ____ROOTATOM      1  C   UNL     1      36.890  44.999  27.131 -0.29 -0.02    +0.140 A  ATOM      2  N   UNL     1      37.447  44.754  25.930 -0.20 +0.01    -0.210 NA ATOM      3  C   UNL     1      37.670  45.807  25.121 -0.21 +0.02    +0.165 A  ATOM      4  N   UNL     1      37.407  47.082  25.453 -0.72 -0.02    -0.228 NA ATOM      5  C   UNL     1      36.842  47.316  26.638 -0.27 -0.01    +0.077 A  ATOM      6  C   UNL     1      36.535  48.627  26.984 -0.36 -0.00    +0.032 A  ATOM      7  C   UNL     1      35.942  48.946  28.209 -0.29 -0.00    +0.041 A  ATOM      8  C   UNL     1      35.648  47.930  29.101 -0.29 -0.02    +0.124 A  ATOM      9  F   UNL     1      35.080  48.223  30.277 -0.10 +0.03    -0.207 F  ATOM     10  C   UNL     1      35.942  46.612  28.789 -0.23 -0.01    +0.053 A  ATOM     11  C   UNL     1      36.547  46.296  27.549 -0.23 -0.01    +0.046 A  ENDROOTBRANCH   1  12ATOM     12  N   UNL     1      36.678  43.900  28.020 -0.19 +0.09    -0.357 N  ATOM     13  C   UNL     1      37.889  43.070  27.989 -0.30 -0.03    +0.145 C  BRANCH  12  14ATOM     14  C   UNL     1      35.447  43.172  27.642 -0.49 -0.04    +0.146 C  BRANCH  14  15ATOM     15  C   UNL     1      35.768  41.914  26.822 -0.47 -0.05    +0.177 C  BRANCH  15  16ATOM     16  O   UNL     1      36.003  42.232  25.451 -0.20 +0.03    -0.395 OA ATOM     17  H   UNL     1      36.810  42.771  25.402 +0.15 -0.01    +0.210 HD ENDBRANCH  15  16ENDBRANCH  14  15ENDBRANCH  12  14ENDBRANCH   1  12BRANCH   3  18ATOM     18  C   UNL     1      38.312  45.522  23.820 -0.26 +0.01    +0.061 A  ATOM     19  C   UNL     1      39.344  46.366  23.351 -0.29 +0.00    +0.016 A  ATOM     20  C   UNL     1      37.968  44.437  22.995 -0.26 +0.01    +0.126 A  ATOM     21  C   UNL     1      39.989  46.148  22.126 -0.17 +0.00    +0.006 A  ATOM     22  C   UNL     1      38.600  44.223  21.762 -0.30 +0.00    +0.052 A  ATOM     23  C   UNL     1      39.616  45.078  21.311 -0.31 -0.00    -0.030 A  BRANCH  20  24ATOM     24  O   UNL     1      37.023  43.530  23.399 -0.11 -0.06    -0.507 OA ATOM     25  H   UNL     1      36.562  43.864  24.185 +0.17 +0.05    +0.293 HD ENDBRANCH  20  24BRANCH  23  26ATOM     26  C   UNL     1      40.299  44.820  19.984 -0.37 +0.00    +0.120 C  BRANCH  26  27ATOM     27  N   UNL     1      39.713  45.470  18.807 -0.23 +0.02    -0.299 NA ATOM     28  C   UNL     1      40.551  45.470  17.616 -0.40 -0.00    +0.087 C  ATOM     29  C   UNL     1      38.323  45.101  18.548 -0.39 -0.01    +0.087 C  ATOM     30  C   UNL     1      40.091  46.573  16.660 -0.51 -0.01    +0.041 C  ATOM     31  C   UNL     1      37.839  45.496  17.147 -0.40 -0.01    +0.041 C  ATOM     32  C   UNL     1      38.563  46.748  16.649 -0.40 -0.03    +0.095 C  BRANCH  32  33ATOM     33  N   UNL     1      38.075  47.231  15.364 -0.21 +0.14    -0.291 N  ATOM     34  C   UNL     1      38.098  48.542  14.965 -0.28 -0.19    +0.295 A  ATOM     35  C   UNL     1      37.600  46.497  14.298 -0.38 -0.03    +0.072 A  ATOM     36  N   UNL     1      37.661  48.723  13.750 -0.55 +0.09    -0.195 NA ATOM     37  C   UNL     1      37.394  45.128  14.075 -0.38 -0.01    +0.029 A  ATOM     38  C   UNL     1      37.338  47.460  13.318 -0.49 -0.03    +0.092 A  ATOM     39  C   UNL     1      36.878  44.750  12.828 -0.46 -0.00    +0.002 A  ATOM     40  C   UNL     1      36.827  47.057  12.074 -0.66 -0.01    +0.031 A  ATOM     41  C   UNL     1      36.594  45.696  11.843 -0.58 -0.00    +0.002 A  BRANCH  34  42ATOM     42  O   UNL     1      38.558  49.539  15.693 -0.11 +0.37    -0.480 OA ATOM     43  H   UNL     1      38.046  50.291  15.335 -0.32 -0.31    +0.296 HD ENDBRANCH  34  42ENDBRANCH  32  33ENDBRANCH  26  27ENDBRANCH  23  26ENDBRANCH   3  18TORSDOF 10TERENDMDL