REMARK SMILES Cc1cc(C(=O)N[C@@H]2CNCCC[C@H]2NS(=O)(=O)c2ccc(C(=O)c3cc(C#N)ccc3O)cc2)c(=O)[nH]n1
REMARK SMILES IDX 15 1 14 3 8 4 7 5 5 6 6 7 4 9 2 10 3 11 39 12 38 13 36 14
REMARK SMILES IDX 1 15 37 17 9 18 10 19 11 21 13 23 12 24 16 26 17 27 18 28
REMARK SMILES IDX 19 29 20 30 35 31 21 32 34 33 22 34 23 35 24 36 25 37 26 38
REMARK SMILES IDX 32 39 27 40 31 41 30 42 33 43 28 45 29 46
REMARK H PARENT 15 2 7 8 38 16 10 20 33 44
REMARK Flexibility Score:   99.900
ROOT
ATOM      1  N   UNL     1      -1.349  -1.611  -2.047  1.00  0.00    -0.206 NA
ATOM      2  H   UNL     1      -2.127  -1.301  -2.630  1.00  0.00     0.141 HD
ENDROOT
BRANCH   1   3
ATOM      3  C   UNL     1      -1.625  -2.438  -0.849  1.00  0.00     0.093 C 
BRANCH   3   4
ATOM      4  C   UNL     1      -2.715  -1.754   0.027  1.00  0.00     0.114 C 
BRANCH   4   5
ATOM      5  N   UNL     1      -2.731  -0.296  -0.146  1.00  0.00    -0.346 N 
ATOM      6  C   UNL     1      -3.807   0.476   0.210  1.00  0.00     0.257 C 
ATOM      7  O   UNL     1      -4.818  -0.000   0.720  1.00  0.00    -0.269 OA
ATOM      8  H   UNL     1      -1.925   0.141  -0.598  1.00  0.00     0.164 HD
BRANCH   6   9
ATOM      9  C   UNL     1      -3.691   1.937  -0.060  1.00  0.00     0.108 A 
ATOM     10  C   UNL     1      -4.618   4.165   0.078  1.00  0.00     0.059 A 
ATOM     11  C   UNL     1      -4.711   2.714   0.334  1.00  0.00     0.045 A 
ATOM     12  N   UNL     1      -3.603   4.739  -0.490  1.00  0.00    -0.178 NA
ATOM     13  N   UNL     1      -2.576   3.931  -0.876  1.00  0.00    -0.243 N 
ATOM     14  C   UNL     1      -2.533   2.567  -0.733  1.00  0.00     0.277 A 
ATOM     15  C   UNL     1      -5.774   5.030   0.512  1.00  0.00     0.069 C 
ATOM     16  H   UNL     1      -1.792   4.386  -1.332  1.00  0.00     0.194 HD
ATOM     17  O   UNL     1      -1.584   1.903  -1.146  1.00  0.00    -0.267 OA
ENDBRANCH   6   9
ENDBRANCH   4   5
BRANCH   4  18
ATOM     18  C   UNL     1      -2.560  -2.129   1.523  1.00  0.00     0.107 C 
BRANCH  18  19
ATOM     19  N   UNL     1      -2.239  -3.514   1.866  1.00  0.00    -0.315 NA
ATOM     20  H   UNL     1      -1.231  -3.669   1.878  1.00  0.00     0.122 HD
BRANCH  19  21
ATOM     21  C   UNL     1      -2.911  -4.523   1.061  1.00  0.00     0.081 CG0
ATOM     22  G   UNL     1      -2.125  -4.887  -0.198  1.00  0.00     0.000 G0
ENDBRANCH  19  21
ENDBRANCH  18  19
ENDBRANCH   4  18
ENDBRANCH   3   4
BRANCH   3  23
ATOM     23  C   UNL     1      -2.111  -3.826  -1.300  1.00  0.00     0.023 C 
BRANCH  23  24
ATOM     24  C   UNL     1      -2.125  -4.887  -0.198  1.00  0.00     0.017 CG0
ATOM     25  G   UNL     1      -2.911  -4.523   1.061  1.00  0.00     0.000 G0
ENDBRANCH  23  24
ENDBRANCH   3  23
ENDBRANCH   1   3
BRANCH   1  26
ATOM     26  S   UNL     1       0.131  -1.682  -2.827  1.00  0.00     0.240 S 
ATOM     27  O   UNL     1       0.635  -3.034  -2.747  1.00  0.00    -0.207 OA
ATOM     28  O   UNL     1      -0.043  -1.011  -4.095  1.00  0.00    -0.207 OA
BRANCH  26  29
ATOM     29  C   UNL     1       1.161  -0.655  -1.807  1.00  0.00     0.082 A 
ATOM     30  C   UNL     1       1.156   0.729  -1.996  1.00  0.00     0.022 A 
ATOM     31  C   UNL     1       2.008  -1.242  -0.860  1.00  0.00     0.022 A 
ATOM     32  C   UNL     1       1.979   1.536  -1.209  1.00  0.00     0.013 A 
ATOM     33  C   UNL     1       2.837  -0.434  -0.078  1.00  0.00     0.013 A 
ATOM     34  C   UNL     1       2.828   0.954  -0.262  1.00  0.00     0.023 A 
BRANCH  34  35
ATOM     35  C   UNL     1       3.668   1.841   0.573  1.00  0.00     0.196 C 
ATOM     36  O   UNL     1       3.163   2.847   1.070  1.00  0.00    -0.288 OA
BRANCH  35  37
ATOM     37  C   UNL     1       5.097   1.546   0.853  1.00  0.00     0.066 A 
ATOM     38  C   UNL     1       5.877   0.795  -0.038  1.00  0.00     0.035 A 
ATOM     39  C   UNL     1       5.689   2.057   2.017  1.00  0.00     0.126 A 
ATOM     40  C   UNL     1       7.222   0.529   0.257  1.00  0.00     0.053 A 
ATOM     41  C   UNL     1       7.023   1.788   2.315  1.00  0.00     0.048 A 
ATOM     42  C   UNL     1       7.790   1.022   1.437  1.00  0.00     0.023 A 
BRANCH  39  43
ATOM     43  O   UNL     1       5.011   2.830   2.919  1.00  0.00    -0.507 OA
ATOM     44  H   UNL     1       4.159   3.103   2.507  1.00  0.00     0.293 HD
ENDBRANCH  39  43
BRANCH  40  45
ATOM     45  C   UNL     1       8.015  -0.247  -0.651  1.00  0.00     0.099 C 
ATOM     46  N   UNL     1       8.648  -0.884  -1.386  1.00  0.00    -0.192 NA
ENDBRANCH  40  45
ENDBRANCH  35  37
ENDBRANCH  34  35
ENDBRANCH  26  29
ENDBRANCH   1  26
TORSDOF 9
