MODEL        7USER    Run = 7USERUSER    Estimated Free Energy of Binding    = -10.79 kcal/mol  [=(1)+(2)+(3)-(4)]USERUSER    (1) Final Intermolecular Energy     = -12.88 kcal/molUSER        vdW + Hbond + desolv Energy     = -12.91 kcal/molUSER        Electrostatic Energy            =  +0.04 kcal/molUSER        Moving Ligand-Fixed Receptor    = -12.88 kcal/molUSER        Moving Ligand-Moving Receptor   =  +0.00 kcal/molUSER    (2) Final Total Internal Energy     =  -1.20 kcal/molUSER    (3) Torsional Free Energy           =  +2.09 kcal/molUSER    (4) Unbound System's Energy         =  -1.20 kcal/molUSERUSERREMARK SMILES N#Cc1ccc(C(=O)c2ccc(CN3CCN(c4nc5ccccc5[nH]4)CC3)c(F)c2)c(O)c1REMARK SMILES IDX 9 1 10 2 11 3 12 4 29 5 30 6 31 7 7 8 8 9 6 10 3 11 4 12REMARK SMILES IDX 34 13 5 14 32 15 2 16 1 17 33 18 13 20 14 21 15 22 28 23REMARK SMILES IDX 16 24 27 25 17 26 18 27 19 28 26 29 20 30 25 31 21 32 24 33REMARK SMILES IDX 22 34 23 35REMARK H PARENT 33 19 26 36USER                              x       y       z     vdW  Elec       q    TypeUSER                           _______ _______ _______ _____ _____    ______ ____ROOTATOM      1  C   UNL     1      40.888  46.997  17.593 -0.50 -0.00    +0.026 A  ATOM      2  C   UNL     1      40.303  45.727  17.547 -0.42 -0.00    +0.013 A  ATOM      3  C   UNL     1      40.483  44.834  18.606 -0.43 -0.00    +0.009 A  ATOM      4  C   UNL     1      41.232  45.203  19.734 -0.40 +0.00    +0.002 A  ATOM      5  C   UNL     1      41.796  46.483  19.762 -0.35 +0.01    +0.128 A  ATOM      6  F   UNL     1      42.532  46.869  20.813 -0.11 -0.04    -0.207 F  ATOM      7  C   UNL     1      41.624  47.384  18.714 -0.42 -0.00    +0.051 A  ENDROOTBRANCH   1   8ATOM      8  C   UNL     1      40.665  47.920  16.458 -0.46 -0.03    +0.196 C  ATOM      9  O   UNL     1      41.376  48.918  16.349 -0.96 +0.00    -0.288 OA BRANCH   8  10ATOM     10  C   UNL     1      39.621  47.678  15.429 -0.47 -0.02    +0.064 A  ATOM     11  C   UNL     1      37.617  47.282  13.497 -0.49 -0.02    +0.056 A  ATOM     12  C   UNL     1      38.493  46.240  13.830 -0.33 -0.01    +0.020 A  ATOM     13  C   UNL     1      37.731  48.516  14.142 -0.48 -0.04    +0.066 A  ATOM     14  C   UNL     1      39.488  46.435  14.797 -0.43 -0.00    +0.017 A  ATOM     15  C   UNL     1      38.719  48.704  15.109 -0.37 -0.07    +0.128 A  BRANCH  11  16ATOM     16  C   UNL     1      36.598  47.078  12.509 -0.66 -0.04    +0.099 C  ATOM     17  N   UNL     1      35.774  46.925  11.706 -0.47 +0.12    -0.192 NA ENDBRANCH  11  16BRANCH  15  18ATOM     18  O   UNL     1      38.748  49.932  15.714 +0.14 +0.41    -0.507 OA ATOM     19  H   UNL     1      39.678  50.257  15.692 -0.17 -0.20    +0.293 HD ENDBRANCH  15  18ENDBRANCH   8  10ENDBRANCH   1   8BRANCH   4  20ATOM     20  C   UNL     1      41.441  44.235  20.876 -0.31 +0.01    +0.123 C  BRANCH  20  21ATOM     21  N   UNL     1      40.283  43.939  21.715 -0.11 -0.01    -0.295 NA ATOM     22  C   UNL     1      39.018  44.570  21.325 -0.32 +0.00    +0.106 C  ATOM     23  C   UNL     1      40.523  43.975  23.170 -0.20 +0.00    +0.106 C  ATOM     24  C   UNL     1      37.853  44.135  22.244 -0.33 +0.01    +0.135 C  ATOM     25  C   UNL     1      39.510  44.822  23.974 -0.16 +0.01    +0.135 C  ATOM     26  N   UNL     1      38.123  44.437  23.661 -0.12 -0.03    -0.340 N  BRANCH  26  27ATOM     27  C   UNL     1      37.396  43.844  24.643 -0.21 +0.01    +0.203 A  ATOM     28  N   UNL     1      37.410  42.584  25.018 -0.23 +0.00    -0.213 NA ATOM     29  N   UNL     1      36.536  44.566  25.433 -0.17 -0.00    -0.324 N  ATOM     30  C   UNL     1      36.511  42.486  26.051 -0.36 -0.01    +0.091 A  ATOM     31  C   UNL     1      35.946  43.721  26.334 -0.36 -0.01    +0.067 A  ATOM     32  C   UNL     1      36.126  41.369  26.805 -0.52 -0.01    +0.030 A  ATOM     33  C   UNL     1      35.003  43.926  27.345 -0.44 -0.01    +0.028 A  ATOM     34  C   UNL     1      35.179  41.541  27.826 -0.58 -0.00    +0.002 A  ATOM     35  C   UNL     1      34.631  42.798  28.090 -0.49 -0.00    +0.002 A  ATOM     36  H   UNL     1      36.387  45.559  25.369 -0.20 +0.00    +0.170 HD ENDBRANCH  26  27ENDBRANCH  20  21ENDBRANCH   4  20TORSDOF 7TERENDMDL