MODEL        8USER    Run = 8USERUSER    Estimated Free Energy of Binding    = -12.71 kcal/mol  [=(1)+(2)+(3)-(4)]USERUSER    (1) Final Intermolecular Energy     = -14.79 kcal/molUSER        vdW + Hbond + desolv Energy     = -14.44 kcal/molUSER        Electrostatic Energy            =  -0.36 kcal/molUSER        Moving Ligand-Fixed Receptor    = -14.79 kcal/molUSER        Moving Ligand-Moving Receptor   =  +0.00 kcal/molUSER    (2) Final Total Internal Energy     =  -1.24 kcal/molUSER    (3) Torsional Free Energy           =  +2.09 kcal/molUSER    (4) Unbound System's Energy         =  -1.24 kcal/molUSERUSERREMARK SMILES Oc1ccc2nc(-c3ccc(CN4CCC(n5c(O)nc6ccccc65)CC4)cc3)c(-c3ccncc3)nc2c1REMARK SMILES IDX 12 1 11 2 8 3 9 4 30 5 10 6 29 7 7 8 2 9 3 10 40 11 4 12REMARK SMILES IDX 39 13 5 14 38 15 6 16 31 17 1 18 32 20 33 21 37 22 34 23REMARK SMILES IDX 36 24 35 25 13 26 14 27 28 28 15 29 27 30 16 31 17 32 18 33REMARK SMILES IDX 26 34 20 35 25 36 21 37 24 38 22 39 23 40 19 41REMARK H PARENT 1 19 19 42USER                              x       y       z     vdW  Elec       q    TypeUSER                           _______ _______ _______ _____ _____    ______ ____ROOTATOM      1  C   UNL     1      32.451  43.211  16.109 -0.30 -0.06    +0.120 C  ENDROOTBRANCH   1   2ATOM      2  C   UNL     1      33.805  43.823  16.408 -0.31 +0.02    -0.034 A  ATOM      3  C   UNL     1      36.338  44.982  16.953 -0.33 -0.00    +0.002 A  ATOM      4  C   UNL     1      35.149  45.669  17.247 -0.35 -0.01    +0.011 A  ATOM      5  C   UNL     1      36.230  43.695  16.398 -0.38 -0.00    +0.011 A  ATOM      6  C   UNL     1      33.900  45.103  16.971 -0.33 -0.00    +0.006 A  ATOM      7  C   UNL     1      34.983  43.125  16.122 -0.41 -0.00    +0.006 A  BRANCH   3   8ATOM      8  C   UNL     1      37.664  45.562  17.233 -0.30 -0.03    +0.097 A  ATOM      9  C   UNL     1      41.891  46.635  19.537 -0.38 +0.01    +0.117 A  ATOM     10  C   UNL     1      41.268  45.672  20.314 -0.35 +0.00    +0.048 A  ATOM     11  C   UNL     1      41.297  47.092  18.366 -0.46 -0.00    +0.076 A  ATOM     12  C   UNL     1      40.036  45.162  19.906 -0.38 +0.00    +0.034 A  ATOM     13  C   UNL     1      40.068  46.589  17.957 -0.41 -0.01    +0.093 A  ATOM     14  C   UNL     1      39.425  45.603  18.739 -0.37 -0.01    +0.090 A  ATOM     15  N   UNL     1      39.516  47.047  16.819 -0.29 +0.06    -0.244 NA ATOM     16  N   UNL     1      38.236  45.091  18.378 -0.23 +0.04    -0.244 NA ATOM     17  C   UNL     1      38.313  46.524  16.443 -0.33 -0.04    +0.097 A  BRANCH   9  18ATOM     18  O   UNL     1      43.095  47.112  19.959 -0.22 -0.14    -0.508 OA ATOM     19  H   UNL     1      43.079  48.083  19.939 -0.31 -0.02    +0.293 HD ENDBRANCH   9  18BRANCH  17  20ATOM     20  C   UNL     1      37.819  47.048  15.158 -0.43 -0.00    +0.005 A  ATOM     21  C   UNL     1      37.491  48.405  15.027 -0.50 -0.02    +0.030 A  ATOM     22  C   UNL     1      37.682  46.240  14.023 -0.42 -0.01    +0.030 A  ATOM     23  C   UNL     1      37.027  48.876  13.809 -0.37 -0.07    +0.111 A  ATOM     24  C   UNL     1      37.206  46.800  12.847 -0.50 -0.04    +0.111 A  ATOM     25  N   UNL     1      36.869  48.099  12.718 -0.94 +0.08    -0.265 NA ENDBRANCH  17  20ENDBRANCH   3   8ENDBRANCH   1   2BRANCH   1  26ATOM     26  N   UNL     1      31.926  42.384  17.213 -0.12 +0.10    -0.299 NA ATOM     27  C   UNL     1      30.642  41.785  16.820 -0.32 -0.03    +0.087 C  ATOM     28  C   UNL     1      32.891  41.345  17.610 -0.37 -0.03    +0.087 C  ATOM     29  C   UNL     1      30.024  41.003  17.977 -0.24 -0.00    +0.041 C  ATOM     30  C   UNL     1      32.370  40.547  18.804 -0.35 +0.00    +0.041 C  ATOM     31  C   UNL     1      31.000  39.941  18.493 -0.37 +0.00    +0.095 C  BRANCH  31  32ATOM     32  N   UNL     1      30.460  39.165  19.600 -0.17 -0.03    -0.291 N  ATOM     33  C   UNL     1      31.163  38.809  20.720 -0.23 +0.05    +0.295 A  ATOM     34  C   UNL     1      29.187  38.652  19.750 -0.27 +0.01    +0.072 A  ATOM     35  N   UNL     1      30.462  38.120  21.576 -0.26 -0.01    -0.195 NA ATOM     36  C   UNL     1      28.029  38.676  18.959 -0.23 +0.01    +0.029 A  ATOM     37  C   UNL     1      29.225  38.009  20.990 -0.18 +0.00    +0.092 A  ATOM     38  C   UNL     1      26.896  38.021  19.455 -0.25 -0.00    +0.002 A  ATOM     39  C   UNL     1      28.076  37.362  21.471 -0.27 -0.01    +0.031 A  ATOM     40  C   UNL     1      26.915  37.373  20.690 -0.29 -0.00    +0.002 A  BRANCH  33  41ATOM     41  O   UNL     1      32.425  39.111  20.943 -0.97 -0.28    -0.480 OA ATOM     42  H   UNL     1      32.536  38.789  21.856 +0.06 +0.12    +0.296 HD ENDBRANCH  33  41ENDBRANCH  31  32ENDBRANCH   1  26TORSDOF 7TERENDMDL