MODEL        4USER    Run = 4USERUSER    Estimated Free Energy of Binding    = -10.02 kcal/mol  [=(1)+(2)+(3)-(4)]USERUSER    (1) Final Intermolecular Energy     = -12.41 kcal/molUSER        vdW + Hbond + desolv Energy     = -11.99 kcal/molUSER        Electrostatic Energy            =  -0.42 kcal/molUSER        Moving Ligand-Fixed Receptor    = -12.41 kcal/molUSER        Moving Ligand-Moving Receptor   =  +0.00 kcal/molUSER    (2) Final Total Internal Energy     =  -1.91 kcal/molUSER    (3) Torsional Free Energy           =  +2.39 kcal/molUSER    (4) Unbound System's Energy         =  -1.91 kcal/molUSERUSERREMARK SMILES NS(=O)(=O)C=C1C=C(Nc2nc3ccccc3nc2N2CCN(CC(=O)N3CCOCC3)CC2)[C@@H]1FREMARK SMILES IDX 9 1 8 3 6 4 7 5 35 6 36 7 5 8 2 9 3 10 4 11 1 12 10 15 11 16REMARK SMILES IDX 19 17 12 18 18 19 13 20 17 21 14 22 16 23 15 24 20 25 21 26REMARK SMILES IDX 34 27 22 28 33 29 23 30 24 31 25 32 27 33 28 34 32 35 29 36REMARK SMILES IDX 31 37 30 38 26 39REMARK H PARENT 9 2 1 13 1 14USER                              x       y       z     vdW  Elec       q    TypeUSER                           _______ _______ _______ _____ _____    ______ ____ROOTATOM      1  N   UNL     1      30.177  40.526  16.566 -0.20 +0.05    -0.338 N  ATOM      2  H   UNL     1      31.003  40.979  16.170 -0.32 -0.08    +0.168 HD ENDROOTBRANCH   1   3ATOM      3  C   UNL     1      28.966  40.777  16.128 -0.40 -0.01    +0.056 C  ATOM      4  C   UNL     1      27.084  41.249  15.482 -0.36 -0.00    +0.006 C  ATOM      5  C   UNL     1      28.265  40.614  14.972 -0.33 -0.01    +0.033 C  ATOM      6  C   UNL     1      27.730  41.404  16.841 -0.14 -0.03    +0.244 C  ATOM      7  F   UNL     1      27.164  40.725  17.872 +0.00 +0.00    -0.235 F  BRANCH   4   8ATOM      8  C   UNL     1      25.883  41.587  15.003 -0.31 -0.05    +0.129 C  BRANCH   8   9ATOM      9  S   UNL     1      25.440  43.228  14.760 -0.34 -0.08    +0.231 S  ATOM     10  O   UNL     1      26.415  44.100  15.377 -0.23 +0.08    -0.208 OA ATOM     11  O   UNL     1      24.021  43.431  14.956 -0.31 -0.02    -0.208 OA BRANCH   9  12ATOM     12  N   UNL     1      25.653  43.480  13.103 -0.13 +0.12    -0.225 NA ATOM     13  H   UNL     1      25.808  42.573  12.655 -0.48 -0.13    +0.137 HD ATOM     14  H   UNL     1      26.459  44.098  12.981 -0.46 -0.19    +0.137 HD ENDBRANCH   9  12ENDBRANCH   8   9ENDBRANCH   4   8ENDBRANCH   1   3BRANCH   1  15ATOM     15  C   UNL     1      30.540  39.948  17.810 -0.25 +0.00    +0.174 A  ATOM     16  N   UNL     1      29.890  38.855  18.271 -0.24 -0.06    -0.225 NA ATOM     17  C   UNL     1      31.603  40.544  18.548 -0.27 -0.01    +0.172 A  ATOM     18  C   UNL     1      30.278  38.371  19.462 -0.34 +0.02    +0.091 A  ATOM     19  N   UNL     1      31.976  40.059  19.755 -0.74 -0.05    -0.225 NA ATOM     20  C   UNL     1      29.642  37.249  19.979 -0.27 +0.01    +0.031 A  ATOM     21  C   UNL     1      31.318  38.977  20.208 -0.38 +0.02    +0.091 A  ATOM     22  C   UNL     1      30.004  36.713  21.216 -0.37 +0.00    +0.002 A  ATOM     23  C   UNL     1      31.668  38.435  21.438 -0.41 +0.01    +0.031 A  ATOM     24  C   UNL     1      31.019  37.311  21.951 -0.50 +0.00    +0.002 A  BRANCH  17  25ATOM     25  N   UNL     1      32.287  41.670  17.997 -0.13 +0.08    -0.351 N  ATOM     26  C   UNL     1      33.706  41.620  18.450 -0.31 -0.02    +0.134 C  ATOM     27  C   UNL     1      31.613  42.951  18.317 -0.27 -0.02    +0.134 C  ATOM     28  C   UNL     1      34.346  43.026  18.412 -0.35 -0.02    +0.106 C  ATOM     29  C   UNL     1      32.264  43.677  19.515 -0.41 -0.00    +0.106 C  ATOM     30  N   UNL     1      33.703  43.995  19.337 -0.25 +0.05    -0.291 NA BRANCH  30  31ATOM     31  C   UNL     1      33.880  45.383  18.850 -0.34 -0.08    +0.185 C  BRANCH  31  32ATOM     32  C   UNL     1      33.697  45.496  17.328 -0.25 -0.17    +0.236 C  ATOM     33  N   UNL     1      34.800  45.815  16.551 -0.12 +0.31    -0.337 N  ATOM     34  C   UNL     1      34.663  45.870  15.095 -0.28 -0.14    +0.148 C  ATOM     35  C   UNL     1      36.149  46.064  17.064 -0.31 -0.09    +0.148 C  ATOM     36  C   UNL     1      35.978  45.505  14.405 -0.32 -0.10    +0.181 C  ATOM     37  C   UNL     1      36.955  46.924  16.086 -0.31 -0.13    +0.181 C  ATOM     38  O   UNL     1      37.081  46.346  14.780 -0.14 +0.19    -0.378 OA ATOM     39  O   UNL     1      32.580  45.328  16.830 -0.40 +0.15    -0.273 OA ENDBRANCH  31  32ENDBRANCH  30  31ENDBRANCH  17  25ENDBRANCH   1  15TORSDOF 8TERENDMDL