REMARK SMILES NS(=O)(=O)C=C1C=C(Nc2nc3ccccc3nc2N2CCN(CC(=O)N3CCOCC3)CC2)[C@@H]1F
REMARK SMILES IDX 9 1 8 3 6 4 7 5 35 6 36 7 5 8 2 9 3 10 4 11 1 12 10 15 11 16
REMARK SMILES IDX 19 17 12 18 18 19 13 20 17 21 14 22 16 23 15 24 20 25 21 26
REMARK SMILES IDX 34 27 22 28 33 29 23 30 24 31 25 32 27 33 28 34 32 35 29 36
REMARK SMILES IDX 31 37 30 38 26 39
REMARK H PARENT 9 2 1 13 1 14
ROOT
ATOM      1  N   UNL     1       2.612  -0.561   0.210  1.00  0.00    -0.338 N 
ATOM      2  H   UNL     1       1.971  -1.214   0.664  1.00  0.00     0.168 HD
ENDROOT
BRANCH   1   3
ATOM      3  C   UNL     1       3.724  -0.957  -0.362  1.00  0.00     0.056 C 
ATOM      4  C   UNL     1       5.502  -1.514  -1.205  1.00  0.00     0.006 C 
ATOM      5  C   UNL     1       4.333  -2.139  -0.658  1.00  0.00     0.033 C 
ATOM      6  C   UNL     1       4.888  -0.146  -1.007  1.00  0.00     0.244 C 
ATOM      7  F   UNL     1       4.629   0.580  -2.126  1.00  0.00    -0.235 F 
BRANCH   4   8
ATOM      8  C   UNL     1       6.675  -1.920  -1.701  1.00  0.00     0.129 C 
BRANCH   8   9
ATOM      9  S   UNL     1       7.082  -3.585  -1.804  1.00  0.00     0.231 S 
ATOM     10  O   UNL     1       6.854  -4.067  -3.148  1.00  0.00    -0.208 OA
ATOM     11  O   UNL     1       6.608  -4.321  -0.652  1.00  0.00    -0.208 OA
BRANCH   9  12
ATOM     12  N   UNL     1       8.762  -3.618  -1.634  1.00  0.00    -0.225 NA
ATOM     13  H   UNL     1       9.163  -4.061  -2.464  1.00  0.00     0.137 HD
ATOM     14  H   UNL     1       8.981  -4.148  -0.786  1.00  0.00     0.137 HD
ENDBRANCH   9  12
ENDBRANCH   8   9
ENDBRANCH   4   8
ENDBRANCH   1   3
BRANCH   1  15
ATOM     15  C   UNL     1       2.284   0.753   0.636  1.00  0.00     0.174 A 
ATOM     16  N   UNL     1       3.181   1.757   0.506  1.00  0.00    -0.225 NA
ATOM     17  C   UNL     1       0.992   0.980   1.193  1.00  0.00     0.172 A 
ATOM     18  C   UNL     1       2.806   2.970   0.944  1.00  0.00     0.091 A 
ATOM     19  N   UNL     1       0.630   2.202   1.647  1.00  0.00    -0.225 NA
ATOM     20  C   UNL     1       3.691   4.035   0.832  1.00  0.00     0.031 A 
ATOM     21  C   UNL     1       1.532   3.192   1.520  1.00  0.00     0.091 A 
ATOM     22  C   UNL     1       3.351   5.313   1.279  1.00  0.00     0.002 A 
ATOM     23  C   UNL     1       1.206   4.468   1.962  1.00  0.00     0.031 A 
ATOM     24  C   UNL     1       2.104   5.530   1.850  1.00  0.00     0.002 A 
BRANCH  17  25
ATOM     25  N   UNL     1       0.066  -0.105   1.267  1.00  0.00    -0.351 N 
ATOM     26  C   UNL     1      -0.614  -0.226  -0.054  1.00  0.00     0.134 C 
ATOM     27  C   UNL     1      -0.877   0.035   2.402  1.00  0.00     0.134 C 
ATOM     28  C   UNL     1      -1.981  -0.932   0.094  1.00  0.00     0.106 C 
ATOM     29  C   UNL     1      -2.241   0.615   1.969  1.00  0.00     0.106 C 
ATOM     30  N   UNL     1      -2.949  -0.179   0.933  1.00  0.00    -0.291 NA
BRANCH  30  31
ATOM     31  C   UNL     1      -3.932  -1.097   1.553  1.00  0.00     0.185 C 
BRANCH  31  32
ATOM     32  C   UNL     1      -4.748  -1.873   0.507  1.00  0.00     0.236 C 
ATOM     33  N   UNL     1      -5.566  -1.161  -0.356  1.00  0.00    -0.337 N 
ATOM     34  C   UNL     1      -6.306  -1.873  -1.398  1.00  0.00     0.148 C 
ATOM     35  C   UNL     1      -5.729   0.295  -0.354  1.00  0.00     0.148 C 
ATOM     36  C   UNL     1      -6.526  -0.982  -2.622  1.00  0.00     0.181 C 
ATOM     37  C   UNL     1      -7.066   0.695  -0.984  1.00  0.00     0.181 C 
ATOM     38  O   UNL     1      -7.228   0.237  -2.333  1.00  0.00    -0.378 OA
ATOM     39  O   UNL     1      -4.682  -3.106   0.468  1.00  0.00    -0.273 OA
ENDBRANCH  31  32
ENDBRANCH  30  31
ENDBRANCH  17  25
ENDBRANCH   1  15
TORSDOF 8
