MODEL        9USER    Run = 9USERUSER    Estimated Free Energy of Binding    =  -8.32 kcal/mol  [=(1)+(2)+(3)-(4)]USERUSER    (1) Final Intermolecular Energy     = -10.11 kcal/molUSER        vdW + Hbond + desolv Energy     =  -9.91 kcal/molUSER        Electrostatic Energy            =  -0.20 kcal/molUSER        Moving Ligand-Fixed Receptor    = -10.11 kcal/molUSER        Moving Ligand-Moving Receptor   =  +0.00 kcal/molUSER    (2) Final Total Internal Energy     =  -1.81 kcal/molUSER    (3) Torsional Free Energy           =  +1.79 kcal/molUSER    (4) Unbound System's Energy         =  -1.81 kcal/molUSERUSERREMARK SMILES CNC1=C(NCc2ccncc2)C(Nc2cccc(OC)c2)=NC1=OREMARK SMILES IDX 3 1 4 2 13 3 14 4 23 5 24 6 25 7 2 9 1 10 5 12 6 14 7 15REMARK SMILES IDX 8 16 12 17 9 18 11 19 10 20 15 21 16 22 22 23 17 24 19 25REMARK SMILES IDX 18 26 20 27 21 28REMARK H PARENT 14 8 2 11 5 13USER                              x       y       z     vdW  Elec       q    TypeUSER                           _______ _______ _______ _____ _____    ______ ____ROOTATOM      1  C   UNL     1      34.640  43.742  16.345 -0.33 -0.06    +0.129 C  ATOM      2  C   UNL     1      35.099  44.985  16.166 -0.30 -0.06    +0.107 C  ATOM      3  C   UNL     1      36.505  44.965  16.685 -0.29 -0.07    +0.160 C  ATOM      4  N   UNL     1      37.234  46.128  16.756 -0.15 +0.16    -0.338 N  ATOM      5  N   UNL     1      36.872  43.775  17.051 -0.21 +0.05    -0.188 NA ATOM      6  C   UNL     1      35.797  42.951  16.877 -0.24 -0.10    +0.297 C  ATOM      7  O   UNL     1      35.729  41.756  17.123 -0.22 +0.12    -0.265 OA ATOM      8  H   UNL     1      36.677  46.969  16.661 +0.11 -0.13    +0.168 HD ENDROOTBRANCH   1   9ATOM      9  N   UNL     1      33.419  43.134  16.090 -0.11 +0.19    -0.382 N  ATOM     10  C   UNL     1      32.157  43.553  16.658 -0.28 -0.05    +0.140 C  ATOM     11  H   UNL     1      33.542  42.115  16.097 -0.47 -0.11    +0.160 HD ENDBRANCH   1   9BRANCH   2  12ATOM     12  N   UNL     1      34.501  46.122  15.637 +0.10 +0.47    -0.376 N  ATOM     13  H   UNL     1      33.598  46.244  16.095 -0.25 -0.27    +0.161 HD BRANCH  12  14ATOM     14  C   UNL     1      34.279  46.227  14.191 -0.22 -0.14    +0.149 C  BRANCH  14  15ATOM     15  C   UNL     1      35.566  46.627  13.515 -0.50 +0.02    -0.026 A  ATOM     16  C   UNL     1      35.844  46.224  12.204 -0.58 -0.01    +0.025 A  ATOM     17  C   UNL     1      36.506  47.422  14.177 -0.46 -0.02    +0.025 A  ATOM     18  C   UNL     1      37.037  46.621  11.623 -0.53 -0.04    +0.111 A  ATOM     19  C   UNL     1      37.671  47.769  13.510 -0.45 -0.04    +0.111 A  ATOM     20  N   UNL     1      37.956  47.384  12.248 -0.76 +0.01    -0.265 NA ENDBRANCH  14  15ENDBRANCH  12  14ENDBRANCH   2  12BRANCH   4  21ATOM     21  C   UNL     1      38.545  46.345  17.219 -0.37 -0.01    +0.043 A  ATOM     22  C   UNL     1      39.170  45.550  18.184 -0.41 -0.00    +0.026 A  ATOM     23  C   UNL     1      39.295  47.388  16.638 -0.40 -0.02    +0.072 A  ATOM     24  C   UNL     1      40.487  45.799  18.580 -0.47 -0.00    +0.006 A  ATOM     25  C   UNL     1      40.613  47.645  17.027 -0.43 -0.02    +0.120 A  ATOM     26  C   UNL     1      41.203  46.845  18.003 -0.48 -0.00    +0.046 A  BRANCH  25  27ATOM     27  O   UNL     1      41.422  48.632  16.534 -0.73 +0.01    -0.497 OA ATOM     28  C   UNL     1      40.869  49.494  15.550 -0.48 -0.07    +0.278 C  ENDBRANCH  25  27ENDBRANCH   4  21TORSDOF 6TERENDMDL