MODEL        8USER    Run = 8USERUSER    Estimated Free Energy of Binding    =  -8.30 kcal/mol  [=(1)+(2)+(3)-(4)]USERUSER    (1) Final Intermolecular Energy     =  -9.79 kcal/molUSER        vdW + Hbond + desolv Energy     =  -9.80 kcal/molUSER        Electrostatic Energy            =  +0.02 kcal/molUSER        Moving Ligand-Fixed Receptor    =  -9.79 kcal/molUSER        Moving Ligand-Moving Receptor   =  +0.00 kcal/molUSER    (2) Final Total Internal Energy     =  -0.99 kcal/molUSER    (3) Torsional Free Energy           =  +1.49 kcal/molUSER    (4) Unbound System's Energy         =  -0.99 kcal/molUSERUSERREMARK SMILES COc1ccc(C)c(N2Cc3c(C)nc(N4CC[C@H](N)C4)nc3[C@@H]2C#N)c1FREMARK SMILES IDX 9 1 10 2 11 3 12 4 13 5 14 6 15 7 22 8 23 9 24 10 8 11 3 12REMARK SMILES IDX 4 13 27 14 5 15 6 16 28 17 7 18 2 19 1 20 25 21 26 22 16 23REMARK SMILES IDX 17 24 21 25 18 26 19 27 20 28REMARK H PARENT 20 29 20 30USER                              x       y       z     vdW  Elec       q    TypeUSER                           _______ _______ _______ _____ _____    ______ ____ROOTATOM      1  N   UNL     1      39.676  44.597  21.216 -0.11 -0.01    -0.344 N  ATOM      2  C   UNL     1      38.430  43.943  20.766 -0.24 +0.00    +0.158 C  ATOM      3  C   UNL     1      37.875  43.398  22.034 -0.35 +0.00    +0.018 A  ATOM      4  C   UNL     1      36.873  42.505  22.279 -0.44 +0.00    +0.048 A  ATOM      5  C   UNL     1      36.116  41.839  21.174 -0.54 +0.00    +0.067 C  ATOM      6  N   UNL     1      36.536  42.186  23.550 -0.33 -0.01    -0.218 NA ATOM      7  C   UNL     1      37.195  42.769  24.578 -0.23 +0.01    +0.225 A  ATOM      8  N   UNL     1      38.188  43.658  24.403 -0.15 -0.01    -0.214 NA ATOM      9  C   UNL     1      38.487  43.957  23.129 -0.25 +0.01    +0.088 A  ATOM     10  C   UNL     1      39.571  44.921  22.683 -0.18 +0.01    +0.237 C  ENDROOTBRANCH   1  11ATOM     11  C   UNL     1      40.426  45.425  20.382 -0.33 +0.00    +0.081 A  ATOM     12  C   UNL     1      40.652  46.842  18.358 -0.35 -0.01    +0.156 A  ATOM     13  C   UNL     1      41.948  47.177  18.727 -0.50 +0.00    +0.050 A  ATOM     14  C   UNL     1      39.915  45.974  19.181 -0.27 -0.01    +0.188 A  ATOM     15  C   UNL     1      42.498  46.635  19.888 -0.43 +0.00    +0.009 A  ATOM     16  C   UNL     1      41.767  45.747  20.703 -0.34 -0.00    -0.024 A  ATOM     17  F   UNL     1      38.656  45.694  18.803 -0.12 +0.02    -0.201 F  ATOM     18  C   UNL     1      42.490  45.165  21.891 -0.27 +0.01    +0.047 C  BRANCH  12  19ATOM     19  O   UNL     1      40.004  47.291  17.237 -0.19 +0.10    -0.494 OA ATOM     20  C   UNL     1      40.697  48.216  16.410 -0.40 -0.05    +0.278 C  ENDBRANCH  12  19ENDBRANCH   1  11BRANCH  10  21ATOM     21  C   UNL     1      39.187  46.322  22.973 -0.30 +0.01    +0.094 C  ATOM     22  N   UNL     1      38.871  47.415  23.214 -0.17 -0.03    -0.196 NA ENDBRANCH  10  21BRANCH   7  23ATOM     23  N   UNL     1      36.849  42.416  25.853 -0.16 +0.03    -0.339 N  ATOM     24  C   UNL     1      37.536  41.325  26.520 -0.33 -0.02    +0.121 C  ATOM     25  C   UNL     1      35.482  42.591  26.335 -0.34 -0.02    +0.138 C  ATOM     26  C   UNL     1      36.696  41.103  27.777 -0.57 -0.01    +0.042 C  ATOM     27  C   UNL     1      35.269  41.406  27.313 -0.65 -0.03    +0.072 C  BRANCH  27  28ATOM     28  N   UNL     1      34.657  40.242  26.654 -0.32 +0.20    -0.326 NA ATOM     29  H   UNL     1      33.779  40.522  26.213 -0.45 -0.09    +0.119 HD ATOM     30  H   UNL     1      35.264  39.900  25.912 -0.51 -0.10    +0.119 HD ENDBRANCH  27  28ENDBRANCH   7  23TORSDOF 5TERENDMDL