REMARK SMILES COc1ccc(C)c(N2Cc3c(C)nc(N4CC[C@H](N)C4)nc3[C@@H]2C#N)c1F
REMARK SMILES IDX 9 1 10 2 11 3 12 4 13 5 14 6 15 7 22 8 23 9 24 10 8 11 3 12
REMARK SMILES IDX 4 13 27 14 5 15 6 16 28 17 7 18 2 19 1 20 25 21 26 22 16 23
REMARK SMILES IDX 17 24 21 25 18 26 19 27 20 28
REMARK H PARENT 20 29 20 30
ROOT
ATOM      1  N   UNL     1       1.714  -0.484  -0.224  1.00  0.00    -0.344 N 
ATOM      2  C   UNL     1       1.037  -0.626  -1.530  1.00  0.00     0.158 C 
ATOM      3  C   UNL     1      -0.397  -0.710  -1.143  1.00  0.00     0.018 A 
ATOM      4  C   UNL     1      -1.510  -1.069  -1.845  1.00  0.00     0.048 A 
ATOM      5  C   UNL     1      -1.438  -1.515  -3.271  1.00  0.00     0.067 C 
ATOM      6  N   UNL     1      -2.729  -1.038  -1.260  1.00  0.00    -0.218 NA
ATOM      7  C   UNL     1      -2.837  -0.638   0.028  1.00  0.00     0.225 A 
ATOM      8  N   UNL     1      -1.781  -0.269   0.772  1.00  0.00    -0.214 NA
ATOM      9  C   UNL     1      -0.590  -0.302   0.155  1.00  0.00     0.088 A 
ATOM     10  C   UNL     1       0.741   0.059   0.789  1.00  0.00     0.237 C 
ENDROOT
BRANCH   1  11
ATOM     11  C   UNL     1       3.066  -0.164  -0.118  1.00  0.00     0.081 A 
ATOM     12  C   UNL     1       5.114   0.938  -0.982  1.00  0.00     0.156 A 
ATOM     13  C   UNL     1       5.814   0.547   0.152  1.00  0.00     0.050 A 
ATOM     14  C   UNL     1       3.762   0.577  -1.104  1.00  0.00     0.188 A 
ATOM     15  C   UNL     1       5.172  -0.208   1.133  1.00  0.00     0.009 A 
ATOM     16  C   UNL     1       3.822  -0.589   1.002  1.00  0.00    -0.024 A 
ATOM     17  F   UNL     1       3.113   0.996  -2.204  1.00  0.00    -0.201 F 
ATOM     18  C   UNL     1       3.256  -1.468   2.088  1.00  0.00     0.047 C 
BRANCH  12  19
ATOM     19  O   UNL     1       5.631   1.664  -2.023  1.00  0.00    -0.494 OA
ATOM     20  C   UNL     1       6.964   2.138  -1.889  1.00  0.00     0.278 C 
ENDBRANCH  12  19
ENDBRANCH   1  11
BRANCH  10  21
ATOM     21  C   UNL     1       0.843   1.519   1.012  1.00  0.00     0.094 C 
ATOM     22  N   UNL     1       0.942   2.664   1.196  1.00  0.00    -0.196 NA
ENDBRANCH  10  21
BRANCH   7  23
ATOM     23  N   UNL     1      -4.078  -0.633   0.604  1.00  0.00    -0.339 N 
ATOM     24  C   UNL     1      -5.265  -0.768  -0.220  1.00  0.00     0.121 C 
ATOM     25  C   UNL     1      -4.333   0.119   1.829  1.00  0.00     0.138 C 
ATOM     26  C   UNL     1      -6.401  -0.461   0.755  1.00  0.00     0.042 C 
ATOM     27  C   UNL     1      -5.801   0.599   1.682  1.00  0.00     0.072 C 
BRANCH  27  28
ATOM     28  N   UNL     1      -5.892   1.944   1.095  1.00  0.00    -0.326 NA
ATOM     29  H   UNL     1      -5.284   2.001   0.276  1.00  0.00     0.119 HD
ATOM     30  H   UNL     1      -6.840   2.122   0.771  1.00  0.00     0.119 HD
ENDBRANCH  27  28
ENDBRANCH   7  23
TORSDOF 5
