MODEL        2USER    Run = 2USERUSER    Estimated Free Energy of Binding    =  -8.09 kcal/mol  [=(1)+(2)+(3)-(4)]USERUSER    (1) Final Intermolecular Energy     =  -9.88 kcal/molUSER        vdW + Hbond + desolv Energy     =  -9.58 kcal/molUSER        Electrostatic Energy            =  -0.30 kcal/molUSER        Moving Ligand-Fixed Receptor    =  -9.88 kcal/molUSER        Moving Ligand-Moving Receptor   =  +0.00 kcal/molUSER    (2) Final Total Internal Energy     =  -1.49 kcal/molUSER    (3) Torsional Free Energy           =  +1.79 kcal/molUSER    (4) Unbound System's Energy         =  -1.49 kcal/molUSERUSERREMARK SMILES Cc1ncc2n1[C@]2(NS(=O)(=O)Cc1ccncc1F)c1ccc(O)cc1REMARK SMILES IDX 8 1 7 3 2 4 3 5 6 6 4 7 5 8 1 9 20 10 21 11 26 12 22 13REMARK SMILES IDX 25 14 23 15 24 16 9 18 10 19 11 20 12 21 13 22 14 23 18 24REMARK SMILES IDX 15 25 17 26 16 27 19 28REMARK H PARENT 8 2 24 17USER                              x       y       z     vdW  Elec       q    TypeUSER                           _______ _______ _______ _____ _____    ______ ____ROOTATOM      1  N   UNL     1      38.061  44.180  17.014 -0.18 +0.04    -0.180 NA ATOM      2  H   UNL     1      38.145  43.161  17.037 +0.18 -0.03    +0.144 HD ENDROOTBRANCH   1   3ATOM      3  C   UNL     1      36.766  44.681  16.503 -0.28 -0.06    +0.178 C  ATOM      4  C   UNL     1      34.460  45.338  17.310 -0.28 -0.07    +0.108 A  ATOM      5  N   UNL     1      33.570  44.602  16.686 -0.15 +0.13    -0.241 NA ATOM      6  N   UNL     1      35.641  44.668  17.370 -0.11 +0.12    -0.299 N  ATOM      7  C   UNL     1      34.271  43.484  16.325 -0.26 -0.06    +0.139 A  ATOM      8  C   UNL     1      35.637  43.593  16.484 -0.33 -0.03    +0.087 A  ATOM      9  C   UNL     1      34.242  46.643  17.970 -0.45 -0.09    +0.088 C  BRANCH   3  10ATOM     10  C   UNL     1      36.820  45.600  15.293 -0.37 -0.00    +0.000 A  ATOM     11  C   UNL     1      36.601  45.117  13.988 -0.42 -0.00    +0.012 A  ATOM     12  C   UNL     1      37.033  46.987  15.432 -0.40 -0.01    +0.012 A  ATOM     13  C   UNL     1      36.611  45.968  12.880 -0.53 -0.02    +0.046 A  ATOM     14  C   UNL     1      37.051  47.844  14.328 -0.48 -0.03    +0.046 A  ATOM     15  C   UNL     1      36.840  47.323  13.058 -0.52 -0.05    +0.115 A  BRANCH  15  16ATOM     16  O   UNL     1      36.844  48.120  11.952 -0.79 +0.12    -0.508 OA ATOM     17  H   UNL     1      35.954  48.123  11.565 -0.12 -0.19    +0.293 HD ENDBRANCH  15  16ENDBRANCH   3  10ENDBRANCH   1   3BRANCH   1  18ATOM     18  S   UNL     1      38.575  44.852  18.475 -0.40 -0.03    +0.218 S  ATOM     19  O   UNL     1      38.206  43.872  19.476 -0.25 +0.01    -0.212 OA ATOM     20  O   UNL     1      38.089  46.213  18.547 -0.17 +0.04    -0.212 OA BRANCH  18  21ATOM     21  C   UNL     1      40.360  44.823  18.259 -0.31 -0.00    +0.192 C  BRANCH  21  22ATOM     22  C   UNL     1      40.815  46.199  17.864 -0.49 -0.00    +0.007 A  ATOM     23  C   UNL     1      40.324  46.834  16.718 -0.47 -0.00    +0.028 A  ATOM     24  C   UNL     1      41.770  46.870  18.627 -0.43 +0.00    +0.145 A  ATOM     25  C   UNL     1      40.800  48.099  16.400 -0.46 -0.02    +0.111 A  ATOM     26  C   UNL     1      42.186  48.131  18.236 -0.24 +0.00    +0.150 A  ATOM     27  N   UNL     1      41.718  48.766  17.136 -0.75 -0.02    -0.262 NA ATOM     28  F   UNL     1      42.275  46.305  19.731 -0.13 -0.04    -0.205 F  ENDBRANCH  21  22ENDBRANCH  18  21ENDBRANCH   1  18TORSDOF 6TERENDMDL