REMARK SMILES COc1ccc([C@@]2(NS(=O)(=O)Cc3ccncc3)c3cnc(C)n32)cc1
REMARK SMILES IDX 7 1 19 2 20 3 21 4 22 5 23 6 24 7 6 8 3 9 4 10 26 11 5 12
REMARK SMILES IDX 25 13 2 14 1 15 8 16 9 18 10 19 11 20 12 21 13 22 14 23
REMARK SMILES IDX 18 24 15 25 17 26 16 27
REMARK H PARENT 8 17
ROOT
ATOM      1  C   UNL     1       0.301  -0.665  -1.147  1.00  0.00     0.178 C 
ATOM      2  C   UNL     1       0.593  -0.976  -2.658  1.00  0.00     0.087 A 
ATOM      3  C   UNL     1       1.593  -1.479  -3.466  1.00  0.00     0.139 A 
ATOM      4  N   UNL     1       2.446  -2.344  -2.835  1.00  0.00    -0.241 NA
ATOM      5  C   UNL     1       1.852  -2.586  -1.691  1.00  0.00     0.108 A 
ATOM      6  C   UNL     1       2.292  -3.516  -0.629  1.00  0.00     0.088 C 
ATOM      7  N   UNL     1       0.656  -1.942  -1.657  1.00  0.00    -0.299 N 
ENDROOT
BRANCH   1   8
ATOM      8  C   UNL     1       1.321   0.210  -0.441  1.00  0.00     0.000 A 
ATOM      9  C   UNL     1       3.179   1.877   0.926  1.00  0.00     0.118 A 
ATOM     10  C   UNL     1       2.720   0.703   1.517  1.00  0.00     0.047 A 
ATOM     11  C   UNL     1       2.709   2.224  -0.339  1.00  0.00     0.047 A 
ATOM     12  C   UNL     1       1.802  -0.113   0.841  1.00  0.00     0.012 A 
ATOM     13  C   UNL     1       1.791   1.407  -1.009  1.00  0.00     0.012 A 
BRANCH   9  14
ATOM     14  O   UNL     1       4.068   2.761   1.470  1.00  0.00    -0.497 OA
ATOM     15  C   UNL     1       4.584   2.442   2.757  1.00  0.00     0.278 C 
ENDBRANCH   9  14
ENDBRANCH   1   8
BRANCH   1  16
ATOM     16  N   UNL     1      -1.135  -0.401  -0.877  1.00  0.00    -0.180 NA
ATOM     17  H   UNL     1      -1.315   0.607  -0.853  1.00  0.00     0.144 HD
BRANCH  16  18
ATOM     18  S   UNL     1      -1.705  -1.116   0.546  1.00  0.00     0.218 S 
ATOM     19  O   UNL     1      -1.102  -2.428   0.659  1.00  0.00    -0.212 OA
ATOM     20  O   UNL     1      -1.545  -0.138   1.599  1.00  0.00    -0.212 OA
BRANCH  18  21
ATOM     21  C   UNL     1      -3.458  -1.335   0.199  1.00  0.00     0.189 C 
BRANCH  21  22
ATOM     22  C   UNL     1      -4.069  -0.049  -0.291  1.00  0.00    -0.029 A 
ATOM     23  C   UNL     1      -4.378   0.989   0.595  1.00  0.00     0.025 A 
ATOM     24  C   UNL     1      -4.337   0.140  -1.651  1.00  0.00     0.025 A 
ATOM     25  C   UNL     1      -4.921   2.158   0.088  1.00  0.00     0.111 A 
ATOM     26  C   UNL     1      -4.885   1.345  -2.062  1.00  0.00     0.111 A 
ATOM     27  N   UNL     1      -5.178   2.359  -1.222  1.00  0.00    -0.265 NA
ENDBRANCH  21  22
ENDBRANCH  18  21
ENDBRANCH  16  18
ENDBRANCH   1  16
TORSDOF 6
