MODEL        1USER    Run = 1USERUSER    Estimated Free Energy of Binding    =  -9.16 kcal/mol  [=(1)+(2)+(3)-(4)]USERUSER    (1) Final Intermolecular Energy     = -11.25 kcal/molUSER        vdW + Hbond + desolv Energy     = -10.89 kcal/molUSER        Electrostatic Energy            =  -0.36 kcal/molUSER        Moving Ligand-Fixed Receptor    = -11.25 kcal/molUSER        Moving Ligand-Moving Receptor   =  +0.00 kcal/molUSER    (2) Final Total Internal Energy     =  -1.16 kcal/molUSER    (3) Torsional Free Energy           =  +2.09 kcal/molUSER    (4) Unbound System's Energy         =  -1.16 kcal/molUSERUSERREMARK SMILES Cc1ncc2n1[C@]2(NS(=O)(=O)Cc1ccnc(N)c1)c1ccc(O)cc1REMARK SMILES IDX 8 1 7 3 2 4 3 5 6 6 4 7 5 8 1 9 20 10 21 11 26 12 22 13REMARK SMILES IDX 25 14 23 15 24 16 9 18 10 19 11 20 12 21 13 22 14 23 19 24REMARK SMILES IDX 15 25 17 26 16 27 18 28REMARK H PARENT 8 2 24 17 18 29 18 30USER                              x       y       z     vdW  Elec       q    TypeUSER                           _______ _______ _______ _____ _____    ______ ____ROOTATOM      1  N   UNL     1      37.469  44.008  16.720 -0.23 +0.05    -0.180 NA ATOM      2  H   UNL     1      37.317  43.248  17.388 +0.10 -0.03    +0.144 HD ENDROOTBRANCH   1   3ATOM      3  C   UNL     1      36.230  44.484  16.070 -0.29 -0.07    +0.178 C  ATOM      4  C   UNL     1      34.054  44.794  17.690 -0.26 -0.05    +0.108 A  ATOM      5  N   UNL     1      33.249  43.796  17.463 -0.13 +0.08    -0.241 NA ATOM      6  N   UNL     1      35.183  44.810  16.960 -0.11 +0.15    -0.299 N  ATOM      7  C   UNL     1      33.858  43.116  16.477 -0.27 -0.06    +0.139 A  ATOM      8  C   UNL     1      35.059  43.623  16.107 -0.32 -0.04    +0.087 A  ATOM      9  C   UNL     1      33.800  45.880  18.673 -0.48 -0.05    +0.088 C  BRANCH   3  10ATOM     10  C   UNL     1      36.399  45.431  14.894 -0.38 -0.00    +0.000 A  ATOM     11  C   UNL     1      36.329  46.829  15.068 -0.38 -0.01    +0.012 A  ATOM     12  C   UNL     1      36.665  44.964  13.592 -0.40 -0.00    +0.012 A  ATOM     13  C   UNL     1      36.500  47.710  13.996 -0.46 -0.03    +0.046 A  ATOM     14  C   UNL     1      36.840  45.839  12.514 -0.55 -0.02    +0.046 A  ATOM     15  C   UNL     1      36.754  47.206  12.728 -0.56 -0.05    +0.115 A  BRANCH  15  16ATOM     16  O   UNL     1      36.918  48.099  11.711 -0.62 +0.12    -0.508 OA ATOM     17  H   UNL     1      36.050  48.472  11.485 -0.19 -0.19    +0.293 HD ENDBRANCH  15  16ENDBRANCH   3  10ENDBRANCH   1   3BRANCH   1  18ATOM     18  S   UNL     1      38.453  45.178  17.451 -0.39 -0.04    +0.218 S  ATOM     19  O   UNL     1      37.626  46.149  18.130 -0.23 +0.06    -0.212 OA ATOM     20  O   UNL     1      39.453  44.405  18.160 -0.29 +0.02    -0.212 OA BRANCH  18  21ATOM     21  C   UNL     1      39.206  45.923  15.998 -0.28 -0.04    +0.189 C  BRANCH  21  22ATOM     22  C   UNL     1      40.110  47.048  16.422 -0.48 +0.00    -0.026 A  ATOM     23  C   UNL     1      40.919  46.937  17.554 -0.49 -0.00    +0.025 A  ATOM     24  C   UNL     1      40.152  48.244  15.696 -0.52 -0.01    +0.051 A  ATOM     25  C   UNL     1      41.724  48.011  17.897 -0.35 -0.00    +0.114 A  ATOM     26  C   UNL     1      41.001  49.263  16.110 -0.49 -0.02    +0.123 A  ATOM     27  N   UNL     1      41.783  49.163  17.195 -0.73 -0.04    -0.240 NA BRANCH  26  28ATOM     28  N   UNL     1      41.053  50.467  15.415 -0.34 +0.13    -0.384 N  ATOM     29  H   UNL     1      40.096  50.699  15.161 -0.34 -0.13    +0.158 HD ATOM     30  H   UNL     1      41.484  51.199  15.965 -0.43 -0.07    +0.158 HD ENDBRANCH  26  28ENDBRANCH  21  22ENDBRANCH  18  21ENDBRANCH   1  18TORSDOF 7TERENDMDL