MODEL        10USER    Run = 10USERUSER    Estimated Free Energy of Binding    =  -8.00 kcal/mol  [=(1)+(2)+(3)-(4)]USERUSER    (1) Final Intermolecular Energy     =  -9.79 kcal/molUSER        vdW + Hbond + desolv Energy     =  -9.70 kcal/molUSER        Electrostatic Energy            =  -0.09 kcal/molUSER        Moving Ligand-Fixed Receptor    =  -9.79 kcal/molUSER        Moving Ligand-Moving Receptor   =  +0.00 kcal/molUSER    (2) Final Total Internal Energy     =  -1.61 kcal/molUSER    (3) Torsional Free Energy           =  +1.79 kcal/molUSER    (4) Unbound System's Energy         =  -1.61 kcal/molUSERUSERREMARK SMILES Cc1ncc2n1[C@]2(NS(=O)(=O)Cc1ccncc1)c1ccc(O)cc1FREMARK SMILES IDX 1 1 2 2 3 3 4 4 5 5 6 6 7 7 8 8 9 10 10 11 11 12 12 13 13 14REMARK SMILES IDX 14 15 18 16 15 17 17 18 16 19 19 20 20 21 25 22 21 23 24 24REMARK SMILES IDX 22 25 26 26 23 27REMARK H PARENT 8 9 23 28USER                              x       y       z     vdW  Elec       q    TypeUSER                           _______ _______ _______ _____ _____    ______ ____ROOTATOM      1  C   UNL     1      36.891  44.887  11.562 -0.45 -0.03    +0.088 C  ATOM      2  C   UNL     1      36.776  46.129  12.358 -0.53 -0.04    +0.108 A  ATOM      3  N   UNL     1      37.036  47.351  11.959 -0.99 +0.07    -0.241 NA ATOM      4  C   UNL     1      36.647  48.127  13.017 -0.48 -0.06    +0.139 A  ATOM      5  C   UNL     1      36.401  47.416  14.174 -0.39 -0.06    +0.087 A  ATOM      6  N   UNL     1      36.257  46.150  13.617 -0.24 +0.16    -0.299 N  ATOM      7  C   UNL     1      36.919  46.119  14.878 -0.32 -0.09    +0.181 C  ENDROOTBRANCH   7   8ATOM      8  N   UNL     1      38.392  46.021  14.936 -0.27 +0.06    -0.180 NA ATOM      9  H   UNL     1      38.783  45.654  14.063 +0.09 -0.03    +0.144 HD BRANCH   8  10ATOM     10  S   UNL     1      39.189  47.418  15.422 -0.52 -0.07    +0.218 S  ATOM     11  O   UNL     1      38.357  48.100  16.393 -0.30 +0.13    -0.212 OA ATOM     12  O   UNL     1      39.615  48.092  14.214 -0.42 +0.05    -0.212 OA BRANCH  10  13ATOM     13  C   UNL     1      40.629  46.767  16.282 -0.36 -0.02    +0.189 C  BRANCH  13  14ATOM     14  C   UNL     1      40.246  46.240  17.639 -0.46 +0.00    -0.029 A  ATOM     15  C   UNL     1      39.030  45.575  17.826 -0.40 -0.00    +0.025 A  ATOM     16  C   UNL     1      41.098  46.388  18.738 -0.48 -0.00    +0.025 A  ATOM     17  C   UNL     1      38.723  45.089  19.087 -0.33 -0.01    +0.111 A  ATOM     18  C   UNL     1      40.703  45.867  19.961 -0.32 +0.00    +0.111 A  ATOM     19  N   UNL     1      39.534  45.221  20.157 -0.22 -0.00    -0.265 NA ENDBRANCH  13  14ENDBRANCH  10  13ENDBRANCH   8  10ENDBRANCH   7   8BRANCH   7  20ATOM     20  C   UNL     1      36.118  45.696  16.090 -0.33 -0.02    +0.036 A  ATOM     21  C   UNL     1      35.430  46.629  16.891 -0.29 -0.02    +0.015 A  ATOM     22  C   UNL     1      35.992  44.343  16.448 -0.25 -0.05    +0.134 A  ATOM     23  C   UNL     1      34.680  46.228  18.001 -0.44 -0.03    +0.047 A  ATOM     24  C   UNL     1      35.252  43.929  17.551 -0.25 -0.03    +0.085 A  ATOM     25  C   UNL     1      34.601  44.878  18.323 -0.29 -0.05    +0.118 A  ATOM     26  F   UNL     1      36.594  43.407  15.697 -0.13 +0.07    -0.206 F  BRANCH  25  27ATOM     27  O   UNL     1      33.881  44.443  19.394 -0.14 +0.12    -0.508 OA ATOM     28  H   UNL     1      33.500  45.210  19.853 -0.21 -0.13    +0.293 HD ENDBRANCH  25  27ENDBRANCH   7  20TORSDOF 6TERENDMDL