REMARK SMILES Cc1ncc2n1[C@]2(NS(=O)(=O)Cc1ccncc1F)c1ccc(O)cc1
REMARK SMILES IDX 8 1 7 3 2 4 3 5 6 6 4 7 5 8 1 9 20 10 21 11 26 12 22 13
REMARK SMILES IDX 25 14 23 15 24 16 9 18 10 19 11 20 12 21 13 22 14 23 18 24
REMARK SMILES IDX 15 25 17 26 16 27 19 28
REMARK H PARENT 8 2 24 17
ROOT
ATOM      1  N   UNL     1      -0.298  -0.801  -1.895  1.00  0.00    -0.180 NA
ATOM      2  H   UNL     1      -0.440  -1.348  -2.747  1.00  0.00     0.144 HD
ENDROOT
BRANCH   1   3
ATOM      3  C   UNL     1      -1.430  -0.838  -0.942  1.00  0.00     0.178 C 
ATOM      4  C   UNL     1      -2.595  -2.412   0.659  1.00  0.00     0.108 A 
ATOM      5  N   UNL     1      -3.857  -2.507   0.313  1.00  0.00    -0.241 NA
ATOM      6  N   UNL     1      -1.848  -2.096  -0.431  1.00  0.00    -0.299 N 
ATOM      7  C   UNL     1      -3.853  -2.185  -1.017  1.00  0.00     0.139 A 
ATOM      8  C   UNL     1      -2.664  -1.650  -1.468  1.00  0.00     0.087 A 
ATOM      9  C   UNL     1      -2.002  -2.709   1.981  1.00  0.00     0.088 C 
BRANCH   3  10
ATOM     10  C   UNL     1      -1.751   0.457  -0.214  1.00  0.00     0.000 A 
ATOM     11  C   UNL     1      -1.184   0.761   1.039  1.00  0.00     0.012 A 
ATOM     12  C   UNL     1      -2.585   1.437  -0.791  1.00  0.00     0.012 A 
ATOM     13  C   UNL     1      -1.447   1.969   1.689  1.00  0.00     0.046 A 
ATOM     14  C   UNL     1      -2.858   2.646  -0.144  1.00  0.00     0.046 A 
ATOM     15  C   UNL     1      -2.285   2.900   1.095  1.00  0.00     0.115 A 
BRANCH  15  16
ATOM     16  O   UNL     1      -2.519   4.065   1.762  1.00  0.00    -0.508 OA
ATOM     17  H   UNL     1      -3.167   4.587   1.262  1.00  0.00     0.293 HD
ENDBRANCH  15  16
ENDBRANCH   3  10
ENDBRANCH   1   3
BRANCH   1  18
ATOM     18  S   UNL     1       1.221  -1.117  -1.231  1.00  0.00     0.218 S 
ATOM     19  O   UNL     1       1.888  -1.937  -2.221  1.00  0.00    -0.212 OA
ATOM     20  O   UNL     1       1.038  -1.585   0.126  1.00  0.00    -0.212 OA
BRANCH  18  21
ATOM     21  C   UNL     1       1.952   0.526  -1.244  1.00  0.00     0.192 C 
BRANCH  21  22
ATOM     22  C   UNL     1       3.312   0.449  -0.612  1.00  0.00     0.007 A 
ATOM     23  C   UNL     1       4.453   0.139  -1.361  1.00  0.00     0.028 A 
ATOM     24  C   UNL     1       3.465   0.661   0.757  1.00  0.00     0.145 A 
ATOM     25  C   UNL     1       5.679   0.066  -0.712  1.00  0.00     0.111 A 
ATOM     26  C   UNL     1       4.726   0.570   1.321  1.00  0.00     0.150 A 
ATOM     27  N   UNL     1       5.843   0.280   0.613  1.00  0.00    -0.262 NA
ATOM     28  F   UNL     1       2.405   0.957   1.520  1.00  0.00    -0.205 F 
ENDBRANCH  21  22
ENDBRANCH  18  21
ENDBRANCH   1  18
TORSDOF 6
