MODEL        8USER    Run = 8USERUSER    Estimated Free Energy of Binding    =  -8.66 kcal/mol  [=(1)+(2)+(3)-(4)]USERUSER    (1) Final Intermolecular Energy     = -10.45 kcal/molUSER        vdW + Hbond + desolv Energy     = -10.21 kcal/molUSER        Electrostatic Energy            =  -0.25 kcal/molUSER        Moving Ligand-Fixed Receptor    = -10.45 kcal/molUSER        Moving Ligand-Moving Receptor   =  +0.00 kcal/molUSER    (2) Final Total Internal Energy     =  -1.10 kcal/molUSER    (3) Torsional Free Energy           =  +1.79 kcal/molUSER    (4) Unbound System's Energy         =  -1.10 kcal/molUSERUSERREMARK SMILES COc1ccc([C@@]2(NS(=O)(=O)Cc3ccncc3)c3cnc(C)n32)cc1REMARK SMILES IDX 7 1 19 2 20 3 21 4 22 5 23 6 24 7 6 8 3 9 4 10 26 11 5 12REMARK SMILES IDX 25 13 2 14 1 15 8 16 9 18 10 19 11 20 12 21 13 22 14 23REMARK SMILES IDX 18 24 15 25 17 26 16 27REMARK H PARENT 8 17USER                              x       y       z     vdW  Elec       q    TypeUSER                           _______ _______ _______ _____ _____    ______ ____ROOTATOM      1  C   UNL     1      28.285  35.796  21.371 -0.28 -0.05    +0.178 C  ATOM      2  C   UNL     1      27.268  36.209  22.494 -0.27 -0.03    +0.087 A  ATOM      3  C   UNL     1      26.429  37.251  22.837 -0.11 -0.08    +0.139 A  ATOM      4  N   UNL     1      25.987  37.992  21.775 -0.21 +0.18    -0.241 NA ATOM      5  C   UNL     1      26.342  37.282  20.732 -0.18 -0.10    +0.108 A  ATOM      6  C   UNL     1      26.056  37.569  19.310 -0.13 -0.05    +0.088 C  ATOM      7  N   UNL     1      26.921  36.125  21.147 -0.12 +0.27    -0.299 N  ENDROOTBRANCH   1   8ATOM      8  C   UNL     1      29.392  36.792  21.079 -0.33 -0.00    +0.000 A  ATOM      9  C   UNL     1      31.433  38.711  20.575 -0.38 +0.02    +0.118 A  ATOM     10  C   UNL     1      31.393  38.028  21.787 -0.45 +0.00    +0.047 A  ATOM     11  C   UNL     1      30.455  38.444  19.618 -0.38 +0.01    +0.047 A  ATOM     12  C   UNL     1      30.384  37.086  22.032 -0.44 +0.00    +0.012 A  ATOM     13  C   UNL     1      29.448  37.505  19.869 -0.33 +0.00    +0.012 A  BRANCH   9  14ATOM     14  O   UNL     1      32.355  39.650  20.206 -0.75 -0.26    -0.497 OA ATOM     15  C   UNL     1      32.039  40.448  19.072 -0.24 +0.02    +0.278 C  ENDBRANCH   9  14ENDBRANCH   1   8BRANCH   1  16ATOM     16  N   UNL     1      28.650  34.358  21.422 -0.21 +0.06    -0.180 NA ATOM     17  H   UNL     1      29.195  34.097  20.595 -0.50 -0.10    +0.144 HD BRANCH  16  18ATOM     18  S   UNL     1      27.324  33.320  21.581 -0.44 -0.12    +0.218 S  ATOM     19  O   UNL     1      26.880  33.371  22.959 -0.69 -0.11    -0.212 OA ATOM     20  O   UNL     1      26.414  33.636  20.502 -0.37 +0.28    -0.212 OA BRANCH  18  21ATOM     21  C   UNL     1      28.055  31.702  21.289 -0.24 -0.12    +0.189 C  BRANCH  21  22ATOM     22  C   UNL     1      28.783  31.217  22.515 -0.46 +0.00    -0.029 A  ATOM     23  C   UNL     1      30.180  31.267  22.594 -0.47 +0.00    +0.025 A  ATOM     24  C   UNL     1      28.076  30.709  23.610 -0.47 +0.00    +0.025 A  ATOM     25  C   UNL     1      30.797  30.826  23.752 -0.49 +0.03    +0.111 A  ATOM     26  C   UNL     1      28.785  30.288  24.724 -0.46 +0.05    +0.111 A  ATOM     27  N   UNL     1      30.129  30.340  24.820 -0.80 -0.17    -0.265 NA ENDBRANCH  21  22ENDBRANCH  18  21ENDBRANCH  16  18ENDBRANCH   1  16TORSDOF 6TERENDMDL