MODEL        10USER    Run = 10USERUSER    Estimated Free Energy of Binding    = -10.01 kcal/mol  [=(1)+(2)+(3)-(4)]USERUSER    (1) Final Intermolecular Energy     = -11.50 kcal/molUSER        vdW + Hbond + desolv Energy     = -11.40 kcal/molUSER        Electrostatic Energy            =  -0.10 kcal/molUSER        Moving Ligand-Fixed Receptor    = -11.50 kcal/molUSER        Moving Ligand-Moving Receptor   =  +0.00 kcal/molUSER    (2) Final Total Internal Energy     =  -1.08 kcal/molUSER    (3) Torsional Free Energy           =  +1.49 kcal/molUSER    (4) Unbound System's Energy         =  -1.08 kcal/molUSERUSERREMARK SMILES CNC(=O)c1ccc(Nc2nc3c(s2)CCC[C@H]3C(=O)N2CCOCC2)cc1SCREMARK SMILES IDX 9 1 8 3 5 4 6 5 28 6 7 7 27 8 3 9 2 10 1 11 4 13 29 14 30 15REMARK SMILES IDX 10 16 11 17 14 18 12 19 13 20 18 21 15 22 17 23 16 24 19 25REMARK SMILES IDX 21 26 22 27 26 28 23 29 25 30 24 31 20 32REMARK H PARENT 9 2 2 12USER                              x       y       z     vdW  Elec       q    TypeUSER                           _______ _______ _______ _____ _____    ______ ____ROOTATOM      1  N   UNL     1      37.923  44.640  18.014 -0.15 +0.06    -0.332 N  ATOM      2  H   UNL     1      36.981  44.613  17.626 +0.11 -0.05    +0.169 HD ENDROOTBRANCH   1   3ATOM      3  C   UNL     1      38.645  45.713  17.443 -0.37 -0.01    +0.041 A  ATOM      4  C   UNL     1      40.152  47.798  16.283 -0.49 -0.01    +0.053 A  ATOM      5  C   UNL     1      40.730  46.923  17.221 -0.49 -0.00    +0.017 A  ATOM      6  C   UNL     1      38.819  47.587  15.879 -0.45 -0.01    +0.022 A  ATOM      7  C   UNL     1      39.988  45.884  17.784 -0.44 -0.00    +0.027 A  ATOM      8  C   UNL     1      38.076  46.551  16.475 -0.37 -0.02    +0.042 A  BRANCH   4   9ATOM      9  C   UNL     1      41.041  48.897  15.798 -0.46 -0.03    +0.252 C  ATOM     10  N   UNL     1      41.052  49.144  14.443 -0.31 +0.07    -0.355 N  ATOM     11  C   UNL     1      41.898  50.161  13.869 -0.62 -0.03    +0.143 C  ATOM     12  H   UNL     1      40.624  48.465  13.820 +0.12 -0.02    +0.163 HD ATOM     13  O   UNL     1      41.686  49.564  16.604 -1.04 -0.04    -0.269 OA ENDBRANCH   4   9BRANCH   6  14ATOM     14  S   UNL     1      37.977  48.522  14.598 -0.65 +0.08    -0.129 SA ATOM     15  C   UNL     1      37.603  47.153  13.467 -0.53 -0.03    +0.091 C  ENDBRANCH   6  14ENDBRANCH   1   3BRANCH   1  16ATOM     16  C   UNL     1      37.886  44.444  19.361 -0.24 -0.02    +0.187 A  ATOM     17  N   UNL     1      38.560  45.212  20.195 -0.22 +0.00    -0.224 NA ATOM     18  S   UNL     1      36.913  43.227  20.127 -0.48 +0.00    -0.102 S  ATOM     19  C   UNL     1      38.379  44.775  21.494 -0.32 +0.00    +0.069 A  ATOM     20  C   UNL     1      37.474  43.746  21.642 -0.37 +0.00    +0.031 A  ATOM     21  C   UNL     1      39.036  45.468  22.655 -0.29 +0.01    +0.129 C  ATOM     22  C   UNL     1      37.032  43.168  22.941 -0.41 +0.00    +0.049 C  ATOM     23  C   UNL     1      38.706  44.773  24.001 -0.27 +0.00    +0.020 C  ATOM     24  C   UNL     1      37.279  44.199  24.057 -0.38 +0.00    +0.007 C  BRANCH  21  25ATOM     25  C   UNL     1      40.559  45.494  22.484 -0.17 +0.02    +0.231 C  ATOM     26  N   UNL     1      41.258  46.568  23.022 -0.07 -0.03    -0.337 N  ATOM     27  C   UNL     1      42.702  46.668  22.789 -0.21 +0.03    +0.148 C  ATOM     28  C   UNL     1      40.653  47.731  23.674 -0.23 +0.02    +0.148 C  ATOM     29  C   UNL     1      43.099  48.114  22.472 -0.27 +0.03    +0.181 C  ATOM     30  C   UNL     1      41.704  48.605  24.367 -0.32 +0.03    +0.181 C  ATOM     31  O   UNL     1      42.720  49.070  23.471 -0.88 -0.13    -0.378 OA ATOM     32  O   UNL     1      41.156  44.560  21.938 -0.15 -0.02    -0.274 OA ENDBRANCH  21  25ENDBRANCH   1  16TORSDOF 5TERENDMDL