REMARK SMILES CNC(=O)c1ccc(Nc2nc3c(s2)CCC[C@H]3C(=O)N2CCOCC2)cc1SC
REMARK SMILES IDX 9 1 8 3 5 4 6 5 28 6 7 7 27 8 3 9 2 10 1 11 4 13 29 14 30 15
REMARK SMILES IDX 10 16 11 17 14 18 12 19 13 20 18 21 15 22 17 23 16 24 19 25
REMARK SMILES IDX 21 26 22 27 26 28 23 29 25 30 24 31 20 32
REMARK H PARENT 9 2 2 12
ROOT
ATOM      1  N   UNL     1       0.683  -1.435  -1.670  1.00  0.00    -0.332 N 
ATOM      2  H   UNL     1       0.289  -0.745  -2.309  1.00  0.00     0.169 HD
ENDROOT
BRANCH   1   3
ATOM      3  C   UNL     1       2.082  -1.259  -1.578  1.00  0.00     0.041 A 
ATOM      4  C   UNL     1       4.882  -0.918  -1.484  1.00  0.00     0.053 A 
ATOM      5  C   UNL     1       4.309  -2.004  -2.169  1.00  0.00     0.017 A 
ATOM      6  C   UNL     1       4.038   0.041  -0.889  1.00  0.00     0.022 A 
ATOM      7  C   UNL     1       2.923  -2.165  -2.227  1.00  0.00     0.027 A 
ATOM      8  C   UNL     1       2.644  -0.149  -0.934  1.00  0.00     0.042 A 
BRANCH   4   9
ATOM      9  C   UNL     1       6.376  -0.893  -1.455  1.00  0.00     0.252 C 
ATOM     10  N   UNL     1       6.974  -0.346  -0.341  1.00  0.00    -0.355 N 
ATOM     11  C   UNL     1       8.408  -0.245  -0.228  1.00  0.00     0.143 C 
ATOM     12  H   UNL     1       6.400   0.182   0.310  1.00  0.00     0.163 HD
ATOM     13  O   UNL     1       7.015  -1.388  -2.381  1.00  0.00    -0.269 OA
ENDBRANCH   4   9
BRANCH   6  14
ATOM     14  S   UNL     1       4.601   1.551  -0.098  1.00  0.00    -0.129 SA
ATOM     15  C   UNL     1       4.742   2.593  -1.577  1.00  0.00     0.091 C 
ENDBRANCH   6  14
ENDBRANCH   1   3
BRANCH   1  16
ATOM     16  C   UNL     1      -0.095  -1.548  -0.558  1.00  0.00     0.187 A 
ATOM     17  N   UNL     1      -1.269  -0.955  -0.467  1.00  0.00    -0.224 NA
ATOM     18  S   UNL     1       0.329  -2.522   0.815  1.00  0.00    -0.102 S 
ATOM     19  C   UNL     1      -1.830  -1.200   0.773  1.00  0.00     0.069 A 
ATOM     20  C   UNL     1      -1.123  -2.075   1.569  1.00  0.00     0.031 A 
ATOM     21  C   UNL     1      -3.173  -0.641   1.152  1.00  0.00     0.129 C 
ATOM     22  C   UNL     1      -1.564  -2.575   2.900  1.00  0.00     0.049 C 
ATOM     23  C   UNL     1      -3.569  -1.028   2.600  1.00  0.00     0.020 C 
ATOM     24  C   UNL     1      -3.093  -2.435   3.006  1.00  0.00     0.007 C 
BRANCH  21  25
ATOM     25  C   UNL     1      -3.179   0.888   1.041  1.00  0.00     0.231 C 
ATOM     26  N   UNL     1      -4.300   1.498   0.490  1.00  0.00    -0.337 N 
ATOM     27  C   UNL     1      -4.292   2.949   0.282  1.00  0.00     0.148 C 
ATOM     28  C   UNL     1      -5.454   0.796  -0.075  1.00  0.00     0.148 C 
ATOM     29  C   UNL     1      -4.914   3.303  -1.073  1.00  0.00     0.181 C 
ATOM     30  C   UNL     1      -6.613   1.755  -0.370  1.00  0.00     0.181 C 
ATOM     31  O   UNL     1      -6.247   2.811  -1.265  1.00  0.00    -0.378 OA
ATOM     32  O   UNL     1      -2.243   1.563   1.481  1.00  0.00    -0.274 OA
ENDBRANCH  21  25
ENDBRANCH   1  16
TORSDOF 5
