REMARK SMILES NC(=O)N1CCN(c2ccc(-c3nc4cccnc4nc3-c3ccc(CN4CCC(n5c(O)nc6ncccc65)CC4)cc3)cn2)CC1
REMARK SMILES IDX 22 1 23 2 24 3 25 4 43 5 44 6 21 7 12 8 13 9 14 10 20 11
REMARK SMILES IDX 15 12 19 13 16 14 18 15 17 16 11 17 8 18 9 19 46 20 10 21
REMARK SMILES IDX 45 22 7 23 1 24 2 25 4 26 5 27 48 28 6 29 47 30 3 33 26 34
REMARK SMILES IDX 27 35 28 36 42 37 29 38 41 39 30 40 31 41 32 42 40 43 34 44
REMARK SMILES IDX 39 45 35 46 38 47 36 48 37 49 33 50
REMARK H PARENT 1 31 1 32 33 51
ROOT
ATOM      1  C   UNL     1       0.399  -2.096   0.581  1.00  0.00     0.002 A 
ATOM      2  C   UNL     1       0.435  -1.085  -0.390  1.00  0.00     0.011 A 
ATOM      3  C   UNL     1      -0.272   0.107  -0.218  1.00  0.00     0.006 A 
ATOM      4  C   UNL     1      -1.044   0.322   0.932  1.00  0.00    -0.034 A 
ATOM      5  C   UNL     1      -1.083  -0.681   1.906  1.00  0.00     0.006 A 
ATOM      6  C   UNL     1      -0.382  -1.878   1.726  1.00  0.00     0.011 A 
ENDROOT
BRANCH   1   7
ATOM      7  C   UNL     1       1.135  -3.358   0.404  1.00  0.00     0.099 A 
ATOM      8  C   UNL     1       2.517  -3.450   0.174  1.00  0.00     0.099 A 
ATOM      9  N   UNL     1       3.098  -4.654  -0.064  1.00  0.00    -0.242 NA
ATOM     10  C   UNL     1       2.296  -5.738  -0.035  1.00  0.00     0.108 A 
ATOM     11  N   UNL     1       0.346  -4.467   0.445  1.00  0.00    -0.224 NA
ATOM     12  C   UNL     1       2.835  -6.993  -0.268  1.00  0.00     0.034 A 
ATOM     13  C   UNL     1       0.907  -5.658   0.226  1.00  0.00     0.178 A 
ATOM     14  C   UNL     1       2.028  -8.124  -0.248  1.00  0.00     0.022 A 
ATOM     15  N   UNL     1       0.125  -6.743   0.252  1.00  0.00    -0.235 NA
ATOM     16  C   UNL     1       0.685  -7.947   0.013  1.00  0.00     0.114 A 
BRANCH   8  17
ATOM     17  C   UNL     1       3.453  -2.320   0.187  1.00  0.00     0.021 A 
ATOM     18  C   UNL     1       5.280  -0.191   0.077  1.00  0.00     0.128 A 
ATOM     19  C   UNL     1       4.421  -0.324   1.167  1.00  0.00     0.047 A 
ATOM     20  N   UNL     1       5.258  -1.105  -0.917  1.00  0.00    -0.239 NA
ATOM     21  C   UNL     1       3.511  -1.386   1.223  1.00  0.00     0.016 A 
ATOM     22  C   UNL     1       4.371  -2.130  -0.841  1.00  0.00     0.124 A 
BRANCH  18  23
ATOM     23  N   UNL     1       6.201   0.848   0.016  1.00  0.00    -0.353 N 
ATOM     24  N   UNL     1       8.042   5.487  -1.003  1.00  0.00    -0.351 N 
ATOM     25  C   UNL     1       8.581   4.244  -1.058  1.00  0.00     0.314 C 
ATOM     26  N   UNL     1       7.746   3.198  -0.760  1.00  0.00    -0.321 N 
ATOM     27  C   UNL     1       8.284   1.837  -0.870  1.00  0.00     0.143 C 
ATOM     28  C   UNL     1       6.298   3.293  -0.531  1.00  0.00     0.143 C 
ATOM     29  C   UNL     1       7.199   0.763  -1.060  1.00  0.00     0.139 C 
ATOM     30  C   UNL     1       5.767   2.197   0.414  1.00  0.00     0.139 C 
ATOM     31  H   UNL     1       8.747   6.196  -1.169  1.00  0.00     0.161 HD
ATOM     32  H   UNL     1       7.471   5.692  -0.199  1.00  0.00     0.161 HD
ATOM     33  O   UNL     1       9.758   4.121  -1.377  1.00  0.00    -0.249 OA
ENDBRANCH  18  23
ENDBRANCH   8  17
ENDBRANCH   1   7
BRANCH   4  34
ATOM     34  C   UNL     1      -1.819   1.613   1.102  1.00  0.00     0.120 C 
BRANCH  34  35
ATOM     35  N   UNL     1      -3.247   1.590   0.746  1.00  0.00    -0.299 NA
ATOM     36  C   UNL     1      -3.489   1.152  -0.633  1.00  0.00     0.087 C 
ATOM     37  C   UNL     1      -4.068   0.855   1.710  1.00  0.00     0.087 C 
ATOM     38  C   UNL     1      -4.955   1.355  -1.018  1.00  0.00     0.041 C 
ATOM     39  C   UNL     1      -5.551   1.069   1.418  1.00  0.00     0.041 C 
ATOM     40  C   UNL     1      -5.876   0.651  -0.018  1.00  0.00     0.095 C 
BRANCH  40  41
ATOM     41  N   UNL     1      -7.288   0.794  -0.335  1.00  0.00    -0.289 N 
ATOM     42  C   UNL     1      -8.137  -0.246  -0.606  1.00  0.00     0.296 A 
ATOM     43  C   UNL     1      -8.041   1.944  -0.399  1.00  0.00     0.091 A 
ATOM     44  N   UNL     1      -9.366   0.128  -0.839  1.00  0.00    -0.175 NA
ATOM     45  C   UNL     1      -7.784   3.304  -0.223  1.00  0.00     0.032 A 
ATOM     46  C   UNL     1      -9.324   1.488  -0.715  1.00  0.00     0.181 A 
ATOM     47  C   UNL     1      -8.879   4.150  -0.387  1.00  0.00     0.022 A 
ATOM     48  N   UNL     1     -10.391   2.303  -0.875  1.00  0.00    -0.235 NA
ATOM     49  C   UNL     1     -10.121   3.612  -0.704  1.00  0.00     0.114 A 
BRANCH  42  50
ATOM     50  O   UNL     1      -7.785  -1.515  -0.628  1.00  0.00    -0.480 OA
ATOM     51  H   UNL     1      -8.636  -1.949  -0.838  1.00  0.00     0.296 HD
ENDBRANCH  42  50
ENDBRANCH  40  41
ENDBRANCH  34  35
ENDBRANCH   4  34
TORSDOF 7
