REMARK SMILES Oc1nc2ncccc2n1C1CCN(Cc2ccc(-c3nc4ncccc4nc3-c3ccnc(N4CC[C@@H](O)[C@H](O)C4)c3)cc2)CC1
REMARK SMILES IDX 16 1 17 2 18 3 19 4 44 5 45 6 15 7 14 8 11 9 12 10 47 11
REMARK SMILES IDX 13 12 46 13 10 14 2 15 3 16 4 17 9 18 5 19 8 20 6 21 7 22
REMARK SMILES IDX 1 23 20 25 21 26 29 27 22 28 28 29 23 30 27 31 24 32 26 33
REMARK SMILES IDX 25 34 30 35 31 36 43 37 32 38 34 39 33 40 35 41 36 42 42 43
REMARK SMILES IDX 37 44 40 45 38 46 41 47 39 49
REMARK H PARENT 1 24 41 48 39 50
ROOT
ATOM      1  C   UNL     1       1.842   2.240  -0.827  1.00  0.00    -0.034 A 
ATOM      2  C   UNL     1       0.641   1.882  -1.455  1.00  0.00     0.006 A 
ATOM      3  C   UNL     1      -0.591   2.199  -0.873  1.00  0.00     0.011 A 
ATOM      4  C   UNL     1      -0.657   2.874   0.357  1.00  0.00     0.002 A 
ATOM      5  C   UNL     1       0.553   3.251   0.966  1.00  0.00     0.011 A 
ATOM      6  C   UNL     1       1.786   2.935   0.386  1.00  0.00     0.006 A 
ENDROOT
BRANCH   1   7
ATOM      7  C   UNL     1       3.176   1.916  -1.466  1.00  0.00     0.120 C 
BRANCH   7   8
ATOM      8  N   UNL     1       3.381   0.482  -1.741  1.00  0.00    -0.299 NA
ATOM      9  C   UNL     1       5.867  -0.131  -0.415  1.00  0.00     0.095 C 
ATOM     10  C   UNL     1       5.687  -0.567  -1.873  1.00  0.00     0.041 C 
ATOM     11  C   UNL     1       4.548  -0.195   0.376  1.00  0.00     0.041 C 
ATOM     12  C   UNL     1       4.593   0.267  -2.549  1.00  0.00     0.087 C 
ATOM     13  C   UNL     1       3.340  -0.367  -0.545  1.00  0.00     0.087 C 
BRANCH   9  14
ATOM     14  N   UNL     1       6.955  -0.832   0.253  1.00  0.00    -0.289 N 
ATOM     15  C   UNL     1       8.077  -0.239   0.767  1.00  0.00     0.296 A 
ATOM     16  N   UNL     1       8.904  -1.081   1.322  1.00  0.00    -0.175 NA
ATOM     17  C   UNL     1       8.293  -2.295   1.166  1.00  0.00     0.181 A 
ATOM     18  C   UNL     1       7.069  -2.181   0.502  1.00  0.00     0.091 A 
ATOM     19  N   UNL     1       8.797  -3.470   1.601  1.00  0.00    -0.235 NA
ATOM     20  C   UNL     1       6.277  -3.303   0.245  1.00  0.00     0.032 A 
ATOM     21  C   UNL     1       8.021  -4.543   1.340  1.00  0.00     0.114 A 
ATOM     22  C   UNL     1       6.794  -4.519   0.687  1.00  0.00     0.022 A 
BRANCH  15  23
ATOM     23  O   UNL     1       8.330   1.053   0.722  1.00  0.00    -0.480 OA
ATOM     24  H   UNL     1       9.201   1.092   1.159  1.00  0.00     0.296 HD
ENDBRANCH  15  23
ENDBRANCH   9  14
ENDBRANCH   7   8
ENDBRANCH   1   7
BRANCH   4  25
ATOM     25  C   UNL     1      -1.943   3.205   1.000  1.00  0.00     0.099 A 
ATOM     26  N   UNL     1      -2.067   4.528   1.311  1.00  0.00    -0.224 NA
ATOM     27  C   UNL     1      -2.971   2.289   1.278  1.00  0.00     0.098 A 
ATOM     28  C   UNL     1      -3.205   4.954   1.860  1.00  0.00     0.178 A 
ATOM     29  N   UNL     1      -4.143   2.719   1.818  1.00  0.00    -0.242 NA
ATOM     30  N   UNL     1      -3.317   6.253   2.161  1.00  0.00    -0.235 NA
ATOM     31  C   UNL     1      -4.247   4.034   2.103  1.00  0.00     0.108 A 
ATOM     32  C   UNL     1      -4.469   6.689   2.712  1.00  0.00     0.114 A 
ATOM     33  C   UNL     1      -5.416   4.521   2.667  1.00  0.00     0.034 A 
ATOM     34  C   UNL     1      -5.543   5.868   2.982  1.00  0.00     0.022 A 
BRANCH  27  35
ATOM     35  C   UNL     1      -2.910   0.829   1.070  1.00  0.00     0.008 A 
ATOM     36  C   UNL     1      -1.801   0.066   1.441  1.00  0.00     0.030 A 
ATOM     37  C   UNL     1      -4.006   0.141   0.521  1.00  0.00     0.057 A 
ATOM     38  C   UNL     1      -1.827  -1.296   1.215  1.00  0.00     0.114 A 
ATOM     39  C   UNL     1      -3.966  -1.242   0.322  1.00  0.00     0.129 A 
ATOM     40  N   UNL     1      -2.870  -1.949   0.665  1.00  0.00    -0.239 NA
BRANCH  39  41
ATOM     41  N   UNL     1      -5.084  -1.908  -0.223  1.00  0.00    -0.354 N 
ATOM     42  C   UNL     1      -5.499  -1.370  -1.526  1.00  0.00     0.121 C 
ATOM     43  C   UNL     1      -4.983  -3.380  -0.129  1.00  0.00     0.152 C 
ATOM     44  C   UNL     1      -6.440  -2.322  -2.265  1.00  0.00     0.056 C 
ATOM     45  C   UNL     1      -6.327  -4.058  -0.460  1.00  0.00     0.162 C 
ATOM     46  C   UNL     1      -7.249  -3.145  -1.278  1.00  0.00     0.146 C 
BRANCH  45  47
ATOM     47  O   UNL     1      -7.023  -4.465   0.729  1.00  0.00    -0.389 OA
ATOM     48  H   UNL     1      -7.868  -4.841   0.420  1.00  0.00     0.211 HD
ENDBRANCH  45  47
BRANCH  46  49
ATOM     49  O   UNL     1      -8.203  -3.959  -1.972  1.00  0.00    -0.390 OA
ATOM     50  H   UNL     1      -8.863  -3.356  -2.362  1.00  0.00     0.211 HD
ENDBRANCH  46  49
ENDBRANCH  39  41
ENDBRANCH  27  35
ENDBRANCH   4  25
TORSDOF 9
