MODEL        1USER    Run = 1USERUSER    Estimated Free Energy of Binding    = -12.29 kcal/mol  [=(1)+(2)+(3)-(4)]USERUSER    (1) Final Intermolecular Energy     = -14.38 kcal/molUSER        vdW + Hbond + desolv Energy     = -14.23 kcal/molUSER        Electrostatic Energy            =  -0.15 kcal/molUSER        Moving Ligand-Fixed Receptor    = -14.38 kcal/molUSER        Moving Ligand-Moving Receptor   =  +0.00 kcal/molUSER    (2) Final Total Internal Energy     =  -1.74 kcal/molUSER    (3) Torsional Free Energy           =  +2.09 kcal/molUSER    (4) Unbound System's Energy         =  -1.74 kcal/molUSERUSERREMARK SMILES NC(=O)N1CCN(c2ccc(-c3nc4cccnc4nc3-c3ccc(CN4CCC(n5c(O)nc6ncccc65)CC4)cc3)cn2)CC1REMARK SMILES IDX 22 1 23 2 24 3 25 4 43 5 44 6 21 7 12 8 13 9 14 10 20 11REMARK SMILES IDX 15 12 19 13 16 14 18 15 17 16 11 17 8 18 9 19 46 20 10 21REMARK SMILES IDX 45 22 7 23 1 24 2 25 4 26 5 27 48 28 6 29 47 30 3 33 26 34REMARK SMILES IDX 27 35 28 36 42 37 29 38 41 39 30 40 31 41 32 42 40 43 34 44REMARK SMILES IDX 39 45 35 46 38 47 36 48 37 49 33 50REMARK H PARENT 1 31 1 32 33 51USER                              x       y       z     vdW  Elec       q    TypeUSER                           _______ _______ _______ _____ _____    ______ ____ROOTATOM      1  C   UNL     1      38.761  46.021  23.695 -0.31 +0.00    +0.002 A  ATOM      2  C   UNL     1      38.063  45.033  22.987 -0.32 +0.00    +0.011 A  ATOM      3  C   UNL     1      38.582  44.482  21.813 -0.34 +0.00    +0.006 A  ATOM      4  C   UNL     1      39.817  44.909  21.307 -0.30 -0.00    -0.034 A  ATOM      5  C   UNL     1      40.521  45.893  22.009 -0.26 +0.00    +0.006 A  ATOM      6  C   UNL     1      39.993  46.450  23.179 -0.26 +0.00    +0.011 A  ENDROOTBRANCH   1   7ATOM      7  C   UNL     1      38.218  46.612  24.928 -0.25 +0.01    +0.099 A  ATOM      8  C   UNL     1      38.273  46.007  26.194 -0.22 -0.00    +0.099 A  ATOM      9  N   UNL     1      37.668  46.587  27.262 -0.19 +0.03    -0.242 NA ATOM     10  C   UNL     1      37.052  47.768  27.052 -0.29 -0.01    +0.108 A  ATOM     11  N   UNL     1      37.604  47.813  24.740 -0.53 -0.04    -0.224 NA ATOM     12  C   UNL     1      36.420  48.407  28.106 -0.30 -0.00    +0.034 A  ATOM     13  C   UNL     1      37.016  48.400  25.785 -0.33 +0.00    +0.178 A  ATOM     14  C   UNL     1      35.774  49.622  27.912 -0.27 +0.00    +0.022 A  ATOM     15  N   UNL     1      36.401  49.572  25.592 -0.33 +0.01    -0.235 NA ATOM     16  C   UNL     1      35.791  50.160  26.642 -0.24 +0.00    +0.114 A  BRANCH   8  17ATOM     17  C   UNL     1      38.975  44.756  26.503 -0.18 -0.00    +0.021 A  ATOM     18  C   UNL     1      40.429  42.441  27.140 -0.16 -0.01    +0.128 A  ATOM     19  C   UNL     1      39.090  42.348  26.766 -0.25 -0.00    +0.047 A  ATOM     20  N   UNL     1      41.042  43.644  27.167 -0.06 -0.00    -0.239 NA ATOM     21  C   UNL     1      38.364  43.502  26.447 -0.22 -0.00    +0.016 A  ATOM     22  C   UNL     1      40.322  44.750  26.850 -0.09 +0.00    +0.124 A  BRANCH  18  23ATOM     23  N   UNL     1      41.167  41.302  27.442 -0.06 +0.06    -0.353 N  ATOM     24  N   UNL     1      43.287  37.657  30.299 -0.00 +0.13    -0.351 N  ATOM     25  C   UNL     1      43.702  38.328  29.197 -0.06 -0.07    +0.314 C  ATOM     26  N   UNL     1      42.868  39.308  28.723 -0.05 +0.07    -0.321 N  ATOM     27  C   UNL     1      43.318  40.094  27.568 -0.06 -0.04    +0.143 C  ATOM     28  C   UNL     1      41.647  39.789  29.383 -0.18 -0.02    +0.143 C  ATOM     29  C   UNL     1      42.628  41.464  27.453 -0.10 -0.02    +0.139 C  ATOM     30  C   UNL     1      40.600  40.327  28.387 -0.22 -0.01    +0.139 C  ATOM     31  H   UNL     1      43.931  36.909  30.532 -0.09 -0.04    +0.161 HD ATOM     32  H   UNL     1      42.327  37.353  30.303 -0.50 -0.12    +0.161 HD ATOM     33  O   UNL     1      44.784  38.040  28.698 -0.04 +0.04    -0.249 OA ENDBRANCH  18  23ENDBRANCH   8  17ENDBRANCH   1   7BRANCH   4  34ATOM     34  C   UNL     1      40.365  44.315  20.025 -0.29 +0.00    +0.120 C  BRANCH  34  35ATOM     35  N   UNL     1      39.946  44.944  18.762 -0.22 +0.01    -0.299 NA ATOM     36  C   UNL     1      38.500  45.182  18.690 -0.39 -0.01    +0.087 C  ATOM     37  C   UNL     1      40.719  46.144  18.433 -0.49 -0.00    +0.087 C  ATOM     38  C   UNL     1      38.092  45.629  17.285 -0.41 -0.01    +0.041 C  ATOM     39  C   UNL     1      40.404  46.606  17.013 -0.52 -0.01    +0.041 C  ATOM     40  C   UNL     1      38.902  46.855  16.855 -0.42 -0.03    +0.095 C  BRANCH  40  41ATOM     41  N   UNL     1      38.553  47.341  15.530 -0.22 +0.12    -0.289 N  ATOM     42  C   UNL     1      38.863  48.585  15.047 -0.26 -0.15    +0.296 A  ATOM     43  C   UNL     1      37.894  46.679  14.519 -0.37 -0.04    +0.091 A  ATOM     44  N   UNL     1      38.465  48.784  13.819 -0.35 +0.07    -0.175 NA ATOM     45  C   UNL     1      37.333  45.410  14.371 -0.38 -0.01    +0.032 A  ATOM     46  C   UNL     1      37.860  47.609  13.476 -0.37 -0.06    +0.181 A  ATOM     47  C   UNL     1      36.748  45.151  13.133 -0.47 -0.01    +0.022 A  ATOM     48  N   UNL     1      37.293  47.364  12.272 -1.03 +0.05    -0.235 NA ATOM     49  C   UNL     1      36.755  46.135  12.151 -0.54 -0.04    +0.114 A  BRANCH  42  50ATOM     50  O   UNL     1      39.510  49.512  15.723 -0.20 +0.27    -0.480 OA ATOM     51  H   UNL     1      39.090  50.328  15.384 -0.25 -0.30    +0.296 HD ENDBRANCH  42  50ENDBRANCH  40  41ENDBRANCH  34  35ENDBRANCH   4  34TORSDOF 7TERENDMDL