MODEL        10USER    Run = 10USERUSER    Estimated Free Energy of Binding    =  -6.74 kcal/mol  [=(1)+(2)+(3)-(4)]USERUSER    (1) Final Intermolecular Energy     = -11.22 kcal/molUSER        vdW + Hbond + desolv Energy     = -12.09 kcal/molUSER        Electrostatic Energy            =  -0.12 kcal/molUSER        Moving Ligand-Fixed Receptor    = -12.22 kcal/molUSER        Moving Ligand-Moving Receptor   =  +1.00 kcal/molUSER    (2) Final Total Internal Energy     =  -1.90 kcal/molUSER    (3) Torsional Free Energy           =  +4.47 kcal/molUSER    (4) Unbound System's Energy         =  -1.90 kcal/molUSERUSERREMARK SMILES COc1ccc(O)c(C(=O)c2ccc(CN[C@@H]3CCCNC[C@H]3NC(=O)c3ccncc3)cc2)c1FREMARK SMILES IDX 16 1 15 3 14 4 11 5 12 6 34 7 13 8 33 9 9 10 10 11 8 12 3 13REMARK SMILES IDX 4 14 35 15 5 16 6 17 36 18 2 19 1 20 7 21 17 23 18 24 23 26REMARK SMILES IDX 22 27 21 28 20 30 19 31 24 33 25 34 26 36 27 37 28 38 32 39REMARK SMILES IDX 29 40 31 41 30 42REMARK H PARENT 16 2 7 22 21 29 24 35REMARK Flexibility Score:   99.900USER                              x       y       z     vdW  Elec       q    TypeUSER                           _______ _______ _______ _____ _____    ______ ____ROOTATOM      1  N   UNL     1      38.162  44.861  23.818 -0.16 -0.03    -0.308 NA ATOM      2  H   UNL     1      37.567  44.879  22.987 +0.05 +0.02    +0.123 HD ENDROOTBRANCH   1   3ATOM      3  C   UNL     1      39.524  44.504  23.413 -0.20 +0.01    +0.117 C  BRANCH   3   4ATOM      4  C   UNL     1      39.849  44.880  21.988 -0.26 -0.00    -0.034 A  ATOM      5  C   UNL     1      40.435  45.590  19.330 -0.42 +0.00    +0.023 A  ATOM      6  C   UNL     1      39.105  45.473  19.746 -0.37 -0.00    +0.012 A  ATOM      7  C   UNL     1      41.470  45.327  20.235 -0.37 +0.00    +0.012 A  ATOM      8  C   UNL     1      38.817  45.128  21.069 -0.35 +0.00    +0.006 A  ATOM      9  C   UNL     1      41.179  44.980  21.556 -0.29 +0.00    +0.006 A  BRANCH   5  10ATOM     10  C   UNL     1      40.791  45.912  17.927 -0.40 -0.01    +0.199 C  ATOM     11  O   UNL     1      41.797  45.398  17.433 -0.21 -0.01    -0.288 OA BRANCH  10  12ATOM     12  C   UNL     1      39.966  46.778  17.058 -0.41 -0.02    +0.104 A  ATOM     13  C   UNL     1      37.881  47.285  15.899 -0.30 -0.09    +0.155 A  ATOM     14  C   UNL     1      38.450  48.455  15.394 -0.47 -0.03    +0.053 A  ATOM     15  C   UNL     1      38.647  46.458  16.735 -0.29 -0.06    +0.179 A  ATOM     16  C   UNL     1      39.759  48.804  15.739 -0.52 -0.02    +0.051 A  ATOM     17  C   UNL     1      40.503  47.979  16.578 -0.43 -0.02    +0.130 A  ATOM     18  F   UNL     1      38.076  45.355  17.247 -0.08 +0.05    -0.202 F  BRANCH  13  19ATOM     19  O   UNL     1      36.606  46.852  15.650 -0.10 +0.39    -0.494 OA ATOM     20  C   UNL     1      36.276  46.538  14.304 -0.29 -0.18    +0.278 C  ENDBRANCH  13  19BRANCH  17  21ATOM     21  O   UNL     1      41.763  48.411  16.896 -0.58 -0.02    -0.507 OA ATOM     22  H   UNL     1      42.301  47.620  17.131 -0.35 -0.06    +0.293 HD ENDBRANCH  17  21ENDBRANCH  10  12ENDBRANCH   5  10ENDBRANCH   3   4ENDBRANCH   1   3BRANCH   1  23ATOM     23  C   UNL     1      38.065  46.187  24.489 -0.25 +0.01    +0.077 C  BRANCH  23  24ATOM     24  C   UNL     1      39.112  47.102  23.840 -0.37 +0.00    +0.022 CG0ATOM     25  G   UNL     1      38.868  48.600  24.017 +0.00 +0.00    +0.000 G0 ENDBRANCH  23  24BRANCH  23  26ATOM     26  C   UNL     1      38.256  46.017  26.029 -0.25 -0.00    +0.113 C  BRANCH  26  27ATOM     27  C   UNL     1      39.107  47.161  26.634 -0.21 +0.00    +0.107 C  BRANCH  27  28ATOM     28  N   UNL     1      38.621  48.532  26.522 -0.12 -0.02    -0.315 NA ATOM     29  H   UNL     1      39.383  49.175  26.753 +0.04 +0.02    +0.122 HD BRANCH  28  30ATOM     30  C   UNL     1      38.044  48.942  25.251 -0.37 +0.01    +0.081 C  BRANCH  30  31ATOM     31  C   UNL     1      38.866  48.603  24.010 -0.38 +0.00    +0.017 CG0ATOM     32  G   UNL     1      39.099  47.102  23.844 +0.00 +0.00    +0.000 G0 ENDBRANCH  30  31ENDBRANCH  28  30ENDBRANCH  27  28ENDBRANCH  26  27BRANCH  26  33ATOM     33  N   UNL     1      36.936  45.982  26.688 -0.16 +0.06    -0.346 N  ATOM     34  C   UNL     1      36.714  45.219  27.815 -0.29 -0.05    +0.251 C  ATOM     35  H   UNL     1      36.222  46.604  26.338 -0.44 -0.06    +0.164 HD ATOM     36  O   UNL     1      37.549  44.457  28.286 -0.27 +0.04    -0.269 OA BRANCH  34  37ATOM     37  C   UNL     1      35.373  45.332  28.446 -0.33 -0.01    +0.042 A  ATOM     38  C   UNL     1      34.940  46.597  28.844 -0.34 -0.01    +0.034 A  ATOM     39  C   UNL     1      34.536  44.229  28.618 -0.60 -0.01    +0.034 A  ATOM     40  C   UNL     1      33.693  46.703  29.430 -0.21 -0.01    +0.112 A  ATOM     41  C   UNL     1      33.305  44.442  29.212 -0.11 -0.00    +0.112 A  ATOM     42  N   UNL     1      32.871  45.649  29.630 -0.62 -0.01    -0.265 NA ENDBRANCH  34  37ENDBRANCH  26  33ENDBRANCH  23  26ENDBRANCH   1  23TORSDOF 9TERENDMDL