MODEL        8USER    Run = 8USERUSER    Estimated Free Energy of Binding    = -12.40 kcal/mol  [=(1)+(2)+(3)-(4)]USERUSER    (1) Final Intermolecular Energy     = -14.19 kcal/molUSER        vdW + Hbond + desolv Energy     = -13.90 kcal/molUSER        Electrostatic Energy            =  -0.30 kcal/molUSER        Moving Ligand-Fixed Receptor    = -14.19 kcal/molUSER        Moving Ligand-Moving Receptor   =  +0.00 kcal/molUSER    (2) Final Total Internal Energy     =  -1.82 kcal/molUSER    (3) Torsional Free Energy           =  +1.79 kcal/molUSER    (4) Unbound System's Energy         =  -1.82 kcal/molUSERUSERREMARK SMILES Oc1nc2ccccc2n1C1CCN(Cc2ccc(-c3cc4ccccc4nc3-c3ccccc3)cc2)CC1REMARK SMILES IDX 11 1 12 2 13 3 14 4 38 5 39 6 10 7 2 8 3 9 4 10 9 11 5 12REMARK SMILES IDX 8 13 6 14 7 15 1 16 15 18 16 19 17 20 37 21 18 22 36 23REMARK SMILES IDX 19 24 20 25 21 26 29 27 22 28 28 29 23 30 27 31 24 32 26 33REMARK SMILES IDX 25 34 30 35 31 36 35 37 32 38 34 39 33 40REMARK H PARENT 1 17USER                              x       y       z     vdW  Elec       q    TypeUSER                           _______ _______ _______ _____ _____    ______ ____ROOTATOM      1  C   UNL     1      28.054  41.598  15.921 -0.28 -0.03    +0.095 C  ATOM      2  C   UNL     1      29.284  40.770  15.524 -0.42 -0.01    +0.041 C  ATOM      3  C   UNL     1      30.479  40.918  16.461 -0.33 -0.03    +0.087 C  ATOM      4  N   UNL     1      30.782  42.302  16.832 -0.12 +0.10    -0.299 NA ATOM      5  C   UNL     1      29.626  42.930  17.476 -0.21 -0.02    +0.087 C  ATOM      6  C   UNL     1      28.354  42.927  16.631 -0.26 -0.01    +0.041 C  ENDROOTBRANCH   1   7ATOM      7  N   UNL     1      26.978  40.818  16.529 -0.12 +0.01    -0.291 N  ATOM      8  C   UNL     1      26.236  39.889  15.840 -0.08 +0.06    +0.295 A  ATOM      9  N   UNL     1      25.307  39.324  16.556 -0.59 -0.02    -0.195 NA ATOM     10  C   UNL     1      25.439  39.899  17.791 -0.26 -0.00    +0.092 A  ATOM     11  C   UNL     1      26.483  40.835  17.818 -0.20 -0.00    +0.072 A  ATOM     12  C   UNL     1      24.683  39.657  18.950 -0.29 -0.01    +0.031 A  ATOM     13  C   UNL     1      26.798  41.532  18.991 -0.18 -0.00    +0.029 A  ATOM     14  C   UNL     1      24.990  40.354  20.120 -0.33 -0.00    +0.002 A  ATOM     15  C   UNL     1      26.034  41.275  20.136 -0.34 -0.00    +0.002 A  BRANCH   8  16ATOM     16  O   UNL     1      26.412  39.570  14.574 -0.69 -0.13    -0.480 OA ATOM     17  H   UNL     1      26.523  40.451  14.173 +0.14 -0.15    +0.296 HD ENDBRANCH   8  16ENDBRANCH   1   7BRANCH   4  18ATOM     18  C   UNL     1      31.330  43.074  15.704 -0.33 -0.06    +0.120 C  BRANCH  18  19ATOM     19  C   UNL     1      32.720  43.611  15.967 -0.31 +0.02    -0.034 A  ATOM     20  C   UNL     1      33.044  44.943  15.682 -0.34 -0.00    +0.006 A  ATOM     21  C   UNL     1      33.709  42.776  16.504 -0.35 -0.00    +0.006 A  ATOM     22  C   UNL     1      34.332  45.428  15.927 -0.31 -0.01    +0.009 A  ATOM     23  C   UNL     1      34.998  43.261  16.739 -0.39 -0.00    +0.009 A  ATOM     24  C   UNL     1      35.330  44.592  16.450 -0.31 +0.01    -0.016 A  BRANCH  24  25ATOM     25  C   UNL     1      36.684  45.103  16.708 -0.34 -0.00    +0.009 A  ATOM     26  C   UNL     1      37.258  44.912  17.974 -0.34 -0.01    +0.021 A  ATOM     27  C   UNL     1      37.473  45.751  15.743 -0.31 -0.03    +0.079 A  ATOM     28  C   UNL     1      38.562  45.342  18.245 -0.40 -0.00    +0.001 A  ATOM     29  N   UNL     1      38.750  46.163  15.990 -0.21 +0.07    -0.247 NA ATOM     30  C   UNL     1      39.157  45.158  19.506 -0.39 -0.00    +0.010 A  ATOM     31  C   UNL     1      39.277  45.966  17.208 -0.38 -0.01    +0.071 A  ATOM     32  C   UNL     1      40.460  45.593  19.741 -0.41 +0.00    +0.001 A  ATOM     33  C   UNL     1      40.575  46.390  17.467 -0.47 -0.00    +0.029 A  ATOM     34  C   UNL     1      41.172  46.210  18.718 -0.50 +0.00    +0.002 A  BRANCH  27  35ATOM     35  C   UNL     1      37.015  46.057  14.375 -0.41 -0.00    +0.001 A  ATOM     36  C   UNL     1      36.990  45.053  13.391 -0.46 -0.00    +0.010 A  ATOM     37  C   UNL     1      36.615  47.352  14.001 -0.50 -0.01    +0.010 A  ATOM     38  C   UNL     1      36.556  45.327  12.090 -0.57 -0.00    +0.001 A  ATOM     39  C   UNL     1      36.182  47.628  12.701 -0.66 -0.00    +0.001 A  ATOM     40  C   UNL     1      36.149  46.613  11.747 -0.63 -0.00    +0.000 A  ENDBRANCH  27  35ENDBRANCH  24  25ENDBRANCH  18  19ENDBRANCH   4  18TORSDOF 6TERENDMDL