MODEL        6USER    Run = 6USERUSER    Estimated Free Energy of Binding    = -12.12 kcal/mol  [=(1)+(2)+(3)-(4)]USERUSER    (1) Final Intermolecular Energy     = -14.51 kcal/molUSER        vdW + Hbond + desolv Energy     = -14.47 kcal/molUSER        Electrostatic Energy            =  -0.04 kcal/molUSER        Moving Ligand-Fixed Receptor    = -14.51 kcal/molUSER        Moving Ligand-Moving Receptor   =  +0.00 kcal/molUSER    (2) Final Total Internal Energy     =  -1.59 kcal/molUSER    (3) Torsional Free Energy           =  +2.39 kcal/molUSER    (4) Unbound System's Energy         =  -1.59 kcal/molUSERUSERREMARK SMILES N#Cc1cnc(-c2ccc(CNCc3ccc(-c4csnn4)cc3)cc2)c(-c2ccccc2)c1REMARK SMILES IDX 11 1 10 2 7 3 8 4 26 5 9 6 25 7 6 8 3 9 4 10 34 11 5 12REMARK SMILES IDX 27 13 2 14 1 15 28 16 29 17 33 18 30 19 32 20 31 21 12 22REMARK SMILES IDX 13 24 14 25 15 26 24 27 16 28 23 29 17 30 18 31 19 32 22 33REMARK SMILES IDX 20 34 21 35REMARK H PARENT 12 23USER                              x       y       z     vdW  Elec       q    TypeUSER                           _______ _______ _______ _____ _____    ______ ____ROOTATOM      1  C   UNL     1      41.783  45.739  18.319 -0.35 +0.01    +0.117 C  ENDROOTBRANCH   1   2ATOM      2  C   UNL     1      41.000  45.572  19.600 -0.40 -0.00    -0.034 A  ATOM      3  C   UNL     1      39.511  45.295  22.002 -0.31 +0.00    +0.001 A  ATOM      4  C   UNL     1      40.915  45.225  22.002 -0.25 +0.00    +0.011 A  ATOM      5  C   UNL     1      38.868  45.491  20.769 -0.29 +0.00    +0.011 A  ATOM      6  C   UNL     1      41.652  45.367  20.821 -0.33 +0.00    +0.006 A  ATOM      7  C   UNL     1      39.602  45.636  19.586 -0.38 -0.00    +0.006 A  BRANCH   3   8ATOM      8  C   UNL     1      38.758  45.144  23.264 -0.25 +0.01    +0.078 A  ATOM      9  C   UNL     1      37.554  45.039  25.752 -0.27 -0.00    +0.071 A  ATOM     10  C   UNL     1      38.595  45.900  25.466 -0.18 +0.01    +0.131 A  ATOM     11  C   UNL     1      37.097  44.207  24.732 -0.31 +0.00    +0.032 A  ATOM     12  N   UNL     1      39.195  45.973  24.257 -0.13 -0.02    -0.254 NA ATOM     13  C   UNL     1      37.689  44.242  23.453 -0.33 +0.00    +0.009 A  BRANCH   9  14ATOM     14  C   UNL     1      36.963  45.017  27.052 -0.36 -0.02    +0.101 C  ATOM     15  N   UNL     1      36.484  44.998  28.107 -0.32 +0.04    -0.192 NA ENDBRANCH   9  14BRANCH  13  16ATOM     16  C   UNL     1      37.142  43.376  22.395 -0.38 -0.00    -0.016 A  ATOM     17  C   UNL     1      36.373  43.917  21.350 -0.29 +0.00    +0.009 A  ATOM     18  C   UNL     1      37.386  41.993  22.390 -0.48 +0.00    +0.009 A  ATOM     19  C   UNL     1      35.856  43.101  20.341 -0.45 -0.00    +0.001 A  ATOM     20  C   UNL     1      36.868  41.176  21.382 -0.53 +0.00    +0.001 A  ATOM     21  C   UNL     1      36.103  41.730  20.359 -0.40 -0.00    +0.000 A  ENDBRANCH  13  16ENDBRANCH   3   8ENDBRANCH   1   2BRANCH   1  22ATOM     22  N   UNL     1      42.528  46.998  18.334 -0.23 -0.00    -0.309 NA ATOM     23  H   UNL     1      43.269  46.937  17.638 -0.52 -0.05    +0.123 HD BRANCH  22  24ATOM     24  C   UNL     1      41.678  48.147  18.022 -0.30 -0.00    +0.117 C  BRANCH  24  25ATOM     25  C   UNL     1      40.687  47.878  16.913 -0.51 +0.01    -0.034 A  ATOM     26  C   UNL     1      39.426  47.338  17.194 -0.40 -0.00    +0.006 A  ATOM     27  C   UNL     1      41.021  48.145  15.581 -0.49 -0.00    +0.006 A  ATOM     28  C   UNL     1      38.514  47.081  16.164 -0.42 -0.00    +0.011 A  ATOM     29  C   UNL     1      40.111  47.887  14.551 -0.44 -0.00    +0.011 A  ATOM     30  C   UNL     1      38.843  47.358  14.829 -0.48 -0.00    +0.003 A  BRANCH  30  31ATOM     31  C   UNL     1      37.915  47.102  13.731 -0.41 -0.04    +0.105 A  ATOM     32  C   UNL     1      37.353  45.869  13.445 -0.38 -0.04    +0.118 A  ATOM     33  N   UNL     1      37.503  48.130  12.884 -0.92 +0.02    -0.138 NA ATOM     34  S   UNL     1      36.327  46.073  12.084 -0.86 +0.01    -0.020 S  ATOM     35  N   UNL     1      36.660  47.705  11.959 -1.10 +0.03    -0.091 NA ENDBRANCH  30  31ENDBRANCH  24  25ENDBRANCH  22  24ENDBRANCH   1  22TORSDOF 8TERENDMDL