MODEL        3USER    Run = 3USERUSER    Estimated Free Energy of Binding    =  -6.00 kcal/mol  [=(1)+(2)+(3)-(4)]USERUSER    (1) Final Intermolecular Energy     = -10.47 kcal/molUSER        vdW + Hbond + desolv Energy     = -11.08 kcal/molUSER        Electrostatic Energy            =  -0.29 kcal/molUSER        Moving Ligand-Fixed Receptor    = -11.37 kcal/molUSER        Moving Ligand-Moving Receptor   =  +0.90 kcal/molUSER    (2) Final Total Internal Energy     =  -3.17 kcal/molUSER    (3) Torsional Free Energy           =  +4.47 kcal/molUSER    (4) Unbound System's Energy         =  -3.17 kcal/molUSERUSERREMARK SMILES COc1ccc(O)c(C(=O)c2ccc(CO[C@@H]3CCCNC[C@@H]3NC(=O)c3ccncc3)cc2)c1FREMARK SMILES IDX 16 1 15 2 14 3 11 4 12 5 34 6 13 7 33 8 9 9 10 10 8 11 3 12REMARK SMILES IDX 4 13 35 14 5 15 6 16 36 17 2 18 1 19 7 20 17 22 18 23 23 25REMARK SMILES IDX 22 26 21 27 20 29 19 30 24 32 25 33 26 35 27 36 28 37 32 38REMARK SMILES IDX 29 39 31 40 30 41REMARK H PARENT 7 21 21 28 24 34REMARK Flexibility Score:   99.900USER                              x       y       z     vdW  Elec       q    TypeUSER                           _______ _______ _______ _____ _____    ______ ____ROOTATOM      1  O   UNL     1      38.321  43.969  23.784 -0.10 -0.02    -0.371 OA ENDROOTBRANCH   1   2ATOM      2  C   UNL     1      39.448  43.280  23.247 -0.20 +0.01    +0.196 C  BRANCH   2   3ATOM      3  C   UNL     1      39.921  44.027  22.028 -0.25 -0.00    -0.022 A  ATOM      4  C   UNL     1      40.831  45.427  19.767 -0.40 +0.00    +0.023 A  ATOM      5  C   UNL     1      41.576  44.358  20.275 -0.27 +0.00    +0.012 A  ATOM      6  C   UNL     1      39.617  45.775  20.369 -0.28 +0.00    +0.012 A  ATOM      7  C   UNL     1      41.124  43.669  21.402 -0.30 +0.00    +0.007 A  ATOM      8  C   UNL     1      39.167  45.083  21.496 -0.34 +0.00    +0.007 A  BRANCH   4   9ATOM      9  C   UNL     1      41.253  46.166  18.553 -0.41 +0.00    +0.199 C  ATOM     10  O   UNL     1      42.429  46.524  18.449 -0.34 -0.02    -0.288 OA BRANCH   9  11ATOM     11  C   UNL     1      40.319  46.557  17.477 -0.42 -0.01    +0.104 A  ATOM     12  C   UNL     1      38.291  46.206  16.168 -0.28 -0.05    +0.155 A  ATOM     13  C   UNL     1      38.572  47.357  15.428 -0.43 -0.02    +0.053 A  ATOM     14  C   UNL     1      39.175  45.813  17.184 -0.29 -0.03    +0.179 A  ATOM     15  C   UNL     1      39.732  48.091  15.690 -0.50 -0.02    +0.051 A  ATOM     16  C   UNL     1      40.604  47.685  16.697 -0.43 -0.02    +0.130 A  ATOM     17  F   UNL     1      38.913  44.685  17.864 -0.09 +0.03    -0.202 F  BRANCH  12  18ATOM     18  O   UNL     1      37.199  45.400  15.993 -0.05 +0.20    -0.494 OA ATOM     19  C   UNL     1      35.922  45.961  16.266 -0.22 -0.20    +0.278 C  ENDBRANCH  12  18BRANCH  16  20ATOM     20  O   UNL     1      41.732  48.442  16.868 -0.60 -0.02    -0.507 OA ATOM     21  H   UNL     1      42.475  47.832  17.081 -0.34 -0.04    +0.293 HD ENDBRANCH  16  20ENDBRANCH   9  11ENDBRANCH   4   9ENDBRANCH   2   3ENDBRANCH   1   2BRANCH   1  22ATOM     22  C   UNL     1      37.969  43.543  25.119 -0.23 +0.00    +0.142 C  BRANCH  22  23ATOM     23  C   UNL     1      36.465  43.831  25.234 -0.33 +0.00    +0.035 CG0ATOM     24  G   UNL     1      35.758  43.578  26.560 +0.00 +0.00    +0.000 G0 ENDBRANCH  22  23BRANCH  22  25ATOM     25  C   UNL     1      38.878  44.264  26.143 -0.16 -0.00    +0.125 C  BRANCH  25  26ATOM     26  C   UNL     1      38.117  44.538  27.464 -0.26 -0.01    +0.108 C  BRANCH  26  27ATOM     27  N   UNL     1      37.620  43.371  28.190 -0.17 +0.07    -0.315 NA ATOM     28  H   UNL     1      37.365  43.665  29.135 -0.27 -0.04    +0.122 HD BRANCH  27  29ATOM     29  C   UNL     1      36.508  42.686  27.547 -0.41 -0.02    +0.081 C  BRANCH  29  30ATOM     30  C   UNL     1      35.760  43.575  26.564 -0.50 -0.00    +0.018 CG0ATOM     31  G   UNL     1      36.454  43.835  25.232 +0.00 +0.00    +0.000 G0 ENDBRANCH  29  30ENDBRANCH  27  29ENDBRANCH  26  27ENDBRANCH  25  26BRANCH  25  32ATOM     32  N   UNL     1      39.505  45.455  25.551 -0.03 -0.01    -0.345 N  ATOM     33  C   UNL     1      40.617  46.038  26.122 -0.07 +0.01    +0.251 C  ATOM     34  H   UNL     1      39.456  45.496  24.540 +0.07 +0.01    +0.164 HD ATOM     35  O   UNL     1      41.092  45.689  27.195 -0.31 -0.03    -0.269 OA BRANCH  33  36ATOM     36  C   UNL     1      41.267  47.123  25.338 -0.14 +0.00    +0.042 A  ATOM     37  C   UNL     1      41.600  48.307  25.996 -0.22 +0.00    +0.034 A  ATOM     38  C   UNL     1      41.515  47.001  23.971 -0.18 +0.00    +0.034 A  ATOM     39  C   UNL     1      42.188  49.318  25.258 -0.26 +0.02    +0.112 A  ATOM     40  C   UNL     1      42.105  48.072  23.323 -0.27 +0.02    +0.112 A  ATOM     41  N   UNL     1      42.451  49.223  23.938 -0.81 -0.09    -0.265 NA ENDBRANCH  33  36ENDBRANCH  25  32ENDBRANCH  22  25ENDBRANCH   1  22TORSDOF 9TERENDMDL