MODEL        6USER    Run = 6USERUSER    Estimated Free Energy of Binding    = -12.07 kcal/mol  [=(1)+(2)+(3)-(4)]USERUSER    (1) Final Intermolecular Energy     = -13.86 kcal/molUSER        vdW + Hbond + desolv Energy     = -13.74 kcal/molUSER        Electrostatic Energy            =  -0.11 kcal/molUSER        Moving Ligand-Fixed Receptor    = -13.86 kcal/molUSER        Moving Ligand-Moving Receptor   =  +0.00 kcal/molUSER    (2) Final Total Internal Energy     =  -0.65 kcal/molUSER    (3) Torsional Free Energy           =  +1.79 kcal/molUSER    (4) Unbound System's Energy         =  -0.65 kcal/molUSERUSERREMARK SMILES Cn1ccc2ccc3c4[nH]c5c(CCCN[C@H]6CC[C@H](O)CC6)cccc5c4c4c(c3c21)C(=O)NC4=OREMARK SMILES IDX 15 1 14 2 13 3 12 4 2 5 3 6 32 7 4 8 31 9 5 10 30 11 8 12REMARK SMILES IDX 6 13 29 14 33 15 7 16 9 17 28 18 36 19 35 20 10 21 27 22REMARK SMILES IDX 11 23 26 24 25 25 24 26 1 27 34 28 37 29 16 32 17 34 23 35REMARK SMILES IDX 18 36 22 37 19 38 20 39 21 40REMARK H PARENT 35 30 10 31 16 33 21 41USER                              x       y       z     vdW  Elec       q    TypeUSER                           _______ _______ _______ _____ _____    ______ ____ROOTATOM      1  C   UNL     1      39.503  46.275  22.765 -0.27 +0.01    +0.081 C  ENDROOTBRANCH   1   2ATOM      2  C   UNL     1      39.667  44.771  22.525 -0.29 +0.00    +0.020 C  BRANCH   2   3ATOM      3  C   UNL     1      40.987  44.415  21.832 -0.30 +0.00    +0.039 C  BRANCH   3   4ATOM      4  C   UNL     1      41.450  45.438  20.824 -0.33 -0.00    -0.024 A  ATOM      5  N   UNL     1      36.137  46.575  14.064 -0.19 +0.22    -0.350 N  ATOM      6  C   UNL     1      34.821  46.222  13.873 -0.28 -0.07    +0.086 A  ATOM      7  C   UNL     1      36.519  46.340  15.380 -0.34 -0.04    +0.057 A  ATOM      8  C   UNL     1      34.401  45.554  14.992 -0.29 -0.02    +0.028 A  ATOM      9  C   UNL     1      37.695  46.658  16.158 -0.37 -0.01    +0.022 A  ATOM     10  C   UNL     1      35.481  45.552  15.912 -0.34 -0.00    +0.000 A  ATOM     11  C   UNL     1      38.701  47.597  15.880 -0.42 -0.03    +0.063 A  ATOM     12  C   UNL     1      37.842  45.928  17.378 -0.37 -0.00    +0.009 A  ATOM     13  C   UNL     1      35.635  44.941  17.167 -0.31 -0.01    +0.011 A  ATOM     14  C   UNL     1      39.861  47.711  16.657 -0.44 -0.02    +0.063 A  ATOM     15  C   UNL     1      38.763  48.717  14.926 -0.30 -0.14    +0.259 C  ATOM     16  C   UNL     1      36.829  45.088  17.866 -0.34 -0.00    +0.012 A  ATOM     17  C   UNL     1      39.041  46.064  18.145 -0.37 -0.01    +0.055 A  ATOM     18  C   UNL     1      40.083  46.934  17.796 -0.44 -0.00    +0.022 A  ATOM     19  C   UNL     1      40.674  48.789  16.097 -0.44 -0.05    +0.259 C  ATOM     20  N   UNL     1      40.011  49.244  15.006 -0.30 +0.13    -0.288 N  ATOM     21  N   UNL     1      39.438  45.441  19.308 -0.18 +0.02    -0.354 N  ATOM     22  C   UNL     1      41.121  46.788  18.777 -0.46 -0.00    +0.008 A  ATOM     23  C   UNL     1      40.689  45.844  19.709 -0.38 +0.00    +0.050 A  ATOM     24  C   UNL     1      42.394  47.366  18.966 -0.54 +0.00    +0.011 A  ATOM     25  C   UNL     1      43.176  46.989  20.062 -0.42 +0.00    +0.001 A  ATOM     26  C   UNL     1      42.710  46.044  20.971 -0.28 +0.00    +0.006 A  ATOM     27  C   UNL     1      36.986  46.877  12.931 -0.55 -0.06    +0.149 C  ATOM     28  O   UNL     1      37.852  49.176  14.268 -0.27 +0.19    -0.269 OA ATOM     29  O   UNL     1      41.708  49.247  16.539 -1.02 -0.05    -0.269 OA ATOM     30  H   UNL     1      40.262  50.109  14.553 -0.13 -0.11    +0.173 HD ATOM     31  H   UNL     1      38.892  44.751  19.800 +0.10 -0.01    +0.167 HD ENDBRANCH   3   4ENDBRANCH   2   3ENDBRANCH   1   2BRANCH   1  32ATOM     32  N   UNL     1      39.418  46.526  24.205 -0.11 -0.03    -0.314 NA ATOM     33  H   UNL     1      39.690  45.691  24.722 +0.05 +0.01    +0.122 HD BRANCH  32  34ATOM     34  C   UNL     1      38.081  46.965  24.629 -0.28 +0.01    +0.053 C  ATOM     35  C   UNL     1      37.467  46.062  25.721 -0.36 +0.00    +0.021 C  ATOM     36  C   UNL     1      38.214  48.428  25.097 -0.44 +0.00    +0.021 C  ATOM     37  C   UNL     1      37.735  46.589  27.130 -0.32 -0.00    +0.033 C  ATOM     38  C   UNL     1      37.081  48.811  26.039 -0.45 +0.00    +0.033 C  ATOM     39  C   UNL     1      37.126  47.983  27.327 -0.31 -0.01    +0.114 C  BRANCH  39  40ATOM     40  O   UNL     1      35.790  47.862  27.812 -0.20 +0.09    -0.393 OA ATOM     41  H   UNL     1      35.436  47.015  27.490 -0.45 -0.11    +0.210 HD ENDBRANCH  39  40ENDBRANCH  32  34ENDBRANCH   1  32TORSDOF 6TERENDMDL