MODEL        7USER    Run = 7USERUSER    Estimated Free Energy of Binding    =  -6.68 kcal/mol  [=(1)+(2)+(3)-(4)]USERUSER    (1) Final Intermolecular Energy     = -11.15 kcal/molUSER        vdW + Hbond + desolv Energy     = -11.18 kcal/molUSER        Electrostatic Energy            =  -0.20 kcal/molUSER        Moving Ligand-Fixed Receptor    = -11.38 kcal/molUSER        Moving Ligand-Moving Receptor   =  +0.23 kcal/molUSER    (2) Final Total Internal Energy     =  -2.94 kcal/molUSER    (3) Torsional Free Energy           =  +4.47 kcal/molUSER    (4) Unbound System's Energy         =  -2.94 kcal/molUSERUSERREMARK SMILES COc1ccc(O)c(C(=O)c2ccc(NC[C@@H]3CCCNC[C@@H]3NC(=O)c3ccncc3)cc2)c1FREMARK SMILES IDX 16 1 15 2 14 4 11 5 12 6 34 7 13 8 33 9 9 10 10 11 8 12 3 13REMARK SMILES IDX 4 14 35 15 5 16 6 17 36 18 2 19 1 20 7 21 17 23 18 24 23 26REMARK SMILES IDX 22 27 21 28 20 30 19 31 24 33 25 34 26 36 27 37 28 38 32 39REMARK SMILES IDX 29 40 31 41 30 42REMARK H PARENT 15 3 7 22 21 29 24 35REMARK Flexibility Score:   99.900USER                              x       y       z     vdW  Elec       q    TypeUSER                           _______ _______ _______ _____ _____    ______ ____ROOTATOM      1  C   UNL     1      37.858  42.217  25.481 -0.29 -0.00    +0.118 C  ENDROOTBRANCH   1   2ATOM      2  N   UNL     1      37.041  42.113  26.693 -0.13 +0.07    -0.385 N  ATOM      3  H   UNL     1      36.499  41.256  26.740 +0.03 -0.05    +0.160 HD BRANCH   2   4ATOM      4  C   UNL     1      36.401  43.211  27.263 -0.41 -0.01    +0.034 A  ATOM      5  C   UNL     1      34.997  45.328  28.510 -0.29 -0.01    +0.023 A  ATOM      6  C   UNL     1      36.386  45.379  28.381 -0.29 -0.00    +0.014 A  ATOM      7  C   UNL     1      34.311  44.196  28.070 -0.52 -0.00    +0.014 A  ATOM      8  C   UNL     1      37.078  44.326  27.771 -0.37 -0.00    +0.026 A  ATOM      9  C   UNL     1      35.014  43.150  27.459 -0.57 -0.01    +0.026 A  BRANCH   5  10ATOM     10  C   UNL     1      34.308  46.449  29.193 -0.36 -0.04    +0.199 C  ATOM     11  O   UNL     1      33.163  46.281  29.617 -0.86 +0.01    -0.288 OA BRANCH  10  12ATOM     12  C   UNL     1      34.905  47.794  29.349 -0.35 -0.01    +0.104 A  ATOM     13  C   UNL     1      36.204  49.674  28.496 -0.18 +0.00    +0.155 A  ATOM     14  C   UNL     1      36.002  50.355  29.698 -0.14 +0.00    +0.053 A  ATOM     15  C   UNL     1      35.658  48.391  28.337 -0.26 -0.02    +0.179 A  ATOM     16  C   UNL     1      35.279  49.753  30.731 -0.15 -0.00    +0.051 A  ATOM     17  C   UNL     1      34.749  48.477  30.561 -0.24 -0.01    +0.130 A  ATOM     18  F   UNL     1      35.895  47.730  27.193 -0.05 +0.06    -0.202 F  BRANCH  13  19ATOM     19  O   UNL     1      36.908  50.152  27.423 -0.05 -0.06    -0.494 OA ATOM     20  C   UNL     1      36.208  50.291  26.193 -0.28 +0.01    +0.278 C  ENDBRANCH  13  19BRANCH  17  21ATOM     21  O   UNL     1      34.083  47.948  31.634 -0.01 +0.11    -0.507 OA ATOM     22  H   UNL     1      33.810  47.032  31.397 -0.43 -0.19    +0.293 HD ENDBRANCH  17  21ENDBRANCH  10  12ENDBRANCH   5  10ENDBRANCH   2   4ENDBRANCH   1   2BRANCH   1  23ATOM     23  C   UNL     1      37.012  42.603  24.242 -0.44 +0.00    +0.032 C  BRANCH  23  24ATOM     24  C   UNL     1      36.906  41.404  23.279 -0.40 +0.00    +0.009 CG0ATOM     25  G   UNL     1      36.140  41.581  21.967 +0.00 +0.00    +0.000 G0 ENDBRANCH  23  24BRANCH  23  26ATOM     26  C   UNL     1      37.543  43.913  23.615 -0.32 +0.01    +0.101 C  BRANCH  26  27ATOM     27  C   UNL     1      38.236  43.653  22.257 -0.32 +0.01    +0.106 C  BRANCH  27  28ATOM     28  N   UNL     1      37.332  43.571  21.102 -0.18 -0.00    -0.315 NA ATOM     29  H   UNL     1      36.497  44.117  21.328 +0.06 +0.01    +0.122 HD BRANCH  28  30ATOM     30  C   UNL     1      36.907  42.202  20.806 -0.42 -0.00    +0.081 C  BRANCH  30  31ATOM     31  C   UNL     1      36.138  41.583  21.967 -0.59 +0.00    +0.016 CG0ATOM     32  G   UNL     1      36.903  41.404  23.279 +0.00 +0.00    +0.000 G0 ENDBRANCH  30  31ENDBRANCH  28  30ENDBRANCH  27  28ENDBRANCH  26  27BRANCH  26  33ATOM     33  N   UNL     1      38.452  44.643  24.495 -0.07 -0.02    -0.348 N  ATOM     34  C   UNL     1      38.067  45.731  25.242 -0.20 +0.02    +0.251 C  ATOM     35  H   UNL     1      39.423  44.366  24.427 +0.08 +0.01    +0.164 HD ATOM     36  O   UNL     1      36.928  46.182  25.227 -0.86 -0.04    -0.269 OA BRANCH  34  37ATOM     37  C   UNL     1      39.115  46.376  26.077 -0.19 +0.00    +0.042 A  ATOM     38  C   UNL     1      38.798  47.575  26.716 -0.23 -0.00    +0.034 A  ATOM     39  C   UNL     1      40.378  45.813  26.263 -0.12 +0.00    +0.034 A  ATOM     40  C   UNL     1      39.767  48.175  27.497 -0.16 +0.00    +0.112 A  ATOM     41  C   UNL     1      41.277  46.492  27.066 -0.07 +0.01    +0.112 A  ATOM     42  N   UNL     1      41.003  47.661  27.681 -0.52 -0.03    -0.265 NA ENDBRANCH  34  37ENDBRANCH  26  33ENDBRANCH  23  26ENDBRANCH   1  23TORSDOF 9TERENDMDL