MODEL        7USER    Run = 7USERUSER    Estimated Free Energy of Binding    =  -7.58 kcal/mol  [=(1)+(2)+(3)-(4)]USERUSER    (1) Final Intermolecular Energy     = -12.05 kcal/molUSER        vdW + Hbond + desolv Energy     = -12.14 kcal/molUSER        Electrostatic Energy            =  -0.18 kcal/molUSER        Moving Ligand-Fixed Receptor    = -12.32 kcal/molUSER        Moving Ligand-Moving Receptor   =  +0.27 kcal/molUSER    (2) Final Total Internal Energy     =  -2.06 kcal/molUSER    (3) Torsional Free Energy           =  +4.47 kcal/molUSER    (4) Unbound System's Energy         =  -2.06 kcal/molUSERUSERREMARK SMILES COc1ccc(O)c(C(=O)c2ccc(/C=C/[C@@H]3CCCNC[C@H]3NC(=O)c3ccncc3)cc2)c1FREMARK SMILES IDX 16 1 15 2 14 3 11 4 12 5 34 6 13 7 33 8 9 9 10 10 8 11 3 12REMARK SMILES IDX 4 13 35 14 5 15 6 16 36 17 2 18 1 19 7 20 17 22 18 23 23 25REMARK SMILES IDX 22 26 21 27 20 29 19 30 24 32 25 33 26 35 27 36 28 37 32 38REMARK SMILES IDX 29 39 31 40 30 41REMARK H PARENT 7 21 21 28 24 34REMARK Flexibility Score:   99.900USER                              x       y       z     vdW  Elec       q    TypeUSER                           _______ _______ _______ _____ _____    ______ ____ROOTATOM      1  C   UNL     1      35.942  46.936  16.573 -0.27 +0.02    -0.021 C  ENDROOTBRANCH   1   2ATOM      2  C   UNL     1      35.763  45.853  17.345 -0.42 -0.00    +0.004 C  BRANCH   2   3ATOM      3  C   UNL     1      34.503  45.101  17.404 -0.32 +0.01    -0.026 A  ATOM      4  C   UNL     1      32.112  43.630  17.446 -0.29 -0.01    +0.023 A  ATOM      5  C   UNL     1      32.626  44.092  16.231 -0.32 -0.01    +0.013 A  ATOM      6  C   UNL     1      32.809  43.866  18.635 -0.37 -0.00    +0.013 A  ATOM      7  C   UNL     1      33.821  44.821  16.214 -0.32 -0.01    +0.009 A  ATOM      8  C   UNL     1      33.994  44.605  18.613 -0.39 -0.00    +0.009 A  BRANCH   4   9ATOM      9  C   UNL     1      30.870  42.830  17.500 -0.20 -0.04    +0.199 C  ATOM     10  O   UNL     1      29.793  43.391  17.297 -0.15 +0.05    -0.288 OA BRANCH   9  11ATOM     11  C   UNL     1      30.856  41.389  17.840 -0.22 -0.02    +0.104 A  ATOM     12  C   UNL     1      31.481  39.530  19.290 -0.30 +0.02    +0.155 A  ATOM     13  C   UNL     1      30.804  38.649  18.445 -0.40 +0.01    +0.053 A  ATOM     14  C   UNL     1      31.503  40.897  18.976 -0.16 -0.00    +0.179 A  ATOM     15  C   UNL     1      30.179  39.127  17.290 +0.01 +0.01    +0.051 A  ATOM     16  C   UNL     1      30.218  40.484  16.985 -0.28 -0.01    +0.130 A  ATOM     17  F   UNL     1      32.189  41.729  19.776 -0.07 -0.02    -0.202 F  BRANCH  12  18ATOM     18  O   UNL     1      32.144  39.178  20.435 -0.97 -0.21    -0.494 OA ATOM     19  C   UNL     1      31.467  38.321  21.344 -0.34 +0.04    +0.278 C  ENDBRANCH  12  18BRANCH  16  20ATOM     20  O   UNL     1      29.606  40.862  15.820 -0.18 +0.13    -0.507 OA ATOM     21  H   UNL     1      29.310  41.796  15.924 +0.17 -0.12    +0.293 HD ENDBRANCH  16  20ENDBRANCH   9  11ENDBRANCH   4   9ENDBRANCH   2   3ENDBRANCH   1   2BRANCH   1  22ATOM     22  C   UNL     1      36.506  46.945  15.154 -0.43 -0.03    +0.035 C  BRANCH  22  23ATOM     23  C   UNL     1      35.343  46.582  14.210 -0.47 -0.01    +0.011 CG0ATOM     24  G   UNL     1      35.676  46.081  12.809 +0.00 +0.00    +0.000 G0 ENDBRANCH  22  23BRANCH  22  25ATOM     25  C   UNL     1      37.806  46.119  14.914 -0.38 -0.04    +0.103 C  BRANCH  25  26ATOM     26  C   UNL     1      38.376  46.366  13.488 -0.20 -0.03    +0.106 C  BRANCH  26  27ATOM     27  N   UNL     1      37.759  47.406  12.672 -0.83 +0.05    -0.315 NA ATOM     28  H   UNL     1      38.448  47.771  12.012 +0.10 +0.04    +0.122 HD BRANCH  27  29ATOM     29  C   UNL     1      36.547  47.008  11.973 -0.71 -0.03    +0.081 C  BRANCH  29  30ATOM     30  C   UNL     1      35.677  46.080  12.808 -0.51 -0.01    +0.016 CG0ATOM     31  G   UNL     1      35.341  46.578  14.209 +0.00 +0.00    +0.000 G0 ENDBRANCH  29  30ENDBRANCH  27  29ENDBRANCH  26  27ENDBRANCH  25  26BRANCH  25  32ATOM     32  N   UNL     1      38.845  46.462  15.896 -0.16 +0.10    -0.347 N  ATOM     33  C   UNL     1      39.115  45.656  16.980 -0.25 -0.05    +0.251 C  ATOM     34  H   UNL     1      39.490  47.203  15.658 +0.12 -0.04    +0.164 HD ATOM     35  O   UNL     1      38.520  44.612  17.214 -0.21 +0.05    -0.269 OA BRANCH  33  36ATOM     36  C   UNL     1      40.216  46.104  17.869 -0.45 -0.00    +0.042 A  ATOM     37  C   UNL     1      41.077  47.140  17.506 -0.47 -0.00    +0.034 A  ATOM     38  C   UNL     1      40.359  45.487  19.110 -0.43 -0.00    +0.034 A  ATOM     39  C   UNL     1      42.069  47.496  18.400 -0.43 -0.00    +0.112 A  ATOM     40  C   UNL     1      41.386  45.914  19.931 -0.34 +0.01    +0.112 A  ATOM     41  N   UNL     1      42.249  46.898  19.598 -0.31 -0.04    -0.265 NA ENDBRANCH  33  36ENDBRANCH  25  32ENDBRANCH  22  25ENDBRANCH   1  22TORSDOF 9TERENDMDL