MODEL        7USER    Run = 7USERUSER    Estimated Free Energy of Binding    =  -6.95 kcal/mol  [=(1)+(2)+(3)-(4)]USERUSER    (1) Final Intermolecular Energy     = -11.13 kcal/molUSER        vdW + Hbond + desolv Energy     = -11.25 kcal/molUSER        Electrostatic Energy            =  -0.22 kcal/molUSER        Moving Ligand-Fixed Receptor    = -11.47 kcal/molUSER        Moving Ligand-Moving Receptor   =  +0.34 kcal/molUSER    (2) Final Total Internal Energy     =  -2.54 kcal/molUSER    (3) Torsional Free Energy           =  +4.18 kcal/molUSER    (4) Unbound System's Energy         =  -2.54 kcal/molUSERUSERREMARK SMILES COc1ccc(O)c(C(=O)c2ccc(C(=O)N[C@@H]3CCCNC[C@H]3NC(=O)c3ccncc3)cc2)c1FREMARK SMILES IDX 15 1 16 2 17 3 14 5 11 6 12 7 35 8 13 9 34 10 9 11 10 12REMARK SMILES IDX 8 13 3 14 4 15 36 16 5 17 6 18 37 19 2 20 1 21 7 22 18 24REMARK SMILES IDX 19 25 24 27 23 28 22 29 21 31 20 32 25 34 26 35 27 37 28 38REMARK SMILES IDX 29 39 33 40 30 41 32 42 31 43REMARK H PARENT 17 4 7 23 22 30 25 36REMARK Flexibility Score:   88.900USER                              x       y       z     vdW  Elec       q    TypeUSER                           _______ _______ _______ _____ _____    ______ ____ROOTATOM      1  C   UNL     1      38.366  44.374  19.419 -0.25 -0.02    +0.251 C  ATOM      2  O   UNL     1      38.494  45.253  20.264 -0.26 +0.00    -0.269 OA ATOM      3  N   UNL     1      39.400  43.943  18.612 -0.07 +0.02    -0.347 N  ATOM      4  H   UNL     1      39.169  43.372  17.810 +0.12 -0.01    +0.164 HD ENDROOTBRANCH   1   5ATOM      5  C   UNL     1      37.031  43.763  19.165 -0.27 -0.00    +0.039 A  ATOM      6  C   UNL     1      34.477  42.663  18.812 -0.39 -0.00    +0.023 A  ATOM      7  C   UNL     1      35.068  42.668  20.079 -0.43 -0.00    +0.013 A  ATOM      8  C   UNL     1      35.163  43.208  17.720 -0.34 -0.00    +0.013 A  ATOM      9  C   UNL     1      36.347  43.205  20.252 -0.42 -0.00    +0.014 A  ATOM     10  C   UNL     1      36.444  43.748  17.894 -0.27 -0.00    +0.014 A  BRANCH   6  11ATOM     11  C   UNL     1      33.092  42.157  18.694 -0.31 -0.02    +0.199 C  ATOM     12  O   UNL     1      32.718  41.302  19.499 -0.48 -0.04    -0.288 OA BRANCH  11  13ATOM     13  C   UNL     1      32.110  42.647  17.699 -0.25 -0.03    +0.104 A  ATOM     14  C   UNL     1      31.064  44.440  16.416 -0.20 -0.05    +0.155 A  ATOM     15  C   UNL     1      30.230  43.509  15.792 -0.27 -0.03    +0.053 A  ATOM     16  C   UNL     1      32.001  43.997  17.365 -0.17 -0.05    +0.179 A  ATOM     17  C   UNL     1      30.348  42.150  16.098 -0.31 -0.02    +0.051 A  ATOM     18  C   UNL     1      31.289  41.726  17.032 -0.21 -0.05    +0.130 A  ATOM     19  F   UNL     1      32.819  44.901  17.928 -0.06 +0.07    -0.202 F  BRANCH  14  20ATOM     20  O   UNL     1      31.052  45.791  16.188 -0.58 +0.11    -0.494 OA ATOM     21  C   UNL     1      31.253  46.225  14.846 -0.36 -0.18    +0.278 C  ENDBRANCH  14  20BRANCH  18  22ATOM     22  O   UNL     1      31.355  40.373  17.245 -0.10 +0.12    -0.507 OA ATOM     23  H   UNL     1      31.707  40.236  18.156 +0.19 -0.03    +0.293 HD ENDBRANCH  18  22ENDBRANCH  11  13ENDBRANCH   6  11ENDBRANCH   1   5BRANCH   3  24ATOM     24  C   UNL     1      40.679  44.661  18.579 -0.40 +0.00    +0.106 C  BRANCH  24  25ATOM     25  C   UNL     1      41.508  44.303  19.819 -0.17 +0.00    +0.028 CG0ATOM     26  G   UNL     1      41.156  45.073  21.103 +0.00 +0.00    +0.000 G0 ENDBRANCH  24  25BRANCH  24  27ATOM     27  C   UNL     1      40.439  46.188  18.400 -0.46 -0.01    +0.118 C  BRANCH  27  28ATOM     28  C   UNL     1      41.678  47.078  18.658 -0.51 -0.00    +0.108 C  BRANCH  28  29ATOM     29  N   UNL     1      42.208  47.107  20.024 -0.20 -0.04    -0.315 NA ATOM     30  H   UNL     1      43.104  46.625  20.059 +0.05 +0.05    +0.122 HD BRANCH  29  31ATOM     31  C   UNL     1      41.330  46.590  21.068 -0.05 +0.01    +0.081 C  BRANCH  31  32ATOM     32  C   UNL     1      41.158  45.073  21.103 -0.36 +0.00    +0.017 CG0ATOM     33  G   UNL     1      41.504  44.304  19.818 +0.00 +0.00    +0.000 G0 ENDBRANCH  31  32ENDBRANCH  29  31ENDBRANCH  28  29ENDBRANCH  27  28BRANCH  27  34ATOM     34  N   UNL     1      39.862  46.457  17.076 -0.21 +0.06    -0.346 N  ATOM     35  C   UNL     1      38.513  46.667  16.908 -0.28 -0.09    +0.251 C  ATOM     36  H   UNL     1      40.496  46.756  16.352 +0.10 -0.02    +0.164 HD ATOM     37  O   UNL     1      37.691  46.560  17.808 -0.13 +0.10    -0.269 OA BRANCH  35  38ATOM     38  C   UNL     1      38.075  47.074  15.550 -0.40 -0.02    +0.042 A  ATOM     39  C   UNL     1      38.001  46.096  14.558 -0.39 -0.01    +0.034 A  ATOM     40  C   UNL     1      37.767  48.400  15.238 -0.49 -0.02    +0.034 A  ATOM     41  C   UNL     1      37.596  46.482  13.295 -0.39 -0.04    +0.112 A  ATOM     42  C   UNL     1      37.374  48.683  13.943 -0.42 -0.06    +0.112 A  ATOM     43  N   UNL     1      37.277  47.752  12.967 -0.87 +0.08    -0.265 NA ENDBRANCH  35  38ENDBRANCH  27  34ENDBRANCH  24  27ENDBRANCH   3  24TORSDOF 8TERENDMDL