MODEL        8USER    Run = 8USERUSER    Estimated Free Energy of Binding    = -12.29 kcal/mol  [=(1)+(2)+(3)-(4)]USERUSER    (1) Final Intermolecular Energy     = -14.08 kcal/molUSER        vdW + Hbond + desolv Energy     = -13.94 kcal/molUSER        Electrostatic Energy            =  -0.14 kcal/molUSER        Moving Ligand-Fixed Receptor    = -14.08 kcal/molUSER        Moving Ligand-Moving Receptor   =  +0.00 kcal/molUSER    (2) Final Total Internal Energy     =  -1.51 kcal/molUSER    (3) Torsional Free Energy           =  +1.79 kcal/molUSER    (4) Unbound System's Energy         =  -1.51 kcal/molUSERUSERREMARK SMILES Oc1nc2ccccc2n1C1CCN(Cc2ccc(-c3nc4ccccc4nc3-c3ccccc3)cc2)CC1REMARK SMILES IDX 11 1 12 2 13 3 14 4 38 5 39 6 10 7 2 8 3 9 4 10 9 11 5 12REMARK SMILES IDX 8 13 6 14 7 15 1 16 15 18 16 19 17 20 37 21 18 22 36 23REMARK SMILES IDX 19 24 20 25 21 26 29 27 22 28 28 29 23 30 27 31 24 32 26 33REMARK SMILES IDX 25 34 30 35 31 36 35 37 32 38 34 39 33 40REMARK H PARENT 1 17USER                              x       y       z     vdW  Elec       q    TypeUSER                           _______ _______ _______ _____ _____    ______ ____ROOTATOM      1  C   UNL     1      30.557  39.654  19.323 -0.27 +0.01    +0.095 C  ATOM      2  C   UNL     1      32.047  39.977  19.120 -0.34 +0.01    +0.041 C  ATOM      3  C   UNL     1      32.370  40.274  17.656 -0.38 -0.02    +0.087 C  ATOM      4  N   UNL     1      31.390  41.141  16.997 -0.09 +0.11    -0.299 NA ATOM      5  C   UNL     1      30.020  40.608  17.063 -0.36 -0.01    +0.087 C  ATOM      6  C   UNL     1      29.839  39.403  17.992 -0.38 +0.01    +0.041 C  ENDROOTBRANCH   1   7ATOM      7  N   UNL     1      30.343  38.591  20.293 -0.19 -0.03    -0.291 N  ATOM      8  C   UNL     1      31.212  38.196  21.272 -0.28 +0.04    +0.295 A  ATOM      9  N   UNL     1      30.757  37.220  22.007 -0.34 -0.01    -0.195 NA ATOM     10  C   UNL     1      29.509  36.961  21.492 -0.29 -0.00    +0.092 A  ATOM     11  C   UNL     1      29.215  37.805  20.419 -0.28 +0.00    +0.072 A  ATOM     12  C   UNL     1      28.561  36.011  21.902 -0.34 -0.00    +0.031 A  ATOM     13  C   UNL     1      27.996  37.747  19.729 -0.27 +0.00    +0.029 A  ATOM     14  C   UNL     1      27.339  35.937  21.223 -0.31 -0.00    +0.002 A  ATOM     15  C   UNL     1      27.064  36.792  20.155 -0.31 -0.00    +0.002 A  BRANCH   8  16ATOM     16  O   UNL     1      32.396  38.733  21.487 -0.80 -0.20    -0.480 OA ATOM     17  H   UNL     1      32.445  38.704  22.460 -0.30 +0.00    +0.296 HD ENDBRANCH   8  16ENDBRANCH   1   7BRANCH   4  18ATOM     18  C   UNL     1      31.446  42.548  17.430 -0.27 -0.03    +0.120 C  BRANCH  18  19ATOM     19  C   UNL     1      32.841  43.133  17.434 -0.30 +0.01    -0.034 A  ATOM     20  C   UNL     1      33.224  44.062  18.409 -0.35 -0.00    +0.006 A  ATOM     21  C   UNL     1      33.769  42.766  16.452 -0.35 -0.00    +0.006 A  ATOM     22  C   UNL     1      34.518  44.596  18.409 -0.35 -0.00    +0.011 A  ATOM     23  C   UNL     1      35.060  43.299  16.456 -0.40 -0.00    +0.011 A  ATOM     24  C   UNL     1      35.464  44.212  17.444 -0.31 -0.00    +0.002 A  BRANCH  24  25ATOM     25  C   UNL     1      36.825  44.771  17.473 -0.28 -0.03    +0.097 A  ATOM     26  N   UNL     1      37.491  44.537  18.641 -0.20 +0.04    -0.244 NA ATOM     27  C   UNL     1      37.420  45.501  16.432 -0.29 -0.04    +0.097 A  ATOM     28  C   UNL     1      38.722  45.062  18.770 -0.34 -0.01    +0.089 A  ATOM     29  N   UNL     1      38.665  46.040  16.576 -0.22 +0.07    -0.244 NA ATOM     30  C   UNL     1      39.433  44.859  19.947 -0.36 -0.00    +0.030 A  ATOM     31  C   UNL     1      39.310  45.819  17.734 -0.37 -0.01    +0.089 A  ATOM     32  C   UNL     1      40.712  45.389  20.124 -0.39 +0.00    +0.002 A  ATOM     33  C   UNL     1      40.584  46.343  17.919 -0.48 -0.00    +0.030 A  ATOM     34  C   UNL     1      41.290  46.134  19.104 -0.48 +0.00    +0.002 A  BRANCH  27  35ATOM     35  C   UNL     1      36.814  45.748  15.110 -0.38 -0.00    +0.002 A  ATOM     36  C   UNL     1      35.557  46.371  15.012 -0.35 -0.01    +0.010 A  ATOM     37  C   UNL     1      37.468  45.404  13.914 -0.42 -0.00    +0.010 A  ATOM     38  C   UNL     1      34.964  46.617  13.769 -0.43 -0.00    +0.001 A  ATOM     39  C   UNL     1      36.877  45.646  12.671 -0.56 -0.00    +0.001 A  ATOM     40  C   UNL     1      35.624  46.250  12.599 -0.53 -0.00    +0.000 A  ENDBRANCH  27  35ENDBRANCH  24  25ENDBRANCH  18  19ENDBRANCH   4  18TORSDOF 6TERENDMDL