REMARK SMILES O=C1Nc2ccc(Cl)cc2/C1=C/N1C[C@@H](O)c2ccc(N3CCOCC3)cc2O1
REMARK SMILES IDX 13 1 14 2 15 3 17 4 18 5 19 6 20 7 27 8 28 9 29 10 12 11
REMARK SMILES IDX 11 12 2 13 3 14 4 15 10 16 5 17 9 18 6 19 7 20 1 21 8 23
REMARK SMILES IDX 16 24 21 26 22 27 26 28 23 29 25 30 24 31
REMARK H PARENT 3 22 16 25
ROOT
ATOM      1  N   UNL     1       1.345  -0.942   0.114  1.00  0.00    -0.213 N 
ATOM      2  C   UNL     1       1.227  -2.393  -0.087  1.00  0.00     0.198 C 
ATOM      3  C   UNL     1      -0.064  -2.880   0.593  1.00  0.00     0.171 C 
ATOM      4  C   UNL     1      -1.201  -1.932   0.353  1.00  0.00     0.028 A 
ATOM      5  C   UNL     1      -2.515  -2.282   0.666  1.00  0.00     0.012 A 
ATOM      6  C   UNL     1      -3.561  -1.377   0.440  1.00  0.00     0.026 A 
ATOM      7  C   UNL     1      -3.341  -0.099  -0.099  1.00  0.00     0.041 A 
ATOM      8  C   UNL     1      -2.009   0.231  -0.393  1.00  0.00     0.076 A 
ATOM      9  C   UNL     1      -0.955  -0.662  -0.160  1.00  0.00     0.163 A 
ATOM     10  O   UNL     1       0.303  -0.227  -0.519  1.00  0.00    -0.380 OA
ENDROOT
BRANCH   1  11
ATOM     11  C   UNL     1       2.534  -0.238   0.212  1.00  0.00     0.138 C 
BRANCH  11  12
ATOM     12  C   UNL     1       3.831  -0.512   0.011  1.00  0.00     0.068 C 
ATOM     13  C   UNL     1       4.474  -1.764  -0.530  1.00  0.00     0.257 C 
ATOM     14  N   UNL     1       5.836  -1.500  -0.530  1.00  0.00    -0.321 N 
ATOM     15  C   UNL     1       6.107  -0.214  -0.082  1.00  0.00     0.049 A 
ATOM     16  C   UNL     1       4.922   0.446   0.258  1.00  0.00     0.014 A 
ATOM     17  C   UNL     1       7.350   0.379   0.025  1.00  0.00     0.028 A 
ATOM     18  C   UNL     1       4.959   1.748   0.729  1.00  0.00     0.031 A 
ATOM     19  C   UNL     1       7.394   1.692   0.498  1.00  0.00     0.023 A 
ATOM     20  C   UNL     1       6.208   2.366   0.845  1.00  0.00     0.041 A 
ATOM     21  O   UNL     1       3.953  -2.788  -0.926  1.00  0.00    -0.269 OA
ATOM     22  H   UNL     1       6.515  -2.170  -0.859  1.00  0.00     0.170 HD
ATOM     23  Cl  UNL     1       6.299   3.985   1.425  1.00  0.00    -0.084 Cl
ENDBRANCH  11  12
ENDBRANCH   1  11
BRANCH   3  24
ATOM     24  O   UNL     1       0.132  -2.974   2.010  1.00  0.00    -0.386 OA
ATOM     25  H   UNL     1       0.313  -2.063   2.307  1.00  0.00     0.211 HD
ENDBRANCH   3  24
BRANCH   7  26
ATOM     26  N   UNL     1      -4.381   0.786  -0.323  1.00  0.00    -0.367 N 
ATOM     27  C   UNL     1      -4.158   2.230  -0.496  1.00  0.00     0.145 C 
ATOM     28  C   UNL     1      -5.780   0.340  -0.427  1.00  0.00     0.145 C 
ATOM     29  C   UNL     1      -5.418   3.011  -0.085  1.00  0.00     0.181 C 
ATOM     30  C   UNL     1      -6.581   1.313  -1.310  1.00  0.00     0.181 C 
ATOM     31  O   UNL     1      -6.593   2.665  -0.831  1.00  0.00    -0.378 OA
ENDBRANCH   7  26
TORSDOF 4
