MODEL        7USER    Run = 7USERUSER    Estimated Free Energy of Binding    = -12.57 kcal/mol  [=(1)+(2)+(3)-(4)]USERUSER    (1) Final Intermolecular Energy     = -14.35 kcal/molUSER        vdW + Hbond + desolv Energy     = -14.21 kcal/molUSER        Electrostatic Energy            =  -0.14 kcal/molUSER        Moving Ligand-Fixed Receptor    = -14.35 kcal/molUSER        Moving Ligand-Moving Receptor   =  +0.00 kcal/molUSER    (2) Final Total Internal Energy     =  -1.76 kcal/molUSER    (3) Torsional Free Energy           =  +1.79 kcal/molUSER    (4) Unbound System's Energy         =  -1.76 kcal/molUSERUSERREMARK SMILES Oc1nc2ccccc2n1C1CCN(Cc2ccc(-c3cc4ccccc4nc3-c3ccccc3)cc2)CC1REMARK SMILES IDX 11 1 12 2 13 3 14 4 38 5 39 6 10 7 2 8 3 9 4 10 9 11 5 12REMARK SMILES IDX 8 13 6 14 7 15 1 16 15 18 16 19 17 20 37 21 18 22 36 23REMARK SMILES IDX 19 24 20 25 21 26 29 27 22 28 28 29 23 30 27 31 24 32 26 33REMARK SMILES IDX 25 34 30 35 31 36 35 37 32 38 34 39 33 40REMARK H PARENT 1 17USER                              x       y       z     vdW  Elec       q    TypeUSER                           _______ _______ _______ _____ _____    ______ ____ROOTATOM      1  C   UNL     1      30.834  40.021  17.519 -0.35 -0.01    +0.095 C  ATOM      2  C   UNL     1      32.212  40.447  18.045 -0.46 -0.01    +0.041 C  ATOM      3  C   UNL     1      32.301  41.904  18.486 -0.36 -0.01    +0.087 C  ATOM      4  N   UNL     1      31.699  42.853  17.547 -0.11 +0.08    -0.299 NA ATOM      5  C   UNL     1      30.286  42.536  17.325 -0.25 -0.02    +0.087 C  ATOM      6  C   UNL     1      30.029  41.122  16.811 -0.37 -0.01    +0.041 C  ENDROOTBRANCH   1   7ATOM      7  N   UNL     1      30.057  39.215  18.458 -0.18 -0.05    -0.291 N  ATOM      8  C   UNL     1      28.702  39.014  18.340 -0.11 +0.09    +0.295 A  ATOM      9  N   UNL     1      28.194  38.288  19.295 -0.18 -0.03    -0.195 NA ATOM     10  C   UNL     1      29.266  37.982  20.089 -0.28 +0.01    +0.092 A  ATOM     11  C   UNL     1      30.454  38.537  19.593 -0.36 +0.01    +0.072 A  ATOM     12  C   UNL     1      29.286  37.219  21.269 -0.31 -0.00    +0.031 A  ATOM     13  C   UNL     1      31.675  38.335  20.248 -0.47 +0.01    +0.029 A  ATOM     14  C   UNL     1      30.500  37.020  21.929 -0.45 +0.00    +0.002 A  ATOM     15  C   UNL     1      31.674  37.569  21.422 -0.47 +0.00    +0.002 A  BRANCH   8  16ATOM     16  O   UNL     1      27.949  39.491  17.370 -0.06 -0.18    -0.480 OA ATOM     17  H   UNL     1      27.361  40.089  17.867 +0.16 +0.03    +0.296 HD ENDBRANCH   8  16ENDBRANCH   1   7BRANCH   4  18ATOM     18  C   UNL     1      32.483  42.982  16.307 -0.28 -0.06    +0.120 C  BRANCH  18  19ATOM     19  C   UNL     1      33.821  43.659  16.514 -0.32 +0.02    -0.034 A  ATOM     20  C   UNL     1      33.901  45.034  16.766 -0.32 -0.00    +0.006 A  ATOM     21  C   UNL     1      35.006  42.913  16.456 -0.44 -0.00    +0.006 A  ATOM     22  C   UNL     1      35.141  45.650  16.954 -0.34 -0.01    +0.009 A  ATOM     23  C   UNL     1      36.245  43.533  16.635 -0.37 -0.00    +0.009 A  ATOM     24  C   UNL     1      36.332  44.910  16.882 -0.32 +0.01    -0.016 A  BRANCH  24  25ATOM     25  C   UNL     1      37.636  45.559  17.080 -0.36 -0.00    +0.009 A  ATOM     26  C   UNL     1      38.334  45.341  18.277 -0.38 -0.00    +0.021 A  ATOM     27  C   UNL     1      38.261  46.370  16.119 -0.34 -0.03    +0.079 A  ATOM     28  C   UNL     1      39.599  45.902  18.486 -0.44 -0.00    +0.001 A  ATOM     29  N   UNL     1      39.500  46.911  16.303 -0.27 +0.06    -0.247 NA ATOM     30  C   UNL     1      40.317  45.694  19.677 -0.40 +0.00    +0.010 A  ATOM     31  C   UNL     1      40.148  46.686  17.456 -0.44 -0.01    +0.071 A  ATOM     32  C   UNL     1      41.577  46.262  19.851 -0.42 +0.00    +0.001 A  ATOM     33  C   UNL     1      41.406  47.241  17.652 -0.43 -0.00    +0.029 A  ATOM     34  C   UNL     1      42.124  47.038  18.834 -0.54 +0.00    +0.002 A  BRANCH  27  35ATOM     35  C   UNL     1      37.657  46.724  14.820 -0.42 -0.00    +0.001 A  ATOM     36  C   UNL     1      37.443  45.738  13.841 -0.44 -0.00    +0.010 A  ATOM     37  C   UNL     1      37.298  48.047  14.508 -0.52 -0.01    +0.010 A  ATOM     38  C   UNL     1      36.869  46.057  12.607 -0.59 -0.00    +0.001 A  ATOM     39  C   UNL     1      36.724  48.368  13.275 -0.53 -0.00    +0.001 A  ATOM     40  C   UNL     1      36.506  47.372  12.326 -0.70 -0.00    +0.000 A  ENDBRANCH  27  35ENDBRANCH  24  25ENDBRANCH  18  19ENDBRANCH   4  18TORSDOF 6TERENDMDL