MODEL        4USER    Run = 4USERUSER    Estimated Free Energy of Binding    =  -6.22 kcal/mol  [=(1)+(2)+(3)-(4)]USERUSER    (1) Final Intermolecular Energy     = -10.69 kcal/molUSER        vdW + Hbond + desolv Energy     = -11.10 kcal/molUSER        Electrostatic Energy            =  -0.09 kcal/molUSER        Moving Ligand-Fixed Receptor    = -11.18 kcal/molUSER        Moving Ligand-Moving Receptor   =  +0.49 kcal/molUSER    (2) Final Total Internal Energy     =  -2.20 kcal/molUSER    (3) Torsional Free Energy           =  +4.47 kcal/molUSER    (4) Unbound System's Energy         =  -2.20 kcal/molUSERUSERREMARK SMILES COc1ccc(O)c(C(=O)c2ccc(NC[C@@H]3CCCNC[C@@H]3NC(=O)c3ccncc3)cc2)c1FREMARK SMILES IDX 16 1 15 2 14 4 11 5 12 6 34 7 13 8 33 9 9 10 10 11 8 12 3 13REMARK SMILES IDX 4 14 35 15 5 16 6 17 36 18 2 19 1 20 7 21 17 23 18 24 23 26REMARK SMILES IDX 22 27 21 28 20 30 19 31 24 33 25 34 26 36 27 37 28 38 32 39REMARK SMILES IDX 29 40 31 41 30 42REMARK H PARENT 15 3 7 22 21 29 24 35REMARK Flexibility Score:   99.900USER                              x       y       z     vdW  Elec       q    TypeUSER                           _______ _______ _______ _____ _____    ______ ____ROOTATOM      1  C   UNL     1      37.603  44.681  23.518 -0.29 +0.01    +0.118 C  ENDROOTBRANCH   1   2ATOM      2  N   UNL     1      38.322  43.872  22.530 -0.10 -0.02    -0.385 N  ATOM      3  H   UNL     1      38.917  43.163  22.947 +0.09 +0.01    +0.160 HD BRANCH   2   4ATOM      4  C   UNL     1      38.833  44.408  21.351 -0.32 +0.00    +0.034 A  ATOM      5  C   UNL     1      40.033  45.440  19.004 -0.43 -0.00    +0.023 A  ATOM      6  C   UNL     1      38.804  44.782  18.940 -0.38 -0.00    +0.014 A  ATOM      7  C   UNL     1      40.694  45.536  20.229 -0.38 +0.00    +0.014 A  ATOM      8  C   UNL     1      38.217  44.266  20.102 -0.33 -0.00    +0.026 A  ATOM      9  C   UNL     1      40.096  45.017  21.385 -0.30 +0.00    +0.026 A  BRANCH   5  10ATOM     10  C   UNL     1      40.634  45.941  17.745 -0.40 -0.01    +0.199 C  ATOM     11  O   UNL     1      41.778  45.593  17.446 -0.18 -0.00    -0.288 OA BRANCH  10  12ATOM     12  C   UNL     1      39.949  46.891  16.841 -0.41 -0.02    +0.104 A  ATOM     13  C   UNL     1      38.102  47.495  15.366 -0.34 -0.08    +0.155 A  ATOM     14  C   UNL     1      38.690  48.742  15.146 -0.43 -0.03    +0.053 A  ATOM     15  C   UNL     1      38.745  46.575  16.210 -0.29 -0.06    +0.179 A  ATOM     16  C   UNL     1      39.912  49.056  15.745 -0.52 -0.02    +0.051 A  ATOM     17  C   UNL     1      40.542  48.131  16.574 -0.44 -0.02    +0.130 A  ATOM     18  F   UNL     1      38.192  45.364  16.380 -0.07 +0.06    -0.202 F  BRANCH  13  19ATOM     19  O   UNL     1      36.921  47.067  14.822 -0.09 +0.32    -0.494 OA ATOM     20  C   UNL     1      36.749  47.239  13.420 -0.41 -0.14    +0.278 C  ENDBRANCH  13  19BRANCH  17  21ATOM     21  O   UNL     1      41.751  48.506  17.095 -0.62 -0.03    -0.507 OA ATOM     22  H   UNL     1      42.301  47.696  17.194 -0.35 -0.05    +0.293 HD ENDBRANCH  17  21ENDBRANCH  10  12ENDBRANCH   5  10ENDBRANCH   2   4ENDBRANCH   1   2BRANCH   1  23ATOM     23  C   UNL     1      37.627  44.033  24.925 -0.33 +0.00    +0.032 C  BRANCH  23  24ATOM     24  C   UNL     1      36.211  44.042  25.536 -0.32 -0.00    +0.009 CG0ATOM     25  G   UNL     1      35.998  43.396  26.906 +0.00 +0.00    +0.000 G0 ENDBRANCH  23  24BRANCH  23  26ATOM     26  C   UNL     1      38.729  44.678  25.796 -0.18 -0.00    +0.101 C  BRANCH  26  27ATOM     27  C   UNL     1      38.147  45.286  27.094 -0.25 -0.01    +0.106 C  BRANCH  27  28ATOM     28  N   UNL     1      37.907  44.326  28.179 -0.13 +0.04    -0.315 NA ATOM     29  H   UNL     1      38.818  44.070  28.566 +0.03 -0.01    +0.122 HD BRANCH  28  30ATOM     30  C   UNL     1      37.252  43.100  27.722 -0.37 -0.02    +0.081 C  BRANCH  30  31ATOM     31  C   UNL     1      36.002  43.395  26.903 -0.51 -0.00    +0.016 CG0ATOM     32  G   UNL     1      36.216  44.042  25.534 +0.00 +0.00    +0.000 G0 ENDBRANCH  30  31ENDBRANCH  28  30ENDBRANCH  27  28ENDBRANCH  26  27BRANCH  26  33ATOM     33  N   UNL     1      39.502  45.693  25.085 -0.03 -0.02    -0.348 N  ATOM     34  C   UNL     1      40.876  45.722  25.068 -0.05 +0.01    +0.251 C  ATOM     35  H   UNL     1      38.952  46.452  24.699 +0.08 +0.01    +0.164 HD ATOM     36  O   UNL     1      41.568  44.899  25.655 -0.03 -0.01    -0.269 OA BRANCH  34  37ATOM     37  C   UNL     1      41.515  46.831  24.311 -0.15 +0.00    +0.042 A  ATOM     38  C   UNL     1      41.247  48.140  24.714 -0.28 +0.00    +0.034 A  ATOM     39  C   UNL     1      42.385  46.606  23.243 -0.18 +0.00    +0.034 A  ATOM     40  C   UNL     1      41.844  49.173  24.016 -0.31 +0.03    +0.112 A  ATOM     41  C   UNL     1      42.932  47.709  22.611 -0.28 +0.02    +0.112 A  ATOM     42  N   UNL     1      42.677  48.985  22.970 -0.82 -0.08    -0.265 NA ENDBRANCH  34  37ENDBRANCH  26  33ENDBRANCH  23  26ENDBRANCH   1  23TORSDOF 9TERENDMDL