MODEL        1USER    Run = 1USERUSER    Estimated Free Energy of Binding    = -12.72 kcal/mol  [=(1)+(2)+(3)-(4)]USERUSER    (1) Final Intermolecular Energy     = -14.51 kcal/molUSER        vdW + Hbond + desolv Energy     = -14.20 kcal/molUSER        Electrostatic Energy            =  -0.30 kcal/molUSER        Moving Ligand-Fixed Receptor    = -14.51 kcal/molUSER        Moving Ligand-Moving Receptor   =  +0.00 kcal/molUSER    (2) Final Total Internal Energy     =  -2.07 kcal/molUSER    (3) Torsional Free Energy           =  +1.79 kcal/molUSER    (4) Unbound System's Energy         =  -2.07 kcal/molUSERUSERREMARK SMILES Cn1ccc2ccc3c4[nH]c5c(CCCN[C@H]6CC[C@H](O)CC6)cccc5c4c4c(c3c21)C(=O)NC4=OREMARK SMILES IDX 15 1 14 2 13 3 12 4 2 5 3 6 32 7 4 8 31 9 5 10 30 11 8 12REMARK SMILES IDX 6 13 29 14 33 15 7 16 9 17 28 18 36 19 35 20 10 21 27 22REMARK SMILES IDX 11 23 26 24 25 25 24 26 1 27 34 28 37 29 16 32 17 34 23 35REMARK SMILES IDX 18 36 22 37 19 38 20 39 21 40REMARK H PARENT 35 30 10 31 16 33 21 41USER                              x       y       z     vdW  Elec       q    TypeUSER                           _______ _______ _______ _____ _____    ______ ____ROOTATOM      1  C   UNL     1      35.753  42.534  20.780 -0.46 +0.00    +0.081 C  ENDROOTBRANCH   1   2ATOM      2  C   UNL     1      36.572  43.090  21.949 -0.43 +0.00    +0.020 C  BRANCH   2   3ATOM      3  C   UNL     1      37.833  42.269  22.242 -0.42 +0.00    +0.039 C  BRANCH   3   4ATOM      4  C   UNL     1      39.120  43.044  22.101 -0.13 -0.00    -0.024 A  ATOM      5  N   UNL     1      39.654  47.975  14.986 -0.24 +0.10    -0.350 N  ATOM      6  C   UNL     1      38.688  48.416  14.111 -0.40 -0.03    +0.086 A  ATOM      7  C   UNL     1      39.071  47.351  16.083 -0.42 -0.02    +0.057 A  ATOM      8  C   UNL     1      37.489  47.894  14.515 -0.50 -0.02    +0.028 A  ATOM      9  C   UNL     1      39.575  46.855  17.344 -0.44 -0.00    +0.022 A  ATOM     10  C   UNL     1      37.729  47.159  15.705 -0.42 -0.00    +0.000 A  ATOM     11  C   UNL     1      40.795  47.145  17.974 -0.46 -0.01    +0.063 A  ATOM     12  C   UNL     1      38.707  45.962  18.046 -0.38 -0.00    +0.009 A  ATOM     13  C   UNL     1      36.886  46.355  16.490 -0.37 -0.01    +0.011 A  ATOM     14  C   UNL     1      41.218  46.490  19.137 -0.42 +0.00    +0.063 A  ATOM     15  C   UNL     1      41.792  48.205  17.744 -0.22 -0.00    +0.259 C  ATOM     16  C   UNL     1      37.391  45.721  17.621 -0.35 -0.00    +0.012 A  ATOM     17  C   UNL     1      39.172  45.305  19.228 -0.37 -0.00    +0.055 A  ATOM     18  C   UNL     1      40.436  45.531  19.786 -0.40 +0.00    +0.022 A  ATOM     19  C   UNL     1      42.513  47.046  19.524 -0.38 +0.04    +0.259 C  ATOM     20  N   UNL     1      42.834  47.963  18.579 -0.33 -0.01    -0.288 N  ATOM     21  N   UNL     1      38.556  44.378  20.039 -0.14 +0.01    -0.354 N  ATOM     22  C   UNL     1      40.560  44.689  20.943 -0.33 +0.00    +0.008 A  ATOM     23  C   UNL     1      39.367  43.977  21.073 -0.19 +0.00    +0.050 A  ATOM     24  C   UNL     1      41.572  44.459  21.897 -0.27 +0.00    +0.011 A  ATOM     25  C   UNL     1      41.362  43.541  22.931 -0.26 +0.00    +0.001 A  ATOM     26  C   UNL     1      40.159  42.850  23.028 -0.27 +0.00    +0.006 A  ATOM     27  C   UNL     1      41.048  47.968  14.596 -0.30 -0.01    +0.149 C  ATOM     28  O   UNL     1      41.677  49.183  17.035 -0.95 -0.04    -0.269 OA ATOM     29  O   UNL     1      43.161  46.800  20.520 -0.32 -0.10    -0.269 OA ATOM     30  H   UNL     1      43.583  48.625  18.713 -0.43 -0.01    +0.173 HD ATOM     31  H   UNL     1      37.629  44.011  19.886 +0.11 -0.01    +0.167 HD ENDBRANCH   3   4ENDBRANCH   2   3ENDBRANCH   1   2BRANCH   1  32ATOM     32  N   UNL     1      35.830  43.465  19.653 -0.18 +0.03    -0.314 NA ATOM     33  H   UNL     1      36.032  44.405  19.989 +0.07 -0.01    +0.122 HD BRANCH  32  34ATOM     34  C   UNL     1      34.607  43.476  18.838 -0.39 -0.01    +0.053 C  ATOM     35  C   UNL     1      33.670  44.657  19.171 -0.46 -0.01    +0.021 C  ATOM     36  C   UNL     1      35.049  43.488  17.361 -0.38 -0.01    +0.021 C  ATOM     37  C   UNL     1      33.903  45.860  18.259 -0.54 -0.02    +0.033 C  ATOM     38  C   UNL     1      33.951  44.038  16.461 -0.36 -0.02    +0.033 C  ATOM     39  C   UNL     1      33.644  45.502  16.790 -0.29 -0.10    +0.114 C  BRANCH  39  40ATOM     40  O   UNL     1      32.275  45.742  16.469 -0.43 +0.28    -0.393 OA ATOM     41  H   UNL     1      32.231  46.580  15.977 -0.39 -0.33    +0.210 HD ENDBRANCH  39  40ENDBRANCH  32  34ENDBRANCH   1  32TORSDOF 6TERENDMDL