MODEL        2USER    Run = 2USERUSER    Estimated Free Energy of Binding    = -12.39 kcal/mol  [=(1)+(2)+(3)-(4)]USERUSER    (1) Final Intermolecular Energy     = -15.08 kcal/molUSER        vdW + Hbond + desolv Energy     = -14.96 kcal/molUSER        Electrostatic Energy            =  -0.11 kcal/molUSER        Moving Ligand-Fixed Receptor    = -15.08 kcal/molUSER        Moving Ligand-Moving Receptor   =  +0.00 kcal/molUSER    (2) Final Total Internal Energy     =  -1.59 kcal/molUSER    (3) Torsional Free Energy           =  +2.68 kcal/molUSER    (4) Unbound System's Energy         =  -1.59 kcal/molUSERUSERREMARK SMILES OCCn1ccc(-c2nc3ccccc3nc2-c2ccc(CN3CCC(n4c(O)nc5ccccc54)CC3)cc2)c1REMARK SMILES IDX 8 1 9 2 10 3 11 4 12 5 13 6 14 7 15 8 16 9 17 10 7 11 4 12REMARK SMILES IDX 5 13 41 14 6 15 3 16 2 17 1 18 18 20 19 21 40 22 20 23 39 24REMARK SMILES IDX 21 25 22 26 23 27 24 28 38 29 25 30 37 31 26 32 27 33 28 34REMARK SMILES IDX 36 35 30 36 35 37 31 38 34 39 32 40 33 41 29 42REMARK H PARENT 1 19 29 43USER                              x       y       z     vdW  Elec       q    TypeUSER                           _______ _______ _______ _____ _____    ______ ____ROOTATOM      1  C   UNL     1      37.596  45.365  25.392 -0.26 +0.00    +0.099 A  ATOM      2  N   UNL     1      36.752  45.210  26.450 -0.22 +0.04    -0.244 NA ATOM      3  C   UNL     1      36.163  44.010  26.596 -0.35 -0.01    +0.089 A  ATOM      4  C   UNL     1      35.297  43.797  27.662 -0.53 -0.01    +0.030 A  ATOM      5  C   UNL     1      34.669  42.566  27.853 -0.53 -0.00    +0.002 A  ATOM      6  C   UNL     1      34.911  41.529  26.962 -0.61 -0.00    +0.002 A  ATOM      7  C   UNL     1      35.780  41.733  25.888 -0.40 -0.01    +0.030 A  ATOM      8  C   UNL     1      36.408  42.955  25.688 -0.33 -0.00    +0.089 A  ATOM      9  N   UNL     1      37.231  43.112  24.637 -0.21 -0.01    -0.244 NA ATOM     10  C   UNL     1      37.822  44.331  24.472 -0.24 +0.01    +0.097 A  ENDROOTBRANCH   1  11ATOM     11  C   UNL     1      38.251  46.670  25.334 -0.29 +0.00    +0.020 A  ATOM     12  N   UNL     1      39.811  48.233  25.685 -0.10 -0.04    -0.351 N  ATOM     13  C   UNL     1      38.812  48.834  24.968 -0.26 +0.01    +0.086 A  ATOM     14  C   UNL     1      39.487  46.921  25.907 -0.17 +0.00    +0.096 A  ATOM     15  C   UNL     1      37.844  47.887  24.714 -0.30 +0.00    +0.030 A  BRANCH  12  16ATOM     16  C   UNL     1      41.019  48.893  26.160 -0.25 +0.02    +0.149 C  BRANCH  16  17ATOM     17  C   UNL     1      41.000  49.124  27.669 -0.23 +0.02    +0.178 C  BRANCH  17  18ATOM     18  O   UNL     1      40.678  47.917  28.356 -0.51 -0.04    -0.395 OA ATOM     19  H   UNL     1      39.865  48.080  28.861 -0.52 -0.04    +0.210 HD ENDBRANCH  17  18ENDBRANCH  16  17ENDBRANCH  12  16ENDBRANCH   1  11BRANCH  10  20ATOM     20  C   UNL     1      38.647  44.428  23.255 -0.28 +0.00    +0.002 A  ATOM     21  C   UNL     1      39.920  45.019  23.302 -0.20 +0.00    +0.011 A  ATOM     22  C   UNL     1      38.208  43.920  22.021 -0.34 +0.00    +0.011 A  ATOM     23  C   UNL     1      40.706  45.140  22.151 -0.25 +0.00    +0.006 A  ATOM     24  C   UNL     1      38.987  44.048  20.868 -0.26 +0.00    +0.006 A  ATOM     25  C   UNL     1      40.240  44.676  20.916 -0.31 -0.00    -0.034 A  BRANCH  25  26ATOM     26  C   UNL     1      41.068  44.830  19.659 -0.37 +0.01    +0.120 C  BRANCH  26  27ATOM     27  N   UNL     1      40.397  45.421  18.492 -0.23 +0.01    -0.299 NA ATOM     28  C   UNL     1      39.170  46.151  18.796 -0.31 -0.01    +0.087 C  ATOM     29  C   UNL     1      41.297  46.165  17.605 -0.36 -0.00    +0.087 C  ATOM     30  C   UNL     1      38.322  46.301  17.528 -0.39 -0.01    +0.041 C  ATOM     31  C   UNL     1      40.555  47.034  16.582 -0.53 -0.01    +0.041 C  ATOM     32  C   UNL     1      39.181  46.437  16.260 -0.43 -0.02    +0.095 C  BRANCH  32  33ATOM     33  N   UNL     1      38.480  47.126  15.187 -0.21 +0.11    -0.291 N  ATOM     34  C   UNL     1      38.420  48.477  14.983 -0.29 -0.17    +0.295 A  ATOM     35  C   UNL     1      37.736  46.538  14.185 -0.39 -0.03    +0.072 A  ATOM     36  N   UNL     1      37.739  48.812  13.921 -0.49 +0.10    -0.195 NA ATOM     37  C   UNL     1      37.396  45.211  13.886 -0.40 -0.01    +0.029 A  ATOM     38  C   UNL     1      37.303  47.614  13.406 -0.49 -0.04    +0.092 A  ATOM     39  C   UNL     1      36.610  44.991  12.749 -0.44 -0.00    +0.002 A  ATOM     40  C   UNL     1      36.519  47.371  12.268 -0.66 -0.01    +0.031 A  ATOM     41  C   UNL     1      36.181  46.051  11.949 -0.62 -0.00    +0.002 A  BRANCH  34  42ATOM     42  O   UNL     1      38.978  49.381  15.762 -0.15 +0.32    -0.480 OA ATOM     43  H   UNL     1      38.653  50.207  15.363 -0.28 -0.30    +0.296 HD ENDBRANCH  34  42ENDBRANCH  32  33ENDBRANCH  26  27ENDBRANCH  25  26ENDBRANCH  10  20TORSDOF 9TERENDMDL