MODEL        3USER    Run = 3USERUSER    Estimated Free Energy of Binding    = -12.02 kcal/mol  [=(1)+(2)+(3)-(4)]USERUSER    (1) Final Intermolecular Energy     = -14.10 kcal/molUSER        vdW + Hbond + desolv Energy     = -13.98 kcal/molUSER        Electrostatic Energy            =  -0.13 kcal/molUSER        Moving Ligand-Fixed Receptor    = -14.10 kcal/molUSER        Moving Ligand-Moving Receptor   =  +0.00 kcal/molUSER    (2) Final Total Internal Energy     =  -1.22 kcal/molUSER    (3) Torsional Free Energy           =  +2.09 kcal/molUSER    (4) Unbound System's Energy         =  -1.22 kcal/molUSERUSERREMARK SMILES Nc1ncc(-c2nc3ccccc3nc2-c2ccc(CN3CCC(n4c(O)nc5ccccc54)CC3)cc2)cn1REMARK SMILES IDX 16 1 17 2 18 3 19 4 37 5 38 6 15 7 6 8 7 9 8 10 14 11 9 12REMARK SMILES IDX 13 13 10 14 12 15 11 16 5 17 2 18 3 19 40 20 4 21 39 22 1 23REMARK SMILES IDX 20 26 21 27 22 28 36 29 23 30 35 31 24 32 25 33 26 34 34 35REMARK SMILES IDX 28 36 33 37 29 38 32 39 30 40 31 41 27 42REMARK H PARENT 1 24 1 25 27 43USER                              x       y       z     vdW  Elec       q    TypeUSER                           _______ _______ _______ _____ _____    ______ ____ROOTATOM      1  C   UNL     1      39.048  45.869  23.874 -0.27 +0.00    +0.002 A  ATOM      2  C   UNL     1      38.602  44.859  23.003 -0.30 +0.00    +0.011 A  ATOM      3  C   UNL     1      39.430  44.347  21.998 -0.28 +0.00    +0.006 A  ATOM      4  C   UNL     1      40.730  44.838  21.835 -0.25 -0.00    -0.034 A  ATOM      5  C   UNL     1      41.178  45.858  22.685 -0.21 +0.00    +0.006 A  ATOM      6  C   UNL     1      40.346  46.372  23.684 -0.22 +0.00    +0.011 A  ENDROOTBRANCH   1   7ATOM      7  C   UNL     1      38.158  46.385  24.930 -0.24 +0.01    +0.097 A  ATOM      8  C   UNL     1      37.701  45.654  26.038 -0.26 -0.00    +0.100 A  ATOM      9  N   UNL     1      36.931  46.242  26.996 -0.23 +0.05    -0.244 NA ATOM     10  C   UNL     1      36.598  47.535  26.828 -0.24 -0.02    +0.089 A  ATOM     11  N   UNL     1      37.805  47.691  24.757 -0.51 -0.04    -0.244 NA ATOM     12  C   UNL     1      35.805  48.171  27.775 -0.31 -0.01    +0.030 A  ATOM     13  C   UNL     1      37.036  48.262  25.699 -0.38 +0.00    +0.089 A  ATOM     14  C   UNL     1      35.435  49.510  27.633 -0.22 -0.00    +0.002 A  ATOM     15  C   UNL     1      36.662  49.595  25.566 -0.45 -0.00    +0.030 A  ATOM     16  C   UNL     1      35.866  50.225  26.523 -0.33 +0.00    +0.002 A  BRANCH   8  17ATOM     17  C   UNL     1      37.958  44.234  26.289 -0.23 -0.00    +0.039 A  ATOM     18  C   UNL     1      38.395  41.570  26.720 -0.23 -0.02    +0.219 A  ATOM     19  N   UNL     1      37.551  41.909  25.743 -0.22 +0.02    -0.221 NA ATOM     20  N   UNL     1      39.068  42.439  27.477 -0.18 +0.01    -0.221 NA ATOM     21  C   UNL     1      37.357  43.233  25.548 -0.24 -0.00    +0.127 A  ATOM     22  C   UNL     1      38.831  43.751  27.245 -0.18 -0.01    +0.127 A  BRANCH  18  23ATOM     23  N   UNL     1      38.617  40.227  26.934 -0.07 +0.00    -0.368 N  ATOM     24  H   UNL     1      39.539  39.975  26.605 -0.36 -0.01    +0.159 HD ATOM     25  H   UNL     1      37.834  39.692  26.586 -0.47 -0.02    +0.159 HD ENDBRANCH  18  23ENDBRANCH   8  17ENDBRANCH   1   7BRANCH   4  26ATOM     26  C   UNL     1      41.637  44.291  20.753 -0.30 +0.02    +0.120 C  BRANCH  26  27ATOM     27  N   UNL     1      41.436  44.945  19.449 -0.20 -0.03    -0.299 NA ATOM     28  C   UNL     1      41.458  46.400  19.568 -0.43 +0.01    +0.087 C  ATOM     29  C   UNL     1      40.240  44.444  18.756 -0.40 -0.00    +0.087 C  ATOM     30  C   UNL     1      41.547  47.032  18.178 -0.54 -0.00    +0.041 C  ATOM     31  C   UNL     1      39.553  45.479  17.859 -0.45 -0.00    +0.041 C  ATOM     32  C   UNL     1      40.579  46.381  17.172 -0.47 -0.01    +0.095 C  BRANCH  32  33ATOM     33  N   UNL     1      39.942  47.348  16.284 -0.28 +0.07    -0.291 N  ATOM     34  C   UNL     1      40.387  48.622  16.053 -0.33 -0.07    +0.295 A  ATOM     35  C   UNL     1      38.826  47.166  15.491 -0.41 -0.03    +0.072 A  ATOM     36  N   UNL     1      39.666  49.275  15.182 -0.29 +0.10    -0.195 NA ATOM     37  C   UNL     1      37.943  46.095  15.289 -0.36 -0.01    +0.029 A  ATOM     38  C   UNL     1      38.687  48.383  14.815 -0.45 -0.05    +0.092 A  ATOM     39  C   UNL     1      36.902  46.283  14.371 -0.42 -0.00    +0.002 A  ATOM     40  C   UNL     1      37.637  48.549  13.898 -0.49 -0.02    +0.031 A  ATOM     41  C   UNL     1      36.749  47.488  13.683 -0.55 -0.00    +0.002 A  BRANCH  34  42ATOM     42  O   UNL     1      41.440  49.166  16.627 -0.85 -0.01    -0.480 OA ATOM     43  H   UNL     1      41.244  50.116  16.525 +0.14 -0.04    +0.296 HD ENDBRANCH  34  42ENDBRANCH  32  33ENDBRANCH  26  27ENDBRANCH   4  26TORSDOF 7TERENDMDL