REMARK SMILES Cc1cccc(-c2nnc3sc(C(=O)NCC[C@@H](O)CO)cn23)c1
REMARK SMILES IDX 16 1 15 2 13 3 14 4 12 6 7 7 8 8 23 9 9 10 22 11 10 12 11 13
REMARK SMILES IDX 6 14 2 15 3 16 24 17 4 18 5 19 1 20 17 21 18 22 19 23 20 25
REMARK SMILES IDX 21 26
REMARK H PARENT 15 5 19 24 21 27
ROOT
ATOM      1  C   UNL     1      -3.121   1.151   0.892  1.00  0.00     0.119 C 
ENDROOT
BRANCH   1   2
ATOM      2  N   UNL     1      -1.921   0.370   0.660  1.00  0.00    -0.351 N 
ATOM      3  C   UNL     1      -1.946  -1.006   0.767  1.00  0.00     0.263 C 
ATOM      4  O   UNL     1      -2.936  -1.628   1.137  1.00  0.00    -0.268 OA
ATOM      5  H   UNL     1      -1.156   0.825   0.183  1.00  0.00     0.163 HD
BRANCH   3   6
ATOM      6  C   UNL     1      -0.683  -1.686   0.373  1.00  0.00     0.112 A 
ATOM      7  C   UNL     1       2.844  -2.213  -0.217  1.00  0.00     0.169 A 
ATOM      8  N   UNL     1       3.088  -3.423  -0.714  1.00  0.00    -0.128 NA
ATOM      9  N   UNL     1       1.489  -2.116  -0.011  1.00  0.00    -0.272 N 
ATOM     10  N   UNL     1       1.897  -4.137  -0.790  1.00  0.00    -0.118 NA
ATOM     11  C   UNL     1       0.564  -1.179   0.399  1.00  0.00     0.120 A 
ATOM     12  C   UNL     1       0.976  -3.325  -0.359  1.00  0.00     0.217 A 
ATOM     13  S   UNL     1      -0.740  -3.379  -0.156  1.00  0.00    -0.089 S 
BRANCH   7  14
ATOM     14  C   UNL     1       3.827  -1.157   0.003  1.00  0.00     0.020 A 
ATOM     15  C   UNL     1       5.797   0.054  -0.783  1.00  0.00    -0.050 A 
ATOM     16  C   UNL     1       5.755   0.851   0.365  1.00  0.00     0.003 A 
ATOM     17  C   UNL     1       4.840  -0.957  -0.946  1.00  0.00     0.015 A 
ATOM     18  C   UNL     1       4.766   0.648   1.327  1.00  0.00     0.001 A 
ATOM     19  C   UNL     1       3.808  -0.352   1.149  1.00  0.00     0.012 A 
ATOM     20  C   UNL     1       6.892   0.231  -1.794  1.00  0.00     0.044 C 
ENDBRANCH   7  14
ENDBRANCH   3   6
ENDBRANCH   1   2
BRANCH   1  21
ATOM     21  C   UNL     1      -3.973   1.245  -0.369  1.00  0.00     0.055 C 
BRANCH  21  22
ATOM     22  C   UNL     1      -5.303   1.954  -0.129  1.00  0.00     0.141 C 
BRANCH  22  23
ATOM     23  O   UNL     1      -5.880   2.261  -1.405  1.00  0.00    -0.391 OA
ATOM     24  H   UNL     1      -6.802   2.524  -1.205  1.00  0.00     0.211 HD
ENDBRANCH  22  23
BRANCH  22  25
ATOM     25  C   UNL     1      -6.307   1.102   0.656  1.00  0.00     0.187 C 
BRANCH  25  26
ATOM     26  O   UNL     1      -7.530   1.838   0.759  1.00  0.00    -0.394 OA
ATOM     27  H   UNL     1      -8.168   1.254   1.207  1.00  0.00     0.210 HD
ENDBRANCH  25  26
ENDBRANCH  22  25
ENDBRANCH  21  22
ENDBRANCH   1  21
TORSDOF 8
