MODEL        9USER    Run = 9USERUSER    Estimated Free Energy of Binding    =  -8.25 kcal/mol  [=(1)+(2)+(3)-(4)]USERUSER    (1) Final Intermolecular Energy     = -10.04 kcal/molUSER        vdW + Hbond + desolv Energy     =  -9.98 kcal/molUSER        Electrostatic Energy            =  -0.06 kcal/molUSER        Moving Ligand-Fixed Receptor    = -10.04 kcal/molUSER        Moving Ligand-Moving Receptor   =  +0.00 kcal/molUSER    (2) Final Total Internal Energy     =  -1.40 kcal/molUSER    (3) Torsional Free Energy           =  +1.79 kcal/molUSER    (4) Unbound System's Energy         =  -1.40 kcal/molUSERUSERREMARK SMILES OCCN1CCOc2cnnc(-c3ccnc(Nc4ccc(F)cc4)n3)c21REMARK SMILES IDX 4 1 5 2 6 3 7 4 8 5 9 6 10 7 11 8 12 9 27 10 3 11 2 12 1 13REMARK SMILES IDX 13 15 14 16 26 17 15 18 17 19 16 20 18 21 19 23 20 24 25 25REMARK SMILES IDX 21 26 24 27 22 28 23 29REMARK H PARENT 1 14 18 22USER                              x       y       z     vdW  Elec       q    TypeUSER                           _______ _______ _______ _____ _____    ______ ____ROOTATOM      1  N   UNL     1      36.851  46.318  16.248 -0.13 +0.21    -0.361 N  ATOM      2  C   UNL     1      35.444  46.053  16.596 -0.30 -0.13    +0.158 C  ATOM      3  C   UNL     1      34.723  45.316  15.473 -0.21 -0.19    +0.251 C  ATOM      4  O   UNL     1      34.733  46.073  14.260 -0.14 +0.41    -0.488 OA ATOM      5  C   UNL     1      35.973  46.593  13.971 -0.34 -0.11    +0.165 A  ATOM      6  C   UNL     1      36.149  47.014  12.663 -0.50 -0.10    +0.184 A  ATOM      7  N   UNL     1      37.295  47.558  12.223 -1.11 +0.03    -0.154 NA ATOM      8  N   UNL     1      38.311  47.742  13.106 -0.73 +0.02    -0.146 NA ATOM      9  C   UNL     1      38.180  47.370  14.411 -0.38 -0.06    +0.139 A  ATOM     10  C   UNL     1      37.018  46.737  14.903 -0.33 -0.07    +0.111 A  ENDROOTBRANCH   1  11ATOM     11  C   UNL     1      37.862  45.393  16.816 -0.32 -0.04    +0.145 C  BRANCH  11  12ATOM     12  C   UNL     1      37.892  45.346  18.352 -0.30 -0.03    +0.177 C  BRANCH  12  13ATOM     13  O   UNL     1      38.847  46.269  18.883 -0.16 +0.05    -0.395 OA ATOM     14  H   UNL     1      39.198  46.782  18.134 +0.11 -0.04    +0.210 HD ENDBRANCH  12  13ENDBRANCH  11  12ENDBRANCH   1  11BRANCH   9  15ATOM     15  C   UNL     1      39.299  47.815  15.253 -0.44 -0.03    +0.098 A  ATOM     16  C   UNL     1      39.742  49.122  15.237 -0.39 -0.02    +0.051 A  ATOM     17  N   UNL     1      39.865  46.874  16.047 -0.30 +0.04    -0.211 NA ATOM     18  C   UNL     1      40.783  49.408  16.080 -0.47 -0.03    +0.117 A  ATOM     19  C   UNL     1      40.889  47.241  16.830 -0.26 -0.03    +0.227 A  ATOM     20  N   UNL     1      41.359  48.496  16.882 -0.81 +0.01    -0.221 NA BRANCH  19  21ATOM     21  N   UNL     1      41.422  46.216  17.606 -0.20 +0.02    -0.324 N  ATOM     22  H   UNL     1      41.715  45.471  16.990 -0.06 +0.01    +0.170 HD BRANCH  21  23ATOM     23  C   UNL     1      41.756  46.090  18.958 -0.44 +0.00    +0.041 A  ATOM     24  C   UNL     1      42.605  47.057  19.530 -0.49 +0.00    +0.029 A  ATOM     25  C   UNL     1      41.326  45.037  19.774 -0.37 +0.00    +0.029 A  ATOM     26  C   UNL     1      42.996  46.980  20.870 -0.38 +0.01    +0.041 A  ATOM     27  C   UNL     1      41.714  44.955  21.117 -0.29 +0.01    +0.041 A  ATOM     28  C   UNL     1      42.544  45.928  21.652 -0.23 +0.03    +0.123 A  ATOM     29  F   UNL     1      42.917  45.849  22.936 -0.01 -0.04    -0.207 F  ENDBRANCH  21  23ENDBRANCH  19  21ENDBRANCH   9  15TORSDOF 6TERENDMDL