REMARK SMILES OCCN1CCOc2cnnc(-c3ccnc(Nc4ccc(F)cc4)n3)c21
REMARK SMILES IDX 4 1 5 2 6 3 7 4 8 5 9 6 10 7 11 8 12 9 27 10 3 11 2 12 1 13
REMARK SMILES IDX 13 15 14 16 26 17 15 18 17 19 16 20 18 21 19 23 20 24 25 25
REMARK SMILES IDX 21 26 24 27 22 28 23 29
REMARK H PARENT 1 14 18 22
ROOT
ATOM      1  N   UNL     1      -2.896   0.595  -0.542  1.00  0.00    -0.361 N 
ATOM      2  C   UNL     1      -4.323   0.963  -0.558  1.00  0.00     0.158 C 
ATOM      3  C   UNL     1      -5.216  -0.268  -0.457  1.00  0.00     0.251 C 
ATOM      4  O   UNL     1      -4.989  -1.169  -1.544  1.00  0.00    -0.488 OA
ATOM      5  C   UNL     1      -3.652  -1.385  -1.783  1.00  0.00     0.165 A 
ATOM      6  C   UNL     1      -3.359  -2.498  -2.553  1.00  0.00     0.184 A 
ATOM      7  N   UNL     1      -2.105  -2.840  -2.889  1.00  0.00    -0.154 NA
ATOM      8  N   UNL     1      -1.082  -2.039  -2.492  1.00  0.00    -0.146 NA
ATOM      9  C   UNL     1      -1.318  -0.917  -1.754  1.00  0.00     0.139 A 
ATOM     10  C   UNL     1      -2.613  -0.553  -1.325  1.00  0.00     0.111 A 
ENDROOT
BRANCH   1  11
ATOM     11  C   UNL     1      -2.186   0.743   0.753  1.00  0.00     0.145 C 
BRANCH  11  12
ATOM     12  C   UNL     1      -2.680  -0.199   1.862  1.00  0.00     0.177 C 
BRANCH  12  13
ATOM     13  O   UNL     1      -3.908   0.263   2.430  1.00  0.00    -0.395 OA
ATOM     14  H   UNL     1      -3.701   1.054   2.958  1.00  0.00     0.210 HD
ENDBRANCH  12  13
ENDBRANCH  11  12
ENDBRANCH   1  11
BRANCH   9  15
ATOM     15  C   UNL     1      -0.123  -0.079  -1.580  1.00  0.00     0.098 A 
ATOM     16  C   UNL     1      -0.052   1.198  -2.098  1.00  0.00     0.051 A 
ATOM     17  N   UNL     1       0.900  -0.629  -0.881  1.00  0.00    -0.211 NA
ATOM     18  C   UNL     1       1.112   1.876  -1.852  1.00  0.00     0.117 A 
ATOM     19  C   UNL     1       2.008   0.103  -0.701  1.00  0.00     0.227 A 
ATOM     20  N   UNL     1       2.139   1.357  -1.157  1.00  0.00    -0.221 NA
BRANCH  19  21
ATOM     21  N   UNL     1       3.015  -0.535   0.016  1.00  0.00    -0.324 N 
ATOM     22  H   UNL     1       2.728  -1.489   0.186  1.00  0.00     0.170 HD
BRANCH  21  23
ATOM     23  C   UNL     1       4.319  -0.189   0.383  1.00  0.00     0.041 A 
ATOM     24  C   UNL     1       5.084  -1.129   1.099  1.00  0.00     0.029 A 
ATOM     25  C   UNL     1       4.903   1.055   0.114  1.00  0.00     0.029 A 
ATOM     26  C   UNL     1       6.387  -0.841   1.516  1.00  0.00     0.041 A 
ATOM     27  C   UNL     1       6.207   1.349   0.528  1.00  0.00     0.041 A 
ATOM     28  C   UNL     1       6.937   0.398   1.224  1.00  0.00     0.123 A 
ATOM     29  F   UNL     1       8.184   0.679   1.623  1.00  0.00    -0.207 F 
ENDBRANCH  21  23
ENDBRANCH  19  21
ENDBRANCH   9  15
TORSDOF 6
