MODEL        9USER    Run = 9USERUSER    Estimated Free Energy of Binding    =  -9.98 kcal/mol  [=(1)+(2)+(3)-(4)]USERUSER    (1) Final Intermolecular Energy     = -12.36 kcal/molUSER        vdW + Hbond + desolv Energy     = -12.23 kcal/molUSER        Electrostatic Energy            =  -0.13 kcal/molUSER        Moving Ligand-Fixed Receptor    = -12.36 kcal/molUSER        Moving Ligand-Moving Receptor   =  +0.00 kcal/molUSER    (2) Final Total Internal Energy     =  -4.04 kcal/molUSER    (3) Torsional Free Energy           =  +2.39 kcal/molUSER    (4) Unbound System's Energy         =  -4.04 kcal/molUSERUSERREMARK SMILES Oc1ccc(-c2nc3ccccc3nc2-c2ccc(CN3CCC(n4c(O)nc5ccccc54)CC3)cc2)cc1OREMARK SMILES IDX 16 1 17 2 18 3 19 4 37 5 38 6 15 7 6 8 7 9 8 10 14 11 9 12REMARK SMILES IDX 13 13 10 14 12 15 11 16 5 17 2 18 3 19 40 20 4 21 39 22 1 23REMARK SMILES IDX 41 25 20 27 21 28 22 29 36 30 23 31 35 32 24 33 25 34 26 35REMARK SMILES IDX 34 36 28 37 33 38 29 39 32 40 30 41 31 42 27 43REMARK H PARENT 1 24 41 26 27 44USER                              x       y       z     vdW  Elec       q    TypeUSER                           _______ _______ _______ _____ _____    ______ ____ROOTATOM      1  C   UNL     1      37.723  43.269  21.707 -0.37 +0.00    +0.002 A  ATOM      2  C   UNL     1      37.221  42.023  21.299 -0.37 +0.00    +0.011 A  ATOM      3  C   UNL     1      36.053  41.931  20.535 -0.46 -0.00    +0.006 A  ATOM      4  C   UNL     1      35.351  43.084  20.163 -0.41 +0.00    -0.034 A  ATOM      5  C   UNL     1      35.829  44.329  20.586 -0.24 -0.00    +0.006 A  ATOM      6  C   UNL     1      36.996  44.418  21.352 -0.32 +0.00    +0.011 A  ENDROOTBRANCH   1   7ATOM      7  C   UNL     1      38.964  43.388  22.492 -0.23 +0.01    +0.097 A  ATOM      8  C   UNL     1      40.179  43.898  22.005 -0.21 +0.00    +0.097 A  ATOM      9  N   UNL     1      41.293  43.924  22.788 -0.12 -0.01    -0.244 NA ATOM     10  C   UNL     1      41.183  43.459  24.045 -0.15 +0.00    +0.089 A  ATOM     11  N   UNL     1      38.851  42.938  23.775 -0.15 -0.02    -0.244 NA ATOM     12  C   UNL     1      42.295  43.465  24.877 -0.12 -0.00    +0.030 A  ATOM     13  C   UNL     1      39.955  42.967  24.541 -0.16 +0.00    +0.089 A  ATOM     14  C   UNL     1      42.225  42.992  26.189 -0.11 -0.00    +0.002 A  ATOM     15  C   UNL     1      39.895  42.497  25.848 -0.18 -0.00    +0.030 A  ATOM     16  C   UNL     1      41.019  42.505  26.676 -0.16 -0.00    +0.002 A  BRANCH   8  17ATOM     17  C   UNL     1      40.383  44.463  20.659 -0.33 +0.00    +0.006 A  ATOM     18  C   UNL     1      40.801  45.543  18.097 -0.35 -0.00    +0.157 A  ATOM     19  C   UNL     1      39.742  44.669  18.301 -0.34 -0.00    +0.051 A  ATOM     20  C   UNL     1      41.636  45.891  19.154 -0.33 +0.02    +0.158 A  ATOM     21  C   UNL     1      39.535  44.138  19.579 -0.17 -0.00    +0.014 A  ATOM     22  C   UNL     1      41.434  45.368  20.424 -0.33 +0.01    +0.060 A  BRANCH  18  23ATOM     23  O   UNL     1      41.060  46.092  16.872 -0.10 +0.02    -0.504 OA ATOM     24  H   UNL     1      41.727  46.792  16.990 -0.23 -0.05    +0.293 HD ENDBRANCH  18  23BRANCH  20  25ATOM     25  O   UNL     1      42.672  46.756  18.946 -0.22 -0.08    -0.504 OA ATOM     26  H   UNL     1      42.838  46.713  17.983 -0.34 -0.03    +0.293 HD ENDBRANCH  20  25ENDBRANCH   8  17ENDBRANCH   1   7BRANCH   4  27ATOM     27  C   UNL     1      34.100  42.980  19.314 -0.38 -0.01    +0.120 C  BRANCH  27  28ATOM     28  N   UNL     1      34.128  43.836  18.119 -0.10 +0.09    -0.299 NA ATOM     29  C   UNL     1      35.237  43.497  17.219 -0.35 -0.03    +0.087 C  ATOM     30  C   UNL     1      34.039  45.266  18.452 -0.43 -0.04    +0.087 C  ATOM     31  C   UNL     1      36.509  44.300  17.481 -0.36 -0.01    +0.041 C  ATOM     32  C   UNL     1      34.757  46.163  17.445 -0.43 -0.04    +0.041 C  ATOM     33  C   UNL     1      36.252  45.816  17.428 -0.35 -0.05    +0.095 C  BRANCH  33  34ATOM     34  N   UNL     1      36.964  46.485  16.348 -0.19 +0.18    -0.291 N  ATOM     35  C   UNL     1      38.133  47.187  16.453 -0.15 -0.15    +0.295 A  ATOM     36  C   UNL     1      36.591  46.530  15.020 -0.34 -0.05    +0.072 A  ATOM     37  N   UNL     1      38.544  47.683  15.319 -0.31 +0.09    -0.195 NA ATOM     38  C   UNL     1      35.508  46.004  14.303 -0.39 -0.02    +0.029 A  ATOM     39  C   UNL     1      37.595  47.284  14.409 -0.41 -0.04    +0.092 A  ATOM     40  C   UNL     1      35.462  46.264  12.928 -0.49 -0.00    +0.002 A  ATOM     41  C   UNL     1      37.530  47.534  13.031 -0.49 -0.01    +0.031 A  ATOM     42  C   UNL     1      36.455  47.016  12.299 -0.69 -0.00    +0.002 A  BRANCH  35  43ATOM     43  O   UNL     1      38.804  47.367  17.572 -0.05 +0.18    -0.480 OA ATOM     44  H   UNL     1      39.717  47.436  17.237 +0.20 -0.08    +0.296 HD ENDBRANCH  35  43ENDBRANCH  33  34ENDBRANCH  27  28ENDBRANCH   4  27TORSDOF 8TERENDMDL