REMARK SMILES OCCn1ccc(-c2nc3ccccc3nc2-c2ccc(CN3CCC(n4c(O)nc5ccccc54)CC3)cc2)c1
REMARK SMILES IDX 8 1 9 2 10 3 11 4 12 5 13 6 14 7 15 8 16 9 17 10 7 11 4 12
REMARK SMILES IDX 5 13 41 14 6 15 3 16 2 17 1 18 18 20 19 21 40 22 20 23 39 24
REMARK SMILES IDX 21 25 22 26 23 27 24 28 38 29 25 30 37 31 26 32 27 33 28 34
REMARK SMILES IDX 36 35 30 36 35 37 31 38 34 39 32 40 33 41 29 42
REMARK H PARENT 1 19 29 43
ROOT
ATOM      1  C   UNL     1      -4.300  -1.538  -0.243  1.00  0.00     0.099 A 
ATOM      2  N   UNL     1      -5.528  -2.012   0.109  1.00  0.00    -0.244 NA
ATOM      3  C   UNL     1      -6.039  -3.008  -0.635  1.00  0.00     0.089 A 
ATOM      4  C   UNL     1      -7.286  -3.532  -0.315  1.00  0.00     0.030 A 
ATOM      5  C   UNL     1      -7.851  -4.569  -1.058  1.00  0.00     0.002 A 
ATOM      6  C   UNL     1      -7.156  -5.093  -2.140  1.00  0.00     0.002 A 
ATOM      7  C   UNL     1      -5.902  -4.574  -2.469  1.00  0.00     0.030 A 
ATOM      8  C   UNL     1      -5.332  -3.540  -1.737  1.00  0.00     0.089 A 
ATOM      9  N   UNL     1      -4.126  -3.065  -2.092  1.00  0.00    -0.244 NA
ATOM     10  C   UNL     1      -3.606  -2.043  -1.352  1.00  0.00     0.097 A 
ENDROOT
BRANCH   1  11
ATOM     11  C   UNL     1      -3.778  -0.504   0.648  1.00  0.00     0.020 A 
ATOM     12  N   UNL     1      -3.783   1.295   1.976  1.00  0.00    -0.351 N 
ATOM     13  C   UNL     1      -2.492   0.842   1.939  1.00  0.00     0.086 A 
ATOM     14  C   UNL     1      -4.573   0.485   1.204  1.00  0.00     0.096 A 
ATOM     15  C   UNL     1      -2.461  -0.285   1.146  1.00  0.00     0.030 A 
BRANCH  12  16
ATOM     16  C   UNL     1      -4.240   2.472   2.702  1.00  0.00     0.149 C 
BRANCH  16  17
ATOM     17  C   UNL     1      -4.394   2.209   4.197  1.00  0.00     0.178 C 
BRANCH  17  18
ATOM     18  O   UNL     1      -3.130   2.289   4.852  1.00  0.00    -0.395 OA
ATOM     19  H   UNL     1      -3.230   1.873   5.724  1.00  0.00     0.210 HD
ENDBRANCH  17  18
ENDBRANCH  16  17
ENDBRANCH  12  16
ENDBRANCH   1  11
BRANCH  10  20
ATOM     20  C   UNL     1      -2.317  -1.542  -1.861  1.00  0.00     0.002 A 
ATOM     21  C   UNL     1      -1.254  -2.427  -2.104  1.00  0.00     0.011 A 
ATOM     22  C   UNL     1      -2.110  -0.182  -2.141  1.00  0.00     0.011 A 
ATOM     23  C   UNL     1      -0.016  -1.965  -2.564  1.00  0.00     0.006 A 
ATOM     24  C   UNL     1      -0.872   0.284  -2.592  1.00  0.00     0.006 A 
ATOM     25  C   UNL     1       0.196  -0.601  -2.793  1.00  0.00    -0.034 A 
BRANCH  25  26
ATOM     26  C   UNL     1       1.540  -0.086  -3.261  1.00  0.00     0.120 C 
BRANCH  26  27
ATOM     27  N   UNL     1       2.500   0.303  -2.218  1.00  0.00    -0.299 NA
ATOM     28  C   UNL     1       2.025   1.337  -1.304  1.00  0.00     0.087 C 
ATOM     29  C   UNL     1       3.112  -0.834  -1.523  1.00  0.00     0.087 C 
ATOM     30  C   UNL     1       3.213   1.995  -0.594  1.00  0.00     0.041 C 
ATOM     31  C   UNL     1       3.855  -0.430  -0.243  1.00  0.00     0.041 C 
ATOM     32  C   UNL     1       4.368   1.010  -0.346  1.00  0.00     0.095 C 
BRANCH  32  33
ATOM     33  N   UNL     1       5.210   1.413   0.770  1.00  0.00    -0.291 N 
ATOM     34  C   UNL     1       4.890   1.360   2.098  1.00  0.00     0.295 A 
ATOM     35  C   UNL     1       6.485   1.935   0.687  1.00  0.00     0.072 A 
ATOM     36  N   UNL     1       5.854   1.763   2.881  1.00  0.00    -0.195 NA
ATOM     37  C   UNL     1       7.328   2.260  -0.385  1.00  0.00     0.029 A 
ATOM     38  C   UNL     1       6.861   2.126   2.019  1.00  0.00     0.092 A 
ATOM     39  C   UNL     1       8.591   2.774  -0.074  1.00  0.00     0.002 A 
ATOM     40  C   UNL     1       8.135   2.639   2.309  1.00  0.00     0.031 A 
ATOM     41  C   UNL     1       8.993   2.958   1.250  1.00  0.00     0.002 A 
BRANCH  34  42
ATOM     42  O   UNL     1       3.732   0.953   2.578  1.00  0.00    -0.480 OA
ATOM     43  H   UNL     1       3.856   1.100   3.532  1.00  0.00     0.296 HD
ENDBRANCH  34  42
ENDBRANCH  32  33
ENDBRANCH  26  27
ENDBRANCH  25  26
ENDBRANCH  10  20
TORSDOF 9
