REMARK SMILES Nc1ncc(-c2nc3ccccc3nc2-c2ccc(CN3CCC(n4c(O)nc5ccccc54)CC3)cc2)cn1
REMARK SMILES IDX 16 1 17 2 18 3 19 4 37 5 38 6 15 7 6 8 7 9 8 10 14 11 9 12
REMARK SMILES IDX 13 13 10 14 12 15 11 16 5 17 2 18 3 19 40 20 4 21 39 22 1 23
REMARK SMILES IDX 20 26 21 27 22 28 36 29 23 30 35 31 24 32 25 33 26 34 34 35
REMARK SMILES IDX 28 36 33 37 29 38 32 39 30 40 31 41 27 42
REMARK H PARENT 1 24 1 25 27 43
ROOT
ATOM      1  C   UNL     1      -2.974  -1.401  -0.579  1.00  0.00     0.002 A 
ATOM      2  C   UNL     1      -2.102  -2.461  -0.273  1.00  0.00     0.011 A 
ATOM      3  C   UNL     1      -0.782  -2.474  -0.735  1.00  0.00     0.006 A 
ATOM      4  C   UNL     1      -0.299  -1.424  -1.524  1.00  0.00    -0.034 A 
ATOM      5  C   UNL     1      -1.165  -0.372  -1.851  1.00  0.00     0.006 A 
ATOM      6  C   UNL     1      -2.486  -0.366  -1.393  1.00  0.00     0.011 A 
ENDROOT
BRANCH   1   7
ATOM      7  C   UNL     1      -4.359  -1.409  -0.072  1.00  0.00     0.097 A 
ATOM      8  C   UNL     1      -4.982  -0.350   0.606  1.00  0.00     0.100 A 
ATOM      9  N   UNL     1      -6.291  -0.430   0.978  1.00  0.00    -0.244 NA
ATOM     10  C   UNL     1      -6.953  -1.569   0.702  1.00  0.00     0.089 A 
ATOM     11  N   UNL     1      -5.030  -2.566  -0.336  1.00  0.00    -0.244 NA
ATOM     12  C   UNL     1      -8.286  -1.698   1.074  1.00  0.00     0.030 A 
ATOM     13  C   UNL     1      -6.317  -2.644   0.044  1.00  0.00     0.089 A 
ATOM     14  C   UNL     1      -9.005  -2.865   0.809  1.00  0.00     0.002 A 
ATOM     15  C   UNL     1      -7.041  -3.802  -0.215  1.00  0.00     0.030 A 
ATOM     16  C   UNL     1      -8.379  -3.922   0.162  1.00  0.00     0.002 A 
BRANCH   8  17
ATOM     17  C   UNL     1      -4.341   0.906   1.002  1.00  0.00     0.039 A 
ATOM     18  C   UNL     1      -3.187   3.280   1.713  1.00  0.00     0.219 A 
ATOM     19  N   UNL     1      -4.388   3.325   1.131  1.00  0.00    -0.221 NA
ATOM     20  N   UNL     1      -2.526   2.158   2.004  1.00  0.00    -0.221 NA
ATOM     21  C   UNL     1      -4.938   2.136   0.795  1.00  0.00     0.127 A 
ATOM     22  C   UNL     1      -3.118   0.997   1.639  1.00  0.00     0.127 A 
BRANCH  18  23
ATOM     23  N   UNL     1      -2.608   4.477   2.074  1.00  0.00    -0.368 N 
ATOM     24  H   UNL     1      -1.962   4.330   2.837  1.00  0.00     0.159 HD
ATOM     25  H   UNL     1      -3.324   5.179   2.198  1.00  0.00     0.159 HD
ENDBRANCH  18  23
ENDBRANCH   8  17
ENDBRANCH   1   7
BRANCH   4  26
ATOM     26  C   UNL     1       1.129  -1.424  -2.029  1.00  0.00     0.120 C 
BRANCH  26  27
ATOM     27  N   UNL     1       1.924  -0.301  -1.504  1.00  0.00    -0.299 NA
ATOM     28  C   UNL     1       3.188  -0.155  -2.220  1.00  0.00     0.087 C 
ATOM     29  C   UNL     1       2.096  -0.379  -0.045  1.00  0.00     0.087 C 
ATOM     30  C   UNL     1       3.838   1.181  -1.855  1.00  0.00     0.041 C 
ATOM     31  C   UNL     1       3.411   0.219   0.465  1.00  0.00     0.041 C 
ATOM     32  C   UNL     1       3.803   1.459  -0.341  1.00  0.00     0.095 C 
BRANCH  32  33
ATOM     33  N   UNL     1       5.034   2.063   0.158  1.00  0.00    -0.291 N 
ATOM     34  C   UNL     1       5.123   3.284   0.770  1.00  0.00     0.295 A 
ATOM     35  C   UNL     1       6.306   1.525   0.154  1.00  0.00     0.072 A 
ATOM     36  N   UNL     1       6.332   3.581   1.165  1.00  0.00    -0.195 NA
ATOM     37  C   UNL     1       6.851   0.324  -0.323  1.00  0.00     0.029 A 
ATOM     38  C   UNL     1       7.087   2.494   0.793  1.00  0.00     0.092 A 
ATOM     39  C   UNL     1       8.223   0.119  -0.133  1.00  0.00     0.002 A 
ATOM     40  C   UNL     1       8.460   2.267   0.975  1.00  0.00     0.031 A 
ATOM     41  C   UNL     1       9.018   1.071   0.507  1.00  0.00     0.002 A 
BRANCH  34  42
ATOM     42  O   UNL     1       4.110   4.102   0.967  1.00  0.00    -0.480 OA
ATOM     43  H   UNL     1       4.551   4.848   1.415  1.00  0.00     0.296 HD
ENDBRANCH  34  42
ENDBRANCH  32  33
ENDBRANCH  26  27
ENDBRANCH   4  26
TORSDOF 7
