MODEL        8USER    Run = 8USERUSER    Estimated Free Energy of Binding    =  -9.61 kcal/mol  [=(1)+(2)+(3)-(4)]USERUSER    (1) Final Intermolecular Energy     = -12.00 kcal/molUSER        vdW + Hbond + desolv Energy     = -11.49 kcal/molUSER        Electrostatic Energy            =  -0.50 kcal/molUSER        Moving Ligand-Fixed Receptor    = -12.00 kcal/molUSER        Moving Ligand-Moving Receptor   =  +0.00 kcal/molUSER    (2) Final Total Internal Energy     =  -3.02 kcal/molUSER    (3) Torsional Free Energy           =  +2.39 kcal/molUSER    (4) Unbound System's Energy         =  -3.02 kcal/molUSERUSERREMARK SMILES Cc1cccc(-c2nnc3sc(C(=O)NCC[C@@H](O)CO)cn23)c1REMARK SMILES IDX 16 1 15 2 13 3 14 4 12 6 7 7 8 8 23 9 9 10 22 11 10 12 11 13REMARK SMILES IDX 6 14 2 15 3 16 24 17 4 18 5 19 1 20 17 21 18 22 19 23 20 25REMARK SMILES IDX 21 26REMARK H PARENT 15 5 19 24 21 27USER                              x       y       z     vdW  Elec       q    TypeUSER                           _______ _______ _______ _____ _____    ______ ____ROOTATOM      1  C   UNL     1      31.932  44.758  16.475 -0.29 -0.05    +0.119 C  ENDROOTBRANCH   1   2ATOM      2  N   UNL     1      33.065  45.499  15.955 -0.11 +0.32    -0.351 N  ATOM      3  C   UNL     1      34.282  44.876  15.760 -0.19 -0.17    +0.263 C  ATOM      4  O   UNL     1      34.495  43.713  16.085 -0.24 +0.12    -0.268 OA ATOM      5  H   UNL     1      32.877  46.387  15.513 -0.38 -0.29    +0.163 HD BRANCH   3   6ATOM      6  C   UNL     1      35.315  45.718  15.099 -0.28 -0.08    +0.112 A  ATOM      7  C   UNL     1      38.406  47.523  14.596 -0.36 -0.07    +0.169 A  ATOM      8  N   UNL     1      38.437  48.132  13.413 -0.64 +0.03    -0.128 NA ATOM      9  N   UNL     1      37.209  46.854  14.685 -0.20 +0.15    -0.272 N  ATOM     10  N   UNL     1      37.279  47.824  12.707 -1.09 +0.03    -0.118 NA ATOM     11  C   UNL     1      36.504  46.102  15.601 -0.28 -0.07    +0.120 A  ATOM     12  C   UNL     1      36.582  47.060  13.497 -0.38 -0.11    +0.217 A  ATOM     13  S   UNL     1      35.043  46.276  13.437 -0.50 +0.06    -0.089 S  BRANCH   7  14ATOM     14  C   UNL     1      39.426  47.607  15.636 -0.50 -0.01    +0.020 A  ATOM     15  C   UNL     1      40.479  46.623  17.608 -0.47 +0.01    -0.050 A  ATOM     16  C   UNL     1      41.358  47.708  17.670 -0.52 -0.00    +0.003 A  ATOM     17  C   UNL     1      39.507  46.590  16.599 -0.45 -0.00    +0.015 A  ATOM     18  C   UNL     1      41.274  48.737  16.732 -0.43 -0.00    +0.001 A  ATOM     19  C   UNL     1      40.312  48.689  15.722 -0.59 -0.00    +0.012 A  ATOM     20  C   UNL     1      40.529  45.541  18.647 -0.49 -0.00    +0.044 C  ENDBRANCH   7  14ENDBRANCH   3   6ENDBRANCH   1   2BRANCH   1  21ATOM     21  C   UNL     1      30.849  44.588  15.415 -0.39 -0.03    +0.055 C  BRANCH  21  22ATOM     22  C   UNL     1      30.324  45.922  14.890 -0.43 -0.07    +0.141 C  BRANCH  22  23ATOM     23  O   UNL     1      30.824  46.962  15.741 -0.73 +0.12    -0.391 OA ATOM     24  H   UNL     1      31.668  47.238  15.328 -0.43 -0.29    +0.211 HD ENDBRANCH  22  23BRANCH  22  25ATOM     25  C   UNL     1      30.772  46.222  13.455 -0.52 -0.12    +0.187 C  BRANCH  25  26ATOM     26  O   UNL     1      32.189  46.421  13.464 -0.30 +0.29    -0.394 OA ATOM     27  H   UNL     1      32.383  47.001  14.222 -0.29 -0.24    +0.210 HD ENDBRANCH  25  26ENDBRANCH  22  25ENDBRANCH  21  22ENDBRANCH   1  21TORSDOF 8TERENDMDL