MODEL        5USER    Run = 5USERUSER    Estimated Free Energy of Binding    =  -8.16 kcal/mol  [=(1)+(2)+(3)-(4)]USERUSER    (1) Final Intermolecular Energy     = -10.85 kcal/molUSER        vdW + Hbond + desolv Energy     = -10.78 kcal/molUSER        Electrostatic Energy            =  -0.06 kcal/molUSER        Moving Ligand-Fixed Receptor    = -10.85 kcal/molUSER        Moving Ligand-Moving Receptor   =  +0.00 kcal/molUSER    (2) Final Total Internal Energy     =  -1.45 kcal/molUSER    (3) Torsional Free Energy           =  +2.68 kcal/molUSER    (4) Unbound System's Energy         =  -1.45 kcal/molUSERUSERREMARK SMILES CCCc1cnc(F)c(C(=O)n2sc(=N)[nH]c2=O)c1N(C)CCN1CCOCC1REMARK SMILES IDX 4 1 5 2 6 3 7 4 8 5 9 6 19 7 3 8 2 9 1 10 20 11 21 12 22 13REMARK SMILES IDX 23 14 24 15 25 16 29 17 26 18 28 19 27 20 10 21 11 22 12 23REMARK SMILES IDX 13 24 17 25 14 26 16 27 18 28 15 30REMARK H PARENT 16 29 15 31USER                              x       y       z     vdW  Elec       q    TypeUSER                           _______ _______ _______ _____ _____    ______ ____ROOTATOM      1  C   UNL     1      39.414  45.344  18.410 -0.43 +0.00    -0.005 A  ATOM      2  C   UNL     1      40.635  45.653  19.031 -0.37 +0.00    +0.120 A  ATOM      3  N   UNL     1      41.412  46.717  18.741 -0.35 -0.00    -0.227 NA ATOM      4  C   UNL     1      40.946  47.547  17.791 -0.31 -0.02    +0.227 A  ATOM      5  F   UNL     1      41.717  48.599  17.477 -0.21 -0.01    -0.184 F  ATOM      6  C   UNL     1      39.764  47.331  17.106 -0.37 -0.03    +0.120 A  ATOM      7  C   UNL     1      38.958  46.204  17.389 -0.38 -0.01    +0.059 A  ENDROOTBRANCH   1   8ATOM      8  C   UNL     1      38.659  44.147  18.943 -0.30 -0.00    +0.039 C  BRANCH   8   9ATOM      9  C   UNL     1      37.904  44.395  20.253 -0.43 -0.00    +0.001 C  ATOM     10  C   UNL     1      36.443  43.973  20.196 -0.47 -0.00    +0.004 C  ENDBRANCH   8   9ENDBRANCH   1   8BRANCH   7  11ATOM     11  N   UNL     1      37.780  46.012  16.668 -0.13 +0.14    -0.372 N  ATOM     12  C   UNL     1      36.527  46.214  17.406 -0.24 -0.08    +0.143 C  BRANCH  11  13ATOM     13  C   UNL     1      37.744  45.194  15.448 -0.32 -0.04    +0.131 C  BRANCH  13  14ATOM     14  C   UNL     1      36.296  44.918  14.961 -0.36 -0.05    +0.106 C  BRANCH  14  15ATOM     15  N   UNL     1      35.919  45.551  13.680 -0.21 +0.15    -0.297 NA ATOM     16  C   UNL     1      36.927  45.309  12.623 -0.52 -0.04    +0.113 C  ATOM     17  C   UNL     1      35.665  47.000  13.835 -0.42 -0.09    +0.113 C  ATOM     18  C   UNL     1      36.909  46.403  11.545 -0.53 -0.06    +0.175 C  ATOM     19  C   UNL     1      36.860  47.877  13.429 -0.52 -0.08    +0.175 C  ATOM     20  O   UNL     1      37.269  47.688  12.068 -0.99 +0.06    -0.379 OA ENDBRANCH  14  15ENDBRANCH  13  14ENDBRANCH  11  13ENDBRANCH   7  11BRANCH   6  21ATOM     21  C   UNL     1      39.396  48.309  16.076 -0.32 -0.12    +0.282 C  ATOM     22  O   UNL     1      38.193  48.518  15.930 -0.30 +0.19    -0.267 OA BRANCH  21  23ATOM     23  N   UNL     1      40.420  48.933  15.371 -0.46 +0.05    -0.176 N  ATOM     24  S   UNL     1      41.439  48.142  14.225 +0.07 +0.00    -0.008 S  ATOM     25  C   UNL     1      40.680  50.312  15.419 -0.06 -0.15    +0.344 A  ATOM     26  C   UNL     1      42.205  49.637  13.823 -0.43 -0.03    +0.200 A  ATOM     27  N   UNL     1      41.694  50.643  14.549 -0.41 +0.08    -0.281 N  ATOM     28  O   UNL     1      40.122  51.169  16.092 -0.35 +0.15    -0.246 OA ATOM     29  H   UNL     1      42.008  51.595  14.449 +0.10 -0.04    +0.174 HD BRANCH  26  30ATOM     30  N   UNL     1      43.126  49.796  12.952 -0.43 +0.08    -0.274 NA ATOM     31  H   UNL     1      43.982  50.097  13.435 -0.35 -0.11    +0.190 HD ENDBRANCH  26  30ENDBRANCH  21  23ENDBRANCH   6  21TORSDOF 9TERENDMDL