REMARK SMILES CCCc1cnc(F)c(C(=O)n2sc(=N)[nH]c2=O)c1N(C)CCN1CCOCC1
REMARK SMILES IDX 4 1 5 2 6 3 7 4 8 5 9 6 19 7 3 8 2 9 1 10 20 11 21 12 22 13
REMARK SMILES IDX 23 14 24 15 25 16 29 17 26 18 28 19 27 20 10 21 11 22 12 23
REMARK SMILES IDX 13 24 17 25 14 26 16 27 18 28 15 30
REMARK H PARENT 16 29 15 31
ROOT
ATOM      1  C   UNL     1      -1.903  -1.910   1.500  1.00  0.00    -0.005 A 
ATOM      2  C   UNL     1      -3.217  -2.214   1.890  1.00  0.00     0.120 A 
ATOM      3  N   UNL     1      -4.335  -1.685   1.352  1.00  0.00    -0.227 NA
ATOM      4  C   UNL     1      -4.149  -0.814   0.344  1.00  0.00     0.227 A 
ATOM      5  F   UNL     1      -5.250  -0.263  -0.189  1.00  0.00    -0.184 F 
ATOM      6  C   UNL     1      -2.900  -0.433  -0.111  1.00  0.00     0.120 A 
ATOM      7  C   UNL     1      -1.725  -0.966   0.467  1.00  0.00     0.059 A 
ENDROOT
BRANCH   1   8
ATOM      8  C   UNL     1      -0.792  -2.680   2.179  1.00  0.00     0.039 C 
BRANCH   8   9
ATOM      9  C   UNL     1      -0.097  -3.719   1.294  1.00  0.00     0.001 C 
ATOM     10  C   UNL     1      -1.018  -4.846   0.850  1.00  0.00     0.004 C 
ENDBRANCH   8   9
ENDBRANCH   1   8
BRANCH   7  11
ATOM     11  N   UNL     1      -0.482  -0.548  -0.009  1.00  0.00    -0.372 N 
ATOM     12  C   UNL     1      -0.104  -1.025  -1.344  1.00  0.00     0.143 C 
BRANCH  11  13
ATOM     13  C   UNL     1       0.585  -0.106   0.900  1.00  0.00     0.131 C 
BRANCH  13  14
ATOM     14  C   UNL     1       1.329   1.151   0.374  1.00  0.00     0.106 C 
BRANCH  14  15
ATOM     15  N   UNL     1       2.270   0.920  -0.741  1.00  0.00    -0.297 NA
ATOM     16  C   UNL     1       3.412   0.069  -0.336  1.00  0.00     0.113 C 
ATOM     17  C   UNL     1       2.750   2.190  -1.329  1.00  0.00     0.113 C 
ATOM     18  C   UNL     1       4.655   0.318  -1.203  1.00  0.00     0.175 C 
ATOM     19  C   UNL     1       4.132   2.620  -0.811  1.00  0.00     0.175 C 
ATOM     20  O   UNL     1       5.160   1.652  -1.061  1.00  0.00    -0.379 OA
ENDBRANCH  14  15
ENDBRANCH  13  14
ENDBRANCH  11  13
ENDBRANCH   7  11
BRANCH   6  21
ATOM     21  C   UNL     1      -2.852   0.548  -1.201  1.00  0.00     0.282 C 
ATOM     22  O   UNL     1      -3.060   0.114  -2.332  1.00  0.00    -0.267 OA
BRANCH  21  23
ATOM     23  N   UNL     1      -2.602   1.877  -0.874  1.00  0.00    -0.176 N 
ATOM     24  S   UNL     1      -2.590   2.501   0.734  1.00  0.00    -0.008 S 
ATOM     25  C   UNL     1      -2.215   2.855  -1.805  1.00  0.00     0.344 A 
ATOM     26  C   UNL     1      -2.081   4.051   0.165  1.00  0.00     0.200 A 
ATOM     27  N   UNL     1      -1.955   4.049  -1.171  1.00  0.00    -0.281 N 
ATOM     28  O   UNL     1      -2.085   2.743  -3.017  1.00  0.00    -0.246 OA
ATOM     29  H   UNL     1      -1.658   4.861  -1.687  1.00  0.00     0.174 HD
BRANCH  26  30
ATOM     30  N   UNL     1      -1.841   5.074   0.892  1.00  0.00    -0.274 NA
ATOM     31  H   UNL     1      -2.017   4.824   1.873  1.00  0.00     0.190 HD
ENDBRANCH  26  30
ENDBRANCH  21  23
ENDBRANCH   6  21
TORSDOF 9
