REMARK SMILES COc1ncc(C2CC2)c(N(C)CCN2CCN(C)CC2)c1/C=C1\SC(=N)NC1=O
REMARK SMILES IDX 3 1 4 2 5 3 6 4 10 5 22 6 2 7 1 8 23 9 24 10 25 11 29 12
REMARK SMILES IDX 26 13 28 14 30 15 27 17 11 19 12 20 13 21 14 22 15 23 16 24
REMARK SMILES IDX 21 25 17 26 20 27 18 28 19 29 7 30 8 31 9 32
REMARK H PARENT 28 16 27 18
ROOT
ATOM      1  C   UNL     1      -3.877  -0.857  -0.502  1.00  0.00     0.222 A 
ATOM      2  N   UNL     1      -3.840  -2.072  -1.084  1.00  0.00    -0.221 NA
ATOM      3  C   UNL     1      -2.615  -2.578  -1.337  1.00  0.00     0.121 A 
ATOM      4  C   UNL     1      -1.396  -1.970  -1.024  1.00  0.00    -0.002 A 
ATOM      5  C   UNL     1      -1.466  -0.682  -0.422  1.00  0.00     0.054 A 
ATOM      6  C   UNL     1      -2.740  -0.108  -0.162  1.00  0.00     0.062 A 
ENDROOT
BRANCH   1   7
ATOM      7  O   UNL     1      -5.115  -0.312  -0.196  1.00  0.00    -0.481 OA
ATOM      8  C   UNL     1      -6.209  -1.091  -0.669  1.00  0.00     0.280 C 
ENDBRANCH   1   7
BRANCH   6   9
ATOM      9  C   UNL     1      -2.914   1.227   0.442  1.00  0.00     0.037 C 
BRANCH   9  10
ATOM     10  C   UNL     1      -3.288   2.334  -0.213  1.00  0.00     0.081 C 
ATOM     11  S   UNL     1      -3.620   2.526  -1.896  1.00  0.00    -0.047 SA
ATOM     12  C   UNL     1      -3.466   3.635   0.486  1.00  0.00     0.264 C 
ATOM     13  C   UNL     1      -3.989   4.207  -1.693  1.00  0.00     0.165 C 
ATOM     14  N   UNL     1      -3.861   4.592  -0.405  1.00  0.00    -0.301 N 
ATOM     15  O   UNL     1      -3.278   3.835   1.676  1.00  0.00    -0.268 OA
ATOM     16  H   UNL     1      -4.021   5.531  -0.083  1.00  0.00     0.172 HD
BRANCH  13  17
ATOM     17  N   UNL     1      -4.336   4.988  -2.644  1.00  0.00    -0.278 NA
ATOM     18  H   UNL     1      -4.504   5.932  -2.292  1.00  0.00     0.190 HD
ENDBRANCH  13  17
ENDBRANCH   9  10
ENDBRANCH   6   9
BRANCH   5  19
ATOM     19  N   UNL     1      -0.225  -0.033  -0.152  1.00  0.00    -0.372 N 
ATOM     20  C   UNL     1       0.069   1.005  -1.146  1.00  0.00     0.143 C 
BRANCH  19  21
ATOM     21  C   UNL     1      -0.007   0.363   1.254  1.00  0.00     0.131 C 
BRANCH  21  22
ATOM     22  C   UNL     1       1.333  -0.154   1.841  1.00  0.00     0.106 C 
BRANCH  22  23
ATOM     23  N   UNL     1       2.556   0.499   1.329  1.00  0.00    -0.299 NA
ATOM     24  C   UNL     1       3.596   0.536   2.384  1.00  0.00     0.100 C 
ATOM     25  C   UNL     1       3.079  -0.165   0.113  1.00  0.00     0.100 C 
ATOM     26  C   UNL     1       5.017   0.712   1.810  1.00  0.00     0.099 C 
ATOM     27  C   UNL     1       4.294  -1.095   0.342  1.00  0.00     0.099 C 
ATOM     28  N   UNL     1       5.444  -0.453   1.008  1.00  0.00    -0.304 NA
ATOM     29  C   UNL     1       6.480  -0.065   0.056  1.00  0.00     0.105 C 
ENDBRANCH  22  23
ENDBRANCH  21  22
ENDBRANCH  19  21
ENDBRANCH   5  19
BRANCH   4  30
ATOM     30  C   UNL     1      -0.075  -2.646  -1.349  1.00  0.00     0.023 C 
ATOM     31  C   UNL     1       0.082  -4.152  -1.322  1.00  0.00     0.009 C 
ATOM     32  C   UNL     1       0.700  -3.324  -0.240  1.00  0.00     0.009 C 
ENDBRANCH   4  30
TORSDOF 9
