MODEL        2USER    Run = 2USERUSER    Estimated Free Energy of Binding    =  -9.31 kcal/mol  [=(1)+(2)+(3)-(4)]USERUSER    (1) Final Intermolecular Energy     = -11.70 kcal/molUSER        vdW + Hbond + desolv Energy     = -11.51 kcal/molUSER        Electrostatic Energy            =  -0.19 kcal/molUSER        Moving Ligand-Fixed Receptor    = -11.70 kcal/molUSER        Moving Ligand-Moving Receptor   =  +0.00 kcal/molUSER    (2) Final Total Internal Energy     =  -1.80 kcal/molUSER    (3) Torsional Free Energy           =  +2.39 kcal/molUSER    (4) Unbound System's Energy         =  -1.80 kcal/molUSERUSERREMARK SMILES C[C@@H](c1ccc(F)c(F)c1)c1nc2nc(NCCO)ncc2n(CN2CCOCC2)c1=OREMARK SMILES IDX 16 1 15 3 11 4 12 5 31 6 13 7 23 8 14 9 22 10 21 11 20 12REMARK SMILES IDX 32 13 2 14 1 15 3 16 4 17 10 18 5 19 8 20 6 21 9 22 7 23REMARK SMILES IDX 24 24 25 25 26 26 30 27 27 28 29 29 28 30 17 31 18 32 19 33REMARK H PARENT 16 2 19 34USER                              x       y       z     vdW  Elec       q    TypeUSER                           _______ _______ _______ _____ _____    ______ ____ROOTATOM      1  N   UNL     1      42.936  47.280  20.733 -0.21 -0.07    -0.352 N  ATOM      2  H   UNL     1      43.016  48.293  20.746 -0.42 -0.02    +0.163 HD ENDROOTBRANCH   1   3ATOM      3  C   UNL     1      41.982  46.934  19.796 -0.20 +0.02    +0.224 A  ATOM      4  C   UNL     1      38.089  44.711  18.774 -0.30 -0.01    +0.115 A  ATOM      5  N   UNL     1      38.978  45.111  19.634 -0.25 +0.01    -0.225 NA ATOM      6  C   UNL     1      38.156  45.051  17.283 -0.18 -0.06    +0.274 A  ATOM      7  C   UNL     1      40.049  45.884  19.176 -0.31 -0.01    +0.182 A  ATOM      8  N   UNL     1      39.199  45.894  16.898 -0.21 +0.06    -0.289 N  ATOM      9  N   UNL     1      40.925  46.197  20.145 -0.26 -0.01    -0.191 NA ATOM     10  C   UNL     1      40.174  46.280  17.855 -0.40 -0.01    +0.109 A  ATOM     11  C   UNL     1      41.295  47.037  17.609 -0.32 -0.01    +0.145 A  ATOM     12  N   UNL     1      42.196  47.380  18.554 -0.43 -0.00    -0.219 NA ATOM     13  O   UNL     1      37.320  44.578  16.525 -0.22 +0.08    -0.267 OA BRANCH   4  14ATOM     14  C   UNL     1      36.931  43.850  19.272 -0.35 -0.01    +0.071 C  ATOM     15  C   UNL     1      36.886  43.800  20.801 -0.46 -0.00    +0.020 C  BRANCH  14  16ATOM     16  C   UNL     1      35.628  44.191  18.562 -0.32 +0.01    -0.036 A  ATOM     17  C   UNL     1      35.114  45.498  18.684 -0.34 -0.00    +0.007 A  ATOM     18  C   UNL     1      34.902  43.257  17.806 -0.31 -0.01    +0.046 A  ATOM     19  C   UNL     1      33.916  45.861  18.062 -0.44 -0.03    +0.043 A  ATOM     20  C   UNL     1      33.709  43.627  17.188 -0.21 -0.06    +0.159 A  ATOM     21  C   UNL     1      33.220  44.920  17.315 -0.22 -0.08    +0.158 A  ATOM     22  F   UNL     1      33.033  42.719  16.473 -0.07 +0.10    -0.204 F  ATOM     23  F   UNL     1      32.072  45.271  16.720 -0.04 +0.08    -0.204 F  ENDBRANCH  14  16ENDBRANCH   4  14BRANCH   8  24ATOM     24  C   UNL     1      39.255  46.309  15.510 -0.33 -0.05    +0.214 C  BRANCH  24  25ATOM     25  N   UNL     1      37.996  46.956  15.142 -0.19 +0.13    -0.281 NA ATOM     26  C   UNL     1      37.256  46.198  14.110 -0.41 -0.05    +0.115 C  ATOM     27  C   UNL     1      38.144  48.371  14.750 -0.51 -0.07    +0.115 C  ATOM     28  C   UNL     1      37.348  46.819  12.708 -0.50 -0.05    +0.175 C  ATOM     29  C   UNL     1      36.954  48.855  13.906 -0.41 -0.11    +0.175 C  ATOM     30  O   UNL     1      36.864  48.168  12.652 -0.91 +0.11    -0.379 OA ENDBRANCH  24  25ENDBRANCH   8  24ENDBRANCH   1   3BRANCH   1  31ATOM     31  C   UNL     1      42.777  46.665  22.041 -0.27 +0.03    +0.144 C  BRANCH  31  32ATOM     32  C   UNL     1      42.415  47.743  23.070 -0.27 +0.03    +0.177 C  BRANCH  32  33ATOM     33  O   UNL     1      42.923  49.017  22.667 -0.76 -0.12    -0.395 OA ATOM     34  H   UNL     1      43.671  48.856  22.066 -0.49 +0.01    +0.210 HD ENDBRANCH  32  33ENDBRANCH  31  32ENDBRANCH   1  31TORSDOF 8TERENDMDL