REMARK SMILES C[C@@H](c1ccc(F)c(F)c1)c1nc2nc(NCCO)ncc2n(CN2CCOCC2)c1=O
REMARK SMILES IDX 16 1 15 3 11 4 12 5 31 6 13 7 23 8 14 9 22 10 21 11 20 12
REMARK SMILES IDX 32 13 2 14 1 15 3 16 4 17 10 18 5 19 8 20 6 21 9 22 7 23
REMARK SMILES IDX 24 24 25 25 26 26 30 27 27 28 29 29 28 30 17 31 18 32 19 33
REMARK H PARENT 16 2 19 34
ROOT
ATOM      1  N   UNL     1       3.987   2.335  -1.436  1.00  0.00    -0.352 N 
ATOM      2  H   UNL     1       3.881   3.338  -1.560  1.00  0.00     0.163 HD
ENDROOT
BRANCH   1   3
ATOM      3  C   UNL     1       2.756   1.810  -1.092  1.00  0.00     0.224 A 
ATOM      4  C   UNL     1       0.307  -1.651   0.687  1.00  0.00     0.115 A 
ATOM      5  N   UNL     1       1.446  -1.092   0.402  1.00  0.00    -0.225 NA
ATOM      6  C   UNL     1      -1.043  -0.997   0.386  1.00  0.00     0.274 A 
ATOM      7  C   UNL     1       1.438   0.163  -0.213  1.00  0.00     0.182 A 
ATOM      8  N   UNL     1      -0.989   0.290  -0.151  1.00  0.00    -0.289 N 
ATOM      9  N   UNL     1       2.669   0.617  -0.501  1.00  0.00    -0.191 NA
ATOM     10  C   UNL     1       0.270   0.854  -0.486  1.00  0.00     0.109 A 
ATOM     11  C   UNL     1       0.476   2.072  -1.090  1.00  0.00     0.145 A 
ATOM     12  N   UNL     1       1.695   2.568  -1.390  1.00  0.00    -0.219 NA
ATOM     13  O   UNL     1      -2.072  -1.617   0.620  1.00  0.00    -0.267 OA
BRANCH   4  14
ATOM     14  C   UNL     1       0.317  -3.031   1.340  1.00  0.00     0.071 C 
ATOM     15  C   UNL     1      -0.329  -3.000   2.727  1.00  0.00     0.020 C 
BRANCH  14  16
ATOM     16  C   UNL     1      -0.172  -4.111   0.384  1.00  0.00    -0.036 A 
ATOM     17  C   UNL     1       0.671  -4.511  -0.672  1.00  0.00     0.007 A 
ATOM     18  C   UNL     1      -1.435  -4.713   0.494  1.00  0.00     0.046 A 
ATOM     19  C   UNL     1       0.267  -5.490  -1.584  1.00  0.00     0.043 A 
ATOM     20  C   UNL     1      -1.831  -5.689  -0.419  1.00  0.00     0.159 A 
ATOM     21  C   UNL     1      -0.985  -6.075  -1.450  1.00  0.00     0.158 A 
ATOM     22  F   UNL     1      -3.041  -6.250  -0.295  1.00  0.00    -0.204 F 
ATOM     23  F   UNL     1      -1.370  -7.013  -2.326  1.00  0.00    -0.204 F 
ENDBRANCH  14  16
ENDBRANCH   4  14
BRANCH   8  24
ATOM     24  C   UNL     1      -2.244   0.981  -0.376  1.00  0.00     0.214 C 
BRANCH  24  25
ATOM     25  N   UNL     1      -2.711   1.569   0.879  1.00  0.00    -0.281 NA
ATOM     26  C   UNL     1      -4.161   1.858   0.858  1.00  0.00     0.115 C 
ATOM     27  C   UNL     1      -1.945   2.756   1.304  1.00  0.00     0.115 C 
ATOM     28  C   UNL     1      -4.488   3.348   0.677  1.00  0.00     0.175 C 
ATOM     29  C   UNL     1      -2.741   3.623   2.292  1.00  0.00     0.175 C 
ATOM     30  O   UNL     1      -3.919   4.181   1.696  1.00  0.00    -0.379 OA
ENDBRANCH  24  25
ENDBRANCH   8  24
ENDBRANCH   1   3
BRANCH   1  31
ATOM     31  C   UNL     1       5.094   1.940  -0.580  1.00  0.00     0.144 C 
BRANCH  31  32
ATOM     32  C   UNL     1       6.317   2.810  -0.896  1.00  0.00     0.177 C 
BRANCH  32  33
ATOM     33  O   UNL     1       6.045   4.185  -0.615  1.00  0.00    -0.395 OA
ATOM     34  H   UNL     1       5.846   4.255   0.335  1.00  0.00     0.210 HD
ENDBRANCH  32  33
ENDBRANCH  31  32
ENDBRANCH   1  31
TORSDOF 8
