MODEL        1USER    Run = 1USERUSER    Estimated Free Energy of Binding    =  -9.51 kcal/mol  [=(1)+(2)+(3)-(4)]USERUSER    (1) Final Intermolecular Energy     = -12.19 kcal/molUSER        vdW + Hbond + desolv Energy     = -12.02 kcal/molUSER        Electrostatic Energy            =  -0.17 kcal/molUSER        Moving Ligand-Fixed Receptor    = -12.19 kcal/molUSER        Moving Ligand-Moving Receptor   =  +0.00 kcal/molUSER    (2) Final Total Internal Energy     =  -1.63 kcal/molUSER    (3) Torsional Free Energy           =  +2.68 kcal/molUSER    (4) Unbound System's Energy         =  -1.63 kcal/molUSERUSERREMARK SMILES COc1ncc(C2CC2)c(N(C)CCN2CCN(C)CC2)c1/C=C1\SC(=N)NC1=OREMARK SMILES IDX 3 1 4 2 5 3 6 4 10 5 22 6 2 7 1 8 23 9 24 10 25 11 29 12REMARK SMILES IDX 26 13 28 14 30 15 27 17 11 19 12 20 13 21 14 22 15 23 16 24REMARK SMILES IDX 21 25 17 26 20 27 18 28 19 29 7 30 8 31 9 32REMARK H PARENT 28 16 27 18USER                              x       y       z     vdW  Elec       q    TypeUSER                           _______ _______ _______ _____ _____    ______ ____ROOTATOM      1  C   UNL     1      34.831  46.017  28.882 -0.21 -0.06    +0.222 A  ATOM      2  N   UNL     1      33.981  44.986  29.058 -0.56 +0.04    -0.221 NA ATOM      3  C   UNL     1      34.318  43.823  28.465 -0.51 -0.03    +0.121 A  ATOM      4  C   UNL     1      35.476  43.589  27.716 -0.55 +0.00    -0.002 A  ATOM      5  C   UNL     1      36.348  44.699  27.536 -0.38 -0.01    +0.054 A  ATOM      6  C   UNL     1      36.013  45.947  28.128 -0.19 -0.02    +0.062 A  ENDROOTBRANCH   1   7ATOM      7  O   UNL     1      34.539  47.224  29.500 -0.23 +0.08    -0.481 OA ATOM      8  C   UNL     1      33.176  47.342  29.894 -0.22 -0.02    +0.280 C  ENDBRANCH   1   7BRANCH   6   9ATOM      9  C   UNL     1      36.844  47.157  27.982 -0.28 -0.01    +0.037 C  BRANCH   9  10ATOM     10  C   UNL     1      36.618  48.157  27.120 -0.37 -0.01    +0.081 C  ATOM     11  S   UNL     1      36.092  49.767  27.456 -0.40 -0.00    -0.047 SA ATOM     12  C   UNL     1      36.797  47.983  25.654 -0.28 -0.00    +0.264 C  ATOM     13  C   UNL     1      36.124  50.192  25.776 -0.40 -0.00    +0.165 C  ATOM     14  N   UNL     1      36.515  49.153  25.008 -0.28 +0.02    -0.301 N  ATOM     15  O   UNL     1      37.133  46.949  25.096 -0.80 -0.06    -0.268 OA ATOM     16  H   UNL     1      36.588  49.194  24.006 -0.38 -0.01    +0.172 HD BRANCH  13  17ATOM     17  N   UNL     1      35.813  51.345  25.319 -0.29 -0.00    -0.278 NA ATOM     18  H   UNL     1      35.413  51.265  24.382 -0.39 -0.06    +0.190 HD ENDBRANCH  13  17ENDBRANCH   9  10ENDBRANCH   6   9BRANCH   5  19ATOM     19  N   UNL     1      37.502  44.482  26.726 -0.09 +0.04    -0.372 N  ATOM     20  C   UNL     1      38.523  43.706  27.439 -0.24 -0.01    +0.143 C  BRANCH  19  21ATOM     21  C   UNL     1      37.234  44.045  25.341 -0.30 +0.00    +0.131 C  BRANCH  21  22ATOM     22  C   UNL     1      38.443  43.342  24.670 -0.24 +0.00    +0.106 C  BRANCH  22  23ATOM     23  N   UNL     1      38.128  42.493  23.501 -0.17 -0.03    -0.299 NA ATOM     24  C   UNL     1      36.770  41.916  23.639 -0.43 +0.00    +0.100 C  ATOM     25  C   UNL     1      38.247  43.232  22.223 -0.32 +0.01    +0.100 C  ATOM     26  C   UNL     1      36.177  41.467  22.288 -0.52 +0.00    +0.099 C  ATOM     27  C   UNL     1      36.907  43.689  21.601 -0.40 +0.01    +0.099 C  ATOM     28  N   UNL     1      35.929  42.606  21.380 -0.22 -0.02    -0.304 NA ATOM     29  C   UNL     1      35.914  42.157  19.991 -0.42 -0.00    +0.105 C  ENDBRANCH  22  23ENDBRANCH  21  22ENDBRANCH  19  21ENDBRANCH   5  19BRANCH   4  30ATOM     30  C   UNL     1      35.754  42.227  27.104 -0.60 -0.01    +0.023 C  ATOM     31  C   UNL     1      34.678  41.168  26.984 -0.70 -0.00    +0.009 C  ATOM     32  C   UNL     1      35.767  41.005  27.997 -0.65 -0.00    +0.009 C  ENDBRANCH   4  30TORSDOF 9TERENDMDL