MODEL        3USER    Run = 3USERUSER    Estimated Free Energy of Binding    = -11.23 kcal/mol  [=(1)+(2)+(3)-(4)]USERUSER    (1) Final Intermolecular Energy     = -12.72 kcal/molUSER        vdW + Hbond + desolv Energy     = -12.50 kcal/molUSER        Electrostatic Energy            =  -0.22 kcal/molUSER        Moving Ligand-Fixed Receptor    = -12.72 kcal/molUSER        Moving Ligand-Moving Receptor   =  +0.00 kcal/molUSER    (2) Final Total Internal Energy     =  -0.75 kcal/molUSER    (3) Torsional Free Energy           =  +1.49 kcal/molUSER    (4) Unbound System's Energy         =  -0.75 kcal/molUSERUSERREMARK SMILES Oc1nc2ccccc2n1C1CCN(Cc2ccc(-c3cnc4ccccc4n3)cc2)CC1REMARK SMILES IDX 11 1 12 2 13 3 14 4 32 5 33 6 10 7 2 8 3 9 4 10 9 11 5 12REMARK SMILES IDX 8 13 6 14 7 15 1 16 15 18 16 19 17 20 31 21 18 22 30 23REMARK SMILES IDX 19 24 20 25 21 26 29 27 22 28 28 29 23 30 27 31 24 32 26 33REMARK SMILES IDX 25 34REMARK H PARENT 1 17USER                              x       y       z     vdW  Elec       q    TypeUSER                           _______ _______ _______ _____ _____    ______ ____ROOTATOM      1  C   UNL     1      38.308  47.277  16.341 -0.39 -0.05    +0.095 C  ATOM      2  C   UNL     1      37.857  45.940  16.932 -0.41 -0.01    +0.041 C  ATOM      3  C   UNL     1      38.472  45.717  18.318 -0.37 -0.02    +0.087 C  ATOM      4  N   UNL     1      39.807  46.318  18.481 -0.25 +0.03    -0.299 NA ATOM      5  C   UNL     1      40.535  46.394  17.216 -0.48 -0.01    +0.087 C  ATOM      6  C   UNL     1      39.841  47.387  16.281 -0.54 -0.01    +0.041 C  ENDROOTBRANCH   1   7ATOM      7  N   UNL     1      37.670  47.569  15.065 -0.23 +0.17    -0.291 N  ATOM      8  C   UNL     1      37.218  48.800  14.673 -0.25 -0.24    +0.295 A  ATOM      9  N   UNL     1      36.672  48.801  13.489 -0.51 +0.10    -0.195 NA ATOM     10  C   UNL     1      36.769  47.497  13.070 -0.55 -0.04    +0.092 A  ATOM     11  C   UNL     1      37.390  46.696  14.032 -0.41 -0.03    +0.072 A  ATOM     12  C   UNL     1      36.343  46.924  11.862 -0.63 -0.01    +0.031 A  ATOM     13  C   UNL     1      37.611  45.326  13.831 -0.39 -0.01    +0.029 A  ATOM     14  C   UNL     1      36.553  45.557  11.650 -0.48 -0.00    +0.002 A  ATOM     15  C   UNL     1      37.177  44.775  12.621 -0.43 -0.00    +0.002 A  BRANCH   8  16ATOM     16  O   UNL     1      37.307  49.898  15.396 -0.30 +0.52    -0.480 OA ATOM     17  H   UNL     1      36.386  50.001  15.699 -0.13 -0.63    +0.296 HD ENDBRANCH   8  16ENDBRANCH   1   7BRANCH   4  18ATOM     18  C   UNL     1      40.597  45.633  19.518 -0.41 +0.00    +0.120 C  BRANCH  18  19ATOM     19  C   UNL     1      39.815  45.365  20.787 -0.33 -0.00    -0.034 A  ATOM     20  C   UNL     1      39.999  46.165  21.921 -0.10 +0.00    +0.006 A  ATOM     21  C   UNL     1      38.902  44.308  20.856 -0.32 +0.00    +0.006 A  ATOM     22  C   UNL     1      39.283  45.916  23.098 -0.30 +0.00    +0.011 A  ATOM     23  C   UNL     1      38.189  44.062  22.035 -0.34 +0.00    +0.011 A  ATOM     24  C   UNL     1      38.365  44.854  23.186 -0.31 +0.00    +0.002 A  BRANCH  24  25ATOM     25  C   UNL     1      37.602  44.570  24.417 -0.26 +0.01    +0.089 A  ATOM     26  C   UNL     1      37.370  45.507  25.418 -0.25 +0.01    +0.140 A  ATOM     27  N   UNL     1      37.125  43.306  24.554 -0.21 -0.01    -0.245 NA ATOM     28  N   UNL     1      36.667  45.242  26.546 -0.20 +0.04    -0.252 NA ATOM     29  C   UNL     1      36.421  43.018  25.667 -0.32 -0.00    +0.089 A  ATOM     30  C   UNL     1      36.189  43.991  26.668 -0.35 -0.01    +0.089 A  ATOM     31  C   UNL     1      35.907  41.739  25.841 -0.40 -0.01    +0.030 A  ATOM     32  C   UNL     1      35.455  43.642  27.795 -0.52 -0.01    +0.030 A  ATOM     33  C   UNL     1      35.170  41.398  26.976 -0.62 -0.00    +0.002 A  ATOM     34  C   UNL     1      34.943  42.354  27.957 -0.49 -0.00    +0.002 A  ENDBRANCH  24  25ENDBRANCH  18  19ENDBRANCH   4  18TORSDOF 5TERENDMDL