REMARK SMILES CCCNCc1ccc(NC(=O)Cc2nn(-c3ccncc3)cc2C)cc1
REMARK SMILES IDX 6 1 7 2 8 3 9 4 26 5 27 6 5 7 4 8 3 10 2 11 1 12 10 13 11 14
REMARK SMILES IDX 12 16 13 17 14 18 15 19 24 20 16 21 23 22 25 23 17 24 18 25
REMARK SMILES IDX 22 26 19 27 21 28 20 29
REMARK H PARENT 4 9 10 15
ROOT
ATOM      1  C   UNL     1       3.113  -0.693   0.727  1.00  0.00    -0.034 A 
ATOM      2  C   UNL     1       2.764  -1.870   0.050  1.00  0.00     0.007 A 
ATOM      3  C   UNL     1       1.503  -2.015  -0.538  1.00  0.00     0.026 A 
ATOM      4  C   UNL     1       0.565  -0.987  -0.458  1.00  0.00     0.041 A 
ATOM      5  C   UNL     1       0.909   0.191   0.216  1.00  0.00     0.026 A 
ATOM      6  C   UNL     1       2.170   0.338   0.805  1.00  0.00     0.007 A 
ENDROOT
BRANCH   1   7
ATOM      7  C   UNL     1       4.472  -0.549   1.369  1.00  0.00     0.116 C 
BRANCH   7   8
ATOM      8  N   UNL     1       5.591  -0.687   0.435  1.00  0.00    -0.313 NA
ATOM      9  H   UNL     1       6.460  -0.708   0.965  1.00  0.00     0.123 HD
BRANCH   8  10
ATOM     10  C   UNL     1       5.665   0.362  -0.584  1.00  0.00     0.081 C 
BRANCH  10  11
ATOM     11  C   UNL     1       5.942   1.780  -0.068  1.00  0.00     0.012 C 
ATOM     12  C   UNL     1       7.247   1.903   0.704  1.00  0.00     0.005 C 
ENDBRANCH  10  11
ENDBRANCH   8  10
ENDBRANCH   7   8
ENDBRANCH   1   7
BRANCH   4  13
ATOM     13  N   UNL     1      -0.722  -1.048  -1.023  1.00  0.00    -0.326 N 
ATOM     14  C   UNL     1      -1.327  -2.117  -1.664  1.00  0.00     0.230 C 
ATOM     15  H   UNL     1      -1.319  -0.233  -0.882  1.00  0.00     0.169 HD
ATOM     16  O   UNL     1      -0.834  -3.225  -1.859  1.00  0.00    -0.274 OA
BRANCH  14  17
ATOM     17  C   UNL     1      -2.712  -1.785  -2.197  1.00  0.00     0.158 C 
BRANCH  17  18
ATOM     18  C   UNL     1      -3.602  -1.240  -1.130  1.00  0.00     0.075 A 
ATOM     19  N   UNL     1      -3.514   0.055  -0.795  1.00  0.00    -0.172 NA
ATOM     20  C   UNL     1      -4.565  -1.926  -0.351  1.00  0.00    -0.009 A 
ATOM     21  N   UNL     1      -4.442   0.230   0.184  1.00  0.00    -0.240 N 
ATOM     22  C   UNL     1      -5.082  -0.953   0.477  1.00  0.00     0.118 A 
ATOM     23  C   UNL     1      -4.934  -3.360  -0.409  1.00  0.00     0.048 C 
BRANCH  21  24
ATOM     24  C   UNL     1      -4.641   1.507   0.775  1.00  0.00     0.068 A 
ATOM     25  C   UNL     1      -5.565   1.696   1.804  1.00  0.00     0.048 A 
ATOM     26  C   UNL     1      -3.898   2.600   0.317  1.00  0.00     0.048 A 
ATOM     27  C   UNL     1      -5.701   2.972   2.330  1.00  0.00     0.113 A 
ATOM     28  C   UNL     1      -4.111   3.832   0.910  1.00  0.00     0.113 A 
ATOM     29  N   UNL     1      -4.995   4.041   1.908  1.00  0.00    -0.265 NA
ENDBRANCH  21  24
ENDBRANCH  17  18
ENDBRANCH  14  17
ENDBRANCH   4  13
TORSDOF 8
