REMARK SMILES CN1CCN(Cc2ccc(-c3n[nH]c4c3C(=O)c3c(NC(=O)N5CCNCC5)cccc3-4)cc2)CC1
REMARK SMILES IDX 7 1 8 2 9 3 10 4 33 5 34 6 6 7 5 8 2 9 3 10 36 11 4 12 35 13
REMARK SMILES IDX 1 14 11 15 12 16 15 17 13 18 14 19 16 20 32 21 18 22 31 23
REMARK SMILES IDX 19 24 30 25 29 26 17 28 20 29 21 30 23 31 24 32 28 33 25 34
REMARK SMILES IDX 27 35 26 36 22 38
REMARK H PARENT 13 27 20 37 26 39
ROOT
ATOM      1  C   UNL     1       3.603  -0.388   0.613  1.00  0.00    -0.034 A 
ATOM      2  C   UNL     1       2.376  -0.643  -0.018  1.00  0.00     0.006 A 
ATOM      3  C   UNL     1       1.347   0.304   0.009  1.00  0.00     0.011 A 
ATOM      4  C   UNL     1       1.525   1.531   0.659  1.00  0.00     0.003 A 
ATOM      5  C   UNL     1       2.757   1.789   1.279  1.00  0.00     0.011 A 
ATOM      6  C   UNL     1       3.783   0.839   1.262  1.00  0.00     0.006 A 
ENDROOT
BRANCH   1   7
ATOM      7  C   UNL     1       4.711  -1.419   0.579  1.00  0.00     0.120 C 
BRANCH   7   8
ATOM      8  N   UNL     1       5.274  -1.622  -0.764  1.00  0.00    -0.297 NA
ATOM      9  N   UNL     1       8.143  -1.524  -1.800  1.00  0.00    -0.304 NA
ATOM     10  C   UNL     1       7.690  -2.390  -0.692  1.00  0.00     0.099 C 
ATOM     11  C   UNL     1       7.045  -0.674  -2.305  1.00  0.00     0.099 C 
ATOM     12  C   UNL     1       6.198  -2.776  -0.799  1.00  0.00     0.100 C 
ATOM     13  C   UNL     1       5.934  -0.396  -1.267  1.00  0.00     0.100 C 
ATOM     14  C   UNL     1       9.304  -0.737  -1.398  1.00  0.00     0.105 C 
ENDBRANCH   7   8
ENDBRANCH   1   7
BRANCH   4  15
ATOM     15  C   UNL     1       0.467   2.542   0.685  1.00  0.00     0.104 A 
ATOM     16  N   UNL     1       0.761   3.866   0.750  1.00  0.00    -0.174 NA
ATOM     17  C   UNL     1      -0.925   2.376   0.660  1.00  0.00     0.076 A 
ATOM     18  N   UNL     1      -0.432   4.506   0.744  1.00  0.00    -0.276 N 
ATOM     19  C   UNL     1      -1.455   3.639   0.702  1.00  0.00     0.078 A 
ATOM     20  C   UNL     1      -2.006   1.418   0.618  1.00  0.00     0.200 C 
ATOM     21  C   UNL     1      -2.883   3.623   0.690  1.00  0.00     0.014 A 
ATOM     22  C   UNL     1      -3.259   2.254   0.645  1.00  0.00     0.056 A 
ATOM     23  C   UNL     1      -3.823   4.624   0.715  1.00  0.00     0.011 A 
ATOM     24  C   UNL     1      -4.581   1.844   0.638  1.00  0.00     0.054 A 
ATOM     25  C   UNL     1      -5.165   4.230   0.690  1.00  0.00     0.003 A 
ATOM     26  C   UNL     1      -5.539   2.864   0.651  1.00  0.00     0.027 A 
ATOM     27  H   UNL     1      -0.439   5.520   0.773  1.00  0.00     0.190 HD
ATOM     28  O   UNL     1      -1.960   0.202   0.561  1.00  0.00    -0.288 OA
BRANCH  24  29
ATOM     29  N   UNL     1      -4.879   0.467   0.598  1.00  0.00    -0.307 N 
ATOM     30  C   UNL     1      -6.101  -0.131   0.805  1.00  0.00     0.321 C 
ATOM     31  N   UNL     1      -6.093  -1.509   0.581  1.00  0.00    -0.322 N 
ATOM     32  C   UNL     1      -7.335  -2.235   0.856  1.00  0.00     0.136 C 
ATOM     33  C   UNL     1      -5.330  -2.116  -0.520  1.00  0.00     0.136 C 
ATOM     34  C   UNL     1      -8.205  -2.316  -0.413  1.00  0.00     0.102 C 
ATOM     35  C   UNL     1      -6.209  -2.212  -1.788  1.00  0.00     0.102 C 
ATOM     36  N   UNL     1      -7.479  -2.926  -1.547  1.00  0.00    -0.313 NA
ATOM     37  H   UNL     1      -4.080  -0.161   0.643  1.00  0.00     0.171 HD
ATOM     38  O   UNL     1      -7.111   0.460   1.179  1.00  0.00    -0.248 OA
ATOM     39  H   UNL     1      -8.065  -2.871  -2.381  1.00  0.00     0.122 HD
ENDBRANCH  24  29
ENDBRANCH   4  15
TORSDOF 4
