MODEL        7USER    Run = 7USERUSER    Estimated Free Energy of Binding    =  -9.85 kcal/mol  [=(1)+(2)+(3)-(4)]USERUSER    (1) Final Intermolecular Energy     = -12.24 kcal/molUSER        vdW + Hbond + desolv Energy     = -12.25 kcal/molUSER        Electrostatic Energy            =  +0.01 kcal/molUSER        Moving Ligand-Fixed Receptor    = -12.24 kcal/molUSER        Moving Ligand-Moving Receptor   =  +0.00 kcal/molUSER    (2) Final Total Internal Energy     =  -1.56 kcal/molUSER    (3) Torsional Free Energy           =  +2.39 kcal/molUSER    (4) Unbound System's Energy         =  -1.56 kcal/molUSERUSERREMARK SMILES COc1ccc(O)c(C(=O)c2ccc(CN3CCC(NC(=O)c4ccncc4)CC3)cc2)c1FREMARK SMILES IDX 11 1 12 2 13 3 14 4 31 5 32 6 9 7 10 8 8 9 3 10 4 11 33 12REMARK SMILES IDX 5 13 6 14 34 15 2 16 1 17 7 18 15 20 16 21 17 22 30 23 18 24REMARK SMILES IDX 29 25 19 26 20 27 21 28 22 30 23 31 24 32 28 33 25 34 27 35REMARK SMILES IDX 26 36REMARK H PARENT 7 19 20 29USER                              x       y       z     vdW  Elec       q    TypeUSER                           _______ _______ _______ _____ _____    ______ ____ROOTATOM      1  C   UNL     1      39.377  46.999  16.396 -0.45 -0.01    +0.023 A  ATOM      2  C   UNL     1      38.511  46.025  16.902 -0.39 -0.00    +0.012 A  ATOM      3  C   UNL     1      38.886  45.262  18.009 -0.40 -0.00    +0.006 A  ATOM      4  C   UNL     1      40.125  45.470  18.633 -0.43 +0.00    -0.034 A  ATOM      5  C   UNL     1      40.979  46.465  18.133 -0.51 -0.00    +0.006 A  ATOM      6  C   UNL     1      40.604  47.233  17.027 -0.51 -0.00    +0.012 A  ENDROOTBRANCH   1   7ATOM      7  C   UNL     1      38.926  47.807  15.237 -0.42 -0.08    +0.199 C  ATOM      8  O   UNL     1      39.414  48.927  15.063 -0.36 +0.14    -0.288 OA BRANCH   7   9ATOM      9  C   UNL     1      37.954  47.318  14.234 -0.41 -0.04    +0.104 A  ATOM     10  C   UNL     1      37.002  45.543  12.859 -0.39 -0.05    +0.155 A  ATOM     11  C   UNL     1      36.093  46.454  12.316 -0.61 -0.03    +0.053 A  ATOM     12  C   UNL     1      37.922  45.985  13.821 -0.28 -0.06    +0.179 A  ATOM     13  C   UNL     1      36.092  47.783  12.747 -0.58 -0.03    +0.051 A  ATOM     14  C   UNL     1      37.006  48.205  13.709 -0.46 -0.07    +0.130 A  ATOM     15  F   UNL     1      38.763  45.090  14.365 -0.07 +0.05    -0.202 F  BRANCH  10  16ATOM     16  O   UNL     1      37.087  44.216  12.529 -0.16 +0.15    -0.494 OA ATOM     17  C   UNL     1      37.274  43.896  11.156 -0.26 -0.08    +0.278 C  ENDBRANCH  10  16BRANCH  14  18ATOM     18  O   UNL     1      36.916  49.516  14.099 -0.16 +0.39    -0.507 OA ATOM     19  H   UNL     1      37.803  49.794  14.425 -0.33 -0.28    +0.293 HD ENDBRANCH  14  18ENDBRANCH   7   9ENDBRANCH   1   7BRANCH   4  20ATOM     20  C   UNL     1      40.533  44.627  19.824 -0.36 +0.00    +0.120 C  BRANCH  20  21ATOM     21  N   UNL     1      39.696  44.866  21.015 -0.15 -0.01    -0.299 NA ATOM     22  C   UNL     1      38.469  44.059  20.936 -0.33 +0.00    +0.087 C  ATOM     23  C   UNL     1      40.436  44.571  22.255 -0.24 +0.00    +0.087 C  ATOM     24  C   UNL     1      37.549  44.342  22.122 -0.40 +0.00    +0.040 C  ATOM     25  C   UNL     1      39.583  44.860  23.489 -0.23 +0.00    +0.040 C  ATOM     26  C   UNL     1      38.270  44.080  23.442 -0.30 +0.01    +0.084 C  BRANCH  26  27ATOM     27  N   UNL     1      37.420  44.430  24.574 -0.14 -0.03    -0.349 N  ATOM     28  C   UNL     1      36.937  43.470  25.440 -0.24 -0.00    +0.251 C  ATOM     29  H   UNL     1      37.267  45.410  24.765 +0.06 +0.03    +0.164 HD ATOM     30  O   UNL     1      37.079  42.265  25.265 -0.27 +0.01    -0.269 OA BRANCH  28  31ATOM     31  C   UNL     1      36.184  43.960  26.622 -0.38 -0.01    +0.042 A  ATOM     32  C   UNL     1      35.073  43.228  27.044 -0.52 -0.01    +0.034 A  ATOM     33  C   UNL     1      36.571  45.098  27.331 -0.36 -0.01    +0.034 A  ATOM     34  C   UNL     1      34.376  43.684  28.147 -0.49 -0.02    +0.112 A  ATOM     35  C   UNL     1      35.807  45.468  28.424 -0.29 -0.03    +0.112 A  ATOM     36  N   UNL     1      34.715  44.792  28.840 -0.43 +0.07    -0.265 NA ENDBRANCH  28  31ENDBRANCH  26  27ENDBRANCH  20  21ENDBRANCH   4  20TORSDOF 8TERENDMDL