REMARK SMILES O=c1[nH]c2cc(Cl)ccc2nc1-c1ccc(C=Cn2ccnc2)cc1
REMARK SMILES IDX 13 1 14 2 15 3 16 4 24 5 25 6 12 7 2 8 3 9 4 10 11 11 5 12
REMARK SMILES IDX 10 13 6 14 9 15 8 16 1 17 7 19 17 20 18 21 19 22 20 23 23 24
REMARK SMILES IDX 21 25 22 26
REMARK H PARENT 3 18
ROOT
ATOM      1  C   UNL     1      -0.654  -0.020  -0.362  1.00  0.00     0.006 A 
ATOM      2  C   UNL     1      -0.136  -1.231   0.116  1.00  0.00     0.011 A 
ATOM      3  C   UNL     1       1.245  -1.415   0.240  1.00  0.00     0.009 A 
ATOM      4  C   UNL     1       2.132  -0.384  -0.091  1.00  0.00    -0.024 A 
ATOM      5  C   UNL     1       1.612   0.825  -0.570  1.00  0.00     0.009 A 
ATOM      6  C   UNL     1       0.229   1.011  -0.695  1.00  0.00     0.011 A 
ENDROOT
BRANCH   1   7
ATOM      7  C   UNL     1      -2.135   0.132  -0.459  1.00  0.00     0.136 A 
ATOM      8  C   UNL     1      -2.745   1.040  -1.545  1.00  0.00     0.274 A 
ATOM      9  N   UNL     1      -4.114   1.156  -1.529  1.00  0.00    -0.319 N 
ATOM     10  C   UNL     1      -4.904   0.452  -0.620  1.00  0.00     0.069 A 
ATOM     11  N   UNL     1      -2.885  -0.531   0.381  1.00  0.00    -0.240 NA
ATOM     12  C   UNL     1      -6.293   0.582  -0.657  1.00  0.00     0.049 A 
ATOM     13  C   UNL     1      -4.279  -0.385   0.316  1.00  0.00     0.088 A 
ATOM     14  C   UNL     1      -7.065  -0.134   0.255  1.00  0.00     0.043 A 
ATOM     15  C   UNL     1      -5.070  -1.094   1.221  1.00  0.00     0.032 A 
ATOM     16  C   UNL     1      -6.462  -0.971   1.194  1.00  0.00     0.023 A 
ATOM     17  O   UNL     1      -2.063   1.612  -2.382  1.00  0.00    -0.267 OA
ATOM     18  H   UNL     1      -4.528   1.746  -2.237  1.00  0.00     0.170 HD
ATOM     19  Cl  UNL     1      -8.779   0.015   0.223  1.00  0.00    -0.084 Cl
ENDBRANCH   1   7
BRANCH   4  20
ATOM     20  C   UNL     1       3.577  -0.624   0.025  1.00  0.00     0.026 C 
BRANCH  20  21
ATOM     21  C   UNL     1       4.440   0.288   0.504  1.00  0.00     0.093 C 
BRANCH  21  22
ATOM     22  N   UNL     1       5.819   0.129   0.650  1.00  0.00    -0.313 N 
ATOM     23  C   UNL     1       6.687   1.074   1.156  1.00  0.00     0.112 A 
ATOM     24  C   UNL     1       6.612  -0.957   0.339  1.00  0.00     0.203 A 
ATOM     25  C   UNL     1       7.939   0.509   1.122  1.00  0.00     0.131 A 
ATOM     26  N   UNL     1       7.883  -0.756   0.612  1.00  0.00    -0.245 NA
ENDBRANCH  21  22
ENDBRANCH  20  21
ENDBRANCH   4  20
TORSDOF 4
