REMARK SMILES COc1ccc(O)c(C(=O)c2ccc(CN3CCC(NC(=O)c4ccncc4)CC3)cc2)c1F
REMARK SMILES IDX 11 1 12 2 13 3 14 4 31 5 32 6 9 7 10 8 8 9 3 10 4 11 33 12
REMARK SMILES IDX 5 13 6 14 34 15 2 16 1 17 7 18 15 20 16 21 17 22 30 23 18 24
REMARK SMILES IDX 29 25 19 26 20 27 21 28 22 30 23 31 24 32 28 33 25 34 27 35
REMARK SMILES IDX 26 36
REMARK H PARENT 7 19 20 29
ROOT
ATOM      1  C   UNL     1       3.188  -0.523   0.993  1.00  0.00     0.023 A 
ATOM      2  C   UNL     1       2.265  -0.091   1.951  1.00  0.00     0.012 A 
ATOM      3  C   UNL     1       1.246   0.792   1.592  1.00  0.00     0.006 A 
ATOM      4  C   UNL     1       1.126   1.245   0.270  1.00  0.00    -0.034 A 
ATOM      5  C   UNL     1       2.042   0.789  -0.690  1.00  0.00     0.006 A 
ATOM      6  C   UNL     1       3.062  -0.098  -0.334  1.00  0.00     0.012 A 
ENDROOT
BRANCH   1   7
ATOM      7  C   UNL     1       4.237  -1.484   1.411  1.00  0.00     0.199 C 
ATOM      8  O   UNL     1       3.957  -2.349   2.245  1.00  0.00    -0.288 OA
BRANCH   7   9
ATOM      9  C   UNL     1       5.601  -1.500   0.837  1.00  0.00     0.104 A 
ATOM     10  C   UNL     1       7.534  -0.368  -0.129  1.00  0.00     0.155 A 
ATOM     11  C   UNL     1       8.186  -1.596  -0.258  1.00  0.00     0.053 A 
ATOM     12  C   UNL     1       6.246  -0.332   0.426  1.00  0.00     0.179 A 
ATOM     13  C   UNL     1       7.565  -2.768   0.182  1.00  0.00     0.051 A 
ATOM     14  C   UNL     1       6.289  -2.715   0.738  1.00  0.00     0.130 A 
ATOM     15  F   UNL     1       5.647   0.860   0.582  1.00  0.00    -0.202 F 
BRANCH  10  16
ATOM     16  O   UNL     1       8.046   0.845  -0.507  1.00  0.00    -0.494 OA
ATOM     17  C   UNL     1       9.368   0.860  -1.032  1.00  0.00     0.278 C 
ENDBRANCH  10  16
BRANCH  14  18
ATOM     18  O   UNL     1       5.767  -3.905   1.173  1.00  0.00    -0.507 OA
ATOM     19  H   UNL     1       4.976  -3.702   1.724  1.00  0.00     0.293 HD
ENDBRANCH  14  18
ENDBRANCH   7   9
ENDBRANCH   1   7
BRANCH   4  20
ATOM     20  C   UNL     1       0.027   2.216  -0.109  1.00  0.00     0.120 C 
BRANCH  20  21
ATOM     21  N   UNL     1      -1.327   1.676   0.120  1.00  0.00    -0.299 NA
ATOM     22  C   UNL     1      -2.318   2.760   0.047  1.00  0.00     0.087 C 
ATOM     23  C   UNL     1      -1.646   0.609  -0.845  1.00  0.00     0.087 C 
ATOM     24  C   UNL     1      -3.721   2.241   0.354  1.00  0.00     0.040 C 
ATOM     25  C   UNL     1      -3.031   0.021  -0.579  1.00  0.00     0.040 C 
ATOM     26  C   UNL     1      -4.102   1.111  -0.600  1.00  0.00     0.084 C 
BRANCH  26  27
ATOM     27  N   UNL     1      -5.407   0.560  -0.254  1.00  0.00    -0.349 N 
ATOM     28  C   UNL     1      -6.218  -0.028  -1.202  1.00  0.00     0.251 C 
ATOM     29  H   UNL     1      -5.666   0.536   0.722  1.00  0.00     0.164 HD
ATOM     30  O   UNL     1      -5.969  -0.028  -2.403  1.00  0.00    -0.269 OA
BRANCH  28  31
ATOM     31  C   UNL     1      -7.468  -0.660  -0.708  1.00  0.00     0.042 A 
ATOM     32  C   UNL     1      -8.573  -0.687  -1.560  1.00  0.00     0.034 A 
ATOM     33  C   UNL     1      -7.555  -1.248   0.554  1.00  0.00     0.034 A 
ATOM     34  C   UNL     1      -9.734  -1.279  -1.100  1.00  0.00     0.112 A 
ATOM     35  C   UNL     1      -8.762  -1.818   0.918  1.00  0.00     0.112 A 
ATOM     36  N   UNL     1      -9.854  -1.838   0.124  1.00  0.00    -0.265 NA
ENDBRANCH  28  31
ENDBRANCH  26  27
ENDBRANCH  20  21
ENDBRANCH   4  20
TORSDOF 8
