MODEL        9USER    Run = 9USERUSER    Estimated Free Energy of Binding    =  -8.23 kcal/mol  [=(1)+(2)+(3)-(4)]USERUSER    (1) Final Intermolecular Energy     =  -9.42 kcal/molUSER        vdW + Hbond + desolv Energy     =  -9.35 kcal/molUSER        Electrostatic Energy            =  -0.07 kcal/molUSER        Moving Ligand-Fixed Receptor    =  -9.42 kcal/molUSER        Moving Ligand-Moving Receptor   =  +0.00 kcal/molUSER    (2) Final Total Internal Energy     =  -2.19 kcal/molUSER    (3) Torsional Free Energy           =  +1.19 kcal/molUSER    (4) Unbound System's Energy         =  -2.19 kcal/molUSERUSERREMARK SMILES CC(=O)Nc1cc(-c2cccc3c2O[C@H]([C@H](C)O)CC3)ccn1REMARK SMILES IDX 8 1 9 2 10 3 11 4 12 5 13 6 14 7 15 8 19 9 20 10 7 11 5 12REMARK SMILES IDX 6 13 23 14 22 15 21 16 4 17 2 18 1 19 3 20 16 22 17 23 18 24REMARK H PARENT 4 21 18 25USER                              x       y       z     vdW  Elec       q    TypeUSER                           _______ _______ _______ _____ _____    ______ ____ROOTATOM      1  C   UNL     1      38.344  47.066  14.594 -0.44 -0.01    +0.024 A  ATOM      2  C   UNL     1      37.940  47.374  13.282 -0.50 -0.00    +0.012 A  ATOM      3  C   UNL     1      36.889  46.690  12.670 -0.64 -0.00    +0.001 A  ATOM      4  C   UNL     1      36.227  45.674  13.353 -0.47 -0.00    +0.007 A  ATOM      5  C   UNL     1      36.608  45.333  14.656 -0.39 +0.00    -0.005 A  ATOM      6  C   UNL     1      37.647  46.044  15.278 -0.29 -0.05    +0.130 A  ATOM      7  O   UNL     1      38.054  45.764  16.561 -0.08 +0.16    -0.487 OA ATOM      8  C   UNL     1      37.126  45.018  17.363 -0.27 -0.06    +0.202 C  ATOM      9  C   UNL     1      36.654  43.779  16.606 -0.37 -0.02    +0.053 C  ATOM     10  C   UNL     1      35.882  44.230  15.375 -0.38 -0.02    +0.043 C  ENDROOTBRANCH   1  11ATOM     11  C   UNL     1      39.465  47.806  15.209 -0.52 +0.00    -0.009 A  ATOM     12  C   UNL     1      41.052  48.129  17.009 -0.42 -0.02    +0.133 A  ATOM     13  C   UNL     1      40.003  47.410  16.443 -0.47 -0.01    +0.056 A  ATOM     14  N   UNL     1      41.590  49.197  16.401 -0.94 -0.02    -0.239 NA ATOM     15  C   UNL     1      41.073  49.573  15.215 -0.57 -0.03    +0.114 A  ATOM     16  C   UNL     1      40.027  48.921  14.587 -0.45 -0.01    +0.029 A  BRANCH  12  17ATOM     17  N   UNL     1      41.529  47.687  18.251 -0.32 +0.02    -0.311 N  ATOM     18  C   UNL     1      41.535  46.380  18.693 -0.41 +0.01    +0.222 C  ATOM     19  C   UNL     1      42.125  46.260  20.078 -0.38 +0.02    +0.114 C  ATOM     20  O   UNL     1      41.155  45.380  18.097 -0.31 -0.00    -0.275 OA ATOM     21  H   UNL     1      41.918  48.395  18.856 +0.07 -0.00    +0.171 HD ENDBRANCH  12  17ENDBRANCH   1  11BRANCH   8  22ATOM     22  C   UNL     1      37.804  44.647  18.702 -0.32 -0.02    +0.152 C  ATOM     23  C   UNL     1      36.787  44.346  19.798 -0.41 -0.00    +0.042 C  BRANCH  22  24ATOM     24  O   UNL     1      38.663  45.700  19.151 -0.20 +0.04    -0.390 OA ATOM     25  H   UNL     1      39.129  46.049  18.373 +0.12 -0.03    +0.211 HD ENDBRANCH  22  24ENDBRANCH   8  22TORSDOF 4TERENDMDL