REMARK SMILES O=c1[nH]c2cc(Cl)ccc2nc1-c1ccc2[nH]ccc2n1
REMARK SMILES IDX 1 1 2 2 3 3 4 4 5 5 6 6 7 7 8 8 9 9 10 10 11 11 12 12 13 14
REMARK SMILES IDX 14 15 21 16 15 17 20 18 16 19 19 20 17 21 18 22
REMARK H PARENT 3 13 17 23
ROOT
ATOM      1  O   UNL     1      -0.081  -2.215  -1.503  1.00  0.00    -0.267 OA
ATOM      2  C   UNL     1       0.688  -1.525  -0.853  1.00  0.00     0.276 A 
ATOM      3  N   UNL     1       1.984  -1.926  -0.622  1.00  0.00    -0.319 N 
ATOM      4  C   UNL     1       2.929  -1.075  -0.047  1.00  0.00     0.069 A 
ATOM      5  C   UNL     1       4.246  -1.505   0.112  1.00  0.00     0.049 A 
ATOM      6  C   UNL     1       5.179  -0.633   0.670  1.00  0.00     0.043 A 
ATOM      7  Cl  UNL     1       6.809  -1.147   0.873  1.00  0.00    -0.084 Cl
ATOM      8  C   UNL     1       4.806   0.651   1.065  1.00  0.00     0.023 A 
ATOM      9  C   UNL     1       3.483   1.070   0.900  1.00  0.00     0.032 A 
ATOM     10  C   UNL     1       2.533   0.213   0.343  1.00  0.00     0.088 A 
ATOM     11  N   UNL     1       1.211   0.665   0.214  1.00  0.00    -0.239 NA
ATOM     12  C   UNL     1       0.317  -0.139  -0.304  1.00  0.00     0.154 A 
ATOM     13  H   UNL     1       2.240  -2.838  -0.973  1.00  0.00     0.170 HD
ENDROOT
BRANCH  12  14
ATOM     14  C   UNL     1      -1.102   0.294  -0.380  1.00  0.00     0.095 A 
ATOM     15  C   UNL     1      -1.377   1.649  -0.573  1.00  0.00     0.033 A 
ATOM     16  N   UNL     1      -2.032  -0.666  -0.183  1.00  0.00    -0.244 NA
ATOM     17  C   UNL     1      -2.700   2.086  -0.608  1.00  0.00     0.030 A 
ATOM     18  C   UNL     1      -3.313  -0.234  -0.225  1.00  0.00     0.089 A 
ATOM     19  C   UNL     1      -3.666   1.097  -0.430  1.00  0.00     0.064 A 
ATOM     20  C   UNL     1      -4.508  -0.977  -0.077  1.00  0.00     0.048 A 
ATOM     21  N   UNL     1      -5.039   1.157  -0.406  1.00  0.00    -0.360 N 
ATOM     22  C   UNL     1      -5.560  -0.095  -0.194  1.00  0.00     0.085 A 
ATOM     23  H   UNL     1      -5.583   2.000  -0.529  1.00  0.00     0.166 HD
ENDBRANCH  12  14
TORSDOF 1
