MODEL        3USER    Run = 3USERUSER    Estimated Free Energy of Binding    = -10.90 kcal/mol  [=(1)+(2)+(3)-(4)]USERUSER    (1) Final Intermolecular Energy     = -12.10 kcal/molUSER        vdW + Hbond + desolv Energy     = -11.94 kcal/molUSER        Electrostatic Energy            =  -0.15 kcal/molUSER        Moving Ligand-Fixed Receptor    = -12.10 kcal/molUSER        Moving Ligand-Moving Receptor   =  +0.00 kcal/molUSER    (2) Final Total Internal Energy     =  -1.77 kcal/molUSER    (3) Torsional Free Energy           =  +1.19 kcal/molUSER    (4) Unbound System's Energy         =  -1.77 kcal/molUSERUSERREMARK SMILES CN1CCN(Cc2ccc(-c3n[nH]c4c3C(=O)c3c(NC(=O)N5CCNCC5)cccc3-4)cc2)CC1REMARK SMILES IDX 7 1 8 2 9 3 10 4 33 5 34 6 6 7 5 8 2 9 3 10 36 11 4 12 35 13REMARK SMILES IDX 1 14 11 15 12 16 15 17 13 18 14 19 16 20 32 21 18 22 31 23REMARK SMILES IDX 19 24 30 25 29 26 17 28 20 29 21 30 23 31 24 32 28 33 25 34REMARK SMILES IDX 27 35 26 36 22 38REMARK H PARENT 13 27 20 37 26 39USER                              x       y       z     vdW  Elec       q    TypeUSER                           _______ _______ _______ _____ _____    ______ ____ROOTATOM      1  C   UNL     1      41.708  45.462  20.493 -0.33 -0.01    -0.034 A  ATOM      2  C   UNL     1      40.774  44.664  19.816 -0.39 +0.00    +0.006 A  ATOM      3  C   UNL     1      40.268  45.054  18.571 -0.44 -0.00    +0.011 A  ATOM      4  C   UNL     1      40.693  46.245  17.971 -0.50 -0.00    +0.003 A  ATOM      5  C   UNL     1      41.636  47.036  18.645 -0.52 -0.00    +0.011 A  ATOM      6  C   UNL     1      42.134  46.653  19.894 -0.44 +0.00    +0.006 A  ENDROOTBRANCH   1   7ATOM      7  C   UNL     1      42.250  45.033  21.840 -0.24 +0.02    +0.120 C  BRANCH   7   8ATOM      8  N   UNL     1      41.227  45.011  22.896 -0.05 -0.02    -0.297 NA ATOM      9  N   UNL     1      38.289  44.188  22.863 -0.14 -0.02    -0.304 NA ATOM     10  C   UNL     1      39.400  43.313  22.436 -0.26 +0.00    +0.099 C  ATOM     11  C   UNL     1      38.775  45.527  23.254 -0.30 +0.01    +0.099 C  ATOM     12  C   UNL     1      40.732  43.640  23.147 -0.23 +0.00    +0.100 C  ATOM     13  C   UNL     1      40.110  45.933  22.590 -0.26 +0.01    +0.100 C  ATOM     14  C   UNL     1      37.263  44.259  21.828 -0.36 +0.01    +0.105 C  ENDBRANCH   7   8ENDBRANCH   1   7BRANCH   4  15ATOM     15  C   UNL     1      40.188  46.663  16.662 -0.40 -0.02    +0.104 A  ATOM     16  N   UNL     1      40.998  47.272  15.758 -0.29 +0.01    -0.174 NA ATOM     17  C   UNL     1      38.899  46.545  16.125 -0.37 -0.02    +0.076 A  ATOM     18  N   UNL     1      40.224  47.505  14.673 -0.27 +0.04    -0.276 N  ATOM     19  C   UNL     1      38.963  47.091  14.870 -0.41 -0.02    +0.078 A  ATOM     20  C   UNL     1      37.548  46.092  16.368 -0.29 -0.09    +0.200 C  ATOM     21  C   UNL     1      37.703  47.046  14.199 -0.46 -0.01    +0.014 A  ATOM     22  C   UNL     1      36.798  46.435  15.108 -0.35 -0.03    +0.056 A  ATOM     23  C   UNL     1      37.298  47.461  12.954 -0.57 -0.00    +0.011 A  ATOM     24  C   UNL     1      35.462  46.235  14.807 -0.35 -0.05    +0.054 A  ATOM     25  C   UNL     1      35.955  47.250  12.624 -0.64 -0.00    +0.003 A  ATOM     26  C   UNL     1      35.052  46.646  13.533 -0.43 -0.02    +0.027 A  ATOM     27  H   UNL     1      40.644  47.948  13.863 +0.16 -0.02    +0.190 HD ATOM     28  O   UNL     1      37.082  45.542  17.350 -0.21 +0.10    -0.288 OA BRANCH  24  29ATOM     29  N   UNL     1      34.620  45.627  15.760 -0.14 +0.28    -0.307 N  ATOM     30  C   UNL     1      34.619  44.309  16.157 -0.16 -0.16    +0.321 C  ATOM     31  N   UNL     1      33.740  44.043  17.208 -0.08 +0.13    -0.322 N  ATOM     32  C   UNL     1      33.619  42.648  17.637 -0.33 -0.04    +0.136 C  ATOM     33  C   UNL     1      33.548  44.984  18.322 -0.36 -0.05    +0.136 C  ATOM     34  C   UNL     1      34.620  42.344  18.768 -0.40 -0.02    +0.102 C  ATOM     35  C   UNL     1      34.542  44.667  19.463 -0.34 -0.03    +0.102 C  ATOM     36  N   UNL     1      34.460  43.263  19.915 -0.38 +0.00    -0.313 NA ATOM     37  H   UNL     1      33.789  46.154  16.018 -0.17 -0.26    +0.171 HD ATOM     38  O   UNL     1      35.295  43.425  15.636 -0.30 +0.10    -0.248 OA ATOM     39  H   UNL     1      35.203  43.079  20.591 +0.07 +0.01    +0.122 HD ENDBRANCH  24  29ENDBRANCH   4  15TORSDOF 4TERENDMDL