REMARK SMILES N#Cc1cnc(-c2ccc(CNc3ccc(-c4csnn4)cc3)cc2)c(-c2ccccc2)c1
REMARK SMILES IDX 7 1 8 2 9 3 10 4 24 5 25 6 6 7 3 8 4 9 33 10 5 11 26 12 2 13
REMARK SMILES IDX 1 14 27 15 28 16 32 17 29 18 31 19 30 20 11 21 12 22 13 24
REMARK SMILES IDX 14 25 23 26 15 27 22 28 16 29 17 30 18 31 21 32 19 33 20 34
REMARK H PARENT 12 23
ROOT
ATOM      1  C   UNL     1      -2.184   1.107  -1.717  1.00  0.00     0.001 A 
ATOM      2  C   UNL     1      -1.604  -0.153  -1.939  1.00  0.00     0.011 A 
ATOM      3  C   UNL     1      -0.230  -0.357  -1.774  1.00  0.00     0.006 A 
ATOM      4  C   UNL     1       0.606   0.701  -1.398  1.00  0.00    -0.029 A 
ATOM      5  C   UNL     1       0.039   1.963  -1.179  1.00  0.00     0.006 A 
ATOM      6  C   UNL     1      -1.335   2.162  -1.346  1.00  0.00     0.011 A 
ENDROOT
BRANCH   1   7
ATOM      7  C   UNL     1      -3.633   1.337  -1.879  1.00  0.00     0.078 A 
ATOM      8  C   UNL     1      -6.278   1.947  -2.402  1.00  0.00     0.071 A 
ATOM      9  C   UNL     1      -5.228   2.626  -2.989  1.00  0.00     0.131 A 
ATOM     10  C   UNL     1      -5.973   0.925  -1.504  1.00  0.00     0.032 A 
ATOM     11  N   UNL     1      -3.927   2.349  -2.746  1.00  0.00    -0.254 NA
ATOM     12  C   UNL     1      -4.634   0.597  -1.216  1.00  0.00     0.009 A 
BRANCH   8  13
ATOM     13  C   UNL     1      -7.629   2.294  -2.704  1.00  0.00     0.101 C 
ATOM     14  N   UNL     1      -8.728   2.574  -2.950  1.00  0.00    -0.192 NA
ENDBRANCH   8  13
BRANCH  12  15
ATOM     15  C   UNL     1      -4.357  -0.460  -0.228  1.00  0.00    -0.016 A 
ATOM     16  C   UNL     1      -4.761  -1.786  -0.460  1.00  0.00     0.009 A 
ATOM     17  C   UNL     1      -3.698  -0.169   0.978  1.00  0.00     0.009 A 
ATOM     18  C   UNL     1      -4.504  -2.789   0.478  1.00  0.00     0.001 A 
ATOM     19  C   UNL     1      -3.441  -1.173   1.916  1.00  0.00     0.001 A 
ATOM     20  C   UNL     1      -3.843  -2.482   1.664  1.00  0.00     0.000 A 
ENDBRANCH  12  15
ENDBRANCH   1   7
BRANCH   4  21
ATOM     21  C   UNL     1       2.087   0.482  -1.197  1.00  0.00     0.148 C 
BRANCH  21  22
ATOM     22  N   UNL     1       2.361   0.364   0.229  1.00  0.00    -0.381 N 
ATOM     23  H   UNL     1       1.620  -0.127   0.722  1.00  0.00     0.160 HD
BRANCH  22  24
ATOM     24  C   UNL     1       3.632  -0.026   0.657  1.00  0.00     0.034 A 
ATOM     25  C   UNL     1       4.790   0.128  -0.108  1.00  0.00     0.026 A 
ATOM     26  C   UNL     1       3.784  -0.471   1.977  1.00  0.00     0.026 A 
ATOM     27  C   UNL     1       6.050  -0.219   0.403  1.00  0.00     0.012 A 
ATOM     28  C   UNL     1       5.040  -0.817   2.496  1.00  0.00     0.012 A 
ATOM     29  C   UNL     1       6.191  -0.698   1.711  1.00  0.00     0.003 A 
BRANCH  29  30
ATOM     30  C   UNL     1       7.517  -1.049   2.211  1.00  0.00     0.105 A 
ATOM     31  C   UNL     1       7.858  -1.142   3.550  1.00  0.00     0.118 A 
ATOM     32  N   UNL     1       8.570  -1.306   1.333  1.00  0.00    -0.138 NA
ATOM     33  S   UNL     1       9.518  -1.570   3.632  1.00  0.00    -0.020 S 
ATOM     34  N   UNL     1       9.690  -1.601   1.970  1.00  0.00    -0.091 NA
ENDBRANCH  29  30
ENDBRANCH  22  24
ENDBRANCH  21  22
ENDBRANCH   4  21
TORSDOF 7
