MODEL        4USER    Run = 4USERUSER    Estimated Free Energy of Binding    =  -9.40 kcal/mol  [=(1)+(2)+(3)-(4)]USERUSER    (1) Final Intermolecular Energy     = -11.79 kcal/molUSER        vdW + Hbond + desolv Energy     = -11.72 kcal/molUSER        Electrostatic Energy            =  -0.06 kcal/molUSER        Moving Ligand-Fixed Receptor    = -11.79 kcal/molUSER        Moving Ligand-Moving Receptor   =  +0.00 kcal/molUSER    (2) Final Total Internal Energy     =  -1.66 kcal/molUSER    (3) Torsional Free Energy           =  +2.39 kcal/molUSER    (4) Unbound System's Energy         =  -1.66 kcal/molUSERUSERREMARK SMILES CCCNCc1ccc(NC(=O)Cc2nn(-c3ccncc3)cc2C)cc1REMARK SMILES IDX 6 1 7 2 8 3 9 4 26 5 27 6 5 7 4 8 3 10 2 11 1 12 10 13 11 14REMARK SMILES IDX 12 16 13 17 14 18 15 19 24 20 16 21 23 22 25 23 17 24 18 25REMARK SMILES IDX 22 26 19 27 21 28 20 29REMARK H PARENT 4 9 10 15USER                              x       y       z     vdW  Elec       q    TypeUSER                           _______ _______ _______ _____ _____    ______ ____ROOTATOM      1  C   UNL     1      37.703  48.020  14.471 -0.51 +0.02    -0.034 A  ATOM      2  C   UNL     1      37.284  47.020  15.360 -0.41 -0.00    +0.007 A  ATOM      3  C   UNL     1      38.126  46.565  16.381 -0.38 -0.01    +0.026 A  ATOM      4  C   UNL     1      39.405  47.100  16.531 -0.44 -0.01    +0.041 A  ATOM      5  C   UNL     1      39.827  48.100  15.647 -0.53 -0.01    +0.026 A  ATOM      6  C   UNL     1      38.987  48.556  14.625 -0.48 -0.00    +0.007 A  ENDROOTBRANCH   1   7ATOM      7  C   UNL     1      36.793  48.497  13.365 -0.48 -0.05    +0.116 C  BRANCH   7   8ATOM      8  N   UNL     1      36.933  47.750  12.114 -0.98 +0.08    -0.313 NA ATOM      9  H   UNL     1      36.686  48.361  11.338 -0.33 -0.05    +0.123 HD BRANCH   8  10ATOM     10  C   UNL     1      36.134  46.525  12.044 -0.67 -0.04    +0.081 C  BRANCH  10  11ATOM     11  C   UNL     1      36.795  45.260  12.606 -0.60 -0.00    +0.012 C  ATOM     12  C   UNL     1      36.924  44.136  11.588 -0.58 -0.00    +0.005 C  ENDBRANCH  10  11ENDBRANCH   8  10ENDBRANCH   7   8ENDBRANCH   1   7BRANCH   4  13ATOM     13  N   UNL     1      40.313  46.704  17.530 -0.26 +0.04    -0.326 N  ATOM     14  C   UNL     1      41.421  47.390  18.002 -0.42 -0.02    +0.230 C  ATOM     15  H   UNL     1      40.093  45.841  18.027 +0.11 -0.01    +0.169 HD ATOM     16  O   UNL     1      41.817  48.488  17.619 -0.76 -0.01    -0.274 OA BRANCH  14  17ATOM     17  C   UNL     1      42.199  46.612  19.052 -0.46 +0.02    +0.158 C  BRANCH  17  18ATOM     18  C   UNL     1      41.308  46.089  20.129 -0.33 +0.01    +0.075 A  ATOM     19  N   UNL     1      40.215  45.387  19.799 -0.29 -0.00    -0.172 NA ATOM     20  C   UNL     1      41.431  46.253  21.530 -0.28 -0.00    -0.009 A  ATOM     21  N   UNL     1      39.634  45.059  20.984 -0.20 -0.01    -0.240 N  ATOM     22  C   UNL     1      40.343  45.579  22.043 -0.21 +0.01    +0.118 A  ATOM     23  C   UNL     1      42.484  46.980  22.276 -0.31 +0.01    +0.048 C  BRANCH  21  24ATOM     24  C   UNL     1      38.442  44.287  21.019 -0.31 +0.00    +0.068 A  ATOM     25  C   UNL     1      38.182  43.397  22.063 -0.31 +0.00    +0.048 A  ATOM     26  C   UNL     1      37.508  44.417  19.986 -0.33 -0.00    +0.048 A  ATOM     27  C   UNL     1      36.996  42.680  22.026 -0.38 +0.01    +0.113 A  ATOM     28  C   UNL     1      36.355  43.654  20.045 -0.33 -0.01    +0.113 A  ATOM     29  N   UNL     1      36.078  42.790  21.043 -0.27 -0.01    -0.265 NA ENDBRANCH  21  24ENDBRANCH  17  18ENDBRANCH  14  17ENDBRANCH   4  13TORSDOF 8TERENDMDL