MODEL        4USER    Run = 4USERUSER    Estimated Free Energy of Binding    = -11.68 kcal/mol  [=(1)+(2)+(3)-(4)]USERUSER    (1) Final Intermolecular Energy     = -13.77 kcal/molUSER        vdW + Hbond + desolv Energy     = -13.65 kcal/molUSER        Electrostatic Energy            =  -0.12 kcal/molUSER        Moving Ligand-Fixed Receptor    = -13.77 kcal/molUSER        Moving Ligand-Moving Receptor   =  +0.00 kcal/molUSER    (2) Final Total Internal Energy     =  -2.25 kcal/molUSER    (3) Torsional Free Energy           =  +2.09 kcal/molUSER    (4) Unbound System's Energy         =  -2.25 kcal/molUSERUSERREMARK SMILES N#Cc1cnc(-c2ccc(CNc3ccc(-c4csnn4)cc3)cc2)c(-c2ccccc2)c1REMARK SMILES IDX 7 1 8 2 9 3 10 4 24 5 25 6 6 7 3 8 4 9 33 10 5 11 26 12 2 13REMARK SMILES IDX 1 14 27 15 28 16 32 17 29 18 31 19 30 20 11 21 12 22 13 24REMARK SMILES IDX 14 25 23 26 15 27 22 28 16 29 17 30 18 31 21 32 19 33 20 34REMARK H PARENT 12 23USER                              x       y       z     vdW  Elec       q    TypeUSER                           _______ _______ _______ _____ _____    ______ ____ROOTATOM      1  C   UNL     1      33.781  44.942  17.037 -0.33 -0.00    +0.001 A  ATOM      2  C   UNL     1      34.223  43.615  17.170 -0.32 -0.00    +0.011 A  ATOM      3  C   UNL     1      35.068  43.234  18.216 -0.34 -0.00    +0.006 A  ATOM      4  C   UNL     1      35.511  44.177  19.152 -0.36 +0.01    -0.029 A  ATOM      5  C   UNL     1      35.081  45.504  19.027 -0.16 -0.00    +0.006 A  ATOM      6  C   UNL     1      34.236  45.880  17.978 -0.46 -0.01    +0.011 A  ENDROOTBRANCH   1   7ATOM      7  C   UNL     1      32.883  45.358  15.943 -0.25 -0.06    +0.078 A  ATOM      8  C   UNL     1      30.981  46.119  14.086 -0.52 -0.04    +0.071 A  ATOM      9  C   UNL     1      30.648  45.632  15.335 -0.36 -0.06    +0.131 A  ATOM     10  C   UNL     1      32.334  46.212  13.762 -0.14 -0.03    +0.032 A  ATOM     11  N   UNL     1      31.559  45.250  16.258 -0.66 +0.10    -0.254 NA ATOM     12  C   UNL     1      33.323  45.827  14.688 -0.16 -0.01    +0.009 A  BRANCH   8  13ATOM     13  C   UNL     1      29.965  46.502  13.160 -0.55 -0.06    +0.101 C  ATOM     14  N   UNL     1      29.141  46.816  12.406 -0.58 +0.12    -0.192 NA ENDBRANCH   8  13BRANCH  12  15ATOM     15  C   UNL     1      34.739  45.901  14.288 -0.28 +0.01    -0.016 A  ATOM     16  C   UNL     1      35.197  46.931  13.448 -0.41 -0.01    +0.009 A  ATOM     17  C   UNL     1      35.664  44.936  14.720 -0.25 -0.00    +0.009 A  ATOM     18  C   UNL     1      36.538  47.000  13.064 -0.62 -0.00    +0.001 A  ATOM     19  C   UNL     1      37.006  45.006  14.334 -0.40 -0.00    +0.001 A  ATOM     20  C   UNL     1      37.442  46.038  13.508 -0.47 -0.00    +0.000 A  ENDBRANCH  12  15ENDBRANCH   1   7BRANCH   4  21ATOM     21  C   UNL     1      36.407  43.767  20.297 -0.37 -0.01    +0.148 C  BRANCH  21  22ATOM     22  N   UNL     1      37.767  43.603  19.802 -0.06 +0.02    -0.381 N  ATOM     23  H   UNL     1      37.912  42.691  19.377 +0.19 -0.01    +0.160 HD BRANCH  22  24ATOM     24  C   UNL     1      38.362  44.631  19.068 -0.35 -0.00    +0.034 A  ATOM     25  C   UNL     1      39.390  45.441  19.558 -0.38 -0.00    +0.026 A  ATOM     26  C   UNL     1      38.011  44.778  17.719 -0.35 -0.01    +0.026 A  ATOM     27  C   UNL     1      39.997  46.413  18.749 -0.36 -0.00    +0.012 A  ATOM     28  C   UNL     1      38.615  45.746  16.904 -0.38 -0.00    +0.012 A  ATOM     29  C   UNL     1      39.616  46.580  17.412 -0.46 -0.00    +0.003 A  BRANCH  29  30ATOM     30  C   UNL     1      40.269  47.601  16.599 -0.44 -0.02    +0.105 A  ATOM     31  C   UNL     1      39.969  47.868  15.273 -0.44 -0.03    +0.118 A  ATOM     32  N   UNL     1      41.290  48.393  17.125 -0.74 +0.01    -0.138 NA ATOM     33  S   UNL     1      41.002  49.136  14.754 -0.87 +0.00    -0.020 S  ATOM     34  N   UNL     1      41.760  49.254  16.239 -1.02 -0.02    -0.091 NA ENDBRANCH  29  30ENDBRANCH  22  24ENDBRANCH  21  22ENDBRANCH   4  21TORSDOF 7TERENDMDL