REMARK SMILES Cc1cc(F)ccc1C=Nc1ccc(NC(=O)C[C@H](C)O)cc1N
REMARK SMILES IDX 11 1 12 2 13 3 14 4 22 5 23 6 10 7 9 8 8 9 2 10 3 11 4 12
REMARK SMILES IDX 7 13 6 14 1 15 5 16 24 17 15 20 16 21 17 23 18 24 19 25
REMARK SMILES IDX 20 26 21 27
REMARK H PARENT 24 18 24 19 15 22 21 28
ROOT
ATOM      1  C   UNL     1       0.855   0.006   1.028  1.00  0.00     0.086 A 
ATOM      2  C   UNL     1       0.174   0.886   0.185  1.00  0.00     0.032 A 
ATOM      3  C   UNL     1      -1.165   0.658  -0.153  1.00  0.00     0.028 A 
ATOM      4  C   UNL     1      -1.847  -0.441   0.368  1.00  0.00     0.043 A 
ATOM      5  C   UNL     1      -1.170  -1.315   1.232  1.00  0.00     0.053 A 
ATOM      6  C   UNL     1       0.180  -1.119   1.544  1.00  0.00     0.060 A 
ENDROOT
BRANCH   1   7
ATOM      7  N   UNL     1       2.204   0.237   1.367  1.00  0.00    -0.254 NA
BRANCH   7   8
ATOM      8  C   UNL     1       3.076  -0.032   0.444  1.00  0.00     0.120 C 
BRANCH   8   9
ATOM      9  C   UNL     1       4.529   0.165   0.661  1.00  0.00    -0.004 A 
ATOM     10  C   UNL     1       5.466  -0.148  -0.345  1.00  0.00    -0.039 A 
ATOM     11  C   UNL     1       6.830   0.055  -0.077  1.00  0.00     0.043 A 
ATOM     12  C   UNL     1       7.241   0.556   1.155  1.00  0.00     0.123 A 
ATOM     13  C   UNL     1       4.961   0.670   1.899  1.00  0.00     0.013 A 
ATOM     14  C   UNL     1       6.320   0.865   2.145  1.00  0.00     0.040 A 
ATOM     15  C   UNL     1       5.063  -0.687  -1.689  1.00  0.00     0.045 C 
ATOM     16  F   UNL     1       8.547   0.742   1.387  1.00  0.00    -0.207 F 
ENDBRANCH   8   9
ENDBRANCH   7   8
ENDBRANCH   1   7
BRANCH   6  17
ATOM     17  N   UNL     1       0.802  -1.937   2.510  1.00  0.00    -0.397 N 
ATOM     18  H   UNL     1       1.808  -1.766   2.523  1.00  0.00     0.156 HD
ATOM     19  H   UNL     1       0.550  -2.916   2.459  1.00  0.00     0.156 HD
ENDBRANCH   6  17
BRANCH   4  20
ATOM     20  N   UNL     1      -3.203  -0.727   0.098  1.00  0.00    -0.326 N 
ATOM     21  C   UNL     1      -4.056  -0.048  -0.756  1.00  0.00     0.226 C 
ATOM     22  H   UNL     1      -3.584  -1.537   0.571  1.00  0.00     0.169 HD
ATOM     23  O   UNL     1      -3.768   0.907  -1.471  1.00  0.00    -0.275 OA
BRANCH  21  24
ATOM     24  C   UNL     1      -5.450  -0.652  -0.755  1.00  0.00     0.131 C 
BRANCH  24  25
ATOM     25  C   UNL     1      -6.429   0.195  -1.568  1.00  0.00     0.120 C 
ATOM     26  C   UNL     1      -7.854  -0.320  -1.414  1.00  0.00     0.039 C 
BRANCH  25  27
ATOM     27  O   UNL     1      -6.095   0.127  -2.953  1.00  0.00    -0.393 OA
ATOM     28  H   UNL     1      -5.241   0.598  -3.047  1.00  0.00     0.210 HD
ENDBRANCH  25  27
ENDBRANCH  24  25
ENDBRANCH  21  24
ENDBRANCH   4  20
TORSDOF 8
