MODEL        3USER    Run = 3USERUSER    Estimated Free Energy of Binding    =  -8.74 kcal/mol  [=(1)+(2)+(3)-(4)]USERUSER    (1) Final Intermolecular Energy     =  -9.03 kcal/molUSER        vdW + Hbond + desolv Energy     =  -9.00 kcal/molUSER        Electrostatic Energy            =  -0.04 kcal/molUSER        Moving Ligand-Fixed Receptor    =  -9.03 kcal/molUSER        Moving Ligand-Moving Receptor   =  +0.00 kcal/molUSER    (2) Final Total Internal Energy     =  -0.30 kcal/molUSER    (3) Torsional Free Energy           =  +0.30 kcal/molUSER    (4) Unbound System's Energy         =  -0.30 kcal/molUSERUSERREMARK SMILES O=c1[nH]c2cc(Cl)ccc2nc1-c1ccc2[nH]ccc2n1REMARK SMILES IDX 1 1 2 2 3 3 4 4 5 5 6 6 7 7 8 8 9 9 10 10 11 11 12 12 13 14REMARK SMILES IDX 14 15 21 16 15 17 20 18 16 19 19 20 17 21 18 22REMARK H PARENT 3 13 17 23USER                              x       y       z     vdW  Elec       q    TypeUSER                           _______ _______ _______ _____ _____    ______ ____ROOTATOM      1  O   UNL     1      41.198  48.578  15.706 -0.61 +0.02    -0.267 OA ATOM      2  C   UNL     1      40.827  47.732  16.504 -0.28 -0.04    +0.276 A  ATOM      3  N   UNL     1      41.625  47.346  17.557 -0.19 +0.04    -0.319 N  ATOM      4  C   UNL     1      41.151  46.525  18.581 -0.46 -0.00    +0.069 A  ATOM      5  C   UNL     1      41.978  46.210  19.658 -0.39 +0.01    +0.049 A  ATOM      6  C   UNL     1      41.479  45.404  20.680 -0.32 +0.01    +0.043 A  ATOM      7  Cl  UNL     1      42.486  45.006  22.018 -0.34 -0.02    -0.084 Cl ATOM      8  C   UNL     1      40.173  44.919  20.631 -0.34 +0.00    +0.023 A  ATOM      9  C   UNL     1      39.354  45.242  19.545 -0.38 -0.00    +0.032 A  ATOM     10  C   UNL     1      39.834  46.047  18.511 -0.38 -0.01    +0.088 A  ATOM     11  N   UNL     1      38.986  46.331  17.430 -0.27 +0.06    -0.239 NA ATOM     12  C   UNL     1      39.436  47.082  16.456 -0.36 -0.04    +0.154 A  ATOM     13  H   UNL     1      42.545  47.762  17.597 -0.43 -0.02    +0.170 HD ENDROOTBRANCH  12  14ATOM     14  C   UNL     1      38.580  47.332  15.268 -0.40 -0.04    +0.095 A  ATOM     15  C   UNL     1      38.111  48.628  15.044 -0.49 -0.02    +0.033 A  ATOM     16  N   UNL     1      38.261  46.252  14.523 -0.24 +0.08    -0.244 NA ATOM     17  C   UNL     1      37.274  48.880  13.958 -0.47 -0.02    +0.030 A  ATOM     18  C   UNL     1      37.453  46.507  13.468 -0.42 -0.03    +0.089 A  ATOM     19  C   UNL     1      36.960  47.774  13.170 -0.55 -0.03    +0.064 A  ATOM     20  C   UNL     1      36.953  45.611  12.493 -0.51 -0.02    +0.048 A  ATOM     21  N   UNL     1      36.181  47.648  12.045 -0.37 +0.18    -0.360 N  ATOM     22  C   UNL     1      36.171  46.341  11.625 -0.47 -0.04    +0.085 A  ATOM     23  H   UNL     1      35.691  48.408  11.593 -0.32 -0.11    +0.166 HD ENDBRANCH  12  14TORSDOF 1TERENDMDL