MODEL        9USER    Run = 9USERUSER    Estimated Free Energy of Binding    =  -8.52 kcal/mol  [=(1)+(2)+(3)-(4)]USERUSER    (1) Final Intermolecular Energy     = -10.31 kcal/molUSER        vdW + Hbond + desolv Energy     = -10.06 kcal/molUSER        Electrostatic Energy            =  -0.25 kcal/molUSER        Moving Ligand-Fixed Receptor    = -10.31 kcal/molUSER        Moving Ligand-Moving Receptor   =  +0.00 kcal/molUSER    (2) Final Total Internal Energy     =  -1.30 kcal/molUSER    (3) Torsional Free Energy           =  +1.79 kcal/molUSER    (4) Unbound System's Energy         =  -1.30 kcal/molUSERUSERREMARK SMILES COc1ccc(O)c(C(=O)c2ccc(C(=O)NC3CCNCC3)cc2)c1FREMARK SMILES IDX 11 1 12 2 13 3 14 4 24 5 25 6 9 7 10 8 8 9 3 10 4 11 26 12REMARK SMILES IDX 5 13 6 14 27 15 2 16 1 17 7 18 15 20 17 21 16 22 18 24 19 25REMARK SMILES IDX 23 26 20 27 22 28 21 29REMARK H PARENT 7 19 17 23 21 30USER                              x       y       z     vdW  Elec       q    TypeUSER                           _______ _______ _______ _____ _____    ______ ____ROOTATOM      1  C   UNL     1      35.346  44.964  15.613 -0.32 -0.01    +0.023 A  ATOM      2  C   UNL     1      35.847  43.662  15.708 -0.40 -0.00    +0.013 A  ATOM      3  C   UNL     1      35.232  42.742  16.563 -0.44 -0.01    +0.014 A  ATOM      4  C   UNL     1      34.113  43.114  17.322 -0.33 -0.01    +0.039 A  ATOM      5  C   UNL     1      33.590  44.408  17.194 -0.30 -0.01    +0.014 A  ATOM      6  C   UNL     1      34.205  45.327  16.339 -0.31 -0.01    +0.013 A  ENDROOTBRANCH   1   7ATOM      7  C   UNL     1      35.945  45.964  14.696 -0.31 -0.13    +0.199 C  ATOM      8  O   UNL     1      35.390  46.190  13.619 -0.34 +0.19    -0.288 OA BRANCH   7   9ATOM      9  C   UNL     1      37.210  46.673  14.984 -0.33 -0.06    +0.104 A  ATOM     10  C   UNL     1      39.072  47.210  16.466 -0.33 -0.05    +0.155 A  ATOM     11  C   UNL     1      39.620  48.027  15.474 -0.50 -0.02    +0.053 A  ATOM     12  C   UNL     1      37.864  46.544  16.211 -0.27 -0.08    +0.179 A  ATOM     13  C   UNL     1      38.957  48.190  14.255 -0.46 -0.02    +0.051 A  ATOM     14  C   UNL     1      37.755  47.529  14.020 -0.41 -0.05    +0.130 A  ATOM     15  F   UNL     1      37.325  45.793  17.186 -0.08 +0.08    -0.202 F  BRANCH  10  16ATOM     16  O   UNL     1      39.618  46.989  17.702 -0.18 +0.10    -0.494 OA ATOM     17  C   UNL     1      41.023  47.154  17.834 -0.37 -0.03    +0.278 C  ENDBRANCH  10  16BRANCH  14  18ATOM     18  O   UNL     1      37.154  47.768  12.813 -0.77 +0.15    -0.507 OA ATOM     19  H   UNL     1      36.266  47.341  12.827 +0.24 -0.15    +0.293 HD ENDBRANCH  14  18ENDBRANCH   7   9ENDBRANCH   1   7BRANCH   4  20ATOM     20  C   UNL     1      33.496  42.094  18.212 -0.29 -0.06    +0.251 C  ATOM     21  N   UNL     1      32.738  41.118  17.598 -0.17 +0.13    -0.349 N  ATOM     22  O   UNL     1      33.656  42.165  19.425 -0.48 -0.01    -0.269 OA ATOM     23  H   UNL     1      32.634  41.121  16.593 -0.40 -0.14    +0.164 HD BRANCH  21  24ATOM     24  C   UNL     1      32.156  40.015  18.354 -0.42 -0.00    +0.084 C  ATOM     25  C   UNL     1      32.788  38.680  17.959 -0.35 -0.00    +0.040 C  ATOM     26  C   UNL     1      30.628  39.971  18.191 -0.38 +0.00    +0.040 C  ATOM     27  C   UNL     1      32.190  37.539  18.785 -0.55 +0.02    +0.083 C  ATOM     28  C   UNL     1      30.086  38.545  18.093 -0.35 +0.03    +0.083 C  ATOM     29  N   UNL     1      30.746  37.645  19.031 -0.54 -0.11    -0.317 NA ATOM     30  H   UNL     1      30.593  37.979  19.984 +0.08 +0.02    +0.122 HD ENDBRANCH  21  24ENDBRANCH   4  20TORSDOF 6TERENDMDL