REMARK SMILES COc1ccc(O)c(C(=O)c2ccc(C(=O)NC3CCNCC3)cc2)c1F
REMARK SMILES IDX 11 1 12 2 13 3 14 4 24 5 25 6 9 7 10 8 8 9 3 10 4 11 26 12
REMARK SMILES IDX 5 13 6 14 27 15 2 16 1 17 7 18 15 20 17 21 16 22 18 24 19 25
REMARK SMILES IDX 23 26 20 27 22 28 21 29
REMARK H PARENT 7 19 17 23 21 30
ROOT
ATOM      1  C   UNL     1       1.520  -0.180  -1.627  1.00  0.00     0.023 A 
ATOM      2  C   UNL     1       1.374  -1.255  -0.744  1.00  0.00     0.013 A 
ATOM      3  C   UNL     1       0.147  -1.472  -0.111  1.00  0.00     0.014 A 
ATOM      4  C   UNL     1      -0.941  -0.623  -0.358  1.00  0.00     0.039 A 
ATOM      5  C   UNL     1      -0.803   0.429  -1.273  1.00  0.00     0.014 A 
ATOM      6  C   UNL     1       0.424   0.646  -1.907  1.00  0.00     0.013 A 
ENDROOT
BRANCH   1   7
ATOM      7  C   UNL     1       2.792   0.070  -2.347  1.00  0.00     0.199 C 
ATOM      8  O   UNL     1       2.748   0.428  -3.525  1.00  0.00    -0.288 OA
BRANCH   7   9
ATOM      9  C   UNL     1       4.123  -0.139  -1.737  1.00  0.00     0.104 A 
ATOM     10  C   UNL     1       5.619  -0.131   0.190  1.00  0.00     0.155 A 
ATOM     11  C   UNL     1       6.665  -0.568  -0.626  1.00  0.00     0.053 A 
ATOM     12  C   UNL     1       4.355   0.086  -0.379  1.00  0.00     0.179 A 
ATOM     13  C   UNL     1       6.453  -0.764  -1.993  1.00  0.00     0.051 A 
ATOM     14  C   UNL     1       5.195  -0.537  -2.544  1.00  0.00     0.130 A 
ATOM     15  F   UNL     1       3.366   0.545   0.406  1.00  0.00    -0.202 F 
BRANCH  10  16
ATOM     16  O   UNL     1       5.710   0.114   1.534  1.00  0.00    -0.494 OA
ATOM     17  C   UNL     1       6.980  -0.069   2.146  1.00  0.00     0.278 C 
ENDBRANCH  10  16
BRANCH  14  18
ATOM     18  O   UNL     1       5.080  -0.721  -3.896  1.00  0.00    -0.507 OA
ATOM     19  H   UNL     1       4.225  -0.326  -4.184  1.00  0.00     0.293 HD
ENDBRANCH  14  18
ENDBRANCH   7   9
ENDBRANCH   1   7
BRANCH   4  20
ATOM     20  C   UNL     1      -2.225  -0.903   0.340  1.00  0.00     0.251 C 
ATOM     21  N   UNL     1      -3.030   0.184   0.610  1.00  0.00    -0.349 N 
ATOM     22  O   UNL     1      -2.506  -2.052   0.663  1.00  0.00    -0.269 OA
ATOM     23  H   UNL     1      -2.736   1.109   0.329  1.00  0.00     0.164 HD
BRANCH  21  24
ATOM     24  C   UNL     1      -4.350   0.027   1.210  1.00  0.00     0.084 C 
ATOM     25  C   UNL     1      -5.394  -0.346   0.158  1.00  0.00     0.040 C 
ATOM     26  C   UNL     1      -4.768   1.291   1.978  1.00  0.00     0.040 C 
ATOM     27  C   UNL     1      -6.765  -0.540   0.809  1.00  0.00     0.083 C 
ATOM     28  C   UNL     1      -6.254   1.614   1.818  1.00  0.00     0.083 C 
ATOM     29  N   UNL     1      -7.082   0.415   1.878  1.00  0.00    -0.317 NA
ATOM     30  H   UNL     1      -6.951  -0.041   2.783  1.00  0.00     0.122 HD
ENDBRANCH  21  24
ENDBRANCH   4  20
TORSDOF 6
