MODEL        10USER    Run = 10USERUSER    Estimated Free Energy of Binding    =  -8.04 kcal/mol  [=(1)+(2)+(3)-(4)]USERUSER    (1) Final Intermolecular Energy     = -10.42 kcal/molUSER        vdW + Hbond + desolv Energy     = -10.31 kcal/molUSER        Electrostatic Energy            =  -0.11 kcal/molUSER        Moving Ligand-Fixed Receptor    = -10.42 kcal/molUSER        Moving Ligand-Moving Receptor   =  +0.00 kcal/molUSER    (2) Final Total Internal Energy     =  -1.77 kcal/molUSER    (3) Torsional Free Energy           =  +2.39 kcal/molUSER    (4) Unbound System's Energy         =  -1.77 kcal/molUSERUSERREMARK SMILES Cc1cc(F)ccc1C=Nc1ccc(NC(=O)C[C@H](C)O)cc1NREMARK SMILES IDX 11 1 12 2 13 3 14 4 22 5 23 6 10 7 9 8 8 9 2 10 3 11 4 12REMARK SMILES IDX 7 13 6 14 1 15 5 16 24 17 15 20 16 21 17 23 18 24 19 25REMARK SMILES IDX 20 26 21 27REMARK H PARENT 24 18 24 19 15 22 21 28USER                              x       y       z     vdW  Elec       q    TypeUSER                           _______ _______ _______ _____ _____    ______ ____ROOTATOM      1  C   UNL     1      39.925  45.101  19.802 -0.35 +0.00    +0.086 A  ATOM      2  C   UNL     1      39.169  45.018  18.632 -0.39 -0.00    +0.032 A  ATOM      3  C   UNL     1      39.466  45.830  17.531 -0.41 -0.00    +0.028 A  ATOM      4  C   UNL     1      40.539  46.719  17.579 -0.48 -0.01    +0.043 A  ATOM      5  C   UNL     1      41.312  46.789  18.748 -0.46 -0.00    +0.053 A  ATOM      6  C   UNL     1      40.999  46.011  19.868 -0.36 +0.00    +0.060 A  ENDROOTBRANCH   1   7ATOM      7  N   UNL     1      39.624  44.282  20.910 -0.16 -0.01    -0.254 NA BRANCH   7   8ATOM      8  C   UNL     1      38.456  44.461  21.448 -0.33 +0.00    +0.120 C  BRANCH   8   9ATOM      9  C   UNL     1      37.252  43.749  20.956 -0.40 -0.00    -0.004 A  ATOM     10  C   UNL     1      36.906  42.474  21.449 -0.45 -0.00    -0.039 A  ATOM     11  C   UNL     1      35.757  41.848  20.939 -0.42 +0.00    +0.043 A  ATOM     12  C   UNL     1      34.980  42.478  19.971 -0.34 -0.00    +0.123 A  ATOM     13  C   UNL     1      36.457  44.371  19.979 -0.36 -0.00    +0.013 A  ATOM     14  C   UNL     1      35.319  43.733  19.486 -0.37 -0.01    +0.040 A  ATOM     15  C   UNL     1      37.716  41.762  22.496 -0.45 +0.00    +0.045 C  ATOM     16  F   UNL     1      33.888  41.862  19.500 -0.10 -0.01    -0.207 F  ENDBRANCH   8   9ENDBRANCH   7   8ENDBRANCH   1   7BRANCH   6  17ATOM     17  N   UNL     1      41.864  46.008  20.983 -0.11 -0.07    -0.397 N  ATOM     18  H   UNL     1      41.549  45.323  21.671 +0.08 +0.02    +0.156 HD ATOM     19  H   UNL     1      42.058  46.923  21.369 +0.08 +0.02    +0.156 HD ENDBRANCH   6  17BRANCH   4  20ATOM     20  N   UNL     1      40.920  47.553  16.506 -0.25 +0.04    -0.326 N  ATOM     21  C   UNL     1      40.108  48.078  15.514 -0.44 -0.06    +0.226 C  ATOM     22  H   UNL     1      41.899  47.810  16.475 -0.39 -0.02    +0.169 HD ATOM     23  O   UNL     1      38.892  47.946  15.418 -0.32 +0.12    -0.275 OA BRANCH  21  24ATOM     24  C   UNL     1      40.901  48.911  14.522 -0.53 -0.03    +0.131 C  BRANCH  24  25ATOM     25  C   UNL     1      41.395  50.214  15.151 -0.64 -0.03    +0.120 C  ATOM     26  C   UNL     1      42.624  50.741  14.422 -0.63 -0.01    +0.039 C  BRANCH  25  27ATOM     27  O   UNL     1      41.767  49.986  16.509 -0.90 -0.04    -0.393 OA ATOM     28  H   UNL     1      41.790  50.868  16.934 -0.45 -0.05    +0.210 HD ENDBRANCH  25  27ENDBRANCH  24  25ENDBRANCH  21  24ENDBRANCH   4  20TORSDOF 8TERENDMDL