REMARK SMILES CC(=O)Nc1cc(-c2cccc3c2O[C@H]([C@H](C)O)CC3)ccn1
REMARK SMILES IDX 8 1 9 2 10 3 11 4 12 5 13 6 14 7 15 8 19 9 20 10 7 11 5 12
REMARK SMILES IDX 6 13 23 14 22 15 21 16 4 17 2 18 1 19 3 20 16 22 17 23 18 24
REMARK H PARENT 4 21 18 25
ROOT
ATOM      1  C   UNL     1      -0.211  -2.115  -0.007  1.00  0.00     0.024 A 
ATOM      2  C   UNL     1      -0.274  -3.512   0.149  1.00  0.00     0.012 A 
ATOM      3  C   UNL     1      -1.413  -4.131   0.666  1.00  0.00     0.001 A 
ATOM      4  C   UNL     1      -2.510  -3.365   1.048  1.00  0.00     0.007 A 
ATOM      5  C   UNL     1      -2.480  -1.971   0.917  1.00  0.00    -0.005 A 
ATOM      6  C   UNL     1      -1.342  -1.356   0.370  1.00  0.00     0.130 A 
ATOM      7  O   UNL     1      -1.262   0.006   0.203  1.00  0.00    -0.487 OA
ATOM      8  C   UNL     1      -2.510   0.714   0.223  1.00  0.00     0.202 C 
ATOM      9  C   UNL     1      -3.322   0.314   1.452  1.00  0.00     0.053 C 
ATOM     10  C   UNL     1      -3.674  -1.162   1.339  1.00  0.00     0.043 C 
ENDROOT
BRANCH   1  11
ATOM     11  C   UNL     1       1.013  -1.492  -0.550  1.00  0.00    -0.009 A 
ATOM     12  C   UNL     1       2.825   0.105  -0.387  1.00  0.00     0.133 A 
ATOM     13  C   UNL     1       1.679  -0.475   0.149  1.00  0.00     0.056 A 
ATOM     14  N   UNL     1       3.336  -0.289  -1.563  1.00  0.00    -0.239 NA
ATOM     15  C   UNL     1       2.696  -1.268  -2.232  1.00  0.00     0.114 A 
ATOM     16  C   UNL     1       1.549  -1.892  -1.775  1.00  0.00     0.029 A 
BRANCH  12  17
ATOM     17  N   UNL     1       3.430   1.127   0.358  1.00  0.00    -0.311 N 
ATOM     18  C   UNL     1       4.557   1.833  -0.010  1.00  0.00     0.222 C 
ATOM     19  C   UNL     1       4.934   2.866   1.025  1.00  0.00     0.114 C 
ATOM     20  O   UNL     1       5.215   1.722  -1.037  1.00  0.00    -0.275 OA
ATOM     21  H   UNL     1       2.980   1.371   1.228  1.00  0.00     0.171 HD
ENDBRANCH  12  17
ENDBRANCH   1  11
BRANCH   8  22
ATOM     22  C   UNL     1      -2.227   2.234   0.194  1.00  0.00     0.152 C 
ATOM     23  C   UNL     1      -1.327   2.630  -0.972  1.00  0.00     0.042 C 
BRANCH  22  24
ATOM     24  O   UNL     1      -1.612   2.664   1.413  1.00  0.00    -0.390 OA
ATOM     25  H   UNL     1      -1.414   3.611   1.322  1.00  0.00     0.211 HD
ENDBRANCH  22  24
ENDBRANCH   8  22
TORSDOF 4
