MODEL        3USER    Run = 3USERUSER    Estimated Free Energy of Binding    =  -9.45 kcal/mol  [=(1)+(2)+(3)-(4)]USERUSER    (1) Final Intermolecular Energy     = -10.64 kcal/molUSER        vdW + Hbond + desolv Energy     = -10.55 kcal/molUSER        Electrostatic Energy            =  -0.09 kcal/molUSER        Moving Ligand-Fixed Receptor    = -10.64 kcal/molUSER        Moving Ligand-Moving Receptor   =  +0.00 kcal/molUSER    (2) Final Total Internal Energy     =  -0.62 kcal/molUSER    (3) Torsional Free Energy           =  +1.19 kcal/molUSER    (4) Unbound System's Energy         =  -0.62 kcal/molUSERUSERREMARK SMILES O=c1[nH]c2cc(Cl)ccc2nc1-c1ccc(C=Cn2ccnc2)cc1REMARK SMILES IDX 13 1 14 2 15 3 16 4 24 5 25 6 12 7 2 8 3 9 4 10 11 11 5 12REMARK SMILES IDX 10 13 6 14 9 15 8 16 1 17 7 19 17 20 18 21 19 22 20 23 23 24REMARK SMILES IDX 21 25 22 26REMARK H PARENT 3 18USER                              x       y       z     vdW  Elec       q    TypeUSER                           _______ _______ _______ _____ _____    ______ ____ROOTATOM      1  C   UNL     1      41.309  46.980  18.260 -0.53 -0.00    +0.006 A  ATOM      2  C   UNL     1      40.842  46.070  19.217 -0.44 +0.00    +0.011 A  ATOM      3  C   UNL     1      41.586  45.805  20.371 -0.37 +0.00    +0.009 A  ATOM      4  C   UNL     1      42.800  46.462  20.600 -0.32 -0.01    -0.024 A  ATOM      5  C   UNL     1      43.267  47.371  19.641 -0.44 +0.00    +0.009 A  ATOM      6  C   UNL     1      42.522  47.637  18.485 -0.47 +0.00    +0.011 A  ENDROOTBRANCH   1   7ATOM      7  C   UNL     1      40.469  47.241  17.055 -0.41 -0.02    +0.136 A  ATOM      8  C   UNL     1      40.608  48.575  16.295 -0.32 -0.06    +0.274 A  ATOM      9  N   UNL     1      39.762  48.746  15.226 -0.29 +0.13    -0.319 N  ATOM     10  C   UNL     1      38.872  47.750  14.822 -0.46 -0.03    +0.069 A  ATOM     11  N   UNL     1      39.640  46.311  16.661 -0.26 +0.05    -0.240 NA ATOM     12  C   UNL     1      38.049  47.958  13.715 -0.46 -0.02    +0.049 A  ATOM     13  C   UNL     1      38.829  46.546  15.541 -0.36 -0.03    +0.088 A  ATOM     14  C   UNL     1      37.171  46.950  13.323 -0.52 -0.02    +0.043 A  ATOM     15  C   UNL     1      37.943  45.548  15.133 -0.35 -0.01    +0.032 A  ATOM     16  C   UNL     1      37.113  45.746  14.026 -0.42 -0.01    +0.023 A  ATOM     17  O   UNL     1      41.427  49.426  16.607 -1.07 -0.00    -0.267 OA ATOM     18  H   UNL     1      39.843  49.614  14.717 -0.15 -0.10    +0.170 HD ATOM     19  Cl  UNL     1      36.149  47.191  11.960 -0.85 +0.04    -0.084 Cl ENDBRANCH   1   7BRANCH   4  20ATOM     20  C   UNL     1      43.568  46.137  21.810 -0.29 +0.01    +0.026 C  BRANCH  20  21ATOM     21  C   UNL     1      44.266  47.049  22.508 -0.28 +0.04    +0.093 C  BRANCH  21  22ATOM     22  N   UNL     1      43.741  48.007  23.377 -0.17 -0.07    -0.313 N  ATOM     23  C   UNL     1      44.295  48.387  24.582 -0.20 +0.02    +0.112 A  ATOM     24  C   UNL     1      42.597  48.769  23.252 -0.20 +0.06    +0.203 A  ATOM     25  C   UNL     1      43.463  49.347  25.107 -0.26 +0.02    +0.131 A  ATOM     26  N   UNL     1      42.408  49.578  24.272 -0.65 -0.09    -0.245 NA ENDBRANCH  21  22ENDBRANCH  20  21ENDBRANCH   4  20TORSDOF 4TERENDMDL