MODEL        1USER    Run = 1USERUSER    Estimated Free Energy of Binding    =  -8.21 kcal/mol  [=(1)+(2)+(3)-(4)]USERUSER    (1) Final Intermolecular Energy     =  -9.11 kcal/molUSER        vdW + Hbond + desolv Energy     =  -9.03 kcal/molUSER        Electrostatic Energy            =  -0.08 kcal/molUSER        Moving Ligand-Fixed Receptor    =  -9.11 kcal/molUSER        Moving Ligand-Moving Receptor   =  +0.00 kcal/molUSER    (2) Final Total Internal Energy     =  -0.51 kcal/molUSER    (3) Torsional Free Energy           =  +0.89 kcal/molUSER    (4) Unbound System's Energy         =  -0.51 kcal/molUSERUSERREMARK SMILES Nc1nccc(-c2cccc(-c3ccc(Cl)c(Cl)c3)c2)n1REMARK SMILES IDX 2 1 3 2 4 3 5 4 6 5 21 6 1 7 7 10 8 11 20 12 9 13 11 14REMARK SMILES IDX 10 15 12 16 13 17 19 18 14 19 17 20 15 21 18 22 16 23REMARK H PARENT 1 8 1 9USER                              x       y       z     vdW  Elec       q    TypeUSER                           _______ _______ _______ _____ _____    ______ ____ROOTATOM      1  C   UNL     1      13.052 -15.916 -10.243 -0.30 -0.09    +0.220 A  ATOM      2  N   UNL     1      12.912 -16.496 -11.435 -0.22 +0.05    -0.222 NA ATOM      3  C   UNL     1      14.001 -17.106 -11.931 -0.27 -0.02    +0.117 A  ATOM      4  C   UNL     1      15.213 -17.136 -11.286 -0.33 -0.01    +0.049 A  ATOM      5  C   UNL     1      15.271 -16.488 -10.067 -0.26 -0.01    +0.076 A  ATOM      6  N   UNL     1      14.187 -15.874  -9.542 -0.17 +0.06    -0.213 NA ENDROOTBRANCH   1   7ATOM      7  N   UNL     1      11.952 -15.273  -9.714 -0.22 +0.30    -0.368 N  ATOM      8  H   UNL     1      11.249 -15.954  -9.464 -0.45 -0.10    +0.159 HD ATOM      9  H   UNL     1      12.250 -14.627  -8.997 -0.31 -0.27    +0.159 HD ENDBRANCH   1   7BRANCH   5  10ATOM     10  C   UNL     1      16.501 -16.426  -9.247 -0.33 -0.00    +0.001 A  ATOM     11  C   UNL     1      17.533 -17.369  -9.375 -0.35 +0.00    +0.010 A  ATOM     12  C   UNL     1      16.680 -15.393  -8.303 -0.30 -0.00    +0.019 A  ATOM     13  C   UNL     1      18.685 -17.292  -8.589 -0.39 +0.00    +0.001 A  ATOM     14  C   UNL     1      17.832 -15.294  -7.499 -0.40 -0.00    -0.018 A  ATOM     15  C   UNL     1      18.830 -16.264  -7.658 -0.42 +0.00    +0.009 A  BRANCH  14  16ATOM     16  C   UNL     1      17.980 -14.204  -6.520 -0.42 -0.00    -0.017 A  ATOM     17  C   UNL     1      19.000 -14.234  -5.554 -0.50 +0.00    +0.010 A  ATOM     18  C   UNL     1      17.108 -13.102  -6.525 -0.39 -0.00    +0.030 A  ATOM     19  C   UNL     1      19.143 -13.201  -4.623 -0.54 +0.00    +0.023 A  ATOM     20  C   UNL     1      17.246 -12.065  -5.594 -0.44 -0.00    +0.060 A  ATOM     21  C   UNL     1      18.266 -12.114  -4.640 -0.46 +0.01    +0.059 A  ATOM     22  Cl  UNL     1      16.120 -10.756  -5.678 -0.69 +0.02    -0.083 Cl ATOM     23  Cl  UNL     1      18.498 -10.873  -3.462 -0.88 -0.02    -0.083 Cl ENDBRANCH  14  16ENDBRANCH   5  10TORSDOF 3TERENDMDL