MODEL        7USER    Run = 7USERUSER    Estimated Free Energy of Binding    =  -4.14 kcal/mol  [=(1)+(2)+(3)-(4)]USERUSER    (1) Final Intermolecular Energy     =  -7.72 kcal/molUSER        vdW + Hbond + desolv Energy     =  -8.01 kcal/molUSER        Electrostatic Energy            =  +0.05 kcal/molUSER        Moving Ligand-Fixed Receptor    =  -7.95 kcal/molUSER        Moving Ligand-Moving Receptor   =  +0.24 kcal/molUSER    (2) Final Total Internal Energy     =  -2.94 kcal/molUSER    (3) Torsional Free Energy           =  +3.58 kcal/molUSER    (4) Unbound System's Energy         =  -2.94 kcal/molUSERUSERREMARK SMILES CC(C)[C@@H]1CO[C@H](OCl)[C@@H](c2c(O)cc(O)c3c(=O)cc(-c4ccccc4Cl)oc23)CN1REMARK SMILES IDX 31 1 32 2 4 4 2 6 1 7 3 8 10 9 7 10 6 11 5 12 8 14 9 15REMARK SMILES IDX 11 16 12 17 30 18 14 19 29 20 17 21 15 22 21 23 18 24 20 25REMARK SMILES IDX 19 26 13 27 16 29 22 31 23 32 27 33 24 34 26 35 25 36 28 37REMARK H PARENT 32 3 13 28 16 30REMARK Flexibility Score:   80.900USER                              x       y       z     vdW  Elec       q    TypeUSER                           _______ _______ _______ _____ _____    ______ ____ROOTATOM      1  C   UNL     1       0.377   2.573  -8.247 -0.14 +0.01    +0.095 C  ENDROOTBRANCH   1   2ATOM      2  N   UNL     1       0.135   1.859  -6.989 -0.07 -0.10    -0.311 NA ATOM      3  H   UNL     1       0.307   0.871  -7.167 +0.05 +0.07    +0.123 HD BRANCH   2   4ATOM      4  C   UNL     1       0.952   2.330  -5.853 -0.37 +0.00    +0.082 CG0ATOM      5  G   UNL     1       0.234   3.557  -5.240 +0.00 +0.00    +0.000 G0 BRANCH   4   6ATOM      6  C   UNL     1       1.130   1.188  -4.799 -0.43 +0.00    +0.002 C  ATOM      7  C   UNL     1      -0.160   0.877  -4.021 -0.37 +0.00    +0.009 C  ATOM      8  C   UNL     1       1.591  -0.123  -5.461 -0.50 +0.00    +0.009 C  ENDBRANCH   4   6ENDBRANCH   2   4ENDBRANCH   1   2BRANCH   1   9ATOM      9  C   UNL     1      -0.432   3.866  -8.513 -0.16 +0.00    +0.099 C  BRANCH   9  10ATOM     10  C   UNL     1      -0.511   4.757  -7.243 -0.22 -0.05    +0.280 C  BRANCH  10  11ATOM     11  O   UNL     1      -0.832   4.078  -6.027 -0.19 +0.05    -0.349 OA BRANCH  11  12ATOM     12  C   UNL     1       0.232   3.558  -5.240 -0.02 -0.02    +0.182 CG0ATOM     13  G   UNL     1       0.952   2.332  -5.853 +0.00 +0.00    +0.000 G0 ENDBRANCH  11  12ENDBRANCH  10  11BRANCH  10  14ATOM     14  O   UNL     1      -1.526   5.754  -7.453 -0.20 +0.07    -0.246 OA ATOM     15  Cl  UNL     1      -3.091   5.124  -7.469 -0.29 -0.00    +0.064 Cl ENDBRANCH  10  14ENDBRANCH   9  10BRANCH   9  16ATOM     16  C   UNL     1       0.175   4.570  -9.741 -0.16 -0.00    +0.047 A  ATOM     17  C   UNL     1      -0.669   5.133 -10.717 -0.13 -0.01    +0.126 A  ATOM     18  C   UNL     1       1.567   4.667  -9.947 -0.17 -0.01    +0.149 A  ATOM     19  C   UNL     1      -0.158   5.779 -11.844 -0.16 -0.01    +0.093 A  ATOM     20  O   UNL     1       2.392   4.094  -9.008 -0.05 +0.06    -0.455 OA ATOM     21  C   UNL     1       2.082   5.320 -11.071 -0.28 -0.01    +0.107 A  ATOM     22  C   UNL     1       1.217   5.873 -12.017 -0.22 -0.01    +0.134 A  ATOM     23  C   UNL     1       3.758   4.212  -9.154 -0.30 -0.02    +0.140 A  ATOM     24  C   UNL     1       3.540   5.412 -11.232 -0.22 -0.01    +0.197 A  ATOM     25  C   UNL     1       4.371   4.818 -10.178 -0.42 -0.01    +0.100 A  ATOM     26  O   UNL     1       4.040   5.969 -12.203 -0.02 +0.01    -0.289 OA BRANCH  17  27ATOM     27  O   UNL     1      -2.023   5.035 -10.561 +0.01 +0.01    -0.507 OA ATOM     28  H   UNL     1      -2.350   5.817 -10.085 +0.09 -0.01    +0.293 HD ENDBRANCH  17  27BRANCH  22  29ATOM     29  O   UNL     1       1.651   6.522 -13.142 -0.08 +0.06    -0.507 OA ATOM     30  H   UNL     1       2.596   6.286 -13.289 +0.14 -0.03    +0.293 HD ENDBRANCH  22  29BRANCH  23  31ATOM     31  C   UNL     1       4.526   3.599  -8.062 -0.40 -0.01    +0.036 A  ATOM     32  C   UNL     1       5.411   4.404  -7.326 -0.47 -0.00    +0.013 A  ATOM     33  C   UNL     1       4.400   2.241  -7.719 -0.35 -0.02    +0.052 A  ATOM     34  C   UNL     1       6.155   3.865  -6.274 -0.41 -0.00    +0.001 A  ATOM     35  C   UNL     1       5.150   1.705  -6.668 -0.47 -0.00    +0.021 A  ATOM     36  C   UNL     1       6.028   2.516  -5.947 -0.63 -0.00    +0.002 A  ATOM     37  Cl  UNL     1       3.336   1.178  -8.572 -0.39 +0.04    -0.084 Cl ENDBRANCH  23  31ENDBRANCH   9  16ENDBRANCH   1   9TORSDOF 6TERENDMDL