REMARK SMILES NO[C@@]1(C(=O)Nc2cccc3ccccc23)C=CC=CC#CCC1
REMARK SMILES IDX 3 1 2 2 1 3 4 6 6 7 5 8 7 10 8 11 16 12 9 13 15 14 11 15
REMARK SMILES IDX 10 16 14 17 12 18 13 19 17 20 18 21 19 22 20 23 24 25 23 26
REMARK SMILES IDX 22 27 21 28
REMARK H PARENT 1 4 1 5 6 9
REMARK Flexibility Score:   36.900
ROOT
ATOM      1  C   UNL     1      -1.736  -0.594  -0.962  1.00  0.00     0.187 C 
ENDROOT
BRANCH   1   2
ATOM      2  O   UNL     1      -2.575  -1.057  -2.042  1.00  0.00    -0.284 OA
BRANCH   2   3
ATOM      3  N   UNL     1      -2.253  -2.434  -2.426  1.00  0.00    -0.214 NA
ATOM      4  H   UNL     1      -1.650  -2.259  -3.239  1.00  0.00     0.151 HD
ATOM      5  H   UNL     1      -3.148  -2.736  -2.818  1.00  0.00     0.151 HD
ENDBRANCH   2   3
ENDBRANCH   1   2
BRANCH   1   6
ATOM      6  C   UNL     1      -0.252  -0.428  -1.464  1.00  0.00     0.262 C 
ATOM      7  N   UNL     1       0.667  -0.160  -0.451  1.00  0.00    -0.323 N 
ATOM      8  O   UNL     1       0.028  -0.495  -2.662  1.00  0.00    -0.271 OA
ATOM      9  H   UNL     1       0.279   0.003   0.462  1.00  0.00     0.170 HD
BRANCH   7  10
ATOM     10  C   UNL     1       2.078  -0.010  -0.551  1.00  0.00     0.049 A 
ATOM     11  C   UNL     1       2.752  -0.260  -1.753  1.00  0.00     0.027 A 
ATOM     12  C   UNL     1       2.825   0.385   0.609  1.00  0.00     0.005 A 
ATOM     13  C   UNL     1       4.135  -0.125  -1.842  1.00  0.00     0.003 A 
ATOM     14  C   UNL     1       2.268   0.668   1.887  1.00  0.00     0.011 A 
ATOM     15  C   UNL     1       4.237   0.513   0.494  1.00  0.00    -0.016 A 
ATOM     16  C   UNL     1       4.870   0.259  -0.728  1.00  0.00     0.009 A 
ATOM     17  C   UNL     1       3.056   1.049   2.978  1.00  0.00     0.001 A 
ATOM     18  C   UNL     1       5.014   0.897   1.599  1.00  0.00     0.009 A 
ATOM     19  C   UNL     1       4.429   1.163   2.834  1.00  0.00     0.001 A 
ENDBRANCH   7  10
ENDBRANCH   1   6
BRANCH   1  20
ATOM     20  C   UNL     1      -2.207   0.801  -0.548  1.00  0.00     0.020 C 
BRANCH  20  21
ATOM     21  C   UNL     1      -3.290   1.444  -1.029  1.00  0.00    -0.000 C 
BRANCH  21  22
ATOM     22  C   UNL     1      -4.088   2.283  -0.140  1.00  0.00     0.009 C 
BRANCH  22  23
ATOM     23  C   UNL     1      -4.672   1.774   0.968  1.00  0.00     0.060 CG0
ATOM     24  G   UNL     1      -4.480   0.394   1.296  1.00  0.00     0.000 G0
ENDBRANCH  22  23
ENDBRANCH  21  22
ENDBRANCH  20  21
ENDBRANCH   1  20
BRANCH   1  25
ATOM     25  C   UNL     1      -1.860  -1.550   0.280  1.00  0.00     0.065 C 
BRANCH  25  26
ATOM     26  C   UNL     1      -3.292  -1.906   0.758  1.00  0.00     0.094 C 
BRANCH  26  27
ATOM     27  C   UNL     1      -4.041  -0.723   1.216  1.00  0.00    -0.098 C 
BRANCH  27  28
ATOM     28  C   UNL     1      -4.480   0.394   1.296  1.00  0.00    -0.075 CG0
ATOM     29  G   UNL     1      -4.672   1.774   0.968  1.00  0.00     0.000 G0
ENDBRANCH  27  28
ENDBRANCH  26  27
ENDBRANCH  25  26
ENDBRANCH   1  25
TORSDOF 4
