REMARK SMILES Nc1nccc(-c2cccc(-c3ccc(Cl)c(Cl)c3)c2)n1
REMARK SMILES IDX 2 1 3 2 4 3 5 4 6 5 21 6 1 7 7 10 8 11 20 12 9 13 11 14
REMARK SMILES IDX 10 15 12 16 13 17 19 18 14 19 17 20 15 21 18 22 16 23
REMARK H PARENT 1 8 1 9
ROOT
ATOM      1  C   UNL     1       3.824   1.214  -0.963  1.00  0.00     0.220 A 
ATOM      2  N   UNL     1       4.873   0.432  -1.218  1.00  0.00    -0.222 NA
ATOM      3  C   UNL     1       4.704  -0.881  -0.993  1.00  0.00     0.117 A 
ATOM      4  C   UNL     1       3.539  -1.424  -0.508  1.00  0.00     0.049 A 
ATOM      5  C   UNL     1       2.514  -0.534  -0.249  1.00  0.00     0.076 A 
ATOM      6  N   UNL     1       2.656   0.791  -0.476  1.00  0.00    -0.213 NA
ENDROOT
BRANCH   1   7
ATOM      7  N   UNL     1       3.973   2.569  -1.176  1.00  0.00    -0.368 N 
ATOM      8  H   UNL     1       3.337   3.078  -0.579  1.00  0.00     0.159 HD
ATOM      9  H   UNL     1       4.952   2.813  -1.130  1.00  0.00     0.159 HD
ENDBRANCH   1   7
BRANCH   5  10
ATOM     10  C   UNL     1       1.197  -0.955   0.277  1.00  0.00     0.001 A 
ATOM     11  C   UNL     1       1.054  -2.050   1.145  1.00  0.00     0.010 A 
ATOM     12  C   UNL     1       0.027  -0.251  -0.076  1.00  0.00     0.019 A 
ATOM     13  C   UNL     1      -0.200  -2.431   1.628  1.00  0.00     0.001 A 
ATOM     14  C   UNL     1      -1.248  -0.615   0.398  1.00  0.00    -0.018 A 
ATOM     15  C   UNL     1      -1.340  -1.720   1.255  1.00  0.00     0.009 A 
BRANCH  14  16
ATOM     16  C   UNL     1      -2.448   0.142   0.003  1.00  0.00    -0.017 A 
ATOM     17  C   UNL     1      -3.331   0.652   0.969  1.00  0.00     0.010 A 
ATOM     18  C   UNL     1      -2.743   0.376  -1.351  1.00  0.00     0.030 A 
ATOM     19  C   UNL     1      -4.471   1.371   0.596  1.00  0.00     0.023 A 
ATOM     20  C   UNL     1      -3.884   1.094  -1.730  1.00  0.00     0.060 A 
ATOM     21  C   UNL     1      -4.751   1.593  -0.754  1.00  0.00     0.059 A 
ATOM     22  Cl  UNL     1      -4.163   1.325  -3.420  1.00  0.00    -0.083 Cl
ATOM     23  Cl  UNL     1      -6.176   2.487  -1.144  1.00  0.00    -0.083 Cl
ENDBRANCH  14  16
ENDBRANCH   5  10
TORSDOF 3
