REMARK SMILES CC(C)[C@@H]1CO[C@H](OCl)[C@@H](c2c(O)cc(O)c3c(=O)cc(-c4ccccc4Cl)oc23)CN1
REMARK SMILES IDX 31 1 32 2 4 4 2 6 1 7 3 8 10 9 7 10 6 11 5 12 8 14 9 15
REMARK SMILES IDX 11 16 12 17 30 18 14 19 29 20 17 21 15 22 21 23 18 24 20 25
REMARK SMILES IDX 19 26 13 27 16 29 22 31 23 32 27 33 24 34 26 35 25 36 28 37
REMARK H PARENT 32 3 13 28 16 30
REMARK Flexibility Score:   80.900
ROOT
ATOM      1  C   UNL     1      -0.003   0.803  -1.665  1.00  0.00     0.095 C 
ENDROOT
BRANCH   1   2
ATOM      2  N   UNL     1       0.924   1.918  -1.881  1.00  0.00    -0.311 NA
ATOM      3  H   UNL     1       0.376   2.776  -1.843  1.00  0.00     0.123 HD
BRANCH   2   4
ATOM      4  C   UNL     1       2.043   1.977  -0.920  1.00  0.00     0.082 CG0
ATOM      5  G   UNL     1       3.029   0.840  -1.283  1.00  0.00     0.000 G0
BRANCH   4   6
ATOM      6  C   UNL     1       2.740   3.376  -0.978  1.00  0.00     0.002 C 
ATOM      7  C   UNL     1       1.760   4.547  -0.793  1.00  0.00     0.009 C 
ATOM      8  C   UNL     1       3.822   3.511   0.108  1.00  0.00     0.009 C 
ENDBRANCH   4   6
ENDBRANCH   2   4
ENDBRANCH   1   2
BRANCH   1   9
ATOM      9  C   UNL     1       0.575  -0.633  -1.682  1.00  0.00     0.099 C 
BRANCH   9  10
ATOM     10  C   UNL     1       1.499  -0.887  -0.460  1.00  0.00     0.280 C 
BRANCH  10  11
ATOM     11  O   UNL     1       2.828  -0.373  -0.569  1.00  0.00    -0.349 OA
BRANCH  11  12
ATOM     12  C   UNL     1       3.029   0.840  -1.283  1.00  0.00     0.182 CG0
ATOM     13  G   UNL     1       2.043   1.977  -0.920  1.00  0.00     0.000 G0
ENDBRANCH  11  12
ENDBRANCH  10  11
BRANCH  10  14
ATOM     14  O   UNL     1       1.609  -2.308  -0.264  1.00  0.00    -0.246 OA
ATOM     15  Cl  UNL     1       1.965  -2.740   1.327  1.00  0.00     0.064 Cl
ENDBRANCH  10  14
ENDBRANCH   9  10
BRANCH   9  16
ATOM     16  C   UNL     1      -0.598  -1.624  -1.803  1.00  0.00     0.047 A 
ATOM     17  C   UNL     1      -0.830  -2.294  -3.018  1.00  0.00     0.126 A 
ATOM     18  C   UNL     1      -1.480  -1.886  -0.734  1.00  0.00     0.149 A 
ATOM     19  C   UNL     1      -1.882  -3.199  -3.168  1.00  0.00     0.093 A 
ATOM     20  O   UNL     1      -1.271  -1.212   0.446  1.00  0.00    -0.455 OA
ATOM     21  C   UNL     1      -2.530  -2.798  -0.878  1.00  0.00     0.107 A 
ATOM     22  C   UNL     1      -2.729  -3.451  -2.096  1.00  0.00     0.134 A 
ATOM     23  C   UNL     1      -2.085  -1.481   1.526  1.00  0.00     0.140 A 
ATOM     24  C   UNL     1      -3.411  -3.053   0.271  1.00  0.00     0.197 A 
ATOM     25  C   UNL     1      -3.115  -2.335   1.517  1.00  0.00     0.100 A 
ATOM     26  O   UNL     1      -4.349  -3.838   0.193  1.00  0.00    -0.289 OA
BRANCH  17  27
ATOM     27  O   UNL     1      -0.009  -2.044  -4.082  1.00  0.00    -0.507 OA
ATOM     28  H   UNL     1      -0.264  -2.614  -4.827  1.00  0.00     0.293 HD
ENDBRANCH  17  27
BRANCH  22  29
ATOM     29  O   UNL     1      -3.738  -4.351  -2.309  1.00  0.00    -0.507 OA
ATOM     30  H   UNL     1      -4.254  -4.439  -1.474  1.00  0.00     0.293 HD
ENDBRANCH  22  29
BRANCH  23  31
ATOM     31  C   UNL     1      -1.729  -0.731   2.738  1.00  0.00     0.036 A 
ATOM     32  C   UNL     1      -1.106  -1.415   3.795  1.00  0.00     0.013 A 
ATOM     33  C   UNL     1      -1.977   0.646   2.875  1.00  0.00     0.052 A 
ATOM     34  C   UNL     1      -0.743  -0.740   4.963  1.00  0.00     0.001 A 
ATOM     35  C   UNL     1      -1.615   1.317   4.047  1.00  0.00     0.021 A 
ATOM     36  C   UNL     1      -1.000   0.624   5.091  1.00  0.00     0.002 A 
ATOM     37  Cl  UNL     1      -2.739   1.567   1.625  1.00  0.00    -0.084 Cl
ENDBRANCH  23  31
ENDBRANCH   9  16
ENDBRANCH   1   9
TORSDOF 6
