MODEL        3USER    Run = 3USERUSER    Estimated Free Energy of Binding    =  -9.00 kcal/mol  [=(1)+(2)+(3)-(4)]USERUSER    (1) Final Intermolecular Energy     = -10.79 kcal/molUSER        vdW + Hbond + desolv Energy     = -10.22 kcal/molUSER        Electrostatic Energy            =  -0.57 kcal/molUSER        Moving Ligand-Fixed Receptor    = -10.79 kcal/molUSER        Moving Ligand-Moving Receptor   =  +0.00 kcal/molUSER    (2) Final Total Internal Energy     =  -1.40 kcal/molUSER    (3) Torsional Free Energy           =  +1.79 kcal/molUSER    (4) Unbound System's Energy         =  -1.40 kcal/molUSERUSERREMARK SMILES O=[N+]([O-])c1cccc(-c2cc(Cl)cc3[nH]c(NCCO)nc23)c1REMARK SMILES IDX 17 1 16 3 9 4 10 5 22 6 11 7 21 8 14 9 13 10 15 11 12 12REMARK SMILES IDX 8 14 4 15 5 16 23 17 6 18 7 19 2 20 1 21 3 22 18 23 19 24REMARK SMILES IDX 20 25REMARK H PARENT 17 2 15 13 20 26USER                              x       y       z     vdW  Elec       q    TypeUSER                           _______ _______ _______ _____ _____    ______ ____ROOTATOM      1  N   UNL     1      11.917 -13.449 -11.224 -0.11 +0.23    -0.353 N  ATOM      2  H   UNL     1      11.147 -13.500 -10.550 -0.36 -0.17    +0.163 HD ENDROOTBRANCH   1   3ATOM      3  C   UNL     1      13.073 -13.847 -10.652 -0.16 -0.15    +0.201 A  ATOM      4  C   UNL     1      15.900 -13.820  -8.522 -0.35 -0.00    +0.011 A  ATOM      5  C   UNL     1      16.875 -14.840  -8.441 -0.36 -0.00    +0.031 A  ATOM      6  C   UNL     1      14.835 -14.016  -9.436 -0.30 -0.05    +0.098 A  ATOM      7  C   UNL     1      16.791 -15.994  -9.222 -0.34 -0.00    +0.043 A  ATOM      8  N   UNL     1      13.749 -13.215  -9.728 -0.18 +0.19    -0.213 NA ATOM      9  C   UNL     1      14.788 -15.182 -10.199 -0.28 -0.02    +0.069 A  ATOM     10  C   UNL     1      15.742 -16.197 -10.122 -0.31 -0.01    +0.049 A  ATOM     11  N   UNL     1      13.646 -15.051 -10.949 -0.09 +0.13    -0.324 N  ATOM     12  Cl  UNL     1      18.013 -17.201  -9.080 -0.47 -0.00    -0.084 Cl ATOM     13  H   UNL     1      13.262 -15.731 -11.584 +0.12 -0.05    +0.170 HD BRANCH   4  14ATOM     14  C   UNL     1      15.966 -12.602  -7.697 -0.40 +0.00    -0.009 A  ATOM     15  C   UNL     1      16.134 -11.515  -5.517 -0.30 -0.06    +0.270 A  ATOM     16  C   UNL     1      16.109 -10.251  -6.116 -0.42 -0.02    +0.085 A  ATOM     17  C   UNL     1      16.064 -12.681  -6.297 -0.23 -0.03    +0.094 A  ATOM     18  C   UNL     1      16.012 -10.159  -7.502 -0.60 -0.00    +0.008 A  ATOM     19  C   UNL     1      15.942 -11.320  -8.278 -0.46 -0.00    +0.009 A  BRANCH  15  20ATOM     20  N   UNL     1      16.233 -11.623  -4.057 -0.56 -0.00    +0.062 N  ATOM     21  O   UNL     1      17.287 -11.249  -3.521 -1.04 -0.07    -0.258 OA ATOM     22  O   UNL     1      15.256 -12.075  -3.443 -0.95 -0.00    -0.258 OA ENDBRANCH  15  20ENDBRANCH   4  14ENDBRANCH   1   3BRANCH   1  23ATOM     23  C   UNL     1      11.872 -12.147 -11.898 -0.38 -0.08    +0.144 C  BRANCH  23  24ATOM     24  C   UNL     1      10.659 -11.336 -11.424 -0.45 -0.06    +0.177 C  BRANCH  24  25ATOM     25  O   UNL     1       9.876 -12.091 -10.499 -0.90 +0.03    -0.395 OA ATOM     26  H   UNL     1      10.450 -12.341  -9.755 -0.36 -0.37    +0.210 HD ENDBRANCH  24  25ENDBRANCH  23  24ENDBRANCH   1  23TORSDOF 6TERENDMDL