REMARK SMILES O=[N+]([O-])c1cccc(-c2cc(Cl)cc3[nH]c(NCCO)nc23)c1
REMARK SMILES IDX 17 1 16 3 9 4 10 5 22 6 11 7 21 8 14 9 13 10 15 11 12 12
REMARK SMILES IDX 8 14 4 15 5 16 23 17 6 18 7 19 2 20 1 21 3 22 18 23 19 24
REMARK SMILES IDX 20 25
REMARK H PARENT 17 2 15 13 20 26
ROOT
ATOM      1  N   UNL     1       3.175  -0.041   1.244  1.00  0.00    -0.353 N 
ATOM      2  H   UNL     1       2.871  -0.877   1.753  1.00  0.00     0.163 HD
ENDROOT
BRANCH   1   3
ATOM      3  C   UNL     1       2.134   0.520   0.593  1.00  0.00     0.201 A 
ATOM      4  C   UNL     1      -1.168   1.004  -0.588  1.00  0.00     0.011 A 
ATOM      5  C   UNL     1      -1.608   2.100  -1.364  1.00  0.00     0.031 A 
ATOM      6  C   UNL     1       0.197   0.991  -0.206  1.00  0.00     0.098 A 
ATOM      7  C   UNL     1      -0.739   3.128  -1.735  1.00  0.00     0.043 A 
ATOM      8  N   UNL     1       0.906   0.074   0.544  1.00  0.00    -0.213 NA
ATOM      9  C   UNL     1       1.033   2.036  -0.598  1.00  0.00     0.069 A 
ATOM     10  C   UNL     1       0.606   3.125  -1.359  1.00  0.00     0.049 A 
ATOM     11  N   UNL     1       2.253   1.715  -0.059  1.00  0.00    -0.324 N 
ATOM     12  Cl  UNL     1      -1.336   4.436  -2.685  1.00  0.00    -0.084 Cl
ATOM     13  H   UNL     1       3.092   2.271  -0.095  1.00  0.00     0.170 HD
BRANCH   4  14
ATOM     14  C   UNL     1      -2.072  -0.083  -0.178  1.00  0.00    -0.009 A 
ATOM     15  C   UNL     1      -4.207  -0.846   0.728  1.00  0.00     0.270 A 
ATOM     16  C   UNL     1      -3.816  -2.183   0.595  1.00  0.00     0.085 A 
ATOM     17  C   UNL     1      -3.347   0.196   0.346  1.00  0.00     0.094 A 
ATOM     18  C   UNL     1      -2.556  -2.472   0.078  1.00  0.00     0.008 A 
ATOM     19  C   UNL     1      -1.699  -1.434  -0.302  1.00  0.00     0.009 A 
BRANCH  15  20
ATOM     20  N   UNL     1      -5.532  -0.530   1.274  1.00  0.00     0.062 N 
ATOM     21  O   UNL     1      -5.875   0.661   1.303  1.00  0.00    -0.258 OA
ATOM     22  O   UNL     1      -6.235  -1.472   1.667  1.00  0.00    -0.258 OA
ENDBRANCH  15  20
ENDBRANCH   4  14
ENDBRANCH   1   3
BRANCH   1  23
ATOM     23  C   UNL     1       4.391  -0.362   0.489  1.00  0.00     0.144 C 
BRANCH  23  24
ATOM     24  C   UNL     1       4.322  -1.792  -0.062  1.00  0.00     0.177 C 
BRANCH  24  25
ATOM     25  O   UNL     1       4.189  -2.738   1.000  1.00  0.00    -0.395 OA
ATOM     26  H   UNL     1       4.961  -2.643   1.584  1.00  0.00     0.210 HD
ENDBRANCH  24  25
ENDBRANCH  23  24
ENDBRANCH   1  23
TORSDOF 6
