REMARK SMILES Nc1ccc(-c2cccc(Oc3ccccc3)c2)coc(C#C[C@@H](N)C=O)cn1
REMARK SMILES IDX 22 1 21 2 2 3 3 4 29 5 4 6 28 7 5 8 19 9 20 10 1 11 6 14
REMARK SMILES IDX 7 15 18 16 8 17 10 18 9 19 11 20 12 21 13 22 17 23 14 24
REMARK SMILES IDX 16 25 15 26 23 27 24 28 25 29 26 32 27 33
REMARK H PARENT 1 12 1 13 25 30 25 31
ROOT
ATOM      1  C   UNL     1      -4.094   0.003   1.143  1.00  0.00    -0.025 C 
ENDROOT
BRANCH   1   2
ATOM      2  C   UNL     1      -3.425  -1.182   0.712  1.00  0.00     0.194 A 
ATOM      3  C   UNL     1      -1.903  -3.946   0.593  1.00  0.00     0.123 A 
ATOM      4  C   UNL     1      -0.884  -3.583  -0.210  1.00  0.00     0.047 A 
ATOM      5  N   UNL     1      -2.879  -3.517   1.403  1.00  0.00    -0.235 NA
ATOM      6  C   UNL     1      -0.295  -2.497  -0.727  1.00  0.00     0.016 A 
ATOM      7  C   UNL     1      -3.365  -2.269   1.496  1.00  0.00     0.170 A 
ATOM      8  C   UNL     1      -0.575  -1.195  -0.882  1.00  0.00     0.017 A 
ATOM      9  C   UNL     1      -1.755  -0.584  -0.756  1.00  0.00     0.205 A 
ATOM     10  O   UNL     1      -2.948  -1.215  -0.574  1.00  0.00    -0.454 OA
BRANCH   3  11
ATOM     11  N   UNL     1      -1.997  -5.329   0.789  1.00  0.00    -0.384 N 
ATOM     12  H   UNL     1      -2.977  -5.502   0.559  1.00  0.00     0.158 HD
ATOM     13  H   UNL     1      -2.070  -5.384   1.806  1.00  0.00     0.158 HD
ENDBRANCH   3  11
BRANCH   8  14
ATOM     14  C   UNL     1       0.529  -0.319  -1.339  1.00  0.00    -0.012 A 
ATOM     15  C   UNL     1       0.824  -0.199  -2.707  1.00  0.00     0.009 A 
ATOM     16  C   UNL     1       1.289   0.399  -0.407  1.00  0.00     0.056 A 
ATOM     17  C   UNL     1       1.864   0.627  -3.138  1.00  0.00     0.004 A 
ATOM     18  C   UNL     1       2.340   1.205  -0.842  1.00  0.00     0.128 A 
ATOM     19  C   UNL     1       2.621   1.335  -2.205  1.00  0.00     0.047 A 
BRANCH  18  20
ATOM     20  O   UNL     1       3.044   1.914   0.104  1.00  0.00    -0.457 OA
BRANCH  20  21
ATOM     21  C   UNL     1       4.399   1.676   0.173  1.00  0.00     0.127 A 
ATOM     22  C   UNL     1       5.221   2.785   0.376  1.00  0.00     0.047 A 
ATOM     23  C   UNL     1       4.952   0.394   0.120  1.00  0.00     0.047 A 
ATOM     24  C   UNL     1       6.602   2.618   0.489  1.00  0.00     0.004 A 
ATOM     25  C   UNL     1       6.333   0.229   0.235  1.00  0.00     0.004 A 
ATOM     26  C   UNL     1       7.157   1.341   0.415  1.00  0.00     0.000 A 
ENDBRANCH  20  21
ENDBRANCH  18  20
ENDBRANCH   8  14
ENDBRANCH   1   2
BRANCH   1  27
ATOM     27  C   UNL     1      -4.662   0.990   1.527  1.00  0.00    -0.068 C 
BRANCH  27  28
ATOM     28  C   UNL     1      -5.375   2.164   2.031  1.00  0.00     0.192 C 
BRANCH  28  29
ATOM     29  N   UNL     1      -4.800   3.394   1.470  1.00  0.00    -0.312 NA
ATOM     30  H   UNL     1      -3.784   3.302   1.470  1.00  0.00     0.120 HD
ATOM     31  H   UNL     1      -5.079   3.441   0.488  1.00  0.00     0.120 HD
ENDBRANCH  28  29
BRANCH  28  32
ATOM     32  C   UNL     1      -6.861   2.051   1.687  1.00  0.00     0.256 C 
ATOM     33  O   UNL     1      -7.506   2.853   1.012  1.00  0.00    -0.301 OA
ENDBRANCH  28  32
ENDBRANCH  27  28
ENDBRANCH   1  27
TORSDOF 9
