REMARK SMILES COc1c(C(=O)O)cc(-c2cccc(-c3ccccc3F)c2)nc1O
REMARK SMILES IDX 3 1 4 2 8 3 9 4 23 5 24 6 2 7 1 8 5 9 6 10 7 11 25 13 10 15
REMARK SMILES IDX 11 16 22 17 12 18 14 19 13 20 15 21 16 22 20 23 17 24 19 25
REMARK SMILES IDX 18 26 21 27
REMARK H PARENT 7 12 25 14
ROOT
ATOM      1  C   UNL     1       3.937   0.118   0.341  1.00  0.00     0.195 A 
ATOM      2  C   UNL     1       2.937  -0.234   1.249  1.00  0.00     0.109 A 
ATOM      3  C   UNL     1       1.619  -0.460   0.830  1.00  0.00     0.049 A 
ATOM      4  C   UNL     1       1.304  -0.295  -0.511  1.00  0.00     0.075 A 
ATOM      5  N   UNL     1       2.250   0.058  -1.415  1.00  0.00    -0.210 NA
ATOM      6  C   UNL     1       3.511   0.246  -0.972  1.00  0.00     0.256 A 
ENDROOT
BRANCH   1   7
ATOM      7  O   UNL     1       5.206   0.243   0.825  1.00  0.00    -0.491 OA
ATOM      8  C   UNL     1       6.197   0.811  -0.021  1.00  0.00     0.278 C 
ENDBRANCH   1   7
BRANCH   2   9
ATOM      9  C   UNL     1       3.201  -0.414   2.687  1.00  0.00     0.339 C 
ATOM     10  O   UNL     1       2.774  -1.326   3.370  1.00  0.00    -0.246 OA
BRANCH   9  11
ATOM     11  O   UNL     1       3.873   0.620   3.218  1.00  0.00    -0.478 OA
ATOM     12  H   UNL     1       3.974   0.388   4.163  1.00  0.00     0.297 HD
ENDBRANCH   9  11
ENDBRANCH   2   9
BRANCH   6  13
ATOM     13  O   UNL     1       4.337   0.563  -1.999  1.00  0.00    -0.491 OA
ATOM     14  H   UNL     1       3.697   0.553  -2.734  1.00  0.00     0.295 HD
ENDBRANCH   6  13
BRANCH   4  15
ATOM     15  C   UNL     1      -0.056  -0.494  -1.049  1.00  0.00     0.001 A 
ATOM     16  C   UNL     1      -0.246  -1.031  -2.333  1.00  0.00     0.010 A 
ATOM     17  C   UNL     1      -1.208  -0.152  -0.312  1.00  0.00     0.019 A 
ATOM     18  C   UNL     1      -1.525  -1.235  -2.852  1.00  0.00     0.001 A 
ATOM     19  C   UNL     1      -2.511  -0.344  -0.814  1.00  0.00    -0.015 A 
ATOM     20  C   UNL     1      -2.646  -0.896  -2.096  1.00  0.00     0.009 A 
BRANCH  19  21
ATOM     21  C   UNL     1      -3.693   0.034  -0.020  1.00  0.00     0.017 A 
ATOM     22  C   UNL     1      -3.808   1.323   0.533  1.00  0.00     0.012 A 
ATOM     23  C   UNL     1      -4.746  -0.864   0.216  1.00  0.00     0.131 A 
ATOM     24  C   UNL     1      -4.926   1.689   1.289  1.00  0.00     0.001 A 
ATOM     25  C   UNL     1      -5.863  -0.506   0.970  1.00  0.00     0.040 A 
ATOM     26  C   UNL     1      -5.953   0.774   1.509  1.00  0.00     0.003 A 
ATOM     27  F   UNL     1      -4.695  -2.111  -0.279  1.00  0.00    -0.206 F 
ENDBRANCH  19  21
ENDBRANCH   4  15
TORSDOF 6
