MODEL        8USER    Run = 8USERUSER    Estimated Free Energy of Binding    =  -8.06 kcal/mol  [=(1)+(2)+(3)-(4)]USERUSER    (1) Final Intermolecular Energy     =  -9.85 kcal/molUSER        vdW + Hbond + desolv Energy     =  -9.34 kcal/molUSER        Electrostatic Energy            =  -0.51 kcal/molUSER        Moving Ligand-Fixed Receptor    =  -9.85 kcal/molUSER        Moving Ligand-Moving Receptor   =  +0.00 kcal/molUSER    (2) Final Total Internal Energy     =  -1.56 kcal/molUSER    (3) Torsional Free Energy           =  +1.79 kcal/molUSER    (4) Unbound System's Energy         =  -1.56 kcal/molUSERUSERREMARK SMILES COc1c(C(=O)O)cc(-c2cccc(-c3ccccc3F)c2)nc1OREMARK SMILES IDX 3 1 4 2 8 3 9 4 23 5 24 6 2 7 1 8 5 9 6 10 7 11 25 13 10 15REMARK SMILES IDX 11 16 22 17 12 18 14 19 13 20 15 21 16 22 20 23 17 24 19 25REMARK SMILES IDX 18 26 21 27REMARK H PARENT 7 12 25 14USER                              x       y       z     vdW  Elec       q    TypeUSER                           _______ _______ _______ _____ _____    ______ ____ROOTATOM      1  C   UNL     1       9.830 -12.200 -12.541 -0.24 -0.06    +0.195 A  ATOM      2  C   UNL     1      10.574 -11.118 -12.065 -0.45 -0.04    +0.109 A  ATOM      3  C   UNL     1      11.852 -11.297 -11.519 -0.38 -0.03    +0.049 A  ATOM      4  C   UNL     1      12.366 -12.581 -11.421 -0.31 -0.05    +0.075 A  ATOM      5  N   UNL     1      11.664 -13.653 -11.862 -0.23 +0.09    -0.210 NA ATOM      6  C   UNL     1      10.446 -13.434 -12.400 -0.17 -0.05    +0.256 A  ENDROOTBRANCH   1   7ATOM      7  O   UNL     1       8.630 -11.925 -13.126 +0.11 +0.10    -0.491 OA ATOM      8  C   UNL     1       8.380 -12.442 -14.426 -0.09 -0.16    +0.278 C  ENDBRANCH   1   7BRANCH   2   9ATOM      9  C   UNL     1      10.082  -9.731 -12.128 -0.41 -0.12    +0.339 C  ATOM     10  O   UNL     1      10.122  -8.931 -11.213 -1.54 -0.01    -0.246 OA BRANCH   9  11ATOM     11  O   UNL     1       9.454  -9.462 -13.284 -0.17 +0.38    -0.478 OA ATOM     12  H   UNL     1       9.701 -10.201 -13.876 -0.36 -0.50    +0.297 HD ENDBRANCH   9  11ENDBRANCH   2   9BRANCH   6  13ATOM     13  O   UNL     1       9.891 -14.599 -12.818 -0.47 -0.05    -0.491 OA ATOM     14  H   UNL     1       9.040 -14.264 -13.155 +0.18 +0.02    +0.295 HD ENDBRANCH   6  13BRANCH   4  15ATOM     15  C   UNL     1      13.694 -12.875 -10.848 -0.29 -0.00    +0.001 A  ATOM     16  C   UNL     1      14.587 -13.731 -11.513 -0.29 -0.00    +0.010 A  ATOM     17  C   UNL     1      14.117 -12.325  -9.621 -0.26 -0.01    +0.019 A  ATOM     18  C   UNL     1      15.850 -14.011 -10.990 -0.37 -0.00    +0.001 A  ATOM     19  C   UNL     1      15.385 -12.594  -9.068 -0.38 +0.01    -0.015 A  ATOM     20  C   UNL     1      16.244 -13.444  -9.779 -0.36 -0.00    +0.009 A  BRANCH  19  21ATOM     21  C   UNL     1      15.790 -12.009  -7.778 -0.42 -0.01    +0.017 A  ATOM     22  C   UNL     1      15.447 -10.684  -7.448 -0.55 -0.00    +0.012 A  ATOM     23  C   UNL     1      16.526 -12.738  -6.831 -0.32 -0.03    +0.131 A  ATOM     24  C   UNL     1      15.829 -10.121  -6.226 -0.55 -0.00    +0.001 A  ATOM     25  C   UNL     1      16.911 -12.182  -5.611 -0.46 -0.00    +0.040 A  ATOM     26  C   UNL     1      16.562 -10.870  -5.308 -0.48 -0.00    +0.003 A  ATOM     27  F   UNL     1      16.889 -14.005  -7.087 -0.11 +0.03    -0.206 F  ENDBRANCH  19  21ENDBRANCH   4  15TORSDOF 6TERENDMDL