MODEL        1USER    Run = 1USERUSER    Estimated Free Energy of Binding    =  -7.77 kcal/mol  [=(1)+(2)+(3)-(4)]USERUSER    (1) Final Intermolecular Energy     = -10.45 kcal/molUSER        vdW + Hbond + desolv Energy     = -10.52 kcal/molUSER        Electrostatic Energy            =  +0.07 kcal/molUSER        Moving Ligand-Fixed Receptor    = -10.45 kcal/molUSER        Moving Ligand-Moving Receptor   =  +0.00 kcal/molUSER    (2) Final Total Internal Energy     =  -1.57 kcal/molUSER    (3) Torsional Free Energy           =  +2.68 kcal/molUSER    (4) Unbound System's Energy         =  -1.57 kcal/molUSERUSERREMARK SMILES Nc1ccc(-c2cccc(Oc3ccccc3)c2)coc(C#C[C@@H](N)C=O)cn1REMARK SMILES IDX 22 1 21 2 2 3 3 4 29 5 4 6 28 7 5 8 19 9 20 10 1 11 6 14REMARK SMILES IDX 7 15 18 16 8 17 10 18 9 19 11 20 12 21 13 22 17 23 14 24REMARK SMILES IDX 16 25 15 26 23 27 24 28 25 29 26 32 27 33REMARK H PARENT 1 12 1 13 25 30 25 31USER                              x       y       z     vdW  Elec       q    TypeUSER                           _______ _______ _______ _____ _____    ______ ____ROOTATOM      1  C   UNL     1      13.504 -14.173 -11.210 -0.34 +0.01    -0.025 C  ENDROOTBRANCH   1   2ATOM      2  C   UNL     1      14.409 -15.275 -11.187 -0.16 -0.06    +0.194 A  ATOM      3  C   UNL     1      15.704 -18.147 -10.963 -0.32 -0.01    +0.123 A  ATOM      4  C   UNL     1      16.697 -17.856 -10.099 -0.30 +0.00    +0.047 A  ATOM      5  N   UNL     1      14.530 -17.752 -11.471 -0.24 +0.04    -0.235 NA ATOM      6  C   UNL     1      17.108 -16.893  -9.264 -0.36 -0.00    +0.016 A  ATOM      7  C   UNL     1      13.979 -16.531 -11.385 -0.22 -0.04    +0.170 A  ATOM      8  C   UNL     1      16.840 -15.600  -9.030 -0.36 -0.00    +0.017 A  ATOM      9  C   UNL     1      16.173 -14.743  -9.806 -0.22 -0.04    +0.205 A  ATOM     10  O   UNL     1      15.749 -15.000 -11.074 -0.07 +0.12    -0.454 OA BRANCH   3  11ATOM     11  N   UNL     1      15.826 -19.411 -11.551 -0.09 +0.01    -0.384 N  ATOM     12  H   UNL     1      16.386 -19.199 -12.378 +0.05 -0.02    +0.158 HD ATOM     13  H   UNL     1      14.917 -19.510 -12.006 -0.36 -0.03    +0.158 HD ENDBRANCH   3  11BRANCH   8  14ATOM     14  C   UNL     1      17.424 -15.002  -7.807 -0.39 +0.00    -0.012 A  ATOM     15  C   UNL     1      18.188 -15.785  -6.926 -0.42 +0.00    +0.009 A  ATOM     16  C   UNL     1      17.219 -13.647  -7.520 -0.35 -0.01    +0.056 A  ATOM     17  C   UNL     1      18.740 -15.221  -5.774 -0.47 +0.00    +0.004 A  ATOM     18  C   UNL     1      17.754 -13.095  -6.357 -0.33 -0.00    +0.128 A  ATOM     19  C   UNL     1      18.527 -13.872  -5.490 -0.45 +0.01    +0.047 A  BRANCH  18  20ATOM     20  O   UNL     1      17.551 -11.754  -6.126 -0.11 +0.02    -0.457 OA BRANCH  20  21ATOM     21  C   UNL     1      16.895 -11.049  -7.111 -0.32 -0.02    +0.127 A  ATOM     22  C   UNL     1      15.714 -10.405  -6.741 -0.57 -0.01    +0.047 A  ATOM     23  C   UNL     1      17.395 -10.905  -8.408 -0.32 -0.01    +0.047 A  ATOM     24  C   UNL     1      15.010  -9.646  -7.677 -0.67 -0.00    +0.004 A  ATOM     25  C   UNL     1      16.691 -10.143  -9.342 -0.54 -0.00    +0.004 A  ATOM     26  C   UNL     1      15.498  -9.518  -8.977 -0.67 -0.00    +0.000 A  ENDBRANCH  20  21ENDBRANCH  18  20ENDBRANCH   8  14ENDBRANCH   1   2BRANCH   1  27ATOM     27  C   UNL     1      12.733 -13.251 -11.250 -0.35 +0.04    -0.068 C  BRANCH  27  28ATOM     28  C   UNL     1      11.769 -12.154 -11.337 -0.33 -0.12    +0.192 C  BRANCH  28  29ATOM     29  N   UNL     1      12.375 -10.900 -10.867 -0.02 +0.18    -0.312 NA ATOM     30  H   UNL     1      12.371 -10.233 -11.639 -0.33 -0.05    +0.120 HD ATOM     31  H   UNL     1      11.756 -10.511 -10.154 -0.33 -0.06    +0.120 HD ENDBRANCH  28  29BRANCH  28  32ATOM     32  C   UNL     1      11.276 -12.014 -12.778 -0.28 -0.14    +0.256 C  ATOM     33  O   UNL     1      11.329 -10.991 -13.460 -0.28 +0.26    -0.301 OA ENDBRANCH  28  32ENDBRANCH  27  28ENDBRANCH   1  27TORSDOF 9TERENDMDL