MODEL        9USER    Run = 9USERUSER    Estimated Free Energy of Binding    =  -4.31 kcal/mol  [=(1)+(2)+(3)-(4)]USERUSER    (1) Final Intermolecular Energy     =  -7.89 kcal/molUSER        vdW + Hbond + desolv Energy     =  -7.96 kcal/molUSER        Electrostatic Energy            =  -0.17 kcal/molUSER        Moving Ligand-Fixed Receptor    =  -8.14 kcal/molUSER        Moving Ligand-Moving Receptor   =  +0.25 kcal/molUSER    (2) Final Total Internal Energy     =  -1.93 kcal/molUSER    (3) Torsional Free Energy           =  +3.58 kcal/molUSER    (4) Unbound System's Energy         =  -1.93 kcal/molUSERUSERREMARK SMILES NO[C@@]1(C(=O)Nc2cccc3ccccc23)C=CC=CC#CCC1REMARK SMILES IDX 3 1 2 2 1 3 4 6 6 7 5 8 7 10 8 11 16 12 9 13 15 14 11 15REMARK SMILES IDX 10 16 14 17 12 18 13 19 17 20 18 21 19 22 20 23 24 25 23 26REMARK SMILES IDX 22 27 21 28REMARK H PARENT 1 4 1 5 6 9REMARK Flexibility Score:   36.900USER                              x       y       z     vdW  Elec       q    TypeUSER                           _______ _______ _______ _____ _____    ______ ____ROOTATOM      1  C   UNL     1       2.042  -0.259  -9.338 -0.18 -0.02    +0.187 C  ENDROOTBRANCH   1   2ATOM      2  O   UNL     1       3.165  -0.842 -10.033 -0.14 +0.23    -0.284 OA BRANCH   2   3ATOM      3  N   UNL     1       3.891  -1.793  -9.187 -0.14 +0.21    -0.214 NA ATOM      4  H   UNL     1       3.728  -1.375  -8.263 -0.23 -0.12    +0.151 HD ATOM      5  H   UNL     1       4.858  -1.555  -9.420 -0.46 -0.36    +0.151 HD ENDBRANCH   2   3ENDBRANCH   1   2BRANCH   1   6ATOM      6  C   UNL     1       2.544   0.836  -8.322 -0.18 -0.04    +0.262 C  ATOM      7  N   UNL     1       3.931   0.963  -8.260 -0.15 +0.19    -0.323 N  ATOM      8  O   UNL     1       1.751   1.476  -7.630 -0.12 -0.01    -0.271 OA ATOM      9  H   UNL     1       4.458   0.283  -8.779 -0.48 -0.28    +0.170 HD BRANCH   7  10ATOM     10  C   UNL     1       4.703   1.882  -7.497 -0.39 -0.02    +0.049 A  ATOM     11  C   UNL     1       5.345   1.487  -6.317 -0.38 -0.00    +0.027 A  ATOM     12  C   UNL     1       4.807   3.245  -7.936 -0.37 -0.00    +0.005 A  ATOM     13  C   UNL     1       6.089   2.394  -5.566 -0.61 -0.00    +0.003 A  ATOM     14  C   UNL     1       4.206   3.777  -9.110 -0.35 -0.00    +0.011 A  ATOM     15  C   UNL     1       5.569   4.153  -7.150 -0.52 +0.00    -0.016 A  ATOM     16  C   UNL     1       6.200   3.715  -5.980 -0.50 -0.00    +0.009 A  ATOM     17  C   UNL     1       4.348   5.118  -9.481 -0.52 -0.00    +0.001 A  ATOM     18  C   UNL     1       5.702   5.497  -7.536 -0.55 +0.00    +0.009 A  ATOM     19  C   UNL     1       5.096   5.978  -8.693 -0.61 +0.00    +0.001 A  ENDBRANCH   7  10ENDBRANCH   1   6BRANCH   1  20ATOM     20  C   UNL     1       1.168   0.471 -10.358 -0.15 +0.00    +0.020 C  BRANCH  20  21ATOM     21  C   UNL     1       1.574   0.933 -11.558 -0.15 +0.00    -0.000 C  BRANCH  21  22ATOM     22  C   UNL     1       1.199   0.216 -12.774 -0.11 -0.00    +0.009 C  BRANCH  22  23ATOM     23  C   UNL     1       1.550  -1.075 -12.963 -0.09 -0.01    +0.060 CG0ATOM     24  G   UNL     1       1.218  -2.049 -11.968 +0.00 +0.00    +0.000 G0 ENDBRANCH  22  23ENDBRANCH  21  22ENDBRANCH  20  21ENDBRANCH   1  20BRANCH   1  25ATOM     25  C   UNL     1       1.176  -1.379  -8.653 -0.17 +0.03    +0.065 C  BRANCH  25  26ATOM     26  C   UNL     1       1.022  -2.720  -9.418 -0.14 +0.04    +0.094 C  BRANCH  26  27ATOM     27  C   UNL     1       1.134  -2.550 -10.877 -0.17 -0.02    -0.098 C  BRANCH  27  28ATOM     28  C   UNL     1       1.219  -2.052 -11.968 -0.09 -0.00    -0.075 CG0ATOM     29  G   UNL     1       1.551  -1.078 -12.964 +0.00 +0.00    +0.000 G0 ENDBRANCH  27  28ENDBRANCH  26  27ENDBRANCH  25  26ENDBRANCH   1  25TORSDOF 4TERENDMDL