MODEL        1USER    Run = 1USERUSER    Estimated Free Energy of Binding    =  -9.11 kcal/mol  [=(1)+(2)+(3)-(4)]USERUSER    (1) Final Intermolecular Energy     =  -9.71 kcal/molUSER        vdW + Hbond + desolv Energy     =  -9.70 kcal/molUSER        Electrostatic Energy            =  -0.00 kcal/molUSER        Moving Ligand-Fixed Receptor    =  -9.71 kcal/molUSER        Moving Ligand-Moving Receptor   =  +0.00 kcal/molUSER    (2) Final Total Internal Energy     =  -1.36 kcal/molUSER    (3) Torsional Free Energy           =  +0.60 kcal/molUSER    (4) Unbound System's Energy         =  -1.36 kcal/molUSERUSERREMARK SMILES Clc1ccc(-c2cc3nccnn3c2-c2ccnc3[nH]ccc23)cc1REMARK SMILES IDX 6 1 7 2 8 3 9 4 10 5 11 6 12 7 13 8 14 9 5 10 2 11 3 12REMARK SMILES IDX 25 13 4 14 24 15 1 16 15 17 16 18 23 19 17 20 22 21 19 22REMARK SMILES IDX 18 23 21 24 20 25REMARK H PARENT 20 26USER                              x       y       z     vdW  Elec       q    TypeUSER                           _______ _______ _______ _____ _____    ______ ____ROOTATOM      1  C   UNL     1      17.226 -14.183  -8.015 -0.38 -0.00    +0.012 A  ATOM      2  C   UNL     1      18.095 -15.193  -7.519 -0.38 +0.00    +0.060 A  ATOM      3  C   UNL     1      18.605 -14.774  -6.311 -0.34 +0.02    +0.154 A  ATOM      4  N   UNL     1      19.474 -15.388  -5.459 -0.30 -0.09    -0.235 NA ATOM      5  C   UNL     1      19.750 -14.707  -4.394 -0.49 +0.07    +0.135 A  ATOM      6  C   UNL     1      19.161 -13.353  -4.131 -0.40 +0.04    +0.154 A  ATOM      7  N   UNL     1      18.340 -12.764  -4.940 -0.37 -0.03    -0.173 NA ATOM      8  N   UNL     1      18.065 -13.519  -6.050 -0.29 -0.01    -0.214 N  ATOM      9  C   UNL     1      17.204 -13.154  -7.074 -0.34 -0.01    +0.083 A  ENDROOTBRANCH   1  10ATOM     10  C   UNL     1      16.468 -14.202  -9.258 -0.35 +0.00    -0.016 A  ATOM     11  C   UNL     1      14.980 -14.240 -11.628 -0.31 -0.01    +0.041 A  ATOM     12  C   UNL     1      16.370 -14.304 -11.683 -0.45 -0.01    +0.021 A  ATOM     13  C   UNL     1      14.324 -14.166 -10.402 -0.31 -0.01    +0.021 A  ATOM     14  C   UNL     1      17.112 -14.289 -10.499 -0.41 -0.00    +0.010 A  ATOM     15  C   UNL     1      15.068 -14.149  -9.218 -0.35 -0.00    +0.010 A  ATOM     16  Cl  UNL     1      14.064 -14.258 -13.085 -0.44 +0.04    -0.084 Cl ENDBRANCH   1  10BRANCH   9  17ATOM     17  C   UNL     1      16.447 -11.903  -7.042 -0.43 -0.00    +0.013 A  ATOM     18  C   UNL     1      15.622 -11.557  -5.967 -0.50 -0.01    +0.031 A  ATOM     19  C   UNL     1      16.546 -10.996  -8.117 -0.46 -0.01    +0.028 A  ATOM     20  C   UNL     1      14.952 -10.344  -6.002 -0.30 -0.06    +0.114 A  ATOM     21  C   UNL     1      17.216 -10.939  -9.374 -0.41 -0.01    +0.030 A  ATOM     22  C   UNL     1      15.818  -9.815  -8.008 -0.55 -0.04    +0.137 A  ATOM     23  N   UNL     1      15.019  -9.430  -6.996 -0.54 +0.10    -0.239 NA ATOM     24  C   UNL     1      16.892  -9.742  -9.974 -0.34 -0.02    +0.085 A  ATOM     25  N   UNL     1      16.044  -9.070  -9.133 -0.37 +0.09    -0.346 N  ATOM     26  H   UNL     1      15.629  -8.165  -9.293 +0.11 -0.05    +0.167 HD ENDBRANCH   9  17TORSDOF 2TERENDMDL