REMARK SMILES Clc1ccc(-c2cc3nccnn3c2-c2ccnc3[nH]ccc23)cc1
REMARK SMILES IDX 6 1 7 2 8 3 9 4 10 5 11 6 12 7 13 8 14 9 5 10 2 11 3 12
REMARK SMILES IDX 25 13 4 14 24 15 1 16 15 17 16 18 23 19 17 20 22 21 19 22
REMARK SMILES IDX 18 23 21 24 20 25
REMARK H PARENT 20 26
ROOT
ATOM      1  C   UNL     1       1.246   0.773   0.122  1.00  0.00     0.012 A 
ATOM      2  C   UNL     1       1.875   1.888   0.739  1.00  0.00     0.060 A 
ATOM      3  C   UNL     1       0.932   2.875   0.919  1.00  0.00     0.154 A 
ATOM      4  N   UNL     1       1.049   4.119   1.463  1.00  0.00    -0.235 NA
ATOM      5  C   UNL     1      -0.050   4.802   1.480  1.00  0.00     0.135 A 
ATOM      6  C   UNL     1      -1.340   4.261   0.937  1.00  0.00     0.154 A 
ATOM      7  N   UNL     1      -1.454   3.082   0.415  1.00  0.00    -0.173 NA
ATOM      8  N   UNL     1      -0.273   2.387   0.424  1.00  0.00    -0.214 N 
ATOM      9  C   UNL     1      -0.100   1.095  -0.048  1.00  0.00     0.083 A 
ENDROOT
BRANCH   1  10
ATOM     10  C   UNL     1       1.861  -0.493  -0.252  1.00  0.00    -0.016 A 
ATOM     11  C   UNL     1       3.062  -2.926  -0.939  1.00  0.00     0.041 A 
ATOM     12  C   UNL     1       2.276  -2.255  -1.872  1.00  0.00     0.021 A 
ATOM     13  C   UNL     1       3.262  -2.391   0.331  1.00  0.00     0.021 A 
ATOM     14  C   UNL     1       1.680  -1.038  -1.530  1.00  0.00     0.010 A 
ATOM     15  C   UNL     1       2.664  -1.174   0.673  1.00  0.00     0.010 A 
ATOM     16  Cl  UNL     1       3.796  -4.425  -1.359  1.00  0.00    -0.084 Cl
ENDBRANCH   1  10
BRANCH   9  17
ATOM     17  C   UNL     1      -1.213   0.308  -0.579  1.00  0.00     0.013 A 
ATOM     18  C   UNL     1      -1.914   0.687  -1.728  1.00  0.00     0.031 A 
ATOM     19  C   UNL     1      -1.603  -0.881   0.070  1.00  0.00     0.028 A 
ATOM     20  C   UNL     1      -2.945  -0.122  -2.180  1.00  0.00     0.114 A 
ATOM     21  C   UNL     1      -1.210  -1.613   1.229  1.00  0.00     0.030 A 
ATOM     22  C   UNL     1      -2.653  -1.592  -0.504  1.00  0.00     0.137 A 
ATOM     23  N   UNL     1      -3.353  -1.278  -1.610  1.00  0.00    -0.239 NA
ATOM     24  C   UNL     1      -2.010  -2.732   1.316  1.00  0.00     0.085 A 
ATOM     25  N   UNL     1      -2.879  -2.706   0.257  1.00  0.00    -0.346 N 
ATOM     26  H   UNL     1      -3.592  -3.388   0.046  1.00  0.00     0.167 HD
ENDBRANCH   9  17
TORSDOF 2
