REMARK SMILES CN1CCN(S(=O)(=O)Nc2nccc3ccc(C(F)(F)F)cc23)CC1
REMARK SMILES IDX 9 1 6 3 7 4 8 5 5 6 2 7 3 8 25 9 4 10 24 11 1 12 10 13 11 14
REMARK SMILES IDX 23 15 12 16 22 17 14 18 13 19 17 20 15 21 16 22 18 23 19 24
REMARK SMILES IDX 20 25 21 26
REMARK H PARENT 9 2
ROOT
ATOM      1  N   UNL     1      -0.305   1.751   0.332  1.00  0.00    -0.254 N 
ATOM      2  H   UNL     1      -0.871   2.407   0.858  1.00  0.00     0.183 HD
ENDROOT
BRANCH   1   3
ATOM      3  S   UNL     1       0.607   0.854   1.411  1.00  0.00     0.302 S 
ATOM      4  O   UNL     1       1.319   1.802   2.238  1.00  0.00    -0.189 OA
ATOM      5  O   UNL     1      -0.248  -0.136   2.024  1.00  0.00    -0.189 OA
BRANCH   3   6
ATOM      6  N   UNL     1       1.722   0.076   0.430  1.00  0.00    -0.182 NA
ATOM      7  N   UNL     1       4.245  -0.965  -0.739  1.00  0.00    -0.304 NA
ATOM      8  C   UNL     1       3.483   0.160  -1.327  1.00  0.00     0.101 C 
ATOM      9  C   UNL     1       3.329  -1.792   0.077  1.00  0.00     0.101 C 
ATOM     10  C   UNL     1       2.642   0.977  -0.325  1.00  0.00     0.119 C 
ATOM     11  C   UNL     1       2.476  -1.018   1.104  1.00  0.00     0.119 C 
ATOM     12  C   UNL     1       5.389  -0.496   0.040  1.00  0.00     0.105 C 
ENDBRANCH   3   6
ENDBRANCH   1   3
BRANCH   1  13
ATOM     13  C   UNL     1      -1.071   0.989  -0.593  1.00  0.00     0.148 A 
ATOM     14  N   UNL     1      -0.417   0.795  -1.756  1.00  0.00    -0.238 NA
ATOM     15  C   UNL     1      -2.368   0.503  -0.307  1.00  0.00     0.026 A 
ATOM     16  C   UNL     1      -1.050   0.071  -2.697  1.00  0.00     0.114 A 
ATOM     17  C   UNL     1      -3.081   0.707   0.903  1.00  0.00     0.025 A 
ATOM     18  C   UNL     1      -2.992  -0.243  -1.330  1.00  0.00    -0.013 A 
ATOM     19  C   UNL     1      -2.316  -0.460  -2.535  1.00  0.00     0.029 A 
ATOM     20  C   UNL     1      -4.376   0.195   1.096  1.00  0.00     0.056 A 
ATOM     21  C   UNL     1      -4.282  -0.762  -1.131  1.00  0.00     0.009 A 
ATOM     22  C   UNL     1      -4.965  -0.546   0.068  1.00  0.00     0.014 A 
BRANCH  20  23
ATOM     23  C   UNL     1      -5.101   0.406   2.404  1.00  0.00     0.416 C 
ATOM     24  F   UNL     1      -6.451   0.504   2.250  1.00  0.00    -0.166 F 
ATOM     25  F   UNL     1      -4.720   1.546   3.045  1.00  0.00    -0.166 F 
ATOM     26  F   UNL     1      -4.896  -0.610   3.285  1.00  0.00    -0.166 F 
ENDBRANCH  20  23
ENDBRANCH   1  13
TORSDOF 4
