MODEL        5USER    Run = 5USERUSER    Estimated Free Energy of Binding    =  -9.93 kcal/mol  [=(1)+(2)+(3)-(4)]USERUSER    (1) Final Intermolecular Energy     = -11.42 kcal/molUSER        vdW + Hbond + desolv Energy     = -11.37 kcal/molUSER        Electrostatic Energy            =  -0.05 kcal/molUSER        Moving Ligand-Fixed Receptor    = -11.42 kcal/molUSER        Moving Ligand-Moving Receptor   =  +0.00 kcal/molUSER    (2) Final Total Internal Energy     =  -1.03 kcal/molUSER    (3) Torsional Free Energy           =  +1.49 kcal/molUSER    (4) Unbound System's Energy         =  -1.03 kcal/molUSERUSERREMARK SMILES N#Cc1[nH]c(=O)c(-c2ccc(-c3cccnc3)cc2)nc1CN1CCOCC1REMARK SMILES IDX 3 1 4 2 5 3 6 4 7 5 20 6 21 7 2 9 1 10 22 11 23 12 24 13REMARK SMILES IDX 28 14 25 15 27 16 26 17 8 18 9 19 19 20 10 21 18 22 11 23REMARK SMILES IDX 12 24 13 25 17 26 14 27 16 28 15 29REMARK H PARENT 4 8USER                              x       y       z     vdW  Elec       q    TypeUSER                           _______ _______ _______ _____ _____    ______ ____ROOTATOM      1  C   UNL     1      40.394  48.382  15.553 -0.46 -0.03    +0.143 A  ATOM      2  N   UNL     1      41.269  47.856  16.472 -0.20 +0.03    -0.310 N  ATOM      3  C   UNL     1      40.864  47.025  17.484 -0.29 -0.03    +0.275 A  ATOM      4  O   UNL     1      41.633  46.613  18.336 -0.39 +0.00    -0.267 OA ATOM      5  C   UNL     1      39.365  46.676  17.463 -0.34 -0.03    +0.136 A  ATOM      6  N   UNL     1      38.562  47.197  16.573 -0.25 +0.10    -0.243 NA ATOM      7  C   UNL     1      39.084  48.060  15.624 -0.44 -0.04    +0.090 A  ATOM      8  H   UNL     1      42.248  48.113  16.456 -0.40 +0.01    +0.171 HD ENDROOTBRANCH   1   9ATOM      9  C   UNL     1      40.926  49.262  14.559 -0.59 -0.03    +0.119 C  ATOM     10  N   UNL     1      41.404  49.951  13.757 -0.47 +0.05    -0.191 NA ENDBRANCH   1   9BRANCH   7  11ATOM     11  C   UNL     1      38.059  48.613  14.635 -0.45 -0.09    +0.144 C  BRANCH  11  12ATOM     12  N   UNL     1      37.869  47.740  13.467 -0.58 +0.09    -0.293 NA ATOM     13  C   UNL     1      36.591  47.987  12.762 -0.60 -0.05    +0.113 C  ATOM     14  C   UNL     1      37.977  46.318  13.864 -0.42 -0.04    +0.113 C  ATOM     15  C   UNL     1      35.491  46.973  13.112 -0.46 -0.12    +0.175 C  ATOM     16  C   UNL     1      37.271  45.391  12.866 -0.38 -0.06    +0.175 C  ATOM     17  O   UNL     1      35.856  45.618  12.813 -0.24 +0.18    -0.379 OA ENDBRANCH  11  12ENDBRANCH   7  11BRANCH   5  18ATOM     18  C   UNL     1      38.800  45.739  18.478 -0.39 -0.00    +0.006 A  ATOM     19  C   UNL     1      39.483  45.574  19.689 -0.38 -0.00    +0.011 A  ATOM     20  C   UNL     1      37.598  45.055  18.282 -0.36 -0.00    +0.011 A  ATOM     21  C   UNL     1      38.983  44.718  20.678 -0.35 +0.00    +0.009 A  ATOM     22  C   UNL     1      37.101  44.200  19.274 -0.36 -0.00    +0.009 A  ATOM     23  C   UNL     1      37.785  44.014  20.487 -0.35 +0.00    -0.017 A  BRANCH  23  24ATOM     24  C   UNL     1      37.259  43.115  21.525 -0.41 -0.00    -0.000 A  ATOM     25  C   UNL     1      37.374  43.409  22.888 -0.37 +0.00    +0.012 A  ATOM     26  C   UNL     1      36.616  41.916  21.206 -0.43 +0.00    +0.119 A  ATOM     27  C   UNL     1      36.866  42.531  23.846 -0.40 +0.00    +0.021 A  ATOM     28  N   UNL     1      36.114  41.040  22.111 -0.36 -0.01    -0.264 NA ATOM     29  C   UNL     1      36.252  41.370  23.411 -0.24 -0.00    +0.111 A  ENDBRANCH  23  24ENDBRANCH   5  18TORSDOF 5TERENDMDL