MODEL        2USER    Run = 2USERUSER    Estimated Free Energy of Binding    =  -7.89 kcal/mol  [=(1)+(2)+(3)-(4)]USERUSER    (1) Final Intermolecular Energy     =  -9.09 kcal/molUSER        vdW + Hbond + desolv Energy     =  -9.01 kcal/molUSER        Electrostatic Energy            =  -0.07 kcal/molUSER        Moving Ligand-Fixed Receptor    =  -9.09 kcal/molUSER        Moving Ligand-Moving Receptor   =  +0.00 kcal/molUSER    (2) Final Total Internal Energy     =  -1.01 kcal/molUSER    (3) Torsional Free Energy           =  +1.19 kcal/molUSER    (4) Unbound System's Energy         =  -1.01 kcal/molUSERUSERREMARK SMILES CN1CCN(S(=O)(=O)Nc2nccc3ccc(C(F)(F)F)cc23)CC1REMARK SMILES IDX 9 1 6 3 7 4 8 5 5 6 2 7 3 8 25 9 4 10 24 11 1 12 10 13 11 14REMARK SMILES IDX 23 15 12 16 22 17 14 18 13 19 17 20 15 21 16 22 18 23 19 24REMARK SMILES IDX 20 25 21 26REMARK H PARENT 9 2USER                              x       y       z     vdW  Elec       q    TypeUSER                           _______ _______ _______ _____ _____    ______ ____ROOTATOM      1  N   UNL     1      36.418  45.793  17.456 -0.19 +0.12    -0.254 N  ATOM      2  H   UNL     1      36.297  46.787  17.301 +0.11 -0.14    +0.183 HD ENDROOTBRANCH   1   3ATOM      3  S   UNL     1      36.259  45.004  15.989 -0.30 -0.14    +0.302 S  ATOM      4  O   UNL     1      37.299  44.001  15.944 -0.30 +0.06    -0.189 OA ATOM      5  O   UNL     1      34.877  44.616  15.822 -0.26 +0.10    -0.189 OA BRANCH   3   6ATOM      6  N   UNL     1      36.629  46.191  14.864 -0.25 +0.10    -0.182 NA ATOM      7  N   UNL     1      37.250  47.621  12.337 -0.97 +0.06    -0.304 NA ATOM      8  C   UNL     1      38.270  47.309  13.364 -0.40 -0.02    +0.101 C  ATOM      9  C   UNL     1      35.917  47.650  12.977 -0.52 -0.06    +0.101 C  ATOM     10  C   UNL     1      37.973  46.066  14.227 -0.40 -0.04    +0.119 C  ATOM     11  C   UNL     1      35.570  46.419  13.841 -0.44 -0.08    +0.119 C  ATOM     12  C   UNL     1      37.295  46.675  11.224 -0.47 -0.03    +0.105 C  ENDBRANCH   3   6ENDBRANCH   1   3BRANCH   1  13ATOM     13  C   UNL     1      37.606  45.494  18.179 -0.24 -0.03    +0.148 A  ATOM     14  N   UNL     1      37.408  44.539  19.110 -0.21 +0.03    -0.238 NA ATOM     15  C   UNL     1      38.841  46.138  17.934 -0.38 -0.01    +0.026 A  ATOM     16  C   UNL     1      38.475  44.171  19.841 -0.23 -0.00    +0.114 A  ATOM     17  C   UNL     1      39.070  47.154  16.971 -0.39 -0.01    +0.025 A  ATOM     18  C   UNL     1      39.928  45.722  18.734 -0.44 +0.00    -0.013 A  ATOM     19  C   UNL     1      39.734  44.723  19.694 -0.37 -0.00    +0.029 A  ATOM     20  C   UNL     1      40.333  47.748  16.805 -0.49 -0.01    +0.056 A  ATOM     21  C   UNL     1      41.191  46.310  18.559 -0.50 -0.00    +0.009 A  ATOM     22  C   UNL     1      41.391  47.310  17.605 -0.44 -0.00    +0.014 A  BRANCH  20  23ATOM     23  C   UNL     1      40.553  48.810  15.753 -0.31 -0.10    +0.416 C  ATOM     24  F   UNL     1      39.406  49.460  15.410 -0.14 +0.10    -0.166 F  ATOM     25  F   UNL     1      41.054  48.310  14.589 -0.19 +0.02    -0.166 F  ATOM     26  F   UNL     1      41.424  49.773  16.157 -0.26 +0.01    -0.166 F  ENDBRANCH  20  23ENDBRANCH   1  13TORSDOF 4TERENDMDL