MODEL        8USER    Run = 8USERUSER    Estimated Free Energy of Binding    =  -9.39 kcal/mol  [=(1)+(2)+(3)-(4)]USERUSER    (1) Final Intermolecular Energy     = -11.18 kcal/molUSER        vdW + Hbond + desolv Energy     = -11.07 kcal/molUSER        Electrostatic Energy            =  -0.11 kcal/molUSER        Moving Ligand-Fixed Receptor    = -11.18 kcal/molUSER        Moving Ligand-Moving Receptor   =  +0.00 kcal/molUSER    (2) Final Total Internal Energy     =  -2.32 kcal/molUSER    (3) Torsional Free Energy           =  +1.79 kcal/molUSER    (4) Unbound System's Energy         =  -2.32 kcal/molUSERUSERREMARK SMILES Cc1nc(-c2cccc(-c3cc(NC(F)=C4[CH]C[C@@H](O)C4)ccc3F)c2)no1REMARK SMILES IDX 13 1 12 3 10 4 11 5 24 6 23 7 22 8 25 9 9 10 5 11 6 12 26 13REMARK SMILES IDX 7 14 8 15 4 16 2 17 3 18 28 19 27 20 1 21 14 22 15 23 16 24REMARK SMILES IDX 17 25 21 26 18 27 19 28 20 29REMARK H PARENT 13 2 20 30USER                              x       y       z     vdW  Elec       q    TypeUSER                           _______ _______ _______ _____ _____    ______ ____ROOTATOM      1  N   UNL     1      37.699  43.907  20.155 -0.14 +0.01    -0.332 N  ATOM      2  H   UNL     1      37.863  43.149  20.802 +0.11 +0.00    +0.169 HD ENDROOTBRANCH   1   3ATOM      3  C   UNL     1      38.845  44.629  19.782 -0.34 -0.00    +0.041 A  ATOM      4  C   UNL     1      40.065  46.235  18.360 -0.45 -0.00    +0.020 A  ATOM      5  C   UNL     1      38.902  45.502  18.684 -0.39 -0.00    +0.038 A  ATOM      6  C   UNL     1      41.181  46.076  19.191 -0.37 +0.01    +0.131 A  ATOM      7  C   UNL     1      41.153  45.227  20.290 -0.35 +0.00    +0.042 A  ATOM      8  C   UNL     1      39.992  44.513  20.584 -0.32 +0.00    +0.029 A  ATOM      9  F   UNL     1      42.319  46.740  18.937 -0.17 -0.02    -0.206 F  BRANCH   4  10ATOM     10  C   UNL     1      40.088  47.132  17.189 -0.49 +0.00    -0.015 A  ATOM     11  C   UNL     1      39.139  47.858  15.041 -0.50 -0.01    +0.023 A  ATOM     12  C   UNL     1      40.122  48.853  14.956 -0.57 -0.00    +0.012 A  ATOM     13  C   UNL     1      39.134  47.008  16.161 -0.44 -0.01    +0.021 A  ATOM     14  C   UNL     1      41.076  48.993  15.961 -0.61 -0.00    +0.001 A  ATOM     15  C   UNL     1      41.059  48.140  17.067 -0.53 -0.00    +0.009 A  BRANCH  11  16ATOM     16  C   UNL     1      38.145  47.716  13.983 -0.35 -0.07    +0.202 A  ATOM     17  C   UNL     1      36.916  46.806  12.542 -0.45 -0.08    +0.223 A  ATOM     18  N   UNL     1      37.826  46.490  13.432 -0.33 +0.06    -0.191 NA ATOM     19  O   UNL     1      36.643  48.139  12.497 -0.95 +0.12    -0.339 OA ATOM     20  N   UNL     1      37.457  48.742  13.453 -0.76 +0.02    -0.057 NA ATOM     21  C   UNL     1      36.168  45.947  11.609 -0.39 -0.05    +0.114 C  ENDBRANCH  11  16ENDBRANCH   4  10ENDBRANCH   1   3BRANCH   1  22ATOM     22  C   UNL     1      36.404  44.013  19.706 -0.32 -0.02    +0.191 C  ATOM     23  F   UNL     1      35.393  43.791  20.578 -0.13 +0.00    -0.187 F  BRANCH  22  24ATOM     24  C   UNL     1      36.046  44.285  18.439 -0.39 +0.00    -0.011 C  ATOM     25  C   UNL     1      35.648  45.589  17.961 -0.40 -0.01    +0.030 C  ATOM     26  C   UNL     1      36.008  43.333  17.273 -0.34 -0.02    +0.067 C  ATOM     27  C   UNL     1      35.389  45.555  16.492 -0.36 -0.03    +0.041 C  ATOM     28  C   UNL     1      36.036  44.246  16.043 -0.34 -0.05    +0.119 C  BRANCH  28  29ATOM     29  O   UNL     1      37.380  44.493  15.624 -0.15 +0.13    -0.393 OA ATOM     30  H   UNL     1      37.366  45.235  14.997 +0.15 -0.08    +0.210 HD ENDBRANCH  28  29ENDBRANCH  22  24ENDBRANCH   1  22TORSDOF 6TERENDMDL