REMARK SMILES Cc1nc(-c2cccc(-c3cc(NC(F)=C4[CH]C[C@@H](O)C4)ccc3F)c2)no1
REMARK SMILES IDX 13 1 12 3 10 4 11 5 24 6 23 7 22 8 25 9 9 10 5 11 6 12 26 13
REMARK SMILES IDX 7 14 8 15 4 16 2 17 3 18 28 19 27 20 1 21 14 22 15 23 16 24
REMARK SMILES IDX 17 25 21 26 18 27 19 28 20 29
REMARK H PARENT 13 2 20 30
ROOT
ATOM      1  N   UNL     1      -2.916   0.458  -0.753  1.00  0.00    -0.332 N 
ATOM      2  H   UNL     1      -3.779   0.971  -0.865  1.00  0.00     0.169 HD
ENDROOT
BRANCH   1   3
ATOM      3  C   UNL     1      -1.869   0.863  -1.598  1.00  0.00     0.041 A 
ATOM      4  C   UNL     1       0.483   0.853  -2.343  1.00  0.00     0.020 A 
ATOM      5  C   UNL     1      -0.536   0.449  -1.453  1.00  0.00     0.038 A 
ATOM      6  C   UNL     1       0.117   1.686  -3.408  1.00  0.00     0.131 A 
ATOM      7  C   UNL     1      -1.196   2.105  -3.584  1.00  0.00     0.042 A 
ATOM      8  C   UNL     1      -2.181   1.693  -2.687  1.00  0.00     0.029 A 
ATOM      9  F   UNL     1       1.037   2.110  -4.288  1.00  0.00    -0.206 F 
BRANCH   4  10
ATOM     10  C   UNL     1       1.875   0.406  -2.148  1.00  0.00    -0.015 A 
ATOM     11  C   UNL     1       3.838   0.120  -0.697  1.00  0.00     0.023 A 
ATOM     12  C   UNL     1       4.532  -0.458  -1.768  1.00  0.00     0.012 A 
ATOM     13  C   UNL     1       2.514   0.546  -0.901  1.00  0.00     0.021 A 
ATOM     14  C   UNL     1       3.920  -0.605  -3.011  1.00  0.00     0.001 A 
ATOM     15  C   UNL     1       2.604  -0.176  -3.198  1.00  0.00     0.009 A 
BRANCH  11  16
ATOM     16  C   UNL     1       4.487   0.273   0.601  1.00  0.00     0.202 A 
ATOM     17  C   UNL     1       5.966   0.171   2.090  1.00  0.00     0.223 A 
ATOM     18  N   UNL     1       5.783  -0.145   0.830  1.00  0.00    -0.191 NA
ATOM     19  O   UNL     1       4.879   0.756   2.664  1.00  0.00    -0.339 OA
ATOM     20  N   UNL     1       3.899   0.824   1.677  1.00  0.00    -0.057 NA
ATOM     21  C   UNL     1       7.148  -0.013   2.948  1.00  0.00     0.114 C 
ENDBRANCH  11  16
ENDBRANCH   4  10
ENDBRANCH   1   3
BRANCH   1  22
ATOM     22  C   UNL     1      -2.921  -0.465   0.266  1.00  0.00     0.191 C 
ATOM     23  F   UNL     1      -1.829  -1.246   0.441  1.00  0.00    -0.187 F 
BRANCH  22  24
ATOM     24  C   UNL     1      -3.952  -0.692   1.098  1.00  0.00    -0.011 C 
ATOM     25  C   UNL     1      -3.951  -1.675   2.156  1.00  0.00     0.030 C 
ATOM     26  C   UNL     1      -5.277   0.022   1.130  1.00  0.00     0.067 C 
ATOM     27  C   UNL     1      -5.223  -1.613   2.935  1.00  0.00     0.041 C 
ATOM     28  C   UNL     1      -5.825  -0.268   2.531  1.00  0.00     0.119 C 
BRANCH  28  29
ATOM     29  O   UNL     1      -5.413   0.740   3.457  1.00  0.00    -0.393 OA
ATOM     30  H   UNL     1      -5.750   1.594   3.140  1.00  0.00     0.210 HD
ENDBRANCH  28  29
ENDBRANCH  22  24
ENDBRANCH   1  22
TORSDOF 6
