REMARK SMILES N#Cc1[nH]c(=O)c(-c2ccc(-c3cccnc3)cc2)nc1CN1CCOCC1
REMARK SMILES IDX 3 1 4 2 5 3 6 4 7 5 20 6 21 7 2 9 1 10 22 11 23 12 24 13
REMARK SMILES IDX 28 14 25 15 27 16 26 17 8 18 9 19 19 20 10 21 18 22 11 23
REMARK SMILES IDX 12 24 13 25 17 26 14 27 16 28 15 29
REMARK H PARENT 4 8
ROOT
ATOM      1  C   UNL     1      -2.449  -2.709  -0.555  1.00  0.00     0.143 A 
ATOM      2  N   UNL     1      -1.425  -3.332  -1.226  1.00  0.00    -0.310 N 
ATOM      3  C   UNL     1      -0.146  -2.839  -1.242  1.00  0.00     0.275 A 
ATOM      4  O   UNL     1       0.745  -3.360  -1.891  1.00  0.00    -0.267 OA
ATOM      5  C   UNL     1       0.061  -1.573  -0.392  1.00  0.00     0.136 A 
ATOM      6  N   UNL     1      -0.938  -1.006   0.232  1.00  0.00    -0.243 NA
ATOM      7  C   UNL     1      -2.197  -1.577   0.137  1.00  0.00     0.090 A 
ATOM      8  H   UNL     1      -1.601  -4.162  -1.778  1.00  0.00     0.171 HD
ENDROOT
BRANCH   1   9
ATOM      9  C   UNL     1      -3.749  -3.299  -0.634  1.00  0.00     0.119 C 
ATOM     10  N   UNL     1      -4.781  -3.826  -0.700  1.00  0.00    -0.191 NA
ENDBRANCH   1   9
BRANCH   7  11
ATOM     11  C   UNL     1      -3.291  -0.834   0.901  1.00  0.00     0.144 C 
BRANCH  11  12
ATOM     12  N   UNL     1      -4.196  -0.088   0.014  1.00  0.00    -0.293 NA
ATOM     13  C   UNL     1      -3.575   1.131  -0.553  1.00  0.00     0.113 C 
ATOM     14  C   UNL     1      -5.450   0.250   0.724  1.00  0.00     0.113 C 
ATOM     15  C   UNL     1      -3.982   2.422   0.174  1.00  0.00     0.175 C 
ATOM     16  C   UNL     1      -6.166   1.446   0.082  1.00  0.00     0.175 C 
ATOM     17  O   UNL     1      -5.397   2.654   0.165  1.00  0.00    -0.379 OA
ENDBRANCH  11  12
ENDBRANCH   7  11
BRANCH   5  18
ATOM     18  C   UNL     1       1.417  -0.960  -0.279  1.00  0.00     0.006 A 
ATOM     19  C   UNL     1       1.510   0.419  -0.055  1.00  0.00     0.011 A 
ATOM     20  C   UNL     1       2.591  -1.714  -0.346  1.00  0.00     0.011 A 
ATOM     21  C   UNL     1       2.760   1.037   0.074  1.00  0.00     0.009 A 
ATOM     22  C   UNL     1       3.839  -1.092  -0.216  1.00  0.00     0.009 A 
ATOM     23  C   UNL     1       3.947   0.293  -0.007  1.00  0.00    -0.017 A 
BRANCH  23  24
ATOM     24  C   UNL     1       5.260   0.940   0.128  1.00  0.00    -0.000 A 
ATOM     25  C   UNL     1       6.229   0.471   1.023  1.00  0.00     0.012 A 
ATOM     26  C   UNL     1       5.613   2.060  -0.629  1.00  0.00     0.119 A 
ATOM     27  C   UNL     1       7.463   1.112   1.128  1.00  0.00     0.021 A 
ATOM     28  N   UNL     1       6.801   2.707  -0.550  1.00  0.00    -0.264 NA
ATOM     29  C   UNL     1       7.699   2.216   0.328  1.00  0.00     0.111 A 
ENDBRANCH  23  24
ENDBRANCH   5  18
TORSDOF 5
