MODEL        6USER    Run = 6USERUSER    Estimated Free Energy of Binding    =  -9.47 kcal/mol  [=(1)+(2)+(3)-(4)]USERUSER    (1) Final Intermolecular Energy     = -11.86 kcal/molUSER        vdW + Hbond + desolv Energy     = -11.54 kcal/molUSER        Electrostatic Energy            =  -0.32 kcal/molUSER        Moving Ligand-Fixed Receptor    = -11.86 kcal/molUSER        Moving Ligand-Moving Receptor   =  +0.00 kcal/molUSER    (2) Final Total Internal Energy     =  -1.98 kcal/molUSER    (3) Torsional Free Energy           =  +2.39 kcal/molUSER    (4) Unbound System's Energy         =  -1.98 kcal/molUSERUSERREMARK SMILES NS(=O)(=O)C=C1C=C(Nc2nc3ccccc3nc2N2CCN(C(=O)CO)CC2)[C@H]1FREMARK SMILES IDX 9 1 8 3 6 4 7 5 30 6 31 7 5 8 2 9 3 10 4 11 1 12 10 15 11 16REMARK SMILES IDX 19 17 12 18 18 19 13 20 17 21 14 22 16 23 15 24 20 25 21 26REMARK SMILES IDX 29 27 22 28 28 29 23 30 24 31 25 32 26 33 27 34REMARK H PARENT 9 2 1 13 1 14 27 35USER                              x       y       z     vdW  Elec       q    TypeUSER                           _______ _______ _______ _____ _____    ______ ____ROOTATOM      1  N   UNL     1      37.856  44.872  16.335 -0.12 +0.10    -0.338 N  ATOM      2  H   UNL     1      37.368  44.197  15.747 +0.10 -0.05    +0.168 HD ENDROOTBRANCH   1   3ATOM      3  C   UNL     1      38.363  45.981  15.853 -0.40 -0.02    +0.056 C  ATOM      4  C   UNL     1      39.209  47.702  15.142 -0.58 -0.00    +0.006 C  ATOM      5  C   UNL     1      37.935  47.043  15.117 -0.47 -0.02    +0.033 C  ATOM      6  C   UNL     1      39.809  46.561  15.930 -0.34 -0.04    +0.244 C  ATOM      7  F   UNL     1      40.815  45.867  15.335 -0.07 -0.02    -0.235 F  BRANCH   4   8ATOM      8  C   UNL     1      39.712  48.845  14.666 -0.43 -0.05    +0.129 C  BRANCH   8   9ATOM      9  S   UNL     1      41.131  49.532  15.347 -0.71 -0.05    +0.231 S  ATOM     10  O   UNL     1      42.170  49.667  14.351 -0.63 +0.02    -0.208 OA ATOM     11  O   UNL     1      41.399  48.939  16.638 -1.06 -0.00    -0.208 OA BRANCH   9  12ATOM     12  N   UNL     1      40.707  51.124  15.710 -0.19 +0.12    -0.225 NA ATOM     13  H   UNL     1      40.892  51.281  16.704 -0.48 -0.08    +0.137 HD ATOM     14  H   UNL     1      39.714  51.244  15.498 -0.48 -0.13    +0.137 HD ENDBRANCH   9  12ENDBRANCH   8   9ENDBRANCH   4   8ENDBRANCH   1   3BRANCH   1  15ATOM     15  C   UNL     1      37.574  44.575  17.695 -0.23 -0.04    +0.174 A  ATOM     16  N   UNL     1      38.463  44.899  18.662 -0.25 +0.03    -0.225 NA ATOM     17  C   UNL     1      36.355  43.908  18.004 -0.19 -0.04    +0.172 A  ATOM     18  C   UNL     1      38.135  44.579  19.925 -0.30 -0.00    +0.091 A  ATOM     19  N   UNL     1      36.029  43.598  19.279 -0.21 +0.03    -0.225 NA ATOM     20  C   UNL     1      39.015  44.888  20.954 -0.33 +0.00    +0.031 A  ATOM     21  C   UNL     1      36.916  43.931  20.235 -0.34 -0.00    +0.091 A  ATOM     22  C   UNL     1      38.720  44.578  22.282 -0.32 +0.00    +0.002 A  ATOM     23  C   UNL     1      36.631  43.628  21.560 -0.36 +0.00    +0.031 A  ATOM     24  C   UNL     1      37.522  43.945  22.587 -0.37 +0.00    +0.002 A  BRANCH  17  25ATOM     25  N   UNL     1      35.472  43.535  16.942 -0.12 +0.13    -0.350 N  ATOM     26  C   UNL     1      34.952  44.724  16.217 -0.28 -0.08    +0.140 C  ATOM     27  C   UNL     1      34.416  42.655  17.518 -0.36 -0.05    +0.140 C  ATOM     28  C   UNL     1      33.543  45.134  16.670 -0.29 -0.10    +0.141 C  ATOM     29  C   UNL     1      33.125  42.679  16.678 -0.25 -0.07    +0.141 C  ATOM     30  N   UNL     1      32.581  44.032  16.524 -0.10 +0.15    -0.337 N  ATOM     31  C   UNL     1      31.268  44.320  16.199 -0.21 -0.09    +0.248 C  ATOM     32  O   UNL     1      30.850  45.472  16.058 -0.75 +0.07    -0.272 OA BRANCH  31  33ATOM     33  C   UNL     1      30.307  43.142  16.003 -0.20 -0.12    +0.256 C  BRANCH  33  34ATOM     34  O   UNL     1      29.140  43.523  15.287 -0.07 +0.34    -0.387 OA ATOM     35  H   UNL     1      29.396  44.314  14.770 -0.14 -0.26    +0.211 HD ENDBRANCH  33  34ENDBRANCH  31  33ENDBRANCH  17  25ENDBRANCH   1  15TORSDOF 8TERENDMDL