REMARK SMILES NS(=O)(=O)C=C1C=C(Nc2nc3ccccc3nc2N2CCN(C(=O)CO)CC2)[C@H]1F
REMARK SMILES IDX 9 1 8 3 6 4 7 5 30 6 31 7 5 8 2 9 3 10 4 11 1 12 10 15 11 16
REMARK SMILES IDX 19 17 12 18 18 19 13 20 17 21 14 22 16 23 15 24 20 25 21 26
REMARK SMILES IDX 29 27 22 28 28 29 23 30 24 31 25 32 26 33 27 34
REMARK H PARENT 9 2 1 13 1 14 27 35
ROOT
ATOM      1  N   UNL     1       1.279   0.374   0.452  1.00  0.00    -0.338 N 
ATOM      2  H   UNL     1       0.671   0.831   1.131  1.00  0.00     0.168 HD
ENDROOT
BRANCH   1   3
ATOM      3  C   UNL     1       2.511   0.769   0.240  1.00  0.00     0.056 C 
ATOM      4  C   UNL     1       4.447   1.324  -0.117  1.00  0.00     0.006 C 
ATOM      5  C   UNL     1       3.316   1.796   0.628  1.00  0.00     0.033 C 
ATOM      6  C   UNL     1       3.641   0.160  -0.646  1.00  0.00     0.244 C 
ATOM      7  F   UNL     1       3.449   0.108  -1.990  1.00  0.00    -0.235 F 
BRANCH   4   8
ATOM      8  C   UNL     1       5.708   1.722  -0.311  1.00  0.00     0.129 C 
BRANCH   8   9
ATOM      9  S   UNL     1       6.303   3.152   0.431  1.00  0.00     0.231 S 
ATOM     10  O   UNL     1       6.102   3.114   1.862  1.00  0.00    -0.208 OA
ATOM     11  O   UNL     1       5.928   4.309  -0.350  1.00  0.00    -0.208 OA
BRANCH   9  12
ATOM     12  N   UNL     1       7.978   3.065   0.253  1.00  0.00    -0.225 NA
ATOM     13  H   UNL     1       8.396   3.076   1.187  1.00  0.00     0.137 HD
ATOM     14  H   UNL     1       8.281   3.873  -0.295  1.00  0.00     0.137 HD
ENDBRANCH   9  12
ENDBRANCH   8   9
ENDBRANCH   4   8
ENDBRANCH   1   3
BRANCH   1  15
ATOM     15  C   UNL     1       0.703  -0.875   0.097  1.00  0.00     0.174 A 
ATOM     16  N   UNL     1       1.469  -1.850  -0.444  1.00  0.00    -0.225 NA
ATOM     17  C   UNL     1      -0.694  -1.059   0.300  1.00  0.00     0.172 A 
ATOM     18  C   UNL     1       0.856  -3.001  -0.765  1.00  0.00     0.091 A 
ATOM     19  N   UNL     1      -1.301  -2.225  -0.018  1.00  0.00    -0.225 NA
ATOM     20  C   UNL     1       1.598  -4.033  -1.326  1.00  0.00     0.031 A 
ATOM     21  C   UNL     1      -0.530  -3.191  -0.549  1.00  0.00     0.091 A 
ATOM     22  C   UNL     1       1.008  -5.248  -1.675  1.00  0.00     0.002 A 
ATOM     23  C   UNL     1      -1.107  -4.405  -0.899  1.00  0.00     0.031 A 
ATOM     24  C   UNL     1      -0.351  -5.435  -1.460  1.00  0.00     0.002 A 
BRANCH  17  25
ATOM     25  N   UNL     1      -1.474   0.020   0.823  1.00  0.00    -0.350 N 
ATOM     26  C   UNL     1      -2.624  -0.473   1.625  1.00  0.00     0.140 C 
ATOM     27  C   UNL     1      -1.851   0.902  -0.317  1.00  0.00     0.140 C 
ATOM     28  C   UNL     1      -3.944  -0.480   0.839  1.00  0.00     0.141 C 
ATOM     29  C   UNL     1      -3.129   1.710  -0.022  1.00  0.00     0.141 C 
ATOM     30  N   UNL     1      -4.271   0.852   0.311  1.00  0.00    -0.337 N 
ATOM     31  C   UNL     1      -5.596   1.235   0.216  1.00  0.00     0.248 C 
ATOM     32  O   UNL     1      -6.532   0.492   0.524  1.00  0.00    -0.272 OA
BRANCH  31  33
ATOM     33  C   UNL     1      -5.896   2.650  -0.291  1.00  0.00     0.256 C 
BRANCH  33  34
ATOM     34  O   UNL     1      -7.281   2.959  -0.214  1.00  0.00    -0.387 OA
ATOM     35  H   UNL     1      -7.721   2.127   0.058  1.00  0.00     0.211 HD
ENDBRANCH  33  34
ENDBRANCH  31  33
ENDBRANCH  17  25
ENDBRANCH   1  15
TORSDOF 8
