REMARK SMILES Cc1ccc(F)cc1[C@H]1c2cc(-c3n[nH]c4cc(F)c(F)cc34)[nH]c21
REMARK SMILES IDX 9 1 10 2 11 3 12 4 24 5 25 6 8 8 2 9 3 10 4 11 7 12 5 13
REMARK SMILES IDX 1 14 6 15 13 16 14 17 23 18 15 19 22 20 16 21 20 22 17 23
REMARK SMILES IDX 18 24 21 26 19 27
REMARK H PARENT 24 7 15 25
ROOT
ATOM      1  C   UNL     1      -2.186   1.260  -0.726  1.00  0.00     0.098 C 
ATOM      2  C   UNL     1      -0.891   1.278  -0.077  1.00  0.00    -0.012 A 
ATOM      3  C   UNL     1       0.428   1.106   0.291  1.00  0.00     0.035 A 
ATOM      4  C   UNL     1       1.075   0.315  -0.606  1.00  0.00     0.067 A 
ATOM      5  N   UNL     1       0.149  -0.004  -1.537  1.00  0.00    -0.356 N 
ATOM      6  C   UNL     1      -1.062   0.530  -1.304  1.00  0.00     0.032 A 
ATOM      7  H   UNL     1       0.370  -0.596  -2.325  1.00  0.00     0.166 HD
ENDROOT
BRANCH   1   8
ATOM      8  C   UNL     1      -3.311   0.455  -0.114  1.00  0.00    -0.029 A 
ATOM      9  C   UNL     1      -4.220  -0.301  -0.901  1.00  0.00    -0.047 A 
ATOM     10  C   UNL     1      -5.253  -1.039  -0.293  1.00  0.00     0.007 A 
ATOM     11  C   UNL     1      -5.422  -1.017   1.089  1.00  0.00     0.039 A 
ATOM     12  C   UNL     1      -3.524   0.465   1.280  1.00  0.00     0.044 A 
ATOM     13  C   UNL     1      -4.558  -0.261   1.862  1.00  0.00     0.123 A 
ATOM     14  C   UNL     1      -4.079  -0.364  -2.401  1.00  0.00     0.044 C 
ATOM     15  F   UNL     1      -4.719  -0.229   3.192  1.00  0.00    -0.207 F 
ENDBRANCH   1   8
BRANCH   4  16
ATOM     16  C   UNL     1       2.542  -0.184  -0.661  1.00  0.00     0.116 A 
ATOM     17  N   UNL     1       2.919  -0.967  -1.681  1.00  0.00    -0.173 NA
ATOM     18  C   UNL     1       3.607   0.071   0.245  1.00  0.00     0.032 A 
ATOM     19  N   UNL     1       4.213  -1.216  -1.433  1.00  0.00    -0.277 N 
ATOM     20  C   UNL     1       3.798   0.790   1.441  1.00  0.00     0.055 A 
ATOM     21  C   UNL     1       4.691  -0.624  -0.295  1.00  0.00     0.069 A 
ATOM     22  C   UNL     1       5.061   0.780   2.037  1.00  0.00     0.159 A 
ATOM     23  C   UNL     1       5.962  -0.643   0.291  1.00  0.00     0.070 A 
ATOM     24  C   UNL     1       6.119   0.079   1.473  1.00  0.00     0.160 A 
ATOM     25  H   UNL     1       4.721  -1.803  -2.084  1.00  0.00     0.190 HD
ATOM     26  F   UNL     1       5.245   1.465   3.175  1.00  0.00    -0.204 F 
ATOM     27  F   UNL     1       7.320   0.089   2.069  1.00  0.00    -0.204 F 
ENDBRANCH   4  16
TORSDOF 2
