MODEL        8USER    Run = 8USERUSER    Estimated Free Energy of Binding    =  -8.23 kcal/mol  [=(1)+(2)+(3)-(4)]USERUSER    (1) Final Intermolecular Energy     = -10.02 kcal/molUSER        vdW + Hbond + desolv Energy     = -10.01 kcal/molUSER        Electrostatic Energy            =  -0.01 kcal/molUSER        Moving Ligand-Fixed Receptor    = -10.02 kcal/molUSER        Moving Ligand-Moving Receptor   =  +0.00 kcal/molUSER    (2) Final Total Internal Energy     =  -1.06 kcal/molUSER    (3) Torsional Free Energy           =  +1.79 kcal/molUSER    (4) Unbound System's Energy         =  -1.06 kcal/molUSERUSERREMARK SMILES O=CC=c1cc(NCCc2ccccc2)c2cccc([nH]cn1)c2BrREMARK SMILES IDX 4 1 5 2 6 3 16 4 17 5 18 6 19 7 20 8 21 9 22 10 23 11 24 12REMARK SMILES IDX 25 13 3 15 2 16 1 17 7 18 8 20 9 21 10 22 11 23 15 24 12 25REMARK SMILES IDX 14 26 13 27REMARK H PARENT 21 14 7 19USER                              x       y       z     vdW  Elec       q    TypeUSER                           _______ _______ _______ _____ _____    ______ ____ROOTATOM      1  C   UNL     1      36.672  43.704  20.358 -0.36 -0.00    +0.070 A  ATOM      2  C   UNL     1      37.501  44.673  19.599 -0.29 -0.00    +0.054 A  ATOM      3  C   UNL     1      37.417  45.159  18.328 -0.32 -0.01    +0.045 A  ATOM      4  C   UNL     1      36.445  44.591  17.356 -0.32 -0.00    +0.014 A  ATOM      5  C   UNL     1      36.917  43.620  16.454 -0.33 -0.00    +0.011 A  ATOM      6  C   UNL     1      36.037  42.705  15.874 -0.41 -0.00    +0.003 A  ATOM      7  C   UNL     1      34.734  42.631  16.362 -0.40 -0.01    +0.027 A  ATOM      8  C   UNL     1      34.306  43.571  17.320 -0.29 -0.02    +0.054 A  ATOM      9  N   UNL     1      33.726  42.986  18.558 -0.11 +0.06    -0.345 N  ATOM     10  C   UNL     1      34.745  42.806  19.503 -0.28 -0.01    +0.197 A  ATOM     11  N   UNL     1      35.329  43.802  20.093 -0.27 +0.02    -0.239 NA ATOM     12  C   UNL     1      35.071  44.736  17.515 -0.28 -0.02    +0.050 A  ATOM     13  Br  UNL     1      34.288  46.264  18.336 -0.93 +0.03    -0.048 Br ATOM     14  H   UNL     1      33.231  42.141  18.295 +0.12 -0.03    +0.167 HD ENDROOTBRANCH   1  15ATOM     15  C   UNL     1      37.115  42.955  21.381 -0.43 +0.00    +0.072 C  BRANCH  15  16ATOM     16  C   UNL     1      36.919  41.501  21.571 -0.42 +0.01    +0.254 C  ATOM     17  O   UNL     1      36.246  40.990  22.455 -0.46 -0.01    -0.298 OA ENDBRANCH  15  16ENDBRANCH   1  15BRANCH   3  18ATOM     18  N   UNL     1      38.330  46.091  17.829 -0.15 +0.10    -0.384 N  ATOM     19  H   UNL     1      38.137  47.025  18.191 +0.10 -0.05    +0.160 HD BRANCH  18  20ATOM     20  C   UNL     1      38.775  46.132  16.435 -0.38 -0.03    +0.117 C  BRANCH  20  21ATOM     21  C   UNL     1      38.222  47.372  15.719 -0.47 -0.03    +0.056 C  BRANCH  21  22ATOM     22  C   UNL     1      37.538  47.062  14.408 -0.42 +0.02    -0.046 A  ATOM     23  C   UNL     1      37.494  45.748  13.920 -0.44 -0.00    +0.004 A  ATOM     24  C   UNL     1      36.920  48.081  13.671 -0.58 -0.00    +0.004 A  ATOM     25  C   UNL     1      36.846  45.463  12.718 -0.55 -0.00    +0.000 A  ATOM     26  C   UNL     1      36.273  47.793  12.469 -0.66 -0.00    +0.000 A  ATOM     27  C   UNL     1      36.236  46.484  11.993 -0.68 -0.00    +0.000 A  ENDBRANCH  21  22ENDBRANCH  20  21ENDBRANCH  18  20ENDBRANCH   3  18TORSDOF 6TERENDMDL