MODEL        8USER    Run = 8USERUSER    Estimated Free Energy of Binding    =  -8.37 kcal/mol  [=(1)+(2)+(3)-(4)]USERUSER    (1) Final Intermolecular Energy     =  -8.96 kcal/molUSER        vdW + Hbond + desolv Energy     =  -8.92 kcal/molUSER        Electrostatic Energy            =  -0.05 kcal/molUSER        Moving Ligand-Fixed Receptor    =  -8.96 kcal/molUSER        Moving Ligand-Moving Receptor   =  +0.00 kcal/molUSER    (2) Final Total Internal Energy     =  -0.70 kcal/molUSER    (3) Torsional Free Energy           =  +0.60 kcal/molUSER    (4) Unbound System's Energy         =  -0.70 kcal/molUSERUSERREMARK SMILES Cc1ccc(F)cc1[C@H]1c2cc(-c3n[nH]c4cc(F)c(F)cc34)[nH]c21REMARK SMILES IDX 9 1 10 2 11 3 12 4 24 5 25 6 8 8 2 9 3 10 4 11 7 12 5 13REMARK SMILES IDX 1 14 6 15 13 16 14 17 23 18 15 19 22 20 16 21 20 22 17 23REMARK SMILES IDX 18 24 21 26 19 27REMARK H PARENT 24 7 15 25USER                              x       y       z     vdW  Elec       q    TypeUSER                           _______ _______ _______ _____ _____    ______ ____ROOTATOM      1  C   UNL     1      42.934  46.446  21.053 -0.33 +0.03    +0.098 C  ATOM      2  C   UNL     1      41.912  46.352  20.032 -0.40 -0.00    -0.012 A  ATOM      3  C   UNL     1      41.092  46.519  18.934 -0.45 +0.00    +0.035 A  ATOM      4  C   UNL     1      41.506  47.576  18.185 -0.44 -0.00    +0.067 A  ATOM      5  N   UNL     1      42.591  48.066  18.825 -0.29 -0.00    -0.356 N  ATOM      6  C   UNL     1      42.911  47.394  19.944 -0.40 +0.01    +0.032 A  ATOM      7  H   UNL     1      43.095  48.869  18.477 -0.20 +0.00    +0.166 HD ENDROOTBRANCH   1   8ATOM      8  C   UNL     1      42.564  46.958  22.428 -0.27 -0.01    -0.029 A  ATOM      9  C   UNL     1      41.523  46.378  23.200 -0.18 -0.00    -0.047 A  ATOM     10  C   UNL     1      41.210  46.883  24.476 -0.17 +0.00    +0.007 A  ATOM     11  C   UNL     1      41.895  47.980  24.993 -0.23 +0.00    +0.039 A  ATOM     12  C   UNL     1      43.223  48.077  22.978 -0.33 +0.01    +0.044 A  ATOM     13  C   UNL     1      42.892  48.570  24.236 -0.29 +0.03    +0.123 A  ATOM     14  C   UNL     1      40.754  45.185  22.691 -0.23 +0.00    +0.044 C  ATOM     15  F   UNL     1      43.550  49.630  24.723 -0.15 -0.06    -0.207 F  ENDBRANCH   1   8BRANCH   4  16ATOM     16  C   UNL     1      40.946  48.185  16.874 -0.44 -0.01    +0.116 A  ATOM     17  N   UNL     1      41.415  49.371  16.462 -1.07 -0.00    -0.173 NA ATOM     18  C   UNL     1      39.962  47.659  15.993 -0.50 -0.01    +0.032 A  ATOM     19  N   UNL     1      40.739  49.606  15.328 -0.41 +0.09    -0.277 N  ATOM     20  C   UNL     1      39.156  46.507  15.913 -0.40 -0.01    +0.055 A  ATOM     21  C   UNL     1      39.852  48.621  14.987 -0.50 -0.02    +0.069 A  ATOM     22  C   UNL     1      38.281  46.373  14.833 -0.30 -0.05    +0.159 A  ATOM     23  C   UNL     1      38.981  48.500  13.899 -0.29 -0.02    +0.070 A  ATOM     24  C   UNL     1      38.197  47.348  13.848 -0.37 -0.05    +0.160 A  ATOM     25  H   UNL     1      40.930  50.466  14.827 -0.02 -0.08    +0.190 HD ATOM     26  F   UNL     1      37.513  45.276  14.754 -0.08 +0.07    -0.204 F  ATOM     27  F   UNL     1      37.347  47.190  12.822 -0.17 +0.06    -0.204 F  ENDBRANCH   4  16TORSDOF 2TERENDMDL