MODEL        6USER    Run = 6USERUSER    Estimated Free Energy of Binding    =  -3.96 kcal/mol  [=(1)+(2)+(3)-(4)]USERUSER    (1) Final Intermolecular Energy     =  -8.73 kcal/molUSER        vdW + Hbond + desolv Energy     =  -9.47 kcal/molUSER        Electrostatic Energy            =  -0.00 kcal/molUSER        Moving Ligand-Fixed Receptor    =  -9.47 kcal/molUSER        Moving Ligand-Moving Receptor   =  +0.74 kcal/molUSER    (2) Final Total Internal Energy     =  -3.00 kcal/molUSER    (3) Torsional Free Energy           =  +4.77 kcal/molUSER    (4) Unbound System's Energy         =  -3.00 kcal/molUSERUSERREMARK SMILES CCC=CC=C1/C(C(N)=O)=N\C=N/C(C(=O)N(C)C)=C\N1Cc1cc(Cl)ccc1OCREMARK SMILES IDX 20 1 21 2 6 3 5 5 4 6 3 7 2 8 1 9 22 10 23 11 24 12 29 13REMARK SMILES IDX 25 14 28 15 27 16 26 17 30 18 31 19 14 20 13 21 12 22 11 23REMARK SMILES IDX 7 24 8 26 9 27 10 28 15 31 17 32 16 33 18 34 19 35REMARK H PARENT 9 29 9 30REMARK Flexibility Score:   60.900USER                              x       y       z     vdW  Elec       q    TypeUSER                           _______ _______ _______ _____ _____    ______ ____ROOTATOM      1  C   UNL     1      38.758  43.674  28.076 -0.18 -0.01    +0.120 C  ENDROOTBRANCH   1   2ATOM      2  N   UNL     1      37.759  44.218  27.229 -0.12 +0.04    -0.339 N  BRANCH   2   3ATOM      3  C   UNL     1      36.908  43.442  26.328 -0.36 -0.01    +0.073 CG0ATOM      4  G   UNL     1      36.572  42.134  26.572 +0.00 +0.00    +0.000 G0 BRANCH   3   5ATOM      5  C   UNL     1      36.461  44.071  25.199 -0.27 +0.00    +0.028 C  BRANCH   5   6ATOM      6  C   UNL     1      37.182  44.687  24.095 -0.27 -0.00    -0.002 C  BRANCH   6   7ATOM      7  C   UNL     1      37.349  44.093  22.900 -0.39 -0.00    -0.027 C  BRANCH   7   8ATOM      8  C   UNL     1      37.327  42.618  22.620 -0.47 +0.00    +0.024 C  ATOM      9  C   UNL     1      36.198  42.101  21.737 -0.57 +0.00    +0.008 C  ENDBRANCH   7   8ENDBRANCH   6   7ENDBRANCH   5   6ENDBRANCH   3   5ENDBRANCH   2   3BRANCH   2  10ATOM     10  C   UNL     1      37.265  45.570  27.604 -0.29 -0.03    +0.161 C  BRANCH  10  11ATOM     11  C   UNL     1      37.716  46.695  26.679 -0.31 -0.00    +0.015 A  ATOM     12  C   UNL     1      38.888  46.523  25.916 -0.21 +0.00    +0.030 A  ATOM     13  C   UNL     1      37.024  47.911  26.555 -0.31 -0.01    +0.123 A  ATOM     14  C   UNL     1      39.344  47.534  25.067 -0.27 +0.00    +0.041 A  ATOM     15  C   UNL     1      37.494  48.928  25.716 -0.38 +0.00    +0.048 A  ATOM     16  C   UNL     1      38.653  48.738  24.965 -0.34 +0.00    +0.024 A  ATOM     17  Cl  UNL     1      40.787  47.302  24.155 -0.34 -0.01    -0.084 Cl BRANCH  13  18ATOM     18  O   UNL     1      35.906  48.173  27.297 -0.14 +0.09    -0.496 OA ATOM     19  C   UNL     1      35.783  49.588  27.519 -0.20 -0.00    +0.278 C  ENDBRANCH  13  18ENDBRANCH  10  11ENDBRANCH   2  10ENDBRANCH   1   2BRANCH   1  20ATOM     20  C   UNL     1      39.407  42.496  28.206 -0.27 -0.00    +0.146 C  BRANCH  20  21ATOM     21  N   UNL     1      39.247  41.204  27.803 -0.27 +0.01    -0.230 NA BRANCH  21  22ATOM     22  C   UNL     1      37.988  40.754  27.629 -0.14 -0.02    +0.223 C  BRANCH  22  23ATOM     23  N   UNL     1      37.303  40.971  26.481 -0.09 +0.05    -0.229 NA BRANCH  23  24ATOM     24  C   UNL     1      36.571  42.132  26.570 -0.40 -0.03    +0.153 CG0ATOM     25  G   UNL     1      36.903  43.444  26.339 +0.00 +0.00    +0.000 G0 BRANCH  24  26ATOM     26  C   UNL     1      35.248  41.844  27.283 -0.44 -0.09    +0.269 C  ATOM     27  N   UNL     1      34.758  40.604  26.951 -0.33 +0.19    -0.364 N  ATOM     28  O   UNL     1      34.695  42.537  28.132 -0.44 +0.09    -0.268 OA ATOM     29  H   UNL     1      34.246  40.169  27.694 -0.25 -0.13    +0.160 HD ATOM     30  H   UNL     1      35.542  40.084  26.536 -0.40 -0.10    +0.160 HD ENDBRANCH  24  26ENDBRANCH  23  24ENDBRANCH  22  23ENDBRANCH  21  22ENDBRANCH  20  21BRANCH  20  31ATOM     31  C   UNL     1      40.679  42.712  29.016 -0.08 +0.03    +0.273 C  ATOM     32  N   UNL     1      41.893  42.658  28.311 -0.05 +0.01    -0.343 N  ATOM     33  O   UNL     1      40.645  42.866  30.244 -0.73 -0.08    -0.267 OA ATOM     34  C   UNL     1      41.913  42.562  26.858 -0.11 -0.01    +0.146 C  ATOM     35  C   UNL     1      43.063  43.202  28.954 -0.06 -0.00    +0.146 C  ENDBRANCH  20  31ENDBRANCH   1  20TORSDOF 9TERENDMDL