REMARK SMILES COC(=O)c1ccc(O)cc1[C@H](CC(C)C)[P@](=O)(O)OC
REMARK SMILES IDX 5 1 6 2 7 3 8 4 10 5 11 6 3 7 4 8 2 9 1 10 12 11 13 12 14 13
REMARK SMILES IDX 15 14 16 15 17 16 18 17 19 18 20 20 21 21 9 22
REMARK H PARENT 19 19 9 23
ROOT
ATOM      1  C   UNL     1       2.266  -0.672  -0.961  1.00  0.00     0.064 A 
ATOM      2  C   UNL     1       3.203  -0.835  -1.996  1.00  0.00     0.020 A 
ATOM      3  C   UNL     1       2.942  -0.340  -3.273  1.00  0.00     0.047 A 
ATOM      4  C   UNL     1       1.745   0.322  -3.510  1.00  0.00     0.115 A 
ATOM      5  C   UNL     1       0.815   0.510  -2.490  1.00  0.00     0.051 A 
ATOM      6  C   UNL     1       1.063   0.033  -1.189  1.00  0.00    -0.015 A 
ENDROOT
BRANCH   1   7
ATOM      7  C   UNL     1       2.637  -1.276   0.340  1.00  0.00     0.338 C 
ATOM      8  O   UNL     1       3.727  -1.136   0.867  1.00  0.00    -0.246 OA
BRANCH   7   9
ATOM      9  O   UNL     1       1.622  -2.063   0.774  1.00  0.00    -0.465 OA
ATOM     10  C   UNL     1       1.900  -2.739   2.000  1.00  0.00     0.282 C 
ENDBRANCH   7   9
ENDBRANCH   1   7
BRANCH   6  11
ATOM     11  C   UNL     1       0.038   0.316  -0.087  1.00  0.00     0.136 C 
BRANCH  11  12
ATOM     12  C   UNL     1      -1.173  -0.625  -0.284  1.00  0.00     0.024 C 
BRANCH  12  13
ATOM     13  C   UNL     1      -2.100  -0.719   0.947  1.00  0.00    -0.016 C 
ATOM     14  C   UNL     1      -2.482  -2.178   1.218  1.00  0.00     0.007 C 
ATOM     15  C   UNL     1      -3.376   0.102   0.751  1.00  0.00     0.007 C 
ENDBRANCH  12  13
ENDBRANCH  11  12
BRANCH  11  16
ATOM     16  P   UNL     1      -0.400   2.067   0.089  1.00  0.00     0.335 P 
ATOM     17  O   UNL     1      -1.304   2.663  -0.943  1.00  0.00    -0.260 OA
BRANCH  16  18
ATOM     18  O   UNL     1       1.005   2.848   0.161  1.00  0.00    -0.324 OA
ATOM     19  H   UNL     1       0.896   3.814   0.088  1.00  0.00     0.221 HD
ENDBRANCH  16  18
BRANCH  16  20
ATOM     20  O   UNL     1      -0.921   2.235   1.604  1.00  0.00    -0.312 OA
ATOM     21  C   UNL     1      -1.575   3.442   1.942  1.00  0.00     0.206 C 
ENDBRANCH  16  20
ENDBRANCH  11  16
ENDBRANCH   6  11
BRANCH   4  22
ATOM     22  O   UNL     1       1.440   0.815  -4.743  1.00  0.00    -0.508 OA
ATOM     23  H   UNL     1       2.179   0.634  -5.347  1.00  0.00     0.293 HD
ENDBRANCH   4  22
TORSDOF 9
