MODEL        2USER    Run = 2USERUSER    Estimated Free Energy of Binding    =  -8.46 kcal/mol  [=(1)+(2)+(3)-(4)]USERUSER    (1) Final Intermolecular Energy     = -10.25 kcal/molUSER        vdW + Hbond + desolv Energy     = -10.10 kcal/molUSER        Electrostatic Energy            =  -0.15 kcal/molUSER        Moving Ligand-Fixed Receptor    = -10.25 kcal/molUSER        Moving Ligand-Moving Receptor   =  +0.00 kcal/molUSER    (2) Final Total Internal Energy     =  -1.94 kcal/molUSER    (3) Torsional Free Energy           =  +1.79 kcal/molUSER    (4) Unbound System's Energy         =  -1.94 kcal/molUSERUSERREMARK SMILES NCc1c(CO)cccc1-c1n[nH]c2cc(-c3ccncc3)ccc12REMARK SMILES IDX 3 1 4 2 7 3 8 4 9 5 10 6 2 7 1 8 5 11 6 12 11 14 12 15 25 16REMARK SMILES IDX 13 17 24 18 14 19 23 20 15 21 16 22 17 24 18 25 22 26 19 27REMARK SMILES IDX 21 28 20 29REMARK H PARENT 1 9 1 10 6 13 13 23USER                              x       y       z     vdW  Elec       q    TypeUSER                           _______ _______ _______ _____ _____    ______ ____ROOTATOM      1  C   UNL     1      38.042  44.618  22.515 -0.34 -0.00    -0.019 A  ATOM      2  C   UNL     1      37.418  43.948  23.599 -0.33 -0.00    -0.017 A  ATOM      3  C   UNL     1      36.708  42.754  23.364 -0.35 +0.00    +0.006 A  ATOM      4  C   UNL     1      36.633  42.203  22.089 -0.51 +0.00    +0.001 A  ATOM      5  C   UNL     1      37.269  42.836  21.026 -0.37 +0.00    +0.011 A  ATOM      6  C   UNL     1      37.976  44.031  21.229 -0.36 +0.00    +0.007 A  ENDROOTBRANCH   1   7ATOM      7  C   UNL     1      38.792  45.915  22.738 -0.32 +0.01    +0.114 C  BRANCH   7   8ATOM      8  N   UNL     1      40.213  45.760  22.436 -0.10 -0.02    -0.326 NA ATOM      9  H   UNL     1      40.387  44.784  22.198 +0.06 +0.01    +0.119 HD ATOM     10  H   UNL     1      40.422  46.290  21.591 +0.05 +0.01    +0.119 HD ENDBRANCH   7   8ENDBRANCH   1   7BRANCH   2  11ATOM     11  C   UNL     1      37.437  44.498  25.006 -0.26 +0.01    +0.192 C  BRANCH  11  12ATOM     12  O   UNL     1      36.910  45.819  25.032 -0.71 -0.08    -0.392 OA ATOM     13  H   UNL     1      36.102  45.804  25.574 -0.47 -0.03    +0.211 HD ENDBRANCH  11  12ENDBRANCH   2  11BRANCH   6  14ATOM     14  C   UNL     1      38.651  44.619  20.079 -0.30 -0.00    +0.100 A  ATOM     15  N   UNL     1      39.981  44.799  20.066 -0.27 -0.00    -0.174 NA ATOM     16  C   UNL     1      38.052  45.068  18.866 -0.35 -0.00    +0.028 A  ATOM     17  N   UNL     1      40.221  45.358  18.869 -0.25 +0.01    -0.277 N  ATOM     18  C   UNL     1      36.748  45.124  18.341 -0.33 -0.00    +0.013 A  ATOM     19  C   UNL     1      39.106  45.537  18.096 -0.38 -0.01    +0.066 A  ATOM     20  C   UNL     1      36.559  45.652  17.055 -0.35 -0.00    +0.009 A  ATOM     21  C   UNL     1      38.938  46.065  16.810 -0.39 -0.01    +0.037 A  ATOM     22  C   UNL     1      37.633  46.124  16.281 -0.37 +0.01    -0.016 A  ATOM     23  H   UNL     1      41.178  45.597  18.636 +0.12 +0.01    +0.190 HD BRANCH  22  24ATOM     24  C   UNL     1      37.401  46.673  14.936 -0.40 +0.01    -0.015 A  ATOM     25  C   UNL     1      37.209  48.046  14.738 -0.49 -0.02    +0.029 A  ATOM     26  C   UNL     1      37.361  45.842  13.811 -0.43 -0.01    +0.029 A  ATOM     27  C   UNL     1      36.993  48.516  13.452 -0.43 -0.05    +0.111 A  ATOM     28  C   UNL     1      37.135  46.404  12.565 -0.49 -0.04    +0.111 A  ATOM     29  N   UNL     1      36.950  47.725  12.361 -1.02 +0.07    -0.265 NA ENDBRANCH  22  24ENDBRANCH   6  14TORSDOF 6TERENDMDL