MODEL        4USER    Run = 4USERUSER    Estimated Free Energy of Binding    =  -8.44 kcal/mol  [=(1)+(2)+(3)-(4)]USERUSER    (1) Final Intermolecular Energy     = -10.23 kcal/molUSER        vdW + Hbond + desolv Energy     =  -9.69 kcal/molUSER        Electrostatic Energy            =  -0.53 kcal/molUSER        Moving Ligand-Fixed Receptor    = -10.23 kcal/molUSER        Moving Ligand-Moving Receptor   =  +0.00 kcal/molUSER    (2) Final Total Internal Energy     =  -1.97 kcal/molUSER    (3) Torsional Free Energy           =  +1.79 kcal/molUSER    (4) Unbound System's Energy         =  -1.97 kcal/molUSERUSERREMARK SMILES OCc1cccc(-c2n[nH]c3cc(-c4ccncc4)ccc23)c1COREMARK SMILES IDX 3 1 4 2 5 3 6 4 7 5 23 6 2 7 1 8 24 10 25 11 8 13 9 14 22 15REMARK SMILES IDX 10 16 21 17 11 18 20 19 12 20 13 21 14 23 15 24 19 25 16 26REMARK SMILES IDX 18 27 17 28REMARK H PARENT 1 9 25 12 10 22USER                              x       y       z     vdW  Elec       q    TypeUSER                           _______ _______ _______ _____ _____    ______ ____ROOTATOM      1  C   UNL     1      33.581  44.237  16.662 -0.31 +0.01    -0.016 A  ATOM      2  C   UNL     1      33.212  42.882  16.569 -0.33 -0.00    +0.006 A  ATOM      3  C   UNL     1      33.787  41.923  17.394 -0.40 -0.00    +0.001 A  ATOM      4  C   UNL     1      34.743  42.305  18.329 -0.40 -0.00    +0.011 A  ATOM      5  C   UNL     1      35.147  43.645  18.437 -0.33 -0.00    +0.008 A  ATOM      6  C   UNL     1      34.587  44.630  17.587 -0.31 +0.00    -0.008 A  ENDROOTBRANCH   1   7ATOM      7  C   UNL     1      32.895  45.219  15.741 -0.26 -0.15    +0.192 C  BRANCH   7   8ATOM      8  O   UNL     1      31.927  45.970  16.456 -0.46 +0.23    -0.392 OA ATOM      9  H   UNL     1      32.408  46.768  16.765 -0.40 -0.35    +0.211 HD ENDBRANCH   7   8ENDBRANCH   1   7BRANCH   6  10ATOM     10  C   UNL     1      35.035  46.073  17.672 -0.33 -0.14    +0.192 C  BRANCH  10  11ATOM     11  O   UNL     1      34.000  46.865  18.259 -0.63 +0.38    -0.392 OA ATOM     12  H   UNL     1      33.439  47.158  17.519 -0.42 -0.42    +0.211 HD ENDBRANCH  10  11ENDBRANCH   6  10BRANCH   5  13ATOM     13  C   UNL     1      36.145  43.964  19.458 -0.32 -0.01    +0.100 A  ATOM     14  N   UNL     1      35.928  43.687  20.755 -0.31 -0.00    -0.174 NA ATOM     15  C   UNL     1      37.428  44.562  19.263 -0.33 -0.00    +0.028 A  ATOM     16  N   UNL     1      37.061  44.070  21.364 -0.24 -0.01    -0.277 N  ATOM     17  C   UNL     1      38.161  45.057  18.169 -0.38 -0.00    +0.013 A  ATOM     18  C   UNL     1      37.995  44.618  20.529 -0.31 -0.00    +0.066 A  ATOM     19  C   UNL     1      39.441  45.585  18.395 -0.43 -0.00    +0.009 A  ATOM     20  C   UNL     1      39.271  45.141  20.773 -0.34 +0.00    +0.037 A  ATOM     21  C   UNL     1      40.008  45.634  19.680 -0.39 +0.00    -0.016 A  ATOM     22  H   UNL     1      37.134  43.935  22.365 +0.10 +0.02    +0.190 HD BRANCH  21  23ATOM     23  C   UNL     1      41.355  46.192  19.881 -0.40 -0.00    -0.015 A  ATOM     24  C   UNL     1      42.006  46.083  21.115 -0.32 +0.01    +0.029 A  ATOM     25  C   UNL     1      42.027  46.850  18.846 -0.51 +0.00    +0.029 A  ATOM     26  C   UNL     1      43.273  46.628  21.258 -0.28 +0.04    +0.111 A  ATOM     27  C   UNL     1      43.295  47.360  19.083 -0.41 +0.02    +0.111 A  ATOM     28  N   UNL     1      43.931  47.265  20.269 -0.27 -0.14    -0.265 NA ENDBRANCH  21  23ENDBRANCH   5  13TORSDOF 6TERENDMDL