MODEL        6USER    Run = 6USERUSER    Estimated Free Energy of Binding    =  -8.80 kcal/mol  [=(1)+(2)+(3)-(4)]USERUSER    (1) Final Intermolecular Energy     = -10.59 kcal/molUSER        vdW + Hbond + desolv Energy     = -10.33 kcal/molUSER        Electrostatic Energy            =  -0.25 kcal/molUSER        Moving Ligand-Fixed Receptor    = -10.59 kcal/molUSER        Moving Ligand-Moving Receptor   =  +0.00 kcal/molUSER    (2) Final Total Internal Energy     =  -1.05 kcal/molUSER    (3) Torsional Free Energy           =  +1.79 kcal/molUSER    (4) Unbound System's Energy         =  -1.05 kcal/molUSERUSERREMARK SMILES COCc1c(CO)cccc1-c1n[nH]c2cc(-c3ccncc3)ccc12REMARK SMILES IDX 4 1 5 2 8 3 9 4 10 5 11 6 3 7 2 8 1 9 6 10 7 11 12 13 13 14REMARK SMILES IDX 26 15 14 16 25 17 15 18 24 19 16 20 17 21 18 23 19 24 23 25REMARK SMILES IDX 20 26 22 27 21 28REMARK H PARENT 7 12 14 22USER                              x       y       z     vdW  Elec       q    TypeUSER                           _______ _______ _______ _____ _____    ______ ____ROOTATOM      1  C   UNL     1      39.176  47.737  15.674 -0.50 +0.00    -0.007 A  ATOM      2  C   UNL     1      40.249  48.517  16.182 -0.54 +0.00    -0.016 A  ATOM      3  C   UNL     1      41.129  47.956  17.126 -0.51 -0.00    +0.006 A  ATOM      4  C   UNL     1      40.956  46.654  17.584 -0.50 -0.00    +0.001 A  ATOM      5  C   UNL     1      39.907  45.884  17.092 -0.41 -0.00    +0.011 A  ATOM      6  C   UNL     1      39.021  46.410  16.139 -0.42 -0.00    +0.009 A  ENDROOTBRANCH   1   7ATOM      7  C   UNL     1      38.231  48.320  14.639 -0.44 -0.10    +0.196 C  BRANCH   7   8ATOM      8  O   UNL     1      38.390  47.712  13.353 -0.54 +0.08    -0.380 OA ATOM      9  C   UNL     1      37.146  47.463  12.710 -0.50 -0.06    +0.195 C  ENDBRANCH   7   8ENDBRANCH   1   7BRANCH   2  10ATOM     10  C   UNL     1      40.513  49.927  15.713 -0.46 -0.07    +0.192 C  BRANCH  10  11ATOM     11  O   UNL     1      41.787  50.339  16.187 -0.83 +0.01    -0.392 OA ATOM     12  H   UNL     1      41.624  51.072  16.802 -0.45 -0.09    +0.211 HD ENDBRANCH  10  11ENDBRANCH   2  10BRANCH   6  13ATOM     13  C   UNL     1      37.972  45.525  15.640 -0.29 -0.03    +0.100 A  ATOM     14  N   UNL     1      37.903  45.177  14.347 -0.27 +0.05    -0.174 NA ATOM     15  C   UNL     1      36.914  44.938  16.397 -0.33 -0.01    +0.028 A  ATOM     16  N   UNL     1      36.817  44.389  14.281 -0.19 +0.10    -0.277 N  ATOM     17  C   UNL     1      36.506  44.944  17.742 -0.33 -0.00    +0.013 A  ATOM     18  C   UNL     1      36.179  44.203  15.476 -0.34 -0.03    +0.066 A  ATOM     19  C   UNL     1      35.370  44.207  18.107 -0.31 -0.00    +0.009 A  ATOM     20  C   UNL     1      35.041  43.465  15.820 -0.28 -0.02    +0.037 A  ATOM     21  C   UNL     1      34.630  43.468  17.168 -0.33 +0.01    -0.016 A  ATOM     22  H   UNL     1      36.560  44.002  13.379 +0.13 -0.06    +0.190 HD BRANCH  21  23ATOM     23  C   UNL     1      33.442  42.705  17.584 -0.35 +0.00    -0.015 A  ATOM     24  C   UNL     1      32.169  43.289  17.579 -0.29 -0.01    +0.029 A  ATOM     25  C   UNL     1      33.545  41.373  17.997 -0.39 -0.01    +0.029 A  ATOM     26  C   UNL     1      31.081  42.532  17.982 -0.19 -0.02    +0.111 A  ATOM     27  C   UNL     1      32.398  40.696  18.379 -0.34 -0.01    +0.111 A  ATOM     28  N   UNL     1      31.167  41.246  18.383 -0.13 +0.03    -0.265 NA ENDBRANCH  21  23ENDBRANCH   6  13TORSDOF 6TERENDMDL