MODEL        6USER    Run = 6USERUSER    Estimated Free Energy of Binding    =  -7.46 kcal/mol  [=(1)+(2)+(3)-(4)]USERUSER    (1) Final Intermolecular Energy     = -11.93 kcal/molUSER        vdW + Hbond + desolv Energy     = -11.95 kcal/molUSER        Electrostatic Energy            =  -0.46 kcal/molUSER        Moving Ligand-Fixed Receptor    = -12.41 kcal/molUSER        Moving Ligand-Moving Receptor   =  +0.48 kcal/molUSER    (2) Final Total Internal Energy     =  -2.21 kcal/molUSER    (3) Torsional Free Energy           =  +4.47 kcal/molUSER    (4) Unbound System's Energy         =  -2.21 kcal/molUSERUSERREMARK SMILES COc1ccc(O)c(C(=O)c2ccc(/C=C/[C@@H]3CCCNC[C@H]3NC(=O)c3ccncc3)cc2)c1FREMARK SMILES IDX 16 1 15 2 14 3 11 4 12 5 34 6 13 7 33 8 9 9 10 10 8 11 3 12REMARK SMILES IDX 4 13 35 14 5 15 6 16 36 17 2 18 1 19 7 20 17 22 18 23 23 25REMARK SMILES IDX 22 26 21 27 20 29 19 30 24 32 25 33 26 35 27 36 28 37 32 38REMARK SMILES IDX 29 39 31 40 30 41REMARK H PARENT 7 21 21 28 24 34REMARK Flexibility Score:   99.900USER                              x       y       z     vdW  Elec       q    TypeUSER                           _______ _______ _______ _____ _____    ______ ____ROOTATOM      1  C   UNL     1      36.842  44.598  18.639 -0.39 +0.00    -0.021 C  ENDROOTBRANCH   1   2ATOM      2  C   UNL     1      38.042  44.492  18.047 -0.40 -0.00    +0.004 C  BRANCH   2   3ATOM      3  C   UNL     1      39.269  45.087  18.592 -0.40 +0.00    -0.026 A  ATOM      4  C   UNL     1      41.578  46.300  19.630 -0.42 +0.00    +0.023 A  ATOM      5  C   UNL     1      40.796  46.979  18.690 -0.38 -0.00    +0.013 A  ATOM      6  C   UNL     1      41.189  45.036  20.081 -0.37 +0.00    +0.013 A  ATOM      7  C   UNL     1      39.643  46.372  18.178 -0.42 -0.00    +0.009 A  ATOM      8  C   UNL     1      40.044  44.431  19.558 -0.36 +0.00    +0.009 A  BRANCH   4   9ATOM      9  C   UNL     1      42.785  46.921  20.216 -0.36 +0.05    +0.199 C  ATOM     10  O   UNL     1      43.709  47.243  19.469 -0.38 -0.12    -0.288 OA BRANCH   9  11ATOM     11  C   UNL     1      42.956  47.127  21.672 -0.29 +0.02    +0.104 A  ATOM     12  C   UNL     1      42.049  47.268  23.931 -0.15 +0.02    +0.155 A  ATOM     13  C   UNL     1      43.329  47.524  24.425 -0.17 +0.01    +0.053 A  ATOM     14  C   UNL     1      41.874  47.074  22.553 -0.15 +0.02    +0.179 A  ATOM     15  C   UNL     1      44.414  47.608  23.548 -0.22 +0.01    +0.051 A  ATOM     16  C   UNL     1      44.225  47.425  22.183 -0.25 +0.05    +0.130 A  ATOM     17  F   UNL     1      40.633  46.866  22.085 +0.07 -0.02    -0.202 F  BRANCH  12  18ATOM     18  O   UNL     1      40.910  47.182  24.686 -0.01 -0.05    -0.494 OA ATOM     19  C   UNL     1      39.948  48.218  24.537 -0.23 +0.03    +0.278 C  ENDBRANCH  12  18BRANCH  16  20ATOM     20  O   UNL     1      45.336  47.554  21.392 -0.62 -0.54    -0.507 OA ATOM     21  H   UNL     1      45.148  48.249  20.720 -0.28 +0.10    +0.293 HD ENDBRANCH  16  20ENDBRANCH   9  11ENDBRANCH   4   9ENDBRANCH   2   3ENDBRANCH   1   2BRANCH   1  22ATOM     22  C   UNL     1      36.395  43.867  19.902 -0.44 -0.00    +0.035 C  BRANCH  22  23ATOM     23  C   UNL     1      37.341  44.312  21.034 -0.43 +0.00    +0.011 CG0ATOM     24  G   UNL     1      36.905  44.081  22.477 +0.00 +0.00    +0.000 G0 ENDBRANCH  22  23BRANCH  22  25ATOM     25  C   UNL     1      36.218  42.322  19.788 -0.33 -0.01    +0.103 C  BRANCH  25  26ATOM     26  C   UNL     1      36.083  41.665  21.192 -0.49 +0.00    +0.106 C  BRANCH  26  27ATOM     27  N   UNL     1      37.249  41.669  22.068 -0.30 -0.02    -0.315 NA ATOM     28  H   UNL     1      38.097  41.698  21.500 +0.09 +0.01    +0.122 HD BRANCH  27  29ATOM     29  C   UNL     1      37.270  42.726  23.067 -0.42 +0.01    +0.081 C  BRANCH  29  30ATOM     30  C   UNL     1      36.905  44.082  22.481 -0.32 +0.00    +0.016 CG0ATOM     31  G   UNL     1      37.338  44.313  21.038 +0.00 +0.00    +0.000 G0 ENDBRANCH  29  30ENDBRANCH  27  29ENDBRANCH  26  27ENDBRANCH  25  26BRANCH  25  32ATOM     32  N   UNL     1      35.027  41.978  18.997 -0.15 +0.04    -0.347 N  ATOM     33  C   UNL     1      33.787  42.502  19.286 -0.28 -0.01    +0.251 C  ATOM     34  H   UNL     1      35.169  41.497  18.119 -0.10 -0.05    +0.164 HD ATOM     35  O   UNL     1      33.577  43.279  20.209 -0.86 -0.04    -0.269 OA BRANCH  33  36ATOM     36  C   UNL     1      32.680  42.099  18.382 -0.35 -0.01    +0.042 A  ATOM     37  C   UNL     1      32.179  42.962  17.407 -0.29 -0.01    +0.034 A  ATOM     38  C   UNL     1      32.164  40.811  18.500 -0.38 -0.00    +0.034 A  ATOM     39  C   UNL     1      31.154  42.498  16.604 -0.24 -0.04    +0.112 A  ATOM     40  C   UNL     1      31.137  40.445  17.651 -0.30 -0.02    +0.112 A  ATOM     41  N   UNL     1      30.614  41.265  16.712 -0.19 +0.08    -0.265 NA ENDBRANCH  33  36ENDBRANCH  25  32ENDBRANCH  22  25ENDBRANCH   1  22TORSDOF 9TERENDMDL