MODEL        8USER    Run = 8USERUSER    Estimated Free Energy of Binding    =  -7.09 kcal/mol  [=(1)+(2)+(3)-(4)]USERUSER    (1) Final Intermolecular Energy     = -11.56 kcal/molUSER        vdW + Hbond + desolv Energy     = -12.50 kcal/molUSER        Electrostatic Energy            =  -0.05 kcal/molUSER        Moving Ligand-Fixed Receptor    = -12.55 kcal/molUSER        Moving Ligand-Moving Receptor   =  +0.99 kcal/molUSER    (2) Final Total Internal Energy     =  -3.10 kcal/molUSER    (3) Torsional Free Energy           =  +4.47 kcal/molUSER    (4) Unbound System's Energy         =  -3.10 kcal/molUSERUSERREMARK SMILES COc1ccc(O)c(C(=O)c2ccc(C(=O)O[C@@H]3CCCNC[C@H]3NC(=O)c3ccncc3)cc2)c1FREMARK SMILES IDX 17 1 15 2 16 3 14 4 11 5 12 6 35 7 13 8 34 9 9 10 10 11 8 12REMARK SMILES IDX 3 13 4 14 36 15 5 16 6 17 37 18 2 19 1 20 7 21 18 23 24 25REMARK SMILES IDX 23 26 22 27 21 29 20 30 19 31 25 33 26 34 27 36 28 37 29 38REMARK SMILES IDX 33 39 30 40 32 41 31 42REMARK H PARENT 7 22 22 28 25 35REMARK Flexibility Score:   99.900USER                              x       y       z     vdW  Elec       q    TypeUSER                           _______ _______ _______ _____ _____    ______ ____ROOTATOM      1  O   UNL     1      37.394  45.351  16.596 -0.08 +0.16    -0.457 OA ENDROOTBRANCH   1   2ATOM      2  C   UNL     1      36.294  44.948  17.280 -0.16 -0.13    +0.338 C  ATOM      3  O   UNL     1      35.137  44.962  16.884 -0.19 +0.13    -0.246 OA BRANCH   2   4ATOM      4  C   UNL     1      36.698  44.423  18.608 -0.31 -0.01    +0.060 A  ATOM      5  C   UNL     1      37.386  43.411  21.135 -0.37 +0.00    +0.023 A  ATOM      6  C   UNL     1      38.315  44.161  20.400 -0.33 -0.00    +0.013 A  ATOM      7  C   UNL     1      36.112  43.175  20.601 -0.44 -0.00    +0.013 A  ATOM      8  C   UNL     1      37.971  44.665  19.141 -0.36 -0.00    +0.016 A  ATOM      9  C   UNL     1      35.764  43.687  19.347 -0.38 -0.00    +0.016 A  BRANCH   5  10ATOM     10  C   UNL     1      37.710  42.830  22.467 -0.32 +0.01    +0.199 C  ATOM     11  O   UNL     1      38.305  41.761  22.561 -0.23 -0.04    -0.288 OA BRANCH  10  12ATOM     12  C   UNL     1      37.318  43.522  23.700 -0.29 +0.01    +0.104 A  ATOM     13  C   UNL     1      37.372  45.536  25.050 -0.18 +0.02    +0.155 A  ATOM     14  C   UNL     1      36.652  44.868  26.049 -0.27 -0.01    +0.053 A  ATOM     15  C   UNL     1      37.706  44.848  23.878 -0.20 +0.02    +0.179 A  ATOM     16  C   UNL     1      36.248  43.539  25.863 -0.35 -0.00    +0.051 A  ATOM     17  C   UNL     1      36.575  42.871  24.685 -0.28 +0.01    +0.130 A  ATOM     18  F   UNL     1      38.368  45.488  22.900 -0.10 -0.02    -0.202 F  BRANCH  13  19ATOM     19  O   UNL     1      37.773  46.845  25.100 -0.57 -0.07    -0.494 OA ATOM     20  C   UNL     1      36.873  47.782  25.678 -0.25 +0.00    +0.278 C  ENDBRANCH  13  19BRANCH  17  21ATOM     21  O   UNL     1      36.165  41.584  24.488 -0.16 +0.06    -0.507 OA ATOM     22  H   UNL     1      36.834  41.094  23.984 +0.16 -0.02    +0.293 HD ENDBRANCH  17  21ENDBRANCH  10  12ENDBRANCH   5  10ENDBRANCH   2   4ENDBRANCH   1   2BRANCH   1  23ATOM     23  C   UNL     1      37.266  46.573  15.822 -0.31 -0.11    +0.200 CG0ATOM     24  G   UNL     1      36.549  46.209  14.522 +0.00 +0.00    +0.000 G0 BRANCH  23  25ATOM     25  C   UNL     1      38.689  47.137  15.626 -0.41 -0.05    +0.137 C  BRANCH  25  26ATOM     26  C   UNL     1      38.742  48.643  15.300 -0.49 -0.06    +0.109 C  BRANCH  26  27ATOM     27  N   UNL     1      37.482  49.197  14.800 -0.25 +0.27    -0.315 NA ATOM     28  H   UNL     1      37.612  50.197  14.648 -0.51 -0.14    +0.122 HD BRANCH  27  29ATOM     29  C   UNL     1      36.964  48.601  13.564 -0.51 -0.04    +0.081 C  BRANCH  29  30ATOM     30  C   UNL     1      36.037  47.384  13.682 -0.53 -0.01    +0.019 C  BRANCH  30  31ATOM     31  C   UNL     1      36.554  46.206  14.517 -0.44 -0.03    +0.049 CG0ATOM     32  G   UNL     1      37.269  46.561  15.820 +0.00 +0.00    +0.000 G0 ENDBRANCH  30  31ENDBRANCH  29  30ENDBRANCH  27  29ENDBRANCH  26  27ENDBRANCH  25  26BRANCH  25  33ATOM     33  N   UNL     1      39.488  46.851  16.825 -0.22 +0.08    -0.344 N  ATOM     34  C   UNL     1      40.702  47.450  17.058 -0.39 -0.04    +0.251 C  ATOM     35  H   UNL     1      38.985  46.448  17.604 +0.09 -0.04    +0.164 HD ATOM     36  O   UNL     1      41.242  48.226  16.281 -0.61 +0.02    -0.269 OA BRANCH  34  37ATOM     37  C   UNL     1      41.351  47.115  18.347 -0.50 -0.00    +0.042 A  ATOM     38  C   UNL     1      40.741  46.179  19.179 -0.42 +0.00    +0.034 A  ATOM     39  C   UNL     1      42.528  47.744  18.751 -0.51 +0.00    +0.034 A  ATOM     40  C   UNL     1      41.354  45.888  20.383 -0.30 +0.01    +0.112 A  ATOM     41  C   UNL     1      43.057  47.388  19.977 -0.32 +0.02    +0.112 A  ATOM     42  N   UNL     1      42.500  46.470  20.798 -0.22 -0.06    -0.265 NA ENDBRANCH  34  37ENDBRANCH  25  33ENDBRANCH  23  25ENDBRANCH   1  23TORSDOF 9TERENDMDL