MODEL        1USER    Run = 1USERUSER    Estimated Free Energy of Binding    = -12.88 kcal/mol  [=(1)+(2)+(3)-(4)]USERUSER    (1) Final Intermolecular Energy     = -15.27 kcal/molUSER        vdW + Hbond + desolv Energy     = -15.14 kcal/molUSER        Electrostatic Energy            =  -0.13 kcal/molUSER        Moving Ligand-Fixed Receptor    = -15.27 kcal/molUSER        Moving Ligand-Moving Receptor   =  +0.00 kcal/molUSER    (2) Final Total Internal Energy     =  -2.51 kcal/molUSER    (3) Torsional Free Energy           =  +2.39 kcal/molUSER    (4) Unbound System's Energy         =  -2.51 kcal/molUSERUSERREMARK SMILES N#Cc1cnc(-c2ccc(CNCc3ccc(-c4csnn4)cc3)cc2)c(-c2ccccc2)c1REMARK SMILES IDX 11 1 10 2 7 3 8 4 26 5 9 6 25 7 6 8 3 9 4 10 34 11 5 12REMARK SMILES IDX 27 13 2 14 1 15 28 16 29 17 33 18 30 19 32 20 31 21 12 22REMARK SMILES IDX 13 24 14 25 15 26 24 27 16 28 23 29 17 30 18 31 19 32 22 33REMARK SMILES IDX 20 34 21 35REMARK H PARENT 12 23USER                              x       y       z     vdW  Elec       q    TypeUSER                           _______ _______ _______ _____ _____    ______ ____ROOTATOM      1  C   UNL     1      36.315  43.216  20.341 -0.41 -0.00    +0.117 C  ENDROOTBRANCH   1   2ATOM      2  C   UNL     1      35.440  43.749  19.230 -0.36 +0.01    -0.034 A  ATOM      3  C   UNL     1      33.822  44.735  17.115 -0.32 -0.00    +0.001 A  ATOM      4  C   UNL     1      34.346  45.596  18.095 -0.43 -0.01    +0.011 A  ATOM      5  C   UNL     1      34.113  43.366  17.229 -0.33 -0.00    +0.011 A  ATOM      6  C   UNL     1      35.149  45.114  19.135 -0.32 -0.00    +0.006 A  ATOM      7  C   UNL     1      34.917  42.880  18.265 -0.37 -0.00    +0.006 A  BRANCH   3   8ATOM      8  C   UNL     1      32.979  45.271  16.027 -0.26 -0.06    +0.078 A  ATOM      9  C   UNL     1      31.163  46.169  14.143 -0.51 -0.05    +0.071 A  ATOM     10  C   UNL     1      30.774  45.663  15.368 -0.36 -0.06    +0.131 A  ATOM     11  C   UNL     1      32.528  46.233  13.868 -0.16 -0.03    +0.032 A  ATOM     12  N   UNL     1      31.643  45.223  16.306 -0.66 +0.10    -0.254 NA ATOM     13  C   UNL     1      33.475  45.786  14.811 -0.14 -0.01    +0.009 A  BRANCH   9  14ATOM     14  C   UNL     1      30.191  46.619  13.199 -0.58 -0.06    +0.101 C  ATOM     15  N   UNL     1      29.402  46.984  12.432 -0.72 +0.09    -0.192 NA ENDBRANCH   9  14BRANCH  13  16ATOM     16  C   UNL     1      34.908  45.916  14.493 -0.35 +0.01    -0.016 A  ATOM     17  C   UNL     1      35.839  44.981  14.978 -0.35 -0.00    +0.009 A  ATOM     18  C   UNL     1      35.380  46.962  13.684 -0.41 -0.01    +0.009 A  ATOM     19  C   UNL     1      37.197  45.096  14.675 -0.39 -0.00    +0.001 A  ATOM     20  C   UNL     1      36.739  47.079  13.382 -0.57 -0.00    +0.001 A  ATOM     21  C   UNL     1      37.647  46.146  13.878 -0.45 -0.00    +0.000 A  ENDBRANCH  13  16ENDBRANCH   3   8ENDBRANCH   1   2BRANCH   1  22ATOM     22  N   UNL     1      37.180  44.273  20.863 -0.20 -0.00    -0.309 NA ATOM     23  H   UNL     1      37.090  44.286  21.878 +0.06 +0.01    +0.123 HD BRANCH  22  24ATOM     24  C   UNL     1      38.585  44.059  20.514 -0.27 -0.00    +0.117 C  BRANCH  24  25ATOM     25  C   UNL     1      39.108  45.046  19.497 -0.37 +0.00    -0.034 A  ATOM     26  C   UNL     1      40.391  45.594  19.623 -0.42 +0.00    +0.006 A  ATOM     27  C   UNL     1      38.311  45.446  18.418 -0.38 -0.00    +0.006 A  ATOM     28  C   UNL     1      40.869  46.515  18.684 -0.48 -0.00    +0.011 A  ATOM     29  C   UNL     1      38.788  46.367  17.480 -0.39 -0.00    +0.011 A  ATOM     30  C   UNL     1      40.076  46.909  17.597 -0.48 -0.00    +0.003 A  BRANCH  30  31ATOM     31  C   UNL     1      40.545  47.866  16.599 -0.46 -0.02    +0.105 A  ATOM     32  C   UNL     1      40.128  47.896  15.279 -0.45 -0.03    +0.118 A  ATOM     33  N   UNL     1      41.459  48.863  16.934 -0.98 -0.00    -0.138 NA ATOM     34  S   UNL     1      40.943  49.197  14.510 -0.84 +0.00    -0.020 S  ATOM     35  N   UNL     1      41.756  49.633  15.902 -1.06 -0.01    -0.091 NA ENDBRANCH  30  31ENDBRANCH  24  25ENDBRANCH  22  24ENDBRANCH   1  22TORSDOF 8TERENDMDL