MODEL        7USER    Run = 7USERUSER    Estimated Free Energy of Binding    =  -6.83 kcal/mol  [=(1)+(2)+(3)-(4)]USERUSER    (1) Final Intermolecular Energy     = -11.31 kcal/molUSER        vdW + Hbond + desolv Energy     = -12.30 kcal/molUSER        Electrostatic Energy            =  -0.23 kcal/molUSER        Moving Ligand-Fixed Receptor    = -12.53 kcal/molUSER        Moving Ligand-Moving Receptor   =  +1.22 kcal/molUSER    (2) Final Total Internal Energy     =  -2.61 kcal/molUSER    (3) Torsional Free Energy           =  +4.47 kcal/molUSER    (4) Unbound System's Energy         =  -2.61 kcal/molUSERUSERREMARK SMILES COc1ccc(O)c(C(=O)c2ccc(CN[C@@H]3CCCNC[C@H]3NC(=O)c3ccncc3)cc2)c1FREMARK SMILES IDX 16 1 15 3 14 4 11 5 12 6 34 7 13 8 33 9 9 10 10 11 8 12 3 13REMARK SMILES IDX 4 14 35 15 5 16 6 17 36 18 2 19 1 20 7 21 17 23 18 24 23 26REMARK SMILES IDX 22 27 21 28 20 30 19 31 24 33 25 34 26 36 27 37 28 38 32 39REMARK SMILES IDX 29 40 31 41 30 42REMARK H PARENT 16 2 7 22 21 29 24 35REMARK Flexibility Score:   99.900USER                              x       y       z     vdW  Elec       q    TypeUSER                           _______ _______ _______ _____ _____    ______ ____ROOTATOM      1  N   UNL     1      39.382  46.265  24.709 -0.08 -0.02    -0.308 NA ATOM      2  H   UNL     1      39.801  45.867  25.552 +0.05 +0.00    +0.123 HD ENDROOTBRANCH   1   3ATOM      3  C   UNL     1      39.043  45.174  23.794 -0.23 +0.01    +0.117 C  BRANCH   3   4ATOM      4  C   UNL     1      39.526  45.396  22.381 -0.28 -0.00    -0.034 A  ATOM      5  C   UNL     1      40.406  45.809  19.742 -0.38 +0.00    +0.023 A  ATOM      6  C   UNL     1      39.137  45.271  19.980 -0.37 -0.00    +0.012 A  ATOM      7  C   UNL     1      41.243  46.115  20.821 -0.30 +0.00    +0.012 A  ATOM      8  C   UNL     1      38.700  45.075  21.293 -0.34 +0.00    +0.006 A  ATOM      9  C   UNL     1      40.803  45.916  22.132 -0.25 +0.00    +0.006 A  BRANCH   5  10ATOM     10  C   UNL     1      40.931  45.998  18.368 -0.41 -0.00    +0.199 C  ATOM     11  O   UNL     1      42.065  45.595  18.102 -0.23 -0.02    -0.288 OA BRANCH  10  12ATOM     12  C   UNL     1      40.139  46.594  17.271 -0.41 -0.02    +0.104 A  ATOM     13  C   UNL     1      38.184  46.627  15.814 -0.29 -0.06    +0.155 A  ATOM     14  C   UNL     1      38.684  47.762  15.173 -0.46 -0.02    +0.053 A  ATOM     15  C   UNL     1      38.917  46.056  16.865 -0.29 -0.04    +0.179 A  ATOM     16  C   UNL     1      39.890  48.330  15.594 -0.52 -0.02    +0.051 A  ATOM     17  C   UNL     1      40.601  47.758  16.646 -0.44 -0.02    +0.130 A  ATOM     18  F   UNL     1      38.407  44.987  17.500 -0.09 +0.04    -0.202 F  BRANCH  13  19ATOM     19  O   UNL     1      37.008  45.997  15.505 -0.04 +0.25    -0.494 OA ATOM     20  C   UNL     1      35.830  46.466  16.148 -0.21 -0.26    +0.278 C  ENDBRANCH  13  19BRANCH  17  21ATOM     21  O   UNL     1      41.754  48.397  17.020 -0.58 -0.02    -0.507 OA ATOM     22  H   UNL     1      42.411  47.707  17.272 -0.35 -0.05    +0.293 HD ENDBRANCH  17  21ENDBRANCH  10  12ENDBRANCH   5  10ENDBRANCH   3   4ENDBRANCH   1   3BRANCH   1  23ATOM     23  C   UNL     1      38.213  47.093  25.115 -0.33 +0.01    +0.077 C  BRANCH  23  24ATOM     24  C   UNL     1      38.540  48.548  24.757 -0.44 +0.00    +0.022 CG0ATOM     25  G   UNL     1      37.341  49.409  24.362 +0.00 +0.00    +0.000 G0 ENDBRANCH  23  24BRANCH  23  26ATOM     26  C   UNL     1      37.911  46.878  26.631 -0.29 -0.01    +0.113 C  BRANCH  26  27ATOM     27  C   UNL     1      37.118  48.063  27.235 -0.32 -0.01    +0.107 C  BRANCH  27  28ATOM     28  N   UNL     1      36.071  48.689  26.434 -0.25 +0.03    -0.315 NA ATOM     29  H   UNL     1      35.332  49.025  27.056 +0.02 -0.01    +0.122 HD BRANCH  28  30ATOM     30  C   UNL     1      36.458  49.779  25.551 -0.47 -0.00    +0.081 C  BRANCH  30  31ATOM     31  C   UNL     1      37.328  49.389  24.359 -0.24 +0.00    +0.017 CG0ATOM     32  G   UNL     1      38.540  48.549  24.757 +0.00 +0.00    +0.000 G0 ENDBRANCH  30  31ENDBRANCH  28  30ENDBRANCH  27  28ENDBRANCH  26  27BRANCH  26  33ATOM     33  N   UNL     1      37.144  45.629  26.809 -0.16 +0.05    -0.346 N  ATOM     34  C   UNL     1      37.772  44.408  26.920 -0.20 -0.02    +0.251 C  ATOM     35  H   UNL     1      36.145  45.709  26.936 -0.41 -0.06    +0.164 HD ATOM     36  O   UNL     1      38.981  44.259  26.785 -0.11 +0.01    -0.269 OA BRANCH  34  37ATOM     37  C   UNL     1      36.905  43.231  27.188 -0.35 -0.01    +0.042 A  ATOM     38  C   UNL     1      35.523  43.414  27.156 -0.49 -0.01    +0.034 A  ATOM     39  C   UNL     1      37.428  41.961  27.434 -0.41 -0.01    +0.034 A  ATOM     40  C   UNL     1      34.715  42.321  27.404 -0.47 -0.03    +0.112 A  ATOM     41  C   UNL     1      36.535  40.930  27.666 -0.45 -0.04    +0.112 A  ATOM     42  N   UNL     1      35.194  41.085  27.667 -0.43 +0.12    -0.265 NA ENDBRANCH  34  37ENDBRANCH  26  33ENDBRANCH  23  26ENDBRANCH   1  23TORSDOF 9TERENDMDL