MODEL        2USER    Run = 2USERUSER    Estimated Free Energy of Binding    =  -7.03 kcal/mol  [=(1)+(2)+(3)-(4)]USERUSER    (1) Final Intermolecular Energy     = -11.50 kcal/molUSER        vdW + Hbond + desolv Energy     = -11.77 kcal/molUSER        Electrostatic Energy            =  -0.17 kcal/molUSER        Moving Ligand-Fixed Receptor    = -11.94 kcal/molUSER        Moving Ligand-Moving Receptor   =  +0.44 kcal/molUSER    (2) Final Total Internal Energy     =  -2.36 kcal/molUSER    (3) Torsional Free Energy           =  +4.47 kcal/molUSER    (4) Unbound System's Energy         =  -2.36 kcal/molUSERUSERREMARK SMILES COc1ccc(O)c(C(=O)c2ccc(NC[C@@H]3CCCNC[C@@H]3NC(=O)c3ccncc3)cc2)c1FREMARK SMILES IDX 16 1 15 2 14 4 11 5 12 6 34 7 13 8 33 9 9 10 10 11 8 12 3 13REMARK SMILES IDX 4 14 35 15 5 16 6 17 36 18 2 19 1 20 7 21 17 23 18 24 23 26REMARK SMILES IDX 22 27 21 28 20 30 19 31 24 33 25 34 26 36 27 37 28 38 32 39REMARK SMILES IDX 29 40 31 41 30 42REMARK H PARENT 15 3 7 22 21 29 24 35REMARK Flexibility Score:   99.900USER                              x       y       z     vdW  Elec       q    TypeUSER                           _______ _______ _______ _____ _____    ______ ____ROOTATOM      1  C   UNL     1      38.982  44.487  24.291 -0.19 +0.01    +0.118 C  ENDROOTBRANCH   1   2ATOM      2  N   UNL     1      38.405  44.118  22.995 -0.09 -0.02    -0.385 N  ATOM      3  H   UNL     1      38.101  43.150  22.952 +0.10 +0.01    +0.160 HD BRANCH   2   4ATOM      4  C   UNL     1      38.901  44.603  21.788 -0.31 +0.00    +0.034 A  ATOM      5  C   UNL     1      40.070  45.533  19.384 -0.41 -0.00    +0.023 A  ATOM      6  C   UNL     1      38.839  44.875  19.364 -0.38 -0.00    +0.014 A  ATOM      7  C   UNL     1      40.748  45.679  20.595 -0.34 +0.00    +0.014 A  ATOM      8  C   UNL     1      38.268  44.409  20.555 -0.35 -0.00    +0.026 A  ATOM      9  C   UNL     1      40.165  45.211  21.779 -0.28 +0.00    +0.026 A  BRANCH   5  10ATOM     10  C   UNL     1      40.654  45.979  18.097 -0.40 -0.01    +0.199 C  ATOM     11  O   UNL     1      41.804  45.642  17.811 -0.28 -0.00    -0.288 OA BRANCH  10  12ATOM     12  C   UNL     1      39.945  46.864  17.147 -0.41 -0.02    +0.104 A  ATOM     13  C   UNL     1      38.051  47.369  15.694 -0.33 -0.08    +0.155 A  ATOM     14  C   UNL     1      38.638  48.591  15.359 -0.47 -0.03    +0.053 A  ATOM     15  C   UNL     1      38.718  46.510  16.582 -0.29 -0.06    +0.179 A  ATOM     16  C   UNL     1      39.881  48.940  15.893 -0.49 -0.02    +0.051 A  ATOM     17  C   UNL     1      40.534  48.076  16.767 -0.42 -0.02    +0.130 A  ATOM     18  F   UNL     1      38.164  45.320  16.862 -0.08 +0.05    -0.202 F  BRANCH  13  19ATOM     19  O   UNL     1      36.850  46.911  15.222 -0.08 +0.34    -0.494 OA ATOM     20  C   UNL     1      36.478  47.294  13.904 -0.35 -0.17    +0.278 C  ENDBRANCH  13  19BRANCH  17  21ATOM     21  O   UNL     1      41.762  48.480  17.217 -0.61 -0.03    -0.507 OA ATOM     22  H   UNL     1      42.343  47.686  17.264 -0.34 -0.05    +0.293 HD ENDBRANCH  17  21ENDBRANCH  10  12ENDBRANCH   5  10ENDBRANCH   2   4ENDBRANCH   1   2BRANCH   1  23ATOM     23  C   UNL     1      38.266  43.777  25.468 -0.25 -0.00    +0.032 C  BRANCH  23  24ATOM     24  C   UNL     1      36.844  43.354  25.045 -0.42 +0.00    +0.009 CG0ATOM     25  G   UNL     1      35.658  43.829  25.884 +0.00 +0.00    +0.000 G0 ENDBRANCH  23  24BRANCH  23  26ATOM     26  C   UNL     1      38.348  44.641  26.748 -0.23 -0.01    +0.101 C  BRANCH  26  27ATOM     27  C   UNL     1      37.823  43.876  27.985 -0.32 -0.02    +0.106 C  BRANCH  27  28ATOM     28  N   UNL     1      36.384  44.023  28.244 -0.22 +0.09    -0.315 NA ATOM     29  H   UNL     1      36.204  43.656  29.181 -0.49 -0.08    +0.122 HD BRANCH  28  30ATOM     30  C   UNL     1      35.555  43.273  27.300 -0.53 -0.02    +0.081 C  BRANCH  30  31ATOM     31  C   UNL     1      35.656  43.832  25.886 -0.15 -0.00    +0.016 CG0ATOM     32  G   UNL     1      36.841  43.357  25.044 +0.00 +0.00    +0.000 G0 ENDBRANCH  30  31ENDBRANCH  28  30ENDBRANCH  27  28ENDBRANCH  26  27BRANCH  26  33ATOM     33  N   UNL     1      37.645  45.915  26.626 -0.13 +0.03    -0.348 N  ATOM     34  C   UNL     1      38.285  47.115  26.430 -0.20 -0.00    +0.251 C  ATOM     35  H   UNL     1      36.651  45.872  26.817 -0.11 -0.04    +0.164 HD ATOM     36  O   UNL     1      39.504  47.215  26.346 -0.13 -0.01    -0.269 OA BRANCH  34  37ATOM     37  C   UNL     1      37.428  48.327  26.343 -0.34 -0.00    +0.042 A  ATOM     38  C   UNL     1      37.447  49.060  25.155 -0.41 +0.00    +0.034 A  ATOM     39  C   UNL     1      36.595  48.733  27.386 -0.32 -0.00    +0.034 A  ATOM     40  C   UNL     1      36.648  50.184  25.069 -0.25 -0.00    +0.112 A  ATOM     41  C   UNL     1      35.833  49.872  27.199 -0.24 +0.00    +0.112 A  ATOM     42  N   UNL     1      35.845  50.608  26.069 -0.25 -0.01    -0.265 NA ENDBRANCH  34  37ENDBRANCH  26  33ENDBRANCH  23  26ENDBRANCH   1  23TORSDOF 9TERENDMDL