MODEL        8USER    Run = 8USERUSER    Estimated Free Energy of Binding    = -13.09 kcal/mol  [=(1)+(2)+(3)-(4)]USERUSER    (1) Final Intermolecular Energy     = -14.88 kcal/molUSER        vdW + Hbond + desolv Energy     = -14.82 kcal/molUSER        Electrostatic Energy            =  -0.07 kcal/molUSER        Moving Ligand-Fixed Receptor    = -14.88 kcal/molUSER        Moving Ligand-Moving Receptor   =  +0.00 kcal/molUSER    (2) Final Total Internal Energy     =  -1.85 kcal/molUSER    (3) Torsional Free Energy           =  +1.79 kcal/molUSER    (4) Unbound System's Energy         =  -1.85 kcal/molUSERUSERREMARK SMILES Oc1nc2ccccc2n1C1CCN(Cc2ccc(-c3cc4ccccc4nc3-c3ccccc3)cc2)CC1REMARK SMILES IDX 11 1 12 2 13 3 14 4 38 5 39 6 10 7 2 8 3 9 4 10 9 11 5 12REMARK SMILES IDX 8 13 6 14 7 15 1 16 15 18 16 19 17 20 37 21 18 22 36 23REMARK SMILES IDX 19 24 20 25 21 26 29 27 22 28 28 29 23 30 27 31 24 32 26 33REMARK SMILES IDX 25 34 30 35 31 36 35 37 32 38 34 39 33 40REMARK H PARENT 1 17USER                              x       y       z     vdW  Elec       q    TypeUSER                           _______ _______ _______ _____ _____    ______ ____ROOTATOM      1  C   UNL     1      38.961  46.505  15.645 -0.42 -0.03    +0.095 C  ATOM      2  C   UNL     1      38.627  47.048  14.248 -0.50 -0.01    +0.041 C  ATOM      3  C   UNL     1      37.326  47.839  14.168 -0.54 -0.05    +0.087 C  ATOM      4  N   UNL     1      36.196  47.206  14.850 -0.18 +0.27    -0.299 NA ATOM      5  C   UNL     1      36.503  46.988  16.267 -0.33 -0.08    +0.087 C  ATOM      6  C   UNL     1      37.750  46.145  16.520 -0.41 -0.02    +0.041 C  ENDROOTBRANCH   1   7ATOM      7  N   UNL     1      40.008  47.249  16.342 -0.27 +0.06    -0.291 N  ATOM      8  C   UNL     1      40.467  48.476  15.926 -0.33 -0.07    +0.295 A  ATOM      9  N   UNL     1      41.423  48.958  16.669 -0.98 -0.00    -0.195 NA ATOM     10  C   UNL     1      41.609  48.006  17.634 -0.37 -0.00    +0.092 A  ATOM     11  C   UNL     1      40.734  46.923  17.470 -0.46 -0.01    +0.072 A  ATOM     12  C   UNL     1      42.527  48.013  18.698 -0.39 +0.00    +0.031 A  ATOM     13  C   UNL     1      40.748  45.842  18.360 -0.46 -0.00    +0.029 A  ATOM     14  C   UNL     1      42.548  46.934  19.584 -0.50 +0.00    +0.002 A  ATOM     15  C   UNL     1      41.670  45.868  19.415 -0.43 +0.00    +0.002 A  BRANCH   8  16ATOM     16  O   UNL     1      40.012  49.139  14.883 -0.20 +0.20    -0.480 OA ATOM     17  H   UNL     1      39.725  49.972  15.301 -0.14 -0.21    +0.296 HD ENDBRANCH   8  16ENDBRANCH   1   7BRANCH   4  18ATOM     18  C   UNL     1      35.726  45.999  14.149 -0.40 -0.08    +0.120 C  BRANCH  18  19ATOM     19  C   UNL     1      35.004  45.025  15.055 -0.23 +0.02    -0.034 A  ATOM     20  C   UNL     1      33.641  45.178  15.336 -0.31 -0.00    +0.006 A  ATOM     21  C   UNL     1      35.696  43.950  15.630 -0.36 -0.00    +0.006 A  ATOM     22  C   UNL     1      32.984  44.274  16.176 -0.32 -0.00    +0.009 A  ATOM     23  C   UNL     1      35.038  43.053  16.476 -0.42 -0.00    +0.009 A  ATOM     24  C   UNL     1      33.675  43.205  16.766 -0.34 +0.01    -0.016 A  BRANCH  24  25ATOM     25  C   UNL     1      32.983  42.254  17.649 -0.36 -0.00    +0.009 A  ATOM     26  C   UNL     1      31.836  41.597  17.181 -0.22 -0.01    +0.021 A  ATOM     27  C   UNL     1      33.422  41.926  18.942 -0.34 -0.01    +0.079 A  ATOM     28  C   UNL     1      31.175  40.650  17.973 -0.36 -0.00    +0.001 A  ATOM     29  N   UNL     1      32.796  40.996  19.719 -0.31 -0.06    -0.247 NA ATOM     30  C   UNL     1      30.026  39.978  17.523 -0.35 +0.00    +0.010 A  ATOM     31  C   UNL     1      31.701  40.379  19.249 -0.32 +0.01    +0.071 A  ATOM     32  C   UNL     1      29.395  39.037  18.335 -0.34 +0.00    +0.001 A  ATOM     33  C   UNL     1      31.056  39.436  20.038 -0.36 +0.00    +0.029 A  ATOM     34  C   UNL     1      29.912  38.764  19.596 -0.35 +0.00    +0.002 A  BRANCH  27  35ATOM     35  C   UNL     1      34.590  42.543  19.598 -0.43 -0.00    +0.001 A  ATOM     36  C   UNL     1      35.475  41.760  20.360 -0.24 -0.00    +0.010 A  ATOM     37  C   UNL     1      34.848  43.922  19.506 -0.40 -0.00    +0.010 A  ATOM     38  C   UNL     1      36.589  42.329  20.985 -0.48 +0.00    +0.001 A  ATOM     39  C   UNL     1      35.960  44.493  20.131 -0.26 -0.00    +0.001 A  ATOM     40  C   UNL     1      36.833  43.695  20.867 -0.42 +0.00    +0.000 A  ENDBRANCH  27  35ENDBRANCH  24  25ENDBRANCH  18  19ENDBRANCH   4  18TORSDOF 6TERENDMDL