MODEL        1USER    Run = 1USERUSER    Estimated Free Energy of Binding    =  -6.88 kcal/mol  [=(1)+(2)+(3)-(4)]USERUSER    (1) Final Intermolecular Energy     = -11.05 kcal/molUSER        vdW + Hbond + desolv Energy     = -11.90 kcal/molUSER        Electrostatic Energy            =  -0.10 kcal/molUSER        Moving Ligand-Fixed Receptor    = -12.01 kcal/molUSER        Moving Ligand-Moving Receptor   =  +0.95 kcal/molUSER    (2) Final Total Internal Energy     =  -3.34 kcal/molUSER    (3) Torsional Free Energy           =  +4.18 kcal/molUSER    (4) Unbound System's Energy         =  -3.34 kcal/molUSERUSERREMARK SMILES COc1ccc(O)c(C(=O)c2ccc(C(=O)N[C@@H]3CCCNC[C@H]3NC(=O)c3ccncc3)cc2)c1FREMARK SMILES IDX 15 1 16 2 17 3 14 5 11 6 12 7 35 8 13 9 34 10 9 11 10 12REMARK SMILES IDX 8 13 3 14 4 15 36 16 5 17 6 18 37 19 2 20 1 21 7 22 18 24REMARK SMILES IDX 19 25 24 27 23 28 22 29 21 31 20 32 25 34 26 35 27 37 28 38REMARK SMILES IDX 29 39 33 40 30 41 32 42 31 43REMARK H PARENT 17 4 7 23 22 30 25 36REMARK Flexibility Score:   88.900USER                              x       y       z     vdW  Elec       q    TypeUSER                           _______ _______ _______ _____ _____    ______ ____ROOTATOM      1  C   UNL     1      38.271  44.553  23.375 -0.21 +0.02    +0.251 C  ATOM      2  O   UNL     1      37.499  45.375  23.855 -0.38 -0.06    -0.269 OA ATOM      3  N   UNL     1      38.596  43.364  23.997 -0.08 -0.02    -0.347 N  ATOM      4  H   UNL     1      39.387  42.844  23.643 +0.08 +0.01    +0.164 HD ENDROOTBRANCH   1   5ATOM      5  C   UNL     1      38.975  44.841  22.094 -0.30 +0.00    +0.039 A  ATOM      6  C   UNL     1      40.172  45.398  19.621 -0.40 +0.00    +0.023 A  ATOM      7  C   UNL     1      38.998  44.640  19.676 -0.36 -0.00    +0.013 A  ATOM      8  C   UNL     1      40.749  45.877  20.803 -0.31 +0.00    +0.013 A  ATOM      9  C   UNL     1      38.408  44.353  20.909 -0.36 +0.00    +0.014 A  ATOM     10  C   UNL     1      40.157  45.589  22.041 -0.28 +0.00    +0.014 A  BRANCH   6  11ATOM     11  C   UNL     1      40.714  45.743  18.289 -0.40 -0.01    +0.199 C  ATOM     12  O   UNL     1      41.778  45.226  17.944 -0.25 -0.02    -0.288 OA BRANCH  11  13ATOM     13  C   UNL     1      40.034  46.635  17.321 -0.41 -0.02    +0.104 A  ATOM     14  C   UNL     1      38.098  47.267  15.975 -0.31 -0.08    +0.155 A  ATOM     15  C   UNL     1      38.796  48.375  15.489 -0.47 -0.03    +0.053 A  ATOM     16  C   UNL     1      38.725  46.406  16.892 -0.29 -0.05    +0.179 A  ATOM     17  C   UNL     1      40.097  48.630  15.931 -0.52 -0.02    +0.051 A  ATOM     18  C   UNL     1      40.701  47.774  16.849 -0.44 -0.02    +0.130 A  ATOM     19  F   UNL     1      38.027  45.367  17.378 -0.09 +0.05    -0.202 F  BRANCH  14  20ATOM     20  O   UNL     1      36.818  46.924  15.629 -0.09 +0.36    -0.494 OA ATOM     21  C   UNL     1      36.507  46.894  14.239 -0.30 -0.18    +0.278 C  ENDBRANCH  14  20BRANCH  18  22ATOM     22  O   UNL     1      41.966  48.120  17.249 -0.38 +0.00    -0.507 OA ATOM     23  H   UNL     1      42.455  47.284  17.434 -0.36 -0.08    +0.293 HD ENDBRANCH  18  22ENDBRANCH  11  13ENDBRANCH   6  11ENDBRANCH   1   5BRANCH   3  24ATOM     24  C   UNL     1      38.185  43.103  25.382 -0.25 -0.00    +0.106 C  BRANCH  24  25ATOM     25  C   UNL     1      38.661  41.708  25.810 -0.03 +0.00    +0.028 CG0ATOM     26  G   UNL     1      38.742  41.467  27.326 +0.00 +0.00    +0.000 G0 ENDBRANCH  24  25BRANCH  24  27ATOM     27  C   UNL     1      36.655  43.325  25.545 -0.35 -0.00    +0.118 C  BRANCH  27  28ATOM     28  C   UNL     1      35.928  42.261  26.401 -0.47 -0.02    +0.108 C  BRANCH  28  29ATOM     29  N   UNL     1      36.351  42.123  27.798 -0.18 +0.11    -0.315 NA ATOM     30  H   UNL     1      36.596  43.035  28.177 -0.20 -0.05    +0.122 HD BRANCH  29  31ATOM     31  C   UNL     1      37.431  41.176  28.054 -0.43 -0.02    +0.081 C  BRANCH  31  32ATOM     32  C   UNL     1      38.744  41.450  27.326 -0.43 -0.00    +0.017 CG0ATOM     33  G   UNL     1      38.660  41.708  25.812 +0.00 +0.00    +0.000 G0 ENDBRANCH  31  32ENDBRANCH  29  31ENDBRANCH  28  29ENDBRANCH  27  28BRANCH  27  34ATOM     34  N   UNL     1      36.392  44.678  26.052 -0.14 +0.04    -0.346 N  ATOM     35  C   UNL     1      36.986  45.145  27.201 -0.27 -0.04    +0.251 C  ATOM     36  H   UNL     1      35.996  45.342  25.404 -0.38 -0.01    +0.164 HD ATOM     37  O   UNL     1      37.692  44.458  27.928 -0.25 +0.04    -0.269 OA BRANCH  35  38ATOM     38  C   UNL     1      36.756  46.574  27.528 -0.28 -0.01    +0.042 A  ATOM     39  C   UNL     1      37.309  47.541  26.688 -0.33 -0.00    +0.034 A  ATOM     40  C   UNL     1      36.035  46.968  28.656 -0.30 -0.01    +0.034 A  ATOM     41  C   UNL     1      37.096  48.870  27.000 -0.27 -0.00    +0.112 A  ATOM     42  C   UNL     1      35.879  48.324  28.880 -0.27 -0.02    +0.112 A  ATOM     43  N   UNL     1      36.389  49.282  28.074 -0.16 +0.01    -0.265 NA ENDBRANCH  35  38ENDBRANCH  27  34ENDBRANCH  24  27ENDBRANCH   3  24TORSDOF 8TERENDMDL