MODEL        5USER    Run = 5USERUSER    Estimated Free Energy of Binding    = -12.98 kcal/mol  [=(1)+(2)+(3)-(4)]USERUSER    (1) Final Intermolecular Energy     = -14.77 kcal/molUSER        vdW + Hbond + desolv Energy     = -14.70 kcal/molUSER        Electrostatic Energy            =  -0.07 kcal/molUSER        Moving Ligand-Fixed Receptor    = -14.77 kcal/molUSER        Moving Ligand-Moving Receptor   =  +0.00 kcal/molUSER    (2) Final Total Internal Energy     =  -1.80 kcal/molUSER    (3) Torsional Free Energy           =  +1.79 kcal/molUSER    (4) Unbound System's Energy         =  -1.80 kcal/molUSERUSERREMARK SMILES Oc1nc2ccccc2n1C1CCN(Cc2ccc(-c3nc4ccccc4nc3-c3ccccc3)cc2)CC1REMARK SMILES IDX 11 1 12 2 13 3 14 4 38 5 39 6 10 7 2 8 3 9 4 10 9 11 5 12REMARK SMILES IDX 8 13 6 14 7 15 1 16 15 18 16 19 17 20 37 21 18 22 36 23REMARK SMILES IDX 19 24 20 25 21 26 29 27 22 28 28 29 23 30 27 31 24 32 26 33REMARK SMILES IDX 25 34 30 35 31 36 35 37 32 38 34 39 33 40REMARK H PARENT 1 17USER                              x       y       z     vdW  Elec       q    TypeUSER                           _______ _______ _______ _____ _____    ______ ____ROOTATOM      1  C   UNL     1      38.978  47.450  15.472 -0.48 -0.03    +0.095 C  ATOM      2  C   UNL     1      37.832  46.922  16.350 -0.42 -0.02    +0.041 C  ATOM      3  C   UNL     1      36.463  47.325  15.803 -0.31 -0.09    +0.087 C  ATOM      4  N   UNL     1      36.335  47.166  14.351 -0.22 +0.22    -0.299 NA ATOM      5  C   UNL     1      37.363  47.909  13.603 -0.56 -0.04    +0.087 C  ATOM      6  C   UNL     1      38.490  48.495  14.461 -0.55 -0.02    +0.041 C  ENDROOTBRANCH   1   7ATOM      7  N   UNL     1      40.118  47.906  16.253 -0.30 +0.07    -0.291 N  ATOM      8  C   UNL     1      40.805  49.075  16.083 -0.33 -0.06    +0.295 A  ATOM      9  N   UNL     1      41.781  49.231  16.934 -0.86 -0.04    -0.195 NA ATOM     10  C   UNL     1      41.729  48.106  17.720 -0.35 -0.00    +0.092 A  ATOM     11  C   UNL     1      40.695  47.254  17.325 -0.47 -0.01    +0.072 A  ATOM     12  C   UNL     1      42.542  47.745  18.807 -0.50 +0.00    +0.031 A  ATOM     13  C   UNL     1      40.427  46.043  17.978 -0.46 -0.00    +0.029 A  ATOM     14  C   UNL     1      42.290  46.538  19.469 -0.45 +0.00    +0.002 A  ATOM     15  C   UNL     1      41.250  45.704  19.060 -0.46 +0.00    +0.002 A  BRANCH   8  16ATOM     16  O   UNL     1      40.530  49.981  15.168 -0.21 +0.22    -0.480 OA ATOM     17  H   UNL     1      39.756  50.423  15.561 -0.21 -0.22    +0.296 HD ENDBRANCH   8  16ENDBRANCH   1   7BRANCH   4  18ATOM     18  C   UNL     1      36.247  45.765  13.905 -0.42 -0.06    +0.120 C  BRANCH  18  19ATOM     19  C   UNL     1      35.544  44.853  14.887 -0.23 +0.02    -0.034 A  ATOM     20  C   UNL     1      34.251  45.146  15.335 -0.30 -0.00    +0.006 A  ATOM     21  C   UNL     1      36.183  43.707  15.375 -0.39 -0.00    +0.006 A  ATOM     22  C   UNL     1      33.605  44.296  16.239 -0.32 -0.01    +0.011 A  ATOM     23  C   UNL     1      35.534  42.859  16.277 -0.45 -0.00    +0.011 A  ATOM     24  C   UNL     1      34.227  43.130  16.713 -0.38 -0.00    +0.002 A  BRANCH  24  25ATOM     25  C   UNL     1      33.522  42.238  17.650 -0.32 -0.03    +0.097 A  ATOM     26  N   UNL     1      32.430  41.625  17.108 -0.05 +0.11    -0.244 NA ATOM     27  C   UNL     1      33.888  42.023  18.988 -0.31 -0.01    +0.097 A  ATOM     28  C   UNL     1      31.699  40.836  17.915 -0.32 -0.02    +0.089 A  ATOM     29  N   UNL     1      33.133  41.230  19.802 -0.07 -0.06    -0.244 NA ATOM     30  C   UNL     1      30.571  40.200  17.410 -0.34 -0.00    +0.030 A  ATOM     31  C   UNL     1      32.050  40.640  19.268 -0.29 +0.01    +0.089 A  ATOM     32  C   UNL     1      29.781  39.375  18.213 -0.34 +0.00    +0.002 A  ATOM     33  C   UNL     1      31.258  39.818  20.060 -0.28 +0.00    +0.030 A  ATOM     34  C   UNL     1      30.127  39.183  19.544 -0.31 +0.00    +0.002 A  BRANCH  27  35ATOM     35  C   UNL     1      35.085  42.582  19.644 -0.44 -0.00    +0.002 A  ATOM     36  C   UNL     1      35.515  43.887  19.343 -0.38 -0.00    +0.010 A  ATOM     37  C   UNL     1      35.815  41.858  20.604 -0.43 -0.00    +0.010 A  ATOM     38  C   UNL     1      36.645  44.438  19.956 -0.33 -0.00    +0.001 A  ATOM     39  C   UNL     1      36.947  42.405  21.214 -0.46 +0.00    +0.001 A  ATOM     40  C   UNL     1      37.363  43.694  20.889 -0.39 +0.00    +0.000 A  ENDBRANCH  27  35ENDBRANCH  24  25ENDBRANCH  18  19ENDBRANCH   4  18TORSDOF 6TERENDMDL