MODEL        3USER    Run = 3USERUSER    Estimated Free Energy of Binding    = -12.72 kcal/mol  [=(1)+(2)+(3)-(4)]USERUSER    (1) Final Intermolecular Energy     = -14.51 kcal/molUSER        vdW + Hbond + desolv Energy     = -14.23 kcal/molUSER        Electrostatic Energy            =  -0.28 kcal/molUSER        Moving Ligand-Fixed Receptor    = -14.51 kcal/molUSER        Moving Ligand-Moving Receptor   =  +0.00 kcal/molUSER    (2) Final Total Internal Energy     =  -1.92 kcal/molUSER    (3) Torsional Free Energy           =  +1.79 kcal/molUSER    (4) Unbound System's Energy         =  -1.92 kcal/molUSERUSERREMARK SMILES Cn1ccc2ccc3c4[nH]c5c(CCCN[C@H]6CC[C@H](O)CC6)cccc5c4c4c(c3c21)C(=O)NC4=OREMARK SMILES IDX 15 1 14 2 13 3 12 4 2 5 3 6 32 7 4 8 31 9 5 10 30 11 8 12REMARK SMILES IDX 6 13 29 14 33 15 7 16 9 17 28 18 36 19 35 20 10 21 27 22REMARK SMILES IDX 11 23 26 24 25 25 24 26 1 27 34 28 37 29 16 32 17 34 23 35REMARK SMILES IDX 18 36 22 37 19 38 20 39 21 40REMARK H PARENT 35 30 10 31 16 33 21 41USER                              x       y       z     vdW  Elec       q    TypeUSER                           _______ _______ _______ _____ _____    ______ ____ROOTATOM      1  C   UNL     1      35.774  42.215  20.753 -0.49 +0.00    +0.081 C  ENDROOTBRANCH   1   2ATOM      2  C   UNL     1      36.552  43.057  21.768 -0.45 +0.00    +0.020 C  BRANCH   2   3ATOM      3  C   UNL     1      37.768  42.327  22.348 -0.44 +0.00    +0.039 C  BRANCH   3   4ATOM      4  C   UNL     1      39.069  43.076  22.192 -0.18 -0.00    -0.024 A  ATOM      5  N   UNL     1      39.661  47.917  15.020 -0.23 +0.10    -0.350 N  ATOM      6  C   UNL     1      38.699  48.366  14.145 -0.41 -0.03    +0.086 A  ATOM      7  C   UNL     1      39.071  47.316  16.127 -0.42 -0.02    +0.057 A  ATOM      8  C   UNL     1      37.493  47.872  14.561 -0.50 -0.02    +0.028 A  ATOM      9  C   UNL     1      39.572  46.825  17.390 -0.44 -0.00    +0.022 A  ATOM     10  C   UNL     1      37.724  47.146  15.758 -0.42 -0.00    +0.000 A  ATOM     11  C   UNL     1      40.801  47.099  18.012 -0.46 -0.01    +0.063 A  ATOM     12  C   UNL     1      38.691  45.957  18.106 -0.38 -0.00    +0.009 A  ATOM     13  C   UNL     1      36.870  46.366  16.555 -0.36 -0.01    +0.011 A  ATOM     14  C   UNL     1      41.217  46.449  19.180 -0.41 +0.00    +0.063 A  ATOM     15  C   UNL     1      41.817  48.137  17.765 -0.25 -0.01    +0.259 C  ATOM     16  C   UNL     1      37.369  45.736  17.691 -0.34 -0.00    +0.012 A  ATOM     17  C   UNL     1      39.149  45.304  19.293 -0.37 -0.00    +0.055 A  ATOM     18  C   UNL     1      40.421  45.512  19.844 -0.40 +0.00    +0.022 A  ATOM     19  C   UNL     1      42.524  46.985  19.554 -0.38 +0.04    +0.259 C  ATOM     20  N   UNL     1      42.858  47.885  18.597 -0.34 -0.01    -0.288 N  ATOM     21  N   UNL     1      38.520  44.397  20.118 -0.14 +0.01    -0.354 N  ATOM     22  C   UNL     1      40.534  44.681  21.009 -0.32 +0.00    +0.008 A  ATOM     23  C   UNL     1      39.329  43.993  21.153 -0.22 +0.00    +0.050 A  ATOM     24  C   UNL     1      41.547  44.442  21.961 -0.26 +0.00    +0.011 A  ATOM     25  C   UNL     1      41.324  43.540  23.006 -0.25 +0.00    +0.001 A  ATOM     26  C   UNL     1      40.109  42.873  23.116 -0.27 +0.00    +0.006 A  ATOM     27  C   UNL     1      41.053  47.880  14.623 -0.27 -0.01    +0.149 C  ATOM     28  O   UNL     1      41.716  49.110  17.046 -0.94 -0.04    -0.269 OA ATOM     29  O   UNL     1      43.172  46.737  20.550 -0.31 -0.10    -0.269 OA ATOM     30  H   UNL     1      43.620  48.534  18.720 -0.42 -0.01    +0.173 HD ATOM     31  H   UNL     1      37.586  44.047  19.974 +0.11 -0.01    +0.167 HD ENDBRANCH   3   4ENDBRANCH   2   3ENDBRANCH   1   2BRANCH   1  32ATOM     32  N   UNL     1      36.043  42.718  19.404 -0.16 +0.03    -0.314 NA ATOM     33  H   UNL     1      36.541  43.605  19.455 +0.09 -0.01    +0.122 HD BRANCH  32  34ATOM     34  C   UNL     1      34.822  42.873  18.601 -0.41 -0.01    +0.053 C  ATOM     35  C   UNL     1      33.863  43.945  19.162 -0.45 -0.00    +0.021 C  ATOM     36  C   UNL     1      35.268  43.195  17.160 -0.43 -0.01    +0.021 C  ATOM     37  C   UNL     1      34.076  45.313  18.516 -0.48 -0.01    +0.033 C  ATOM     38  C   UNL     1      34.163  43.898  16.384 -0.37 -0.02    +0.033 C  ATOM     39  C   UNL     1      33.829  45.258  17.004 -0.31 -0.08    +0.114 C  BRANCH  39  40ATOM     40  O   UNL     1      32.456  45.535  16.729 -0.37 +0.24    -0.393 OA ATOM     41  H   UNL     1      32.423  46.328  16.167 -0.37 -0.29    +0.210 HD ENDBRANCH  39  40ENDBRANCH  32  34ENDBRANCH   1  32TORSDOF 6TERENDMDL