MODEL        4USER    Run = 4USERUSER    Estimated Free Energy of Binding    =  -7.17 kcal/mol  [=(1)+(2)+(3)-(4)]USERUSER    (1) Final Intermolecular Energy     = -11.64 kcal/molUSER        vdW + Hbond + desolv Energy     = -11.81 kcal/molUSER        Electrostatic Energy            =  -0.25 kcal/molUSER        Moving Ligand-Fixed Receptor    = -12.06 kcal/molUSER        Moving Ligand-Moving Receptor   =  +0.41 kcal/molUSER    (2) Final Total Internal Energy     =  -2.84 kcal/molUSER    (3) Torsional Free Energy           =  +4.47 kcal/molUSER    (4) Unbound System's Energy         =  -2.84 kcal/molUSERUSERREMARK SMILES COc1ccc(O)c(C(=O)c2ccc(CO[C@@H]3CCCNC[C@@H]3NC(=O)c3ccncc3)cc2)c1FREMARK SMILES IDX 16 1 15 2 14 3 11 4 12 5 34 6 13 7 33 8 9 9 10 10 8 11 3 12REMARK SMILES IDX 4 13 35 14 5 15 6 16 36 17 2 18 1 19 7 20 17 22 18 23 23 25REMARK SMILES IDX 22 26 21 27 20 29 19 30 24 32 25 33 26 35 27 36 28 37 32 38REMARK SMILES IDX 29 39 31 40 30 41REMARK H PARENT 7 21 21 28 24 34REMARK Flexibility Score:   99.900USER                              x       y       z     vdW  Elec       q    TypeUSER                           _______ _______ _______ _____ _____    ______ ____ROOTATOM      1  O   UNL     1      38.412  44.046  18.225 -0.13 +0.05    -0.371 OA ENDROOTBRANCH   1   2ATOM      2  C   UNL     1      37.417  44.813  18.900 -0.27 -0.03    +0.196 C  BRANCH   2   3ATOM      3  C   UNL     1      36.063  44.291  18.493 -0.32 +0.01    -0.022 A  ATOM      4  C   UNL     1      33.527  43.325  17.765 -0.31 -0.01    +0.023 A  ATOM      5  C   UNL     1      33.667  44.631  18.246 -0.36 -0.00    +0.012 A  ATOM      6  C   UNL     1      34.658  42.515  17.618 -0.40 -0.00    +0.012 A  ATOM      7  C   UNL     1      34.927  45.105  18.613 -0.39 -0.00    +0.007 A  ATOM      8  C   UNL     1      35.917  42.992  17.985 -0.21 -0.00    +0.007 A  BRANCH   4   9ATOM      9  C   UNL     1      32.214  42.789  17.331 -0.23 -0.06    +0.199 C  ATOM     10  O   UNL     1      31.507  43.470  16.584 -0.18 +0.11    -0.288 OA BRANCH   9  11ATOM     11  C   UNL     1      31.672  41.495  17.798 -0.27 -0.02    +0.104 A  ATOM     12  C   UNL     1      31.545  39.692  19.433 -0.29 +0.02    +0.155 A  ATOM     13  C   UNL     1      30.596  39.042  18.640 -0.36 +0.01    +0.053 A  ATOM     14  C   UNL     1      32.081  40.912  18.998 -0.26 +0.00    +0.179 A  ATOM     15  C   UNL     1      30.205  39.600  17.420 -0.28 +0.01    +0.051 A  ATOM     16  C   UNL     1      30.750  40.810  16.998 -0.25 -0.03    +0.130 A  ATOM     17  F   UNL     1      33.018  41.509  19.752 -0.05 -0.04    -0.202 F  BRANCH  12  18ATOM     18  O   UNL     1      32.016  39.237  20.635 -1.01 -0.20    -0.494 OA ATOM     19  C   UNL     1      31.256  38.234  21.298 -0.36 +0.03    +0.278 C  ENDBRANCH  12  18BRANCH  16  20ATOM     20  O   UNL     1      30.336  41.270  15.777 -0.16 +0.22    -0.507 OA ATOM     21  H   UNL     1      31.100  41.724  15.350 -0.26 -0.20    +0.293 HD ENDBRANCH  16  20ENDBRANCH   9  11ENDBRANCH   4   9ENDBRANCH   2   3ENDBRANCH   1   2BRANCH   1  22ATOM     22  C   UNL     1      39.749  44.278  18.719 -0.31 -0.00    +0.142 C  BRANCH  22  23ATOM     23  C   UNL     1      39.546  44.896  20.110 -0.41 -0.00    +0.035 CG0ATOM     24  G   UNL     1      40.766  45.258  20.949 +0.00 +0.00    +0.000 G0 ENDBRANCH  22  23BRANCH  22  25ATOM     25  C   UNL     1      40.528  45.143  17.699 -0.24 -0.00    +0.125 C  BRANCH  25  26ATOM     26  C   UNL     1      41.719  45.864  18.379 -0.42 +0.00    +0.108 C  BRANCH  26  27ATOM     27  N   UNL     1      41.393  46.976  19.270 -0.21 -0.01    -0.315 NA ATOM     28  H   UNL     1      40.494  47.366  18.982 +0.05 -0.01    +0.122 HD BRANCH  27  29ATOM     29  C   UNL     1      41.376  46.633  20.685 -0.06 +0.01    +0.081 C  BRANCH  29  30ATOM     30  C   UNL     1      40.766  45.264  20.948 -0.38 +0.00    +0.018 CG0ATOM     31  G   UNL     1      39.547  44.898  20.109 +0.00 +0.00    +0.000 G0 ENDBRANCH  29  30ENDBRANCH  27  29ENDBRANCH  26  27ENDBRANCH  25  26BRANCH  25  32ATOM     32  N   UNL     1      39.625  46.037  16.960 -0.18 +0.06    -0.345 N  ATOM     33  C   UNL     1      39.852  46.350  15.636 -0.31 -0.04    +0.251 C  ATOM     34  H   UNL     1      38.653  45.974  17.237 +0.10 -0.04    +0.164 HD ATOM     35  O   UNL     1      40.851  46.008  15.018 -0.40 -0.02    -0.269 OA BRANCH  33  36ATOM     36  C   UNL     1      38.777  47.114  14.948 -0.43 -0.01    +0.042 A  ATOM     37  C   UNL     1      38.258  46.602  13.758 -0.40 -0.01    +0.034 A  ATOM     38  C   UNL     1      38.305  48.332  15.436 -0.47 -0.02    +0.034 A  ATOM     39  C   UNL     1      37.272  47.325  13.114 -0.49 -0.04    +0.112 A  ATOM     40  C   UNL     1      37.317  48.979  14.715 -0.39 -0.09    +0.112 A  ATOM     41  N   UNL     1      36.788  48.500  13.570 -0.52 +0.14    -0.265 NA ENDBRANCH  33  36ENDBRANCH  25  32ENDBRANCH  22  25ENDBRANCH   1  22TORSDOF 9TERENDMDL