
     RDKit          3D

 51 54  0  0  0  0  0  0  0  0999 V2000
    4.7893    2.9506   -0.3486 C   0  0  0  0  0  0  0  0  0  0  0  0
    4.2918    1.6737    0.2625 C   0  0  0  0  0  0  0  0  0  0  0  0
    3.2759    0.9490   -0.3851 C   0  0  0  0  0  0  0  0  0  0  0  0
    2.7775   -0.2549    0.1432 C   0  0  0  0  0  0  0  0  0  0  0  0
    1.7097   -0.9948   -0.5455 C   0  0  0  0  0  0  0  0  0  0  0  0
    0.4027   -0.9447   -0.0217 C   0  0  0  0  0  0  0  0  0  0  0  0
   -0.6659   -1.6094   -0.6394 C   0  0  0  0  0  0  0  0  0  0  0  0
   -2.0280   -1.5545   -0.0863 C   0  0  0  0  0  0  0  0  0  0  0  0
   -2.7027   -0.4326    0.2546 C   0  0  0  0  0  0  0  0  0  0  0  0
   -2.3260    0.8878    0.1085 N   0  0  0  0  0  0  0  0  0  0  0  0
   -3.0697    2.0814    0.4686 C   0  0  0  0  0  0  0  0  0  0  0  0
   -2.5899    3.2946   -0.3326 C   0  0  0  0  0  0  0  0  0  0  0  0
   -3.3281    4.4515    0.0445 O   0  0  0  0  0  0  0  0  0  0  0  0
   -4.0706   -0.8459    0.7154 C   0  0  0  0  0  0  0  0  0  0  0  0
   -4.5547   -0.5160    2.1013 C   0  0  0  0  0  0  0  0  0  0  0  0
   -5.2620   -1.3420    2.8190 N   0  0  0  0  0  0  0  0  0  0  0  0
   -5.4855   -2.6055    2.3111 C   0  0  0  0  0  0  0  0  0  0  0  0
   -4.8442   -3.1840    1.2853 C   0  0  0  0  0  0  0  0  0  0  0  0
   -3.8379   -2.3267    0.6588 C   0  0  0  0  0  0  0  0  0  0  0  0
   -2.7324   -2.7222    0.1162 N   0  0  0  0  0  0  0  0  0  0  0  0
   -0.4104   -2.3654   -1.7859 C   0  0  0  0  0  0  0  0  0  0  0  0
    0.8782   -2.4351   -2.3190 C   0  0  0  0  0  0  0  0  0  0  0  0
    1.9469   -1.7597   -1.7084 C   0  0  0  0  0  0  0  0  0  0  0  0
    3.3201   -1.8704   -2.3165 C   0  0  0  0  0  0  0  0  0  0  0  0
    3.3105   -0.7277    1.3493 C   0  0  0  0  0  0  0  0  0  0  0  0
    4.3184   -0.0201    2.0042 C   0  0  0  0  0  0  0  0  0  0  0  0
    4.8025    1.1677    1.4624 C   0  0  0  0  0  0  0  0  0  0  0  0
    5.7901    1.7910    2.1708 O   0  0  0  0  0  0  0  0  0  0  0  0
    5.8551    2.8675   -0.5840 H   0  0  0  0  0  0  0  0  0  0  0  0
    4.6316    3.7868    0.3401 H   0  0  0  0  0  0  0  0  0  0  0  0
    4.2625    3.1861   -1.2794 H   0  0  0  0  0  0  0  0  0  0  0  0
    2.8598    1.3224   -1.3198 H   0  0  0  0  0  0  0  0  0  0  0  0
    0.2220   -0.3834    0.8945 H   0  0  0  0  0  0  0  0  0  0  0  0
   -1.3736    1.0267   -0.2254 H   0  0  0  0  0  0  0  0  0  0  0  0
   -2.9511    2.2821    1.5395 H   0  0  0  0  0  0  0  0  0  0  0  0
   -4.1427    1.9439    0.2903 H   0  0  0  0  0  0  0  0  0  0  0  0
   -1.5273    3.4839   -0.1468 H   0  0  0  0  0  0  0  0  0  0  0  0
   -2.7288    3.1254   -1.4057 H   0  0  0  0  0  0  0  0  0  0  0  0
   -2.9986    5.1886   -0.4988 H   0  0  0  0  0  0  0  0  0  0  0  0
   -4.8314   -0.5481   -0.0145 H   0  0  0  0  0  0  0  0  0  0  0  0
   -4.3739    0.4981    2.4885 H   0  0  0  0  0  0  0  0  0  0  0  0
   -6.2189   -3.1901    2.8638 H   0  0  0  0  0  0  0  0  0  0  0  0
   -4.9704   -4.2088    0.9734 H   0  0  0  0  0  0  0  0  0  0  0  0
   -1.2197   -2.9096   -2.2686 H   0  0  0  0  0  0  0  0  0  0  0  0
    1.0426   -3.0329   -3.2130 H   0  0  0  0  0  0  0  0  0  0  0  0
    3.6101   -0.9197   -2.7743 H   0  0  0  0  0  0  0  0  0  0  0  0
    4.0581   -2.1547   -1.5595 H   0  0  0  0  0  0  0  0  0  0  0  0
    3.3502   -2.6393   -3.0961 H   0  0  0  0  0  0  0  0  0  0  0  0
    2.9444   -1.6563    1.7824 H   0  0  0  0  0  0  0  0  0  0  0  0
    4.7276   -0.3967    2.9377 H   0  0  0  0  0  0  0  0  0  0  0  0
    6.0667    2.5926    1.7019 H   0  0  0  0  0  0  0  0  0  0  0  0
  1  2  1  0
  2  3  2  0
  3  4  1  0
  4  5  1  0
  5  6  2  0
  6  7  1  0
  7  8  1  0
  8  9  2  0
  9 10  1  0
 10 11  1  0
 11 12  1  0
 12 13  1  0
  9 14  1  0
 14 15  1  0
 15 16  2  0
 16 17  1  0
 17 18  2  0
 18 19  1  0
 19 20  2  0
  7 21  2  0
 21 22  1  0
 22 23  2  0
 23 24  1  0
  4 25  2  0
 25 26  1  0
 26 27  2  0
 27 28  1  0
 27  2  1  0
 23  5  1  0
 20  8  1  0
 19 14  1  0
  1 29  1  0
  1 30  1  0
  1 31  1  0
  3 32  1  0
  6 33  1  0
 10 34  1  0
 11 35  1  0
 11 36  1  0
 12 37  1  0
 12 38  1  0
 13 39  1  0
 14 40  1  0
 15 41  1  0
 17 42  1  0
 18 43  1  0
 21 44  1  0
 22 45  1  0
 24 46  1  0
 24 47  1  0
 24 48  1  0
 25 49  1  0
 26 50  1  0
 28 51  1  0
M  END
$$$$
