
     RDKit          3D

 51 54  0  0  0  0  0  0  0  0999 V2000
   -3.6159   -4.1202   -1.7053 C   0  0  0  0  0  0  0  0  0  0  0  0
   -3.7878   -2.7975   -2.4442 C   0  0  0  0  0  0  0  0  0  0  0  0
   -4.9604   -2.8874   -3.2599 O   0  0  0  0  0  0  0  0  0  0  0  0
   -2.6002   -2.4656   -3.3552 C   0  0  0  0  0  0  0  0  0  0  0  0
   -1.3559   -2.2649   -2.6510 N   0  0  0  0  0  0  0  0  0  0  0  0
   -0.2772   -3.1080   -2.6600 C   0  0  0  0  0  0  0  0  0  0  0  0
    0.7074   -2.6498   -1.9160 N   0  0  0  0  0  0  0  0  0  0  0  0
    0.2482   -1.4408   -1.4296 C   0  0  0  0  0  0  0  0  0  0  0  0
    0.8239   -0.4724   -0.5932 C   0  0  0  0  0  0  0  0  0  0  0  0
    2.1238   -0.6146   -0.1022 N   0  0  0  0  0  0  0  0  0  0  0  0
    2.3715    0.0200    1.1763 C   0  0  0  0  0  0  0  0  0  0  0  0
    3.7350   -0.3962    1.6760 C   0  0  0  0  0  0  0  0  0  0  0  0
    3.8653   -1.3658    2.6838 C   0  0  0  0  0  0  0  0  0  0  0  0
    5.1293   -1.7629    3.1297 C   0  0  0  0  0  0  0  0  0  0  0  0
    6.2741   -1.1998    2.5678 C   0  0  0  0  0  0  0  0  0  0  0  0
    6.1472   -0.2456    1.5646 C   0  0  0  0  0  0  0  0  0  0  0  0
    7.2491    0.2881    1.0196 F   0  0  0  0  0  0  0  0  0  0  0  0
    4.8949    0.1578    1.1135 C   0  0  0  0  0  0  0  0  0  0  0  0
    0.0692    0.6141   -0.2798 N   0  0  0  0  0  0  0  0  0  0  0  0
   -1.1795    0.7560   -0.7745 C   0  0  0  0  0  0  0  0  0  0  0  0
   -1.9605    1.8662   -0.4558 N   0  0  0  0  0  0  0  0  0  0  0  0
   -1.7276    3.0567    0.2421 C   0  0  0  0  0  0  0  0  0  0  0  0
   -2.7839    3.9782    0.3619 C   0  0  0  0  0  0  0  0  0  0  0  0
   -2.6308    5.1814    1.0593 C   0  0  0  0  0  0  0  0  0  0  0  0
   -1.4132    5.4676    1.6608 C   0  0  0  0  0  0  0  0  0  0  0  0
   -1.2150    6.6222    2.3554 O   0  0  0  0  0  0  0  0  0  0  0  0
   -0.3579    4.5710    1.5757 C   0  0  0  0  0  0  0  0  0  0  0  0
   -0.5181    3.3728    0.8709 C   0  0  0  0  0  0  0  0  0  0  0  0
   -1.8003   -0.1276   -1.5826 N   0  0  0  0  0  0  0  0  0  0  0  0
   -1.0365   -1.1898   -1.8694 C   0  0  0  0  0  0  0  0  0  0  0  0
   -4.5162   -4.3551   -1.1268 H   0  0  0  0  0  0  0  0  0  0  0  0
   -3.4740   -4.9461   -2.4112 H   0  0  0  0  0  0  0  0  0  0  0  0
   -2.7653   -4.0946   -1.0166 H   0  0  0  0  0  0  0  0  0  0  0  0
   -3.9510   -1.9906   -1.7211 H   0  0  0  0  0  0  0  0  0  0  0  0
   -5.7207   -3.0274   -2.6665 H   0  0  0  0  0  0  0  0  0  0  0  0
   -2.8059   -1.5527   -3.9275 H   0  0  0  0  0  0  0  0  0  0  0  0
   -2.4528   -3.2579   -4.0987 H   0  0  0  0  0  0  0  0  0  0  0  0
   -0.2621   -4.0362   -3.2178 H   0  0  0  0  0  0  0  0  0  0  0  0
    2.4300   -1.5821   -0.1810 H   0  0  0  0  0  0  0  0  0  0  0  0
    1.6096   -0.2612    1.9162 H   0  0  0  0  0  0  0  0  0  0  0  0
    2.3497    1.1134    1.0826 H   0  0  0  0  0  0  0  0  0  0  0  0
    2.9800   -1.8203    3.1256 H   0  0  0  0  0  0  0  0  0  0  0  0
    5.2180   -2.5149    3.9107 H   0  0  0  0  0  0  0  0  0  0  0  0
    7.2627   -1.4998    2.9004 H   0  0  0  0  0  0  0  0  0  0  0  0
    4.8287    0.8953    0.3177 H   0  0  0  0  0  0  0  0  0  0  0  0
   -2.8321    1.8020   -0.9601 H   0  0  0  0  0  0  0  0  0  0  0  0
   -3.7487    3.7620   -0.0913 H   0  0  0  0  0  0  0  0  0  0  0  0
   -3.4668    5.8692    1.1221 H   0  0  0  0  0  0  0  0  0  0  0  0
   -2.0227    7.1604    2.3003 H   0  0  0  0  0  0  0  0  0  0  0  0
    0.5900    4.7942    2.0579 H   0  0  0  0  0  0  0  0  0  0  0  0
    0.3317    2.6994    0.8230 H   0  0  0  0  0  0  0  0  0  0  0  0
  1  2  1  0
  2  3  1  0
  2  4  1  0
  4  5  1  0
  5  6  1  0
  6  7  2  0
  7  8  1  0
  8  9  2  0
  9 10  1  0
 10 11  1  0
 11 12  1  0
 12 13  2  0
 13 14  1  0
 14 15  2  0
 15 16  1  0
 16 17  1  0
 16 18  2  0
  9 19  1  0
 19 20  2  0
 20 21  1  0
 21 22  1  0
 22 23  2  0
 23 24  1  0
 24 25  2  0
 25 26  1  0
 25 27  1  0
 27 28  2  0
 20 29  1  0
 29 30  2  0
 30  5  1  0
 30  8  1  0
 18 12  1  0
 28 22  1  0
  1 31  1  0
  1 32  1  0
  1 33  1  0
  2 34  1  0
  3 35  1  0
  4 36  1  0
  4 37  1  0
  6 38  1  0
 10 39  1  0
 11 40  1  0
 11 41  1  0
 13 42  1  0
 14 43  1  0
 15 44  1  0
 18 45  1  0
 21 46  1  0
 23 47  1  0
 24 48  1  0
 26 49  1  0
 27 50  1  0
 28 51  1  0
M  END
$$$$
