
     RDKit          3D

 51 54  0  0  0  0  0  0  0  0999 V2000
    0.3165    4.7016   -0.0159 C   0  0  0  0  0  0  0  0  0  0  0  0
    1.3977    3.9097   -0.7432 C   0  0  0  0  0  0  0  0  0  0  0  0
    2.4104    4.8182   -1.1893 O   0  0  0  0  0  0  0  0  0  0  0  0
    0.8654    3.1262   -1.9492 C   0  0  0  0  0  0  0  0  0  0  0  0
   -0.1169    2.1207   -1.6208 N   0  0  0  0  0  0  0  0  0  0  0  0
   -1.4473    2.1545   -1.9362 C   0  0  0  0  0  0  0  0  0  0  0  0
   -2.0769    1.0809   -1.5080 N   0  0  0  0  0  0  0  0  0  0  0  0
   -1.1010    0.3072   -0.9064 C   0  0  0  0  0  0  0  0  0  0  0  0
   -1.1163   -0.9444   -0.2647 C   0  0  0  0  0  0  0  0  0  0  0  0
   -2.2201   -1.7787   -0.1007 N   0  0  0  0  0  0  0  0  0  0  0  0
   -3.5261   -1.1484   -0.0367 C   0  0  0  0  0  0  0  0  0  0  0  0
   -4.5392   -2.1662    0.4374 C   0  0  0  0  0  0  0  0  0  0  0  0
   -5.0294   -2.1330    1.7509 C   0  0  0  0  0  0  0  0  0  0  0  0
   -5.9534   -3.0853    2.1851 C   0  0  0  0  0  0  0  0  0  0  0  0
   -6.3911   -4.0822    1.3146 C   0  0  0  0  0  0  0  0  0  0  0  0
   -5.9034   -4.1313    0.0101 C   0  0  0  0  0  0  0  0  0  0  0  0
   -4.9803   -3.1801   -0.4262 C   0  0  0  0  0  0  0  0  0  0  0  0
    0.0590   -1.4022    0.2452 N   0  0  0  0  0  0  0  0  0  0  0  0
    1.1969   -0.6806    0.1228 C   0  0  0  0  0  0  0  0  0  0  0  0
    2.3130   -1.2925    0.6922 N   0  0  0  0  0  0  0  0  0  0  0  0
    3.6636   -0.9483    0.8123 C   0  0  0  0  0  0  0  0  0  0  0  0
    4.2114    0.2535    0.3382 C   0  0  0  0  0  0  0  0  0  0  0  0
    5.5730    0.5493    0.4904 C   0  0  0  0  0  0  0  0  0  0  0  0
    6.4018   -0.3612    1.1236 C   0  0  0  0  0  0  0  0  0  0  0  0
    7.7254   -0.0615    1.2654 O   0  0  0  0  0  0  0  0  0  0  0  0
    5.8798   -1.5551    1.6016 C   0  0  0  0  0  0  0  0  0  0  0  0
    6.6898   -2.4306    2.2150 F   0  0  0  0  0  0  0  0  0  0  0  0
    4.5281   -1.8517    1.4522 C   0  0  0  0  0  0  0  0  0  0  0  0
    1.2908    0.5162   -0.4760 N   0  0  0  0  0  0  0  0  0  0  0  0
    0.1228    0.9472   -0.9639 C   0  0  0  0  0  0  0  0  0  0  0  0
   -0.1878    5.3953   -0.6976 H   0  0  0  0  0  0  0  0  0  0  0  0
   -0.4342    4.0445    0.4326 H   0  0  0  0  0  0  0  0  0  0  0  0
    0.7611    5.3099    0.7793 H   0  0  0  0  0  0  0  0  0  0  0  0
    1.8775    3.2291   -0.0320 H   0  0  0  0  0  0  0  0  0  0  0  0
    1.9832    5.5846   -1.6092 H   0  0  0  0  0  0  0  0  0  0  0  0
    1.6912    2.6222   -2.4667 H   0  0  0  0  0  0  0  0  0  0  0  0
    0.4253    3.8116   -2.6842 H   0  0  0  0  0  0  0  0  0  0  0  0
   -1.9045    2.9768   -2.4726 H   0  0  0  0  0  0  0  0  0  0  0  0
   -2.0252   -2.4423    0.6417 H   0  0  0  0  0  0  0  0  0  0  0  0
   -3.5211   -0.2928    0.6507 H   0  0  0  0  0  0  0  0  0  0  0  0
   -3.8367   -0.7841   -1.0232 H   0  0  0  0  0  0  0  0  0  0  0  0
   -4.6937   -1.3651    2.4442 H   0  0  0  0  0  0  0  0  0  0  0  0
   -6.3307   -3.0508    3.2039 H   0  0  0  0  0  0  0  0  0  0  0  0
   -7.1092   -4.8239    1.6541 H   0  0  0  0  0  0  0  0  0  0  0  0
   -6.2380   -4.9126   -0.6674 H   0  0  0  0  0  0  0  0  0  0  0  0
   -4.5952   -3.2321   -1.4428 H   0  0  0  0  0  0  0  0  0  0  0  0
    2.0288   -2.1898    1.0599 H   0  0  0  0  0  0  0  0  0  0  0  0
    3.5930    0.9923   -0.1624 H   0  0  0  0  0  0  0  0  0  0  0  0
    5.9734    1.4865    0.1145 H   0  0  0  0  0  0  0  0  0  0  0  0
    8.1375   -0.8147    1.7287 H   0  0  0  0  0  0  0  0  0  0  0  0
    4.1615   -2.7964    1.8413 H   0  0  0  0  0  0  0  0  0  0  0  0
  1  2  1  0
  2  3  1  0
  2  4  1  0
  4  5  1  0
  5  6  1  0
  6  7  2  0
  7  8  1  0
  8  9  2  0
  9 10  1  0
 10 11  1  0
 11 12  1  0
 12 13  2  0
 13 14  1  0
 14 15  2  0
 15 16  1  0
 16 17  2  0
  9 18  1  0
 18 19  2  0
 19 20  1  0
 20 21  1  0
 21 22  2  0
 22 23  1  0
 23 24  2  0
 24 25  1  0
 24 26  1  0
 26 27  1  0
 26 28  2  0
 19 29  1  0
 29 30  2  0
 30  5  1  0
 30  8  1  0
 17 12  1  0
 28 21  1  0
  1 31  1  0
  1 32  1  0
  1 33  1  0
  2 34  1  0
  3 35  1  0
  4 36  1  0
  4 37  1  0
  6 38  1  0
 10 39  1  0
 11 40  1  0
 11 41  1  0
 13 42  1  0
 14 43  1  0
 15 44  1  0
 16 45  1  0
 17 46  1  0
 20 47  1  0
 22 48  1  0
 23 49  1  0
 25 50  1  0
 28 51  1  0
M  END
$$$$
