
     RDKit          3D

 70 74  0  0  0  0  0  0  0  0999 V2000
    7.2890    0.5165   -2.1357 C   0  0  0  0  0  0  0  0  0  0  0  0
    5.8452    0.4949   -2.3216 N   0  0  0  0  0  0  0  0  0  0  0  0
    5.1870   -0.5682   -1.5432 C   0  0  0  0  0  0  0  0  0  0  0  0
    3.6550   -0.4690   -1.6134 C   0  0  0  0  0  0  0  0  0  0  0  0
    3.1424   -1.8088   -1.2717 N   0  0  0  0  0  0  0  0  0  0  0  0
    3.1540   -2.0873    0.1769 C   0  0  0  0  0  0  0  0  0  0  0  0
    2.1784   -1.2251    0.9513 C   0  0  0  0  0  0  0  0  0  0  0  0
    0.7980   -1.3452    0.7316 C   0  0  0  0  0  0  0  0  0  0  0  0
   -0.1049   -0.5383    1.4281 C   0  0  0  0  0  0  0  0  0  0  0  0
    0.3650    0.4087    2.3441 C   0  0  0  0  0  0  0  0  0  0  0  0
   -0.5593    1.3162    3.0795 C   0  0  0  0  0  0  0  0  0  0  0  0
   -0.2809    1.6173    4.2337 O   0  0  0  0  0  0  0  0  0  0  0  0
   -1.6287    1.7782    2.3376 N   0  0  0  0  0  0  0  0  0  0  0  0
   -2.6725    2.6346    2.7538 C   0  0  0  0  0  0  0  0  0  0  0  0
   -2.8664    2.9815    4.0940 C   0  0  0  0  0  0  0  0  0  0  0  0
   -3.9241    3.8089    4.4549 C   0  0  0  0  0  0  0  0  0  0  0  0
   -4.1027    4.1294    5.7434 F   0  0  0  0  0  0  0  0  0  0  0  0
   -4.8020    4.3097    3.5055 C   0  0  0  0  0  0  0  0  0  0  0  0
   -4.6206    3.9778    2.1655 C   0  0  0  0  0  0  0  0  0  0  0  0
   -3.5625    3.1345    1.7702 C   0  0  0  0  0  0  0  0  0  0  0  0
   -3.3757    2.8794    0.2810 C   0  0  0  0  0  0  0  0  0  0  0  0
   -3.1422    1.4604   -0.0722 N   0  0  0  0  0  0  0  0  0  0  0  0
   -2.7177    1.3606   -1.4781 C   0  0  0  0  0  0  0  0  0  0  0  0
   -2.4056   -0.0855   -1.8596 C   0  0  0  0  0  0  0  0  0  0  0  0
   -3.6002   -1.0056   -1.5887 C   0  0  0  0  0  0  0  0  0  0  0  0
   -3.2358   -2.4289   -1.8383 C   0  0  0  0  0  0  0  0  0  0  0  0
   -2.3796   -3.1797   -1.1769 N   0  0  0  0  0  0  0  0  0  0  0  0
   -2.3943   -4.4080   -1.7914 N   0  0  0  0  0  0  0  0  0  0  0  0
   -3.2399   -4.4187   -2.8120 N   0  0  0  0  0  0  0  0  0  0  0  0
   -3.7637   -3.1883   -2.8434 N   0  0  0  0  0  0  0  0  0  0  0  0
   -4.1064   -0.8173   -0.1551 C   0  0  0  0  0  0  0  0  0  0  0  0
   -4.3565    0.6567    0.1594 C   0  0  0  0  0  0  0  0  0  0  0  0
    1.7385    0.5123    2.5917 C   0  0  0  0  0  0  0  0  0  0  0  0
    2.6397   -0.2970    1.8965 C   0  0  0  0  0  0  0  0  0  0  0  0
    4.0847   -2.7137   -1.9677 C   0  0  0  0  0  0  0  0  0  0  0  0
    5.4495   -2.0055   -2.0360 C   0  0  0  0  0  0  0  0  0  0  0  0
    6.3951   -2.6626   -1.1888 O   0  0  0  0  0  0  0  0  0  0  0  0
    7.7108    1.3617   -2.6889 H   0  0  0  0  0  0  0  0  0  0  0  0
    7.5592    0.6382   -1.0817 H   0  0  0  0  0  0  0  0  0  0  0  0
    7.7589   -0.3898   -2.5281 H   0  0  0  0  0  0  0  0  0  0  0  0
    5.4644    1.3965   -2.0314 H   0  0  0  0  0  0  0  0  0  0  0  0
    5.4956   -0.4692   -0.4938 H   0  0  0  0  0  0  0  0  0  0  0  0
    3.2621    0.3331   -0.9796 H   0  0  0  0  0  0  0  0  0  0  0  0
    3.3331   -0.2345   -2.6377 H   0  0  0  0  0  0  0  0  0  0  0  0
    2.8515   -3.1296    0.3450 H   0  0  0  0  0  0  0  0  0  0  0  0
    4.1585   -1.9959    0.6077 H   0  0  0  0  0  0  0  0  0  0  0  0
    0.4234   -2.0701    0.0094 H   0  0  0  0  0  0  0  0  0  0  0  0
   -1.1682   -0.6733    1.2565 H   0  0  0  0  0  0  0  0  0  0  0  0
   -1.6813    1.4993    1.3592 H   0  0  0  0  0  0  0  0  0  0  0  0
   -2.2237    2.6141    4.8859 H   0  0  0  0  0  0  0  0  0  0  0  0
   -5.6152    4.9576    3.8156 H   0  0  0  0  0  0  0  0  0  0  0  0
   -5.3056    4.3891    1.4271 H   0  0  0  0  0  0  0  0  0  0  0  0
   -4.2335    3.2663   -0.2855 H   0  0  0  0  0  0  0  0  0  0  0  0
   -2.5078    3.4815   -0.0206 H   0  0  0  0  0  0  0  0  0  0  0  0
   -3.4887    1.7615   -2.1487 H   0  0  0  0  0  0  0  0  0  0  0  0
   -1.8092    1.9547   -1.6350 H   0  0  0  0  0  0  0  0  0  0  0  0
   -2.1306   -0.1310   -2.9209 H   0  0  0  0  0  0  0  0  0  0  0  0
   -1.5248   -0.4254   -1.3007 H   0  0  0  0  0  0  0  0  0  0  0  0
   -4.4111   -0.7202   -2.2736 H   0  0  0  0  0  0  0  0  0  0  0  0
   -4.4448   -2.9524   -3.5539 H   0  0  0  0  0  0  0  0  0  0  0  0
   -3.3843   -1.2228    0.5655 H   0  0  0  0  0  0  0  0  0  0  0  0
   -5.0357   -1.3828   -0.0085 H   0  0  0  0  0  0  0  0  0  0  0  0
   -4.6671    0.7212    1.2085 H   0  0  0  0  0  0  0  0  0  0  0  0
   -5.1921    1.0261   -0.4496 H   0  0  0  0  0  0  0  0  0  0  0  0
    2.1076    1.2312    3.3207 H   0  0  0  0  0  0  0  0  0  0  0  0
    3.7037   -0.1954    2.0946 H   0  0  0  0  0  0  0  0  0  0  0  0
    4.1373   -3.7100   -1.5143 H   0  0  0  0  0  0  0  0  0  0  0  0
    3.7072   -2.8489   -2.9891 H   0  0  0  0  0  0  0  0  0  0  0  0
    5.8308   -2.0354   -3.0633 H   0  0  0  0  0  0  0  0  0  0  0  0
    7.2407   -2.1964   -1.2956 H   0  0  0  0  0  0  0  0  0  0  0  0
  1  2  1  0
  2  3  1  0
  3  4  1  0
  4  5  1  0
  5  6  1  0
  6  7  1  0
  7  8  2  0
  8  9  1  0
  9 10  2  0
 10 11  1  0
 11 12  2  0
 11 13  1  0
 13 14  1  0
 14 15  2  0
 15 16  1  0
 16 17  1  0
 16 18  2  0
 18 19  1  0
 19 20  2  0
 20 21  1  0
 21 22  1  0
 22 23  1  0
 23 24  1  0
 24 25  1  0
 25 26  1  0
 26 27  2  0
 27 28  1  0
 28 29  2  0
 29 30  1  0
 25 31  1  0
 31 32  1  0
 10 33  1  0
 33 34  2  0
  5 35  1  0
 35 36  1  0
 36 37  1  0
 36  3  1  0
 34  7  1  0
 20 14  1  0
 32 22  1  0
 30 26  1  0
  1 38  1  0
  1 39  1  0
  1 40  1  0
  2 41  1  0
  3 42  1  0
  4 43  1  0
  4 44  1  0
  6 45  1  0
  6 46  1  0
  8 47  1  0
  9 48  1  0
 13 49  1  0
 15 50  1  0
 18 51  1  0
 19 52  1  0
 21 53  1  0
 21 54  1  0
 23 55  1  0
 23 56  1  0
 24 57  1  0
 24 58  1  0
 25 59  1  0
 30 60  1  0
 31 61  1  0
 31 62  1  0
 32 63  1  0
 32 64  1  0
 33 65  1  0
 34 66  1  0
 35 67  1  0
 35 68  1  0
 36 69  1  0
 37 70  1  0
M  END
$$$$
