MODEL        8USER    Run = 8USERUSER    Estimated Free Energy of Binding    =  -9.23 kcal/mol  [=(1)+(2)+(3)-(4)]USERUSER    (1) Final Intermolecular Energy     = -12.21 kcal/molUSER        vdW + Hbond + desolv Energy     = -11.90 kcal/molUSER        Electrostatic Energy            =  -0.30 kcal/molUSER        Moving Ligand-Fixed Receptor    = -12.21 kcal/molUSER        Moving Ligand-Moving Receptor   =  +0.00 kcal/molUSER    (2) Final Total Internal Energy     =  -2.35 kcal/molUSER    (3) Torsional Free Energy           =  +2.98 kcal/molUSER    (4) Unbound System's Energy         =  -2.35 kcal/molUSERUSERREMARK SMILES COc1ccc(O)c(C(=O)c2ccc(C(=O)N[C@@H]3CCN(C(=O)C(F)(F)F)C[C@H]3NC(=O)c3ccncc3)cc2)c1FREMARK SMILES IDX 11 1 12 2 13 3 14 4 39 5 40 6 9 7 10 8 8 9 3 10 4 11 41 12REMARK SMILES IDX 5 13 6 14 42 15 2 16 1 17 7 18 15 20 17 21 16 22 18 24 19 25REMARK SMILES IDX 29 26 20 27 28 28 21 29 30 30 31 31 32 33 33 34 34 35 38 36REMARK SMILES IDX 35 37 37 38 36 39 22 40 23 41 24 42 25 43 26 44 27 45REMARK H PARENT 7 19 17 23 30 32USER                              x       y       z     vdW  Elec       q    TypeUSER                           _______ _______ _______ _____ _____    ______ ____ROOTATOM      1  C   UNL     1      36.156  45.286  17.120 -0.32 -0.01    +0.023 A  ATOM      2  C   UNL     1      36.016  43.975  16.647 -0.34 -0.00    +0.013 A  ATOM      3  C   UNL     1      34.753  43.375  16.626 -0.37 -0.01    +0.014 A  ATOM      4  C   UNL     1      33.629  44.068  17.099 -0.28 -0.02    +0.039 A  ATOM      5  C   UNL     1      33.772  45.378  17.573 -0.37 -0.01    +0.014 A  ATOM      6  C   UNL     1      35.035  45.980  17.593 -0.40 -0.01    +0.013 A  ENDROOTBRANCH   1   7ATOM      7  C   UNL     1      37.479  45.947  17.208 -0.29 -0.07    +0.199 C  ATOM      8  O   UNL     1      38.196  45.704  18.180 -0.26 +0.06    -0.288 OA BRANCH   7   9ATOM      9  C   UNL     1      38.015  46.836  16.155 -0.33 -0.05    +0.104 A  ATOM     10  C   UNL     1      37.866  47.886  13.958 -0.41 -0.06    +0.155 A  ATOM     11  C   UNL     1      39.091  48.518  14.181 -0.39 -0.02    +0.053 A  ATOM     12  C   UNL     1      37.336  47.053  14.954 -0.29 -0.10    +0.179 A  ATOM     13  C   UNL     1      39.763  48.336  15.393 -0.52 -0.02    +0.051 A  ATOM     14  C   UNL     1      39.220  47.514  16.376 -0.37 -0.05    +0.130 A  ATOM     15  F   UNL     1      36.139  46.481  14.745 -0.08 +0.15    -0.202 F  BRANCH  10  16ATOM     16  O   UNL     1      37.107  48.005  12.823 -0.78 +0.14    -0.494 OA ATOM     17  C   UNL     1      36.930  46.836  12.033 -0.50 -0.10    +0.278 C  ENDBRANCH  10  16BRANCH  14  18ATOM     18  O   UNL     1      39.927  47.416  17.545 -0.17 +0.11    -0.507 OA ATOM     19  H   UNL     1      39.492  46.735  18.109 +0.18 -0.05    +0.293 HD ENDBRANCH  14  18ENDBRANCH   7   9ENDBRANCH   1   7BRANCH   4  20ATOM     20  C   UNL     1      32.310  43.381  17.058 -0.19 -0.09    +0.251 C  ATOM     21  N   UNL     1      32.326  42.020  16.827 -0.02 +0.17    -0.347 N  ATOM     22  O   UNL     1      31.276  44.025  17.198 -0.26 +0.06    -0.269 OA ATOM     23  H   UNL     1      33.203  41.569  16.595 -0.41 -0.12    +0.164 HD BRANCH  21  24ATOM     24  C   UNL     1      31.086  41.242  16.770 -0.14 -0.04    +0.108 C  ATOM     25  C   UNL     1      30.371  41.484  15.431 -0.12 -0.02    +0.048 C  ATOM     26  C   UNL     1      30.166  41.513  17.998 -0.11 -0.01    +0.124 C  ATOM     27  C   UNL     1      28.971  40.885  15.447 -0.34 -0.04    +0.122 C  ATOM     28  C   UNL     1      28.840  42.182  17.579 -0.15 -0.02    +0.146 C  ATOM     29  N   UNL     1      28.155  41.394  16.545 -0.08 +0.06    -0.333 N  BRANCH  26  30ATOM     30  N   UNL     1      29.888  40.272  18.735 +0.00 -0.01    -0.345 N  ATOM     31  C   UNL     1      30.855  39.684  19.524 -0.20 +0.02    +0.251 C  ATOM     32  H   UNL     1      28.934  39.936  18.768 +0.09 +0.01    +0.164 HD ATOM     33  O   UNL     1      32.015  40.079  19.548 -0.81 -0.05    -0.269 OA BRANCH  31  34ATOM     34  C   UNL     1      30.439  38.523  20.353 -0.37 +0.00    +0.042 A  ATOM     35  C   UNL     1      29.174  37.977  20.126 -0.31 +0.00    +0.034 A  ATOM     36  C   UNL     1      31.274  37.949  21.313 -0.50 +0.00    +0.034 A  ATOM     37  C   UNL     1      28.784  36.896  20.894 -0.25 -0.01    +0.112 A  ATOM     38  C   UNL     1      30.791  36.866  22.026 -0.36 +0.00    +0.112 A  ATOM     39  N   UNL     1      29.562  36.336  21.845 -0.20 +0.00    -0.265 NA ENDBRANCH  31  34ENDBRANCH  26  30BRANCH  29  40ATOM     40  C   UNL     1      26.797  41.042  16.579 -0.13 -0.03    +0.328 C  ATOM     41  O   UNL     1      26.467  39.862  16.405 -0.47 -0.07    -0.264 OA BRANCH  40  42ATOM     42  C   UNL     1      25.749  42.144  16.863 -0.05 -0.05    +0.471 C  ATOM     43  F   UNL     1      25.047  41.930  18.010 -0.07 +0.01    -0.162 F  ATOM     44  F   UNL     1      26.330  43.371  16.994 -0.06 +0.02    -0.162 F  ATOM     45  F   UNL     1      24.825  42.253  15.866 -0.10 +0.01    -0.162 F  ENDBRANCH  40  42ENDBRANCH  29  40ENDBRANCH  21  24ENDBRANCH   4  20TORSDOF 10TERENDMDL