MODEL        7USER    Run = 7USERUSER    Estimated Free Energy of Binding    =  -9.95 kcal/mol  [=(1)+(2)+(3)-(4)]USERUSER    (1) Final Intermolecular Energy     = -12.63 kcal/molUSER        vdW + Hbond + desolv Energy     = -12.49 kcal/molUSER        Electrostatic Energy            =  -0.14 kcal/molUSER        Moving Ligand-Fixed Receptor    = -12.63 kcal/molUSER        Moving Ligand-Moving Receptor   =  +0.00 kcal/molUSER    (2) Final Total Internal Energy     =  -2.38 kcal/molUSER    (3) Torsional Free Energy           =  +2.68 kcal/molUSER    (4) Unbound System's Energy         =  -2.38 kcal/molUSERUSERREMARK SMILES COc1ccc(O)c(C(=O)c2ccc(C(=O)N[C@@H]3CCN(c4nccs4)C[C@H]3NC(=O)c3ccncc3)cc2)c1FREMARK SMILES IDX 11 1 12 2 13 3 14 4 38 5 39 6 9 7 10 8 8 9 3 10 4 11 40 12REMARK SMILES IDX 5 13 6 14 41 15 2 16 1 17 7 18 15 20 17 21 16 22 18 24 19 25REMARK SMILES IDX 28 26 20 27 27 28 21 29 29 30 30 31 31 33 32 34 33 35 37 36REMARK SMILES IDX 34 37 36 38 35 39 22 40 23 41 26 42 24 43 25 44REMARK H PARENT 7 19 17 23 29 32USER                              x       y       z     vdW  Elec       q    TypeUSER                           _______ _______ _______ _____ _____    ______ ____ROOTATOM      1  C   UNL     1      40.982  46.121  19.778 -0.38 +0.00    +0.023 A  ATOM      2  C   UNL     1      40.712  46.117  18.403 -0.48 -0.00    +0.013 A  ATOM      3  C   UNL     1      39.529  45.545  17.921 -0.42 -0.00    +0.014 A  ATOM      4  C   UNL     1      38.600  44.989  18.810 -0.37 -0.00    +0.039 A  ATOM      5  C   UNL     1      38.868  44.986  20.183 -0.36 -0.00    +0.014 A  ATOM      6  C   UNL     1      40.052  45.555  20.663 -0.33 +0.00    +0.013 A  ENDROOTBRANCH   1   7ATOM      7  C   UNL     1      42.221  46.715  20.350 -0.31 +0.03    +0.199 C  ATOM      8  O   UNL     1      42.832  47.589  19.742 -0.39 -0.03    -0.288 OA BRANCH   7   9ATOM      9  C   UNL     1      42.730  46.286  21.660 -0.25 +0.03    +0.104 A  ATOM     10  C   UNL     1      43.292  44.469  23.173 -0.11 +0.02    +0.155 A  ATOM     11  C   UNL     1      43.596  45.408  24.164 -0.06 +0.01    +0.053 A  ATOM     12  C   UNL     1      42.856  44.923  21.922 -0.14 +0.05    +0.179 A  ATOM     13  C   UNL     1      43.470  46.780  23.905 -0.13 +0.01    +0.051 A  ATOM     14  C   UNL     1      43.039  47.215  22.653 -0.23 +0.03    +0.130 A  ATOM     15  F   UNL     1      42.562  44.031  20.961 -0.05 -0.05    -0.202 F  BRANCH  10  16ATOM     16  O   UNL     1      43.388  43.111  23.309 -0.08 -0.01    -0.494 OA ATOM     17  C   UNL     1      44.552  42.483  22.787 -0.22 +0.01    +0.278 C  ENDBRANCH  10  16BRANCH  14  18ATOM     18  O   UNL     1      42.951  48.553  22.393 -0.47 -0.08    -0.507 OA ATOM     19  H   UNL     1      43.289  48.735  21.501 -0.40 -0.06    +0.293 HD ENDBRANCH  14  18ENDBRANCH   7   9ENDBRANCH   1   7BRANCH   4  20ATOM     20  C   UNL     1      37.360  44.391  18.253 -0.23 -0.05    +0.251 C  ATOM     21  N   UNL     1      36.177  44.741  18.865 -0.14 +0.07    -0.347 N  ATOM     22  O   UNL     1      37.420  43.623  17.296 -0.11 +0.06    -0.269 OA ATOM     23  H   UNL     1      36.200  45.382  19.648 +0.11 -0.02    +0.164 HD BRANCH  21  24ATOM     24  C   UNL     1      34.871  44.211  18.437 -0.32 -0.03    +0.108 C  ATOM     25  C   UNL     1      34.478  43.011  19.314 -0.44 -0.00    +0.048 C  ATOM     26  C   UNL     1      34.830  43.864  16.927 -0.30 -0.05    +0.124 C  ATOM     27  C   UNL     1      33.772  41.895  18.548 -0.37 -0.02    +0.121 C  ATOM     28  C   UNL     1      33.423  43.338  16.551 -0.30 -0.06    +0.146 C  ATOM     29  N   UNL     1      32.839  42.471  17.587 -0.11 +0.11    -0.346 N  BRANCH  26  30ATOM     30  N   UNL     1      35.206  45.008  16.090 -0.10 +0.21    -0.345 N  ATOM     31  C   UNL     1      36.061  44.875  15.020 -0.24 -0.12    +0.251 C  ATOM     32  H   UNL     1      34.872  45.916  16.395 +0.09 -0.16    +0.164 HD ATOM     33  O   UNL     1      36.527  43.788  14.693 -0.28 +0.09    -0.269 OA BRANCH  31  34ATOM     34  C   UNL     1      36.424  46.103  14.252 -0.40 -0.02    +0.042 A  ATOM     35  C   UNL     1      36.067  46.317  12.920 -0.55 -0.02    +0.034 A  ATOM     36  C   UNL     1      37.170  47.081  14.915 -0.40 -0.02    +0.034 A  ATOM     37  C   UNL     1      36.465  47.500  12.319 -0.58 -0.05    +0.112 A  ATOM     38  C   UNL     1      37.521  48.227  14.226 -0.45 -0.06    +0.112 A  ATOM     39  N   UNL     1      37.183  48.458  12.940 -0.73 +0.06    -0.265 NA ENDBRANCH  31  34ENDBRANCH  26  30BRANCH  29  40ATOM     40  C   UNL     1      31.714  41.744  17.293 -0.18 -0.06    +0.185 A  ATOM     41  N   UNL     1      31.375  40.639  17.927 -0.22 +0.03    -0.229 NA ATOM     42  S   UNL     1      30.565  42.212  16.071 -0.44 +0.05    -0.106 S  ATOM     43  C   UNL     1      30.196  40.121  17.434 -0.28 -0.00    +0.125 A  ATOM     44  C   UNL     1      29.612  40.839  16.419 -0.33 -0.01    +0.088 A  ENDBRANCH  29  40ENDBRANCH  21  24ENDBRANCH   4  20TORSDOF 9TERENDMDL