REMARK SMILES COc1ccc(O)c(C(=O)c2ccc(C(=O)N[C@@H]3CCCN(CC(F)(F)F)C[C@H]3NC(=O)c3ccncc3)cc2)c1F
REMARK SMILES IDX 18 1 17 3 15 4 16 5 14 7 11 8 12 9 40 10 13 11 39 12 9 13
REMARK SMILES IDX 10 14 8 15 3 16 4 17 41 18 5 19 6 20 42 21 2 22 1 23 7 24
REMARK SMILES IDX 29 26 28 27 22 28 21 29 20 30 19 31 23 33 24 34 25 35 26 36
REMARK SMILES IDX 27 37 30 38 31 39 32 41 33 42 34 43 38 44 35 45 37 46 36 47
REMARK H PARENT 17 6 7 25 30 40
REMARK Flexibility Score:  100.900
ROOT
ATOM      1  C   UNL     1      -2.068  -1.143   1.076  1.00  0.00     0.106 CG0
ATOM      2  G   UNL     1      -2.037  -2.412   1.938  1.00  0.00     0.000 G0
ENDROOT
BRANCH   1   3
ATOM      3  N   UNL     1      -0.768  -0.946   0.420  1.00  0.00    -0.347 N 
ATOM      4  C   UNL     1       0.292  -0.339   1.059  1.00  0.00     0.251 C 
ATOM      5  O   UNL     1       0.226   0.132   2.188  1.00  0.00    -0.269 OA
ATOM      6  H   UNL     1      -0.670  -1.247  -0.543  1.00  0.00     0.164 HD
BRANCH   4   7
ATOM      7  C   UNL     1       1.564  -0.262   0.292  1.00  0.00     0.039 A 
ATOM      8  C   UNL     1       4.006  -0.077  -1.074  1.00  0.00     0.023 A 
ATOM      9  C   UNL     1       3.161  -1.175  -1.283  1.00  0.00     0.013 A 
ATOM     10  C   UNL     1       3.617   0.942  -0.196  1.00  0.00     0.013 A 
ATOM     11  C   UNL     1       1.947  -1.274  -0.597  1.00  0.00     0.014 A 
ATOM     12  C   UNL     1       2.405   0.839   0.497  1.00  0.00     0.014 A 
BRANCH   8  13
ATOM     13  C   UNL     1       5.269  -0.015  -1.849  1.00  0.00     0.199 C 
ATOM     14  O   UNL     1       5.265  -0.428  -3.011  1.00  0.00    -0.288 OA
BRANCH  13  15
ATOM     15  C   UNL     1       6.532   0.552  -1.325  1.00  0.00     0.104 A 
ATOM     16  C   UNL     1       8.071   1.045   0.505  1.00  0.00     0.155 A 
ATOM     17  C   UNL     1       8.960   1.630  -0.400  1.00  0.00     0.053 A 
ATOM     18  C   UNL     1       6.865   0.505   0.030  1.00  0.00     0.179 A 
ATOM     19  C   UNL     1       8.654   1.654  -1.764  1.00  0.00     0.051 A 
ATOM     20  C   UNL     1       7.458   1.105  -2.221  1.00  0.00     0.130 A 
ATOM     21  F   UNL     1       6.038  -0.086   0.909  1.00  0.00    -0.202 F 
BRANCH  16  22
ATOM     22  O   UNL     1       8.269   0.940   1.856  1.00  0.00    -0.494 OA
ATOM     23  C   UNL     1       9.475   1.480   2.383  1.00  0.00     0.278 C 
ENDBRANCH  16  22
BRANCH  20  24
ATOM     24  O   UNL     1       7.257   1.140  -3.576  1.00  0.00    -0.507 OA
ATOM     25  H   UNL     1       6.502   0.541  -3.782  1.00  0.00     0.293 HD
ENDBRANCH  20  24
ENDBRANCH  13  15
ENDBRANCH   8  13
ENDBRANCH   4   7
ENDBRANCH   1   3
BRANCH   1  26
ATOM     26  C   UNL     1      -3.197  -1.127   0.015  1.00  0.00     0.118 C 
BRANCH  26  27
ATOM     27  C   UNL     1      -4.509  -1.829   0.428  1.00  0.00     0.111 C 
BRANCH  27  28
ATOM     28  N   UNL     1      -4.966  -1.442   1.781  1.00  0.00    -0.293 NA
BRANCH  28  29
ATOM     29  C   UNL     1      -4.499  -2.424   2.780  1.00  0.00     0.085 C 
BRANCH  29  30
ATOM     30  C   UNL     1      -3.010  -2.336   3.118  1.00  0.00     0.018 C 
BRANCH  30  31
ATOM     31  C   UNL     1      -2.037  -2.412   1.938  1.00  0.00     0.028 CG0
ATOM     32  G   UNL     1      -2.068  -1.143   1.076  1.00  0.00     0.000 G0
ENDBRANCH  30  31
ENDBRANCH  29  30
ENDBRANCH  28  29
BRANCH  28  33
ATOM     33  C   UNL     1      -6.461  -1.340   1.821  1.00  0.00     0.200 C 
BRANCH  33  34
ATOM     34  C   UNL     1      -7.352  -2.572   1.537  1.00  0.00     0.401 C 
ATOM     35  F   UNL     1      -7.186  -3.534   2.471  1.00  0.00    -0.170 F 
ATOM     36  F   UNL     1      -8.659  -2.220   1.548  1.00  0.00    -0.170 F 
ATOM     37  F   UNL     1      -7.086  -3.116   0.328  1.00  0.00    -0.170 F 
ENDBRANCH  33  34
ENDBRANCH  28  33
ENDBRANCH  27  28
ENDBRANCH  26  27
BRANCH  26  38
ATOM     38  N   UNL     1      -3.479   0.263  -0.378  1.00  0.00    -0.346 N 
ATOM     39  C   UNL     1      -3.814   0.603  -1.668  1.00  0.00     0.251 C 
ATOM     40  H   UNL     1      -3.635   0.903   0.389  1.00  0.00     0.164 HD
ATOM     41  O   UNL     1      -3.720  -0.188  -2.603  1.00  0.00    -0.269 OA
BRANCH  39  42
ATOM     42  C   UNL     1      -4.296   1.994  -1.917  1.00  0.00     0.042 A 
ATOM     43  C   UNL     1      -4.717   2.852  -0.899  1.00  0.00     0.034 A 
ATOM     44  C   UNL     1      -4.347   2.436  -3.242  1.00  0.00     0.034 A 
ATOM     45  C   UNL     1      -5.155   4.119  -1.253  1.00  0.00     0.112 A 
ATOM     46  C   UNL     1      -4.804   3.718  -3.491  1.00  0.00     0.112 A 
ATOM     47  N   UNL     1      -5.205   4.571  -2.524  1.00  0.00    -0.265 NA
ENDBRANCH  39  42
ENDBRANCH  26  38
ENDBRANCH   1  26
TORSDOF 10
