MODEL        2USER    Run = 2USERUSER    Estimated Free Energy of Binding    =  -8.01 kcal/mol  [=(1)+(2)+(3)-(4)]USERUSER    (1) Final Intermolecular Energy     = -12.78 kcal/molUSER        vdW + Hbond + desolv Energy     = -13.29 kcal/molUSER        Electrostatic Energy            =  +0.06 kcal/molUSER        Moving Ligand-Fixed Receptor    = -13.22 kcal/molUSER        Moving Ligand-Moving Receptor   =  +0.44 kcal/molUSER    (2) Final Total Internal Energy     =  -3.03 kcal/molUSER    (3) Torsional Free Energy           =  +4.77 kcal/molUSER    (4) Unbound System's Energy         =  -3.03 kcal/molUSERUSERREMARK SMILES COc1ccc(O)c(C(=O)c2ccc(C(=O)N[C@@H]3CCCN(CC(F)(F)F)C[C@H]3NC(=O)c3ccncc3)cc2)c1FREMARK SMILES IDX 18 1 17 3 15 4 16 5 14 7 11 8 12 9 40 10 13 11 39 12 9 13REMARK SMILES IDX 10 14 8 15 3 16 4 17 41 18 5 19 6 20 42 21 2 22 1 23 7 24REMARK SMILES IDX 29 26 28 27 22 28 21 29 20 30 19 31 23 33 24 34 25 35 26 36REMARK SMILES IDX 27 37 30 38 31 39 32 41 33 42 34 43 38 44 35 45 37 46 36 47REMARK H PARENT 17 6 7 25 30 40REMARK Flexibility Score:  100.900USER                              x       y       z     vdW  Elec       q    TypeUSER                           _______ _______ _______ _____ _____    ______ ____ROOTATOM      1  C   UNL     1      38.143  45.556  18.038 -0.37 -0.02    +0.106 CG0ATOM      2  G   UNL     1      39.376  46.463  17.932 +0.00 +0.00    +0.000 G0 ENDROOTBRANCH   1   3ATOM      3  N   UNL     1      37.998  45.061  19.414 -0.15 +0.03    -0.347 N  ATOM      4  C   UNL     1      37.296  43.912  19.710 -0.24 -0.02    +0.251 C  ATOM      5  O   UNL     1      36.694  43.248  18.874 -0.16 +0.04    -0.269 OA ATOM      6  H   UNL     1      38.409  45.606  20.163 +0.08 -0.00    +0.164 HD BRANCH   4   7ATOM      7  C   UNL     1      37.284  43.499  21.139 -0.37 +0.00    +0.039 A  ATOM      8  C   UNL     1      37.246  42.817  23.858 -0.37 +0.00    +0.023 A  ATOM      9  C   UNL     1      36.680  41.958  22.907 -0.49 +0.00    +0.013 A  ATOM     10  C   UNL     1      37.852  44.009  23.445 -0.32 +0.00    +0.013 A  ATOM     11  C   UNL     1      36.690  42.300  21.551 -0.49 +0.00    +0.014 A  ATOM     12  C   UNL     1      37.855  44.355  22.089 -0.36 +0.00    +0.014 A  BRANCH   8  13ATOM     13  C   UNL     1      37.228  42.389  25.278 -0.30 -0.01    +0.199 C  ATOM     14  O   UNL     1      37.873  41.388  25.597 -0.19 +0.01    -0.288 OA BRANCH  13  15ATOM     15  C   UNL     1      36.511  43.115  26.350 -0.33 -0.01    +0.104 A  ATOM     16  C   UNL     1      36.166  45.082  27.755 -0.28 -0.04    +0.155 A  ATOM     17  C   UNL     1      35.091  44.447  28.381 -0.53 -0.01    +0.053 A  ATOM     18  C   UNL     1      36.863  44.409  26.739 -0.25 -0.02    +0.179 A  ATOM     19  C   UNL     1      34.707  43.164  27.979 -0.55 -0.01    +0.051 A  ATOM     20  C   UNL     1      35.402  42.514  26.962 -0.44 -0.03    +0.130 A  ATOM     21  F   UNL     1      37.872  45.049  26.123 -0.04 +0.01    -0.202 F  BRANCH  16  22ATOM     22  O   UNL     1      36.620  46.341  28.043 -0.16 +0.12    -0.494 OA ATOM     23  C   UNL     1      36.569  47.308  27.001 -0.14 -0.06    +0.278 C  ENDBRANCH  16  22BRANCH  20  24ATOM     24  O   UNL     1      34.934  41.275  26.608 -0.23 +0.19    -0.507 OA ATOM     25  H   UNL     1      35.684  40.775  26.208 -0.12 -0.14    +0.293 HD ENDBRANCH  20  24ENDBRANCH  13  15ENDBRANCH   8  13ENDBRANCH   4   7ENDBRANCH   1   3BRANCH   1  26ATOM     26  C   UNL     1      36.823  46.228  17.583 -0.20 -0.05    +0.118 C  BRANCH  26  27ATOM     27  C   UNL     1      36.794  46.713  16.117 -0.36 -0.08    +0.111 C  BRANCH  27  28ATOM     28  N   UNL     1      37.832  46.073  15.280 -0.16 +0.11    -0.293 NA BRANCH  28  29ATOM     29  C   UNL     1      39.100  46.826  15.370 -0.45 -0.02    +0.085 C  BRANCH  29  30ATOM     30  C   UNL     1      40.003  46.423  16.536 -0.51 -0.00    +0.018 C  BRANCH  30  31ATOM     31  C   UNL     1      39.375  46.465  17.932 -0.46 -0.01    +0.028 CG0ATOM     32  G   UNL     1      38.140  45.561  18.042 +0.00 +0.00    +0.000 G0 ENDBRANCH  30  31ENDBRANCH  29  30ENDBRANCH  28  29BRANCH  28  33ATOM     33  C   UNL     1      37.382  45.996  13.852 -0.36 -0.08    +0.200 C  BRANCH  33  34ATOM     34  C   UNL     1      36.812  47.238  13.128 -0.34 -0.17    +0.401 C  ATOM     35  F   UNL     1      35.465  47.295  13.219 -0.20 +0.12    -0.170 F  ATOM     36  F   UNL     1      37.303  48.371  13.681 -0.20 +0.08    -0.170 F  ATOM     37  F   UNL     1      37.141  47.248  11.816 -0.27 +0.05    -0.170 F  ENDBRANCH  33  34ENDBRANCH  28  33ENDBRANCH  27  28ENDBRANCH  26  27BRANCH  26  38ATOM     38  N   UNL     1      35.698  45.310  17.825 -0.12 +0.15    -0.346 N  ATOM     39  C   UNL     1      34.472  45.757  18.260 -0.34 -0.14    +0.251 C  ATOM     40  H   UNL     1      35.809  44.383  17.438 +0.12 -0.06    +0.164 HD ATOM     41  O   UNL     1      34.291  46.908  18.649 -1.00 +0.19    -0.269 OA BRANCH  39  42ATOM     42  C   UNL     1      33.339  44.785  18.262 -0.35 -0.01    +0.042 A  ATOM     43  C   UNL     1      32.545  44.532  17.142 -0.28 -0.01    +0.034 A  ATOM     44  C   UNL     1      33.054  44.123  19.460 -0.43 -0.00    +0.034 A  ATOM     45  C   UNL     1      31.513  43.616  17.267 -0.21 -0.03    +0.112 A  ATOM     46  C   UNL     1      31.999  43.228  19.482 -0.27 -0.00    +0.112 A  ATOM     47  N   UNL     1      31.224  42.957  18.409 -0.12 +0.03    -0.265 NA ENDBRANCH  39  42ENDBRANCH  26  38ENDBRANCH   1  26TORSDOF 10TERENDMDL