MODEL        7USER    Run = 7USERUSER    Estimated Free Energy of Binding    =  -7.32 kcal/mol  [=(1)+(2)+(3)-(4)]USERUSER    (1) Final Intermolecular Energy     = -12.09 kcal/molUSER        vdW + Hbond + desolv Energy     = -12.41 kcal/molUSER        Electrostatic Energy            =  +0.11 kcal/molUSER        Moving Ligand-Fixed Receptor    = -12.30 kcal/molUSER        Moving Ligand-Moving Receptor   =  +0.21 kcal/molUSER    (2) Final Total Internal Energy     =  -3.62 kcal/molUSER    (3) Torsional Free Energy           =  +4.77 kcal/molUSER    (4) Unbound System's Energy         =  -3.62 kcal/molUSERUSERREMARK SMILES COc1ccc(O)c(C(=O)c2ccc(C(=O)N[C@@H]3[C@@H](C)CCN(CC(F)(F)F)C[C@H]3NC(=O)c3ccncc3)cc2)c1FREMARK SMILES IDX 18 1 17 2 15 3 16 4 14 6 11 7 12 8 41 9 13 10 40 11 9 12REMARK SMILES IDX 10 13 8 14 3 15 4 16 42 17 5 18 6 19 43 20 2 21 1 22 7 23REMARK SMILES IDX 19 25 20 26 30 28 29 29 23 30 22 31 21 32 24 34 25 35 26 36REMARK SMILES IDX 27 37 28 38 31 39 32 40 33 42 34 43 35 44 39 45 36 46 38 47REMARK SMILES IDX 37 48REMARK H PARENT 17 5 7 24 31 41REMARK Flexibility Score:  100.900USER                              x       y       z     vdW  Elec       q    TypeUSER                           _______ _______ _______ _____ _____    ______ ____ROOTATOM      1  C   UNL     1      38.736  46.087  17.444 -0.39 -0.03    +0.109 C  ENDROOTBRANCH   1   2ATOM      2  N   UNL     1      38.947  45.875  18.890 -0.19 +0.04    -0.347 N  ATOM      3  C   UNL     1      38.583  44.706  19.523 -0.27 -0.01    +0.251 C  ATOM      4  O   UNL     1      38.198  43.708  18.916 -0.12 +0.02    -0.269 OA ATOM      5  H   UNL     1      39.182  46.686  19.445 +0.08 -0.01    +0.164 HD BRANCH   3   6ATOM      6  C   UNL     1      38.678  44.684  21.007 -0.34 +0.00    +0.039 A  ATOM      7  C   UNL     1      38.744  44.682  23.808 -0.24 +0.00    +0.023 A  ATOM      8  C   UNL     1      37.515  44.724  23.140 -0.27 +0.00    +0.013 A  ATOM      9  C   UNL     1      39.938  44.626  23.079 -0.21 +0.00    +0.013 A  ATOM     10  C   UNL     1      37.486  44.735  21.743 -0.30 +0.00    +0.014 A  ATOM     11  C   UNL     1      39.907  44.640  21.681 -0.28 +0.00    +0.014 A  BRANCH   7  12ATOM     12  C   UNL     1      38.818  44.640  25.286 -0.13 +0.00    +0.199 C  ATOM     13  O   UNL     1      39.172  45.654  25.890 -0.08 -0.01    -0.288 OA BRANCH  12  14ATOM     14  C   UNL     1      38.539  43.415  26.069 -0.16 -0.00    +0.104 A  ATOM     15  C   UNL     1      37.049  41.609  26.753 -0.33 -0.03    +0.155 A  ATOM     16  C   UNL     1      38.069  41.073  27.541 -0.41 -0.01    +0.053 A  ATOM     17  C   UNL     1      37.294  42.784  26.028 -0.22 -0.01    +0.179 A  ATOM     18  C   UNL     1      39.308  41.717  27.618 -0.32 -0.00    +0.051 A  ATOM     19  C   UNL     1      39.534  42.886  26.899 -0.17 -0.00    +0.130 A  ATOM     20  F   UNL     1      36.295  43.309  25.298 -0.09 -0.00    -0.202 F  BRANCH  15  21ATOM     21  O   UNL     1      35.794  41.081  26.606 -0.22 +0.19    -0.494 OA ATOM     22  C   UNL     1      34.751  41.638  27.402 -0.41 -0.10    +0.278 C  ENDBRANCH  15  21BRANCH  19  23ATOM     23  O   UNL     1      40.765  43.469  27.048 -0.02 +0.00    -0.507 OA ATOM     24  H   UNL     1      40.672  44.428  26.842 +0.07 +0.01    +0.293 HD ENDBRANCH  19  23ENDBRANCH  12  14ENDBRANCH   7  12ENDBRANCH   3   6ENDBRANCH   1   2BRANCH   1  25ATOM     25  C   UNL     1      39.788  47.104  16.933 -0.54 -0.00    +0.012 CG0ATOM     26  C   UNL     1      41.001  47.141  17.875 -0.59 -0.00    +0.010 C  ATOM     27  G   UNL     1      40.194  46.969  15.455 +0.00 +0.00    +0.000 G0 ENDBRANCH   1  25BRANCH   1  28ATOM     28  C   UNL     1      37.245  46.439  17.180 -0.23 -0.06    +0.119 C  BRANCH  28  29ATOM     29  C   UNL     1      36.946  46.748  15.689 -0.38 -0.07    +0.111 C  BRANCH  29  30ATOM     30  N   UNL     1      37.879  46.202  14.691 -0.18 +0.11    -0.293 NA BRANCH  30  31ATOM     31  C   UNL     1      39.060  47.014  14.430 -0.45 -0.02    +0.085 C  BRANCH  31  32ATOM     32  C   UNL     1      40.194  46.968  15.457 -0.53 -0.00    +0.021 CG0ATOM     33  G   UNL     1      39.786  47.105  16.934 +0.00 +0.00    +0.000 G0 ENDBRANCH  31  32ENDBRANCH  30  31BRANCH  30  34ATOM     34  C   UNL     1      37.199  45.702  13.463 -0.38 -0.07    +0.200 C  BRANCH  34  35ATOM     35  C   UNL     1      36.429  46.738  12.610 -0.37 -0.18    +0.401 C  ATOM     36  F   UNL     1      36.820  48.011  12.816 -0.24 +0.06    -0.170 F  ATOM     37  F   UNL     1      36.592  46.465  11.292 -0.25 +0.07    -0.170 F  ATOM     38  F   UNL     1      35.096  46.672  12.859 -0.20 +0.12    -0.170 F  ENDBRANCH  34  35ENDBRANCH  30  34ENDBRANCH  29  30ENDBRANCH  28  29BRANCH  28  39ATOM     39  N   UNL     1      36.365  45.365  17.663 -0.12 +0.13    -0.346 N  ATOM     40  C   UNL     1      35.143  45.643  18.235 -0.26 -0.12    +0.251 C  ATOM     41  H   UNL     1      36.686  44.410  17.533 +0.11 -0.05    +0.164 HD ATOM     42  O   UNL     1      34.735  46.794  18.383 -0.65 +0.20    -0.269 OA BRANCH  40  43ATOM     43  C   UNL     1      34.300  44.491  18.662 -0.35 -0.01    +0.042 A  ATOM     44  C   UNL     1      34.819  43.228  18.937 -0.36 -0.01    +0.034 A  ATOM     45  C   UNL     1      32.925  44.706  18.795 -0.34 -0.01    +0.034 A  ATOM     46  C   UNL     1      33.939  42.231  19.325 -0.31 -0.00    +0.112 A  ATOM     47  C   UNL     1      32.130  43.643  19.186 -0.32 -0.01    +0.112 A  ATOM     48  N   UNL     1      32.608  42.409  19.452 -0.45 -0.01    -0.265 NA ENDBRANCH  40  43ENDBRANCH  28  39ENDBRANCH   1  28TORSDOF 10TERENDMDL