REMARK SMILES COc1ccc(O)c(C(=O)c2ccc(C(=O)N[C@@H]3[C@@H](C)CCN(CC(F)(F)F)C[C@H]3NC(=O)c3ccncc3)cc2)c1F
REMARK SMILES IDX 18 1 17 2 15 3 16 4 14 6 11 7 12 8 41 9 13 10 40 11 9 12
REMARK SMILES IDX 10 13 8 14 3 15 4 16 42 17 5 18 6 19 43 20 2 21 1 22 7 23
REMARK SMILES IDX 19 25 20 26 30 28 29 29 23 30 22 31 21 32 24 34 25 35 26 36
REMARK SMILES IDX 27 37 28 38 31 39 32 40 33 42 34 43 35 44 39 45 36 46 38 47
REMARK SMILES IDX 37 48
REMARK H PARENT 17 5 7 24 31 41
REMARK Flexibility Score:  100.900
ROOT
ATOM      1  C   UNL     1      -2.238  -1.968   1.417  1.00  0.00     0.109 C 
ENDROOT
BRANCH   1   2
ATOM      2  N   UNL     1      -0.839  -1.920   0.948  1.00  0.00    -0.347 N 
ATOM      3  C   UNL     1       0.027  -0.913   1.319  1.00  0.00     0.251 C 
ATOM      4  O   UNL     1      -0.249  -0.074   2.173  1.00  0.00    -0.269 OA
ATOM      5  H   UNL     1      -0.587  -2.534   0.186  1.00  0.00     0.164 HD
BRANCH   3   6
ATOM      6  C   UNL     1       1.349  -0.875   0.638  1.00  0.00     0.039 A 
ATOM      7  C   UNL     1       3.876  -0.723  -0.563  1.00  0.00     0.023 A 
ATOM      8  C   UNL     1       3.697  -0.260   0.746  1.00  0.00     0.013 A 
ATOM      9  C   UNL     1       2.798  -1.275  -1.265  1.00  0.00     0.013 A 
ATOM     10  C   UNL     1       2.433  -0.327   1.338  1.00  0.00     0.014 A 
ATOM     11  C   UNL     1       1.534  -1.339  -0.672  1.00  0.00     0.014 A 
BRANCH   7  12
ATOM     12  C   UNL     1       5.204  -0.696  -1.217  1.00  0.00     0.199 C 
ATOM     13  O   UNL     1       5.572  -1.687  -1.850  1.00  0.00    -0.288 OA
BRANCH  12  14
ATOM     14  C   UNL     1       6.134   0.450  -1.098  1.00  0.00     0.104 A 
ATOM     15  C   UNL     1       6.562   2.835  -0.822  1.00  0.00     0.155 A 
ATOM     16  C   UNL     1       7.936   2.585  -0.837  1.00  0.00     0.053 A 
ATOM     17  C   UNL     1       5.672   1.760  -0.961  1.00  0.00     0.179 A 
ATOM     18  C   UNL     1       8.409   1.280  -1.010  1.00  0.00     0.051 A 
ATOM     19  C   UNL     1       7.514   0.225  -1.154  1.00  0.00     0.130 A 
ATOM     20  F   UNL     1       4.353   2.017  -0.978  1.00  0.00    -0.202 F 
BRANCH  15  21
ATOM     21  O   UNL     1       5.978   4.064  -0.673  1.00  0.00    -0.494 OA
ATOM     22  C   UNL     1       6.841   5.197  -0.612  1.00  0.00     0.278 C 
ENDBRANCH  15  21
BRANCH  19  23
ATOM     23  O   UNL     1       8.058  -1.018  -1.344  1.00  0.00    -0.507 OA
ATOM     24  H   UNL     1       7.337  -1.620  -1.642  1.00  0.00     0.293 HD
ENDBRANCH  19  23
ENDBRANCH  12  14
ENDBRANCH   7  12
ENDBRANCH   3   6
ENDBRANCH   1   2
BRANCH   1  25
ATOM     25  C   UNL     1      -2.677  -3.451   1.515  1.00  0.00     0.012 CG0
ATOM     26  C   UNL     1      -3.158  -3.777   2.937  1.00  0.00     0.010 C 
ATOM     27  G   UNL     1      -3.660  -3.936   0.435  1.00  0.00     0.000 G0
ENDBRANCH   1  25
BRANCH   1  28
ATOM     28  C   UNL     1      -3.117  -1.040   0.533  1.00  0.00     0.119 C 
BRANCH  28  29
ATOM     29  C   UNL     1      -4.623  -1.089   0.907  1.00  0.00     0.111 C 
BRANCH  29  30
ATOM     30  N   UNL     1      -5.444  -2.115   0.248  1.00  0.00    -0.293 NA
BRANCH  30  31
ATOM     31  C   UNL     1      -5.117  -3.493   0.591  1.00  0.00     0.085 C 
BRANCH  31  32
ATOM     32  C   UNL     1      -3.660  -3.936   0.435  1.00  0.00     0.021 CG0
ATOM     33  G   UNL     1      -2.677  -3.451   1.515  1.00  0.00     0.000 G0
ENDBRANCH  31  32
ENDBRANCH  30  31
BRANCH  30  34
ATOM     34  C   UNL     1      -5.622  -1.877  -1.212  1.00  0.00     0.200 C 
BRANCH  34  35
ATOM     35  C   UNL     1      -6.658  -0.808  -1.633  1.00  0.00     0.401 C 
ATOM     36  F   UNL     1      -6.452   0.400  -1.071  1.00  0.00    -0.170 F 
ATOM     37  F   UNL     1      -6.635  -0.645  -2.979  1.00  0.00    -0.170 F 
ATOM     38  F   UNL     1      -7.916  -1.202  -1.311  1.00  0.00    -0.170 F 
ENDBRANCH  34  35
ENDBRANCH  30  34
ENDBRANCH  29  30
ENDBRANCH  28  29
BRANCH  28  39
ATOM     39  N   UNL     1      -2.626   0.344   0.584  1.00  0.00    -0.346 N 
ATOM     40  C   UNL     1      -2.895   1.238  -0.429  1.00  0.00     0.251 C 
ATOM     41  H   UNL     1      -2.101   0.619   1.410  1.00  0.00     0.164 HD
ATOM     42  O   UNL     1      -3.543   0.924  -1.426  1.00  0.00    -0.269 OA
BRANCH  40  43
ATOM     43  C   UNL     1      -2.389   2.631  -0.276  1.00  0.00     0.042 A 
ATOM     44  C   UNL     1      -1.369   2.979   0.607  1.00  0.00     0.034 A 
ATOM     45  C   UNL     1      -2.971   3.625  -1.069  1.00  0.00     0.034 A 
ATOM     46  C   UNL     1      -0.981   4.307   0.666  1.00  0.00     0.112 A 
ATOM     47  C   UNL     1      -2.514   4.924  -0.933  1.00  0.00     0.112 A 
ATOM     48  N   UNL     1      -1.532   5.286  -0.081  1.00  0.00    -0.265 NA
ENDBRANCH  40  43
ENDBRANCH  28  39
ENDBRANCH   1  28
TORSDOF 10
