MODEL        10USER    Run = 10USERUSER    Estimated Free Energy of Binding    =  -9.74 kcal/mol  [=(1)+(2)+(3)-(4)]USERUSER    (1) Final Intermolecular Energy     = -12.13 kcal/molUSER        vdW + Hbond + desolv Energy     = -11.81 kcal/molUSER        Electrostatic Energy            =  -0.32 kcal/molUSER        Moving Ligand-Fixed Receptor    = -12.13 kcal/molUSER        Moving Ligand-Moving Receptor   =  +0.00 kcal/molUSER    (2) Final Total Internal Energy     =  -0.89 kcal/molUSER    (3) Torsional Free Energy           =  +2.39 kcal/molUSER    (4) Unbound System's Energy         =  -0.89 kcal/molUSERUSERREMARK SMILES COc1cc(CN[C@H]2C[C@H](O)CC[C@@H]2n2cnc3c(N)ncnc32)ccc1C(F)(F)FREMARK SMILES IDX 7 1 6 3 5 4 3 5 4 6 27 7 26 8 25 9 2 10 1 11 28 12 29 13REMARK SMILES IDX 30 14 31 15 8 16 9 17 14 18 10 19 13 20 12 21 15 22 16 23REMARK SMILES IDX 24 24 17 25 23 26 18 27 22 28 19 29 21 30 20 31 11 34REMARK H PARENT 7 2 20 32 20 33 11 35USER                              x       y       z     vdW  Elec       q    TypeUSER                           _______ _______ _______ _____ _____    ______ ____ROOTATOM      1  N   UNL     1      36.602  46.986  16.767 -0.08 +0.25    -0.308 NA ATOM      2  H   UNL     1      36.317  47.957  16.636 +0.03 -0.17    +0.123 HD ENDROOTBRANCH   1   3ATOM      3  C   UNL     1      35.401  46.182  17.010 -0.34 -0.10    +0.117 C  BRANCH   3   4ATOM      4  C   UNL     1      35.681  45.131  18.057 -0.33 +0.01    -0.030 A  ATOM      5  C   UNL     1      34.908  43.322  19.500 -0.32 -0.01    +0.131 A  ATOM      6  C   UNL     1      34.658  44.286  18.515 -0.31 -0.02    +0.052 A  ATOM      7  C   UNL     1      36.198  43.201  20.043 -0.36 -0.01    +0.097 A  ATOM      8  C   UNL     1      37.218  44.056  19.590 -0.35 -0.00    +0.017 A  ATOM      9  C   UNL     1      36.961  45.013  18.609 -0.31 -0.00    +0.006 A  BRANCH   5  10ATOM     10  O   UNL     1      33.969  42.460  19.999 -0.41 -0.07    -0.496 OA ATOM     11  C   UNL     1      33.078  41.843  19.079 -0.26 -0.01    +0.278 C  ENDBRANCH   5  10BRANCH   7  12ATOM     12  C   UNL     1      36.490  42.172  21.107 -0.25 +0.01    +0.419 C  ATOM     13  F   UNL     1      37.554  42.509  21.895 -0.12 -0.01    -0.166 F  ATOM     14  F   UNL     1      35.453  41.984  21.973 -0.09 -0.02    -0.166 F  ATOM     15  F   UNL     1      36.797  40.944  20.602 -0.18 +0.01    -0.166 F  ENDBRANCH   7  12ENDBRANCH   3   4ENDBRANCH   1   3BRANCH   1  16ATOM     16  C   UNL     1      37.364  46.501  15.597 -0.39 -0.04    +0.079 C  ATOM     17  C   UNL     1      36.430  45.884  14.537 -0.43 -0.03    +0.052 C  ATOM     18  C   UNL     1      38.185  47.694  15.023 -0.48 -0.05    +0.107 C  ATOM     19  C   UNL     1      35.947  46.914  13.523 -0.51 -0.07    +0.116 C  ATOM     20  C   UNL     1      38.429  47.548  13.514 -0.47 -0.01    +0.030 C  ATOM     21  C   UNL     1      37.114  47.510  12.729 -0.64 -0.01    +0.034 C  BRANCH  18  22ATOM     22  N   UNL     1      39.419  47.912  15.770 -0.26 +0.11    -0.310 N  ATOM     23  C   UNL     1      40.285  48.959  15.585 -0.43 -0.06    +0.202 A  ATOM     24  C   UNL     1      39.915  47.144  16.788 -0.37 -0.04    +0.165 A  ATOM     25  N   UNL     1      41.316  48.898  16.402 -0.89 +0.01    -0.231 NA ATOM     26  N   UNL     1      39.389  46.024  17.313 -0.27 +0.04    -0.217 NA ATOM     27  C   UNL     1      41.089  47.775  17.172 -0.39 -0.02    +0.150 A  ATOM     28  C   UNL     1      40.170  45.543  18.301 -0.30 -0.01    +0.226 A  ATOM     29  C   UNL     1      41.810  47.183  18.221 -0.37 -0.01    +0.155 A  ATOM     30  N   UNL     1      41.334  46.043  18.771 -0.32 -0.01    -0.217 NA BRANCH  29  31ATOM     31  N   UNL     1      43.002  47.699  18.713 -0.31 -0.03    -0.382 N  ATOM     32  H   UNL     1      42.885  48.571  19.219 -0.41 -0.02    +0.158 HD ATOM     33  H   UNL     1      43.752  47.638  18.039 -0.32 +0.01    +0.158 HD ENDBRANCH  29  31ENDBRANCH  18  22BRANCH  19  34ATOM     34  O   UNL     1      35.029  46.291  12.634 -0.24 +0.27    -0.393 OA ATOM     35  H   UNL     1      34.162  46.718  12.749 -0.33 -0.21    +0.210 HD ENDBRANCH  19  34ENDBRANCH   1  16TORSDOF 8TERENDMDL