REMARK SMILES COC1=c2cc[nH]c2=C(N2CC[C@H](Cc3ccc(C(=O)N4CCOCC4)cc3)C2=O)C[C@@H]1C
REMARK SMILES IDX 10 1 11 2 12 3 13 4 29 5 30 6 9 7 3 8 4 9 32 10 5 11 8 12
REMARK SMILES IDX 31 13 6 14 7 15 33 16 2 18 1 19 14 20 15 21 16 22 28 23
REMARK SMILES IDX 17 24 27 25 18 26 19 27 21 28 22 29 26 30 23 31 25 32 24 33
REMARK SMILES IDX 20 34
REMARK H PARENT 7 17
ROOT
ATOM      1  N   UNL     1      -2.271  -0.729  -0.188  1.00  0.00    -0.314 N 
ATOM      2  C   UNL     1      -1.387  -0.641   0.958  1.00  0.00     0.126 C 
ATOM      3  C   UNL     1      -0.036  -1.086   0.441  1.00  0.00     0.036 C 
ATOM      4  C   UNL     1      -0.043  -0.629  -1.012  1.00  0.00     0.085 C 
ATOM      5  C   UNL     1      -1.510  -0.762  -1.375  1.00  0.00     0.230 C 
ATOM      6  O   UNL     1      -1.884  -0.836  -2.538  1.00  0.00    -0.274 OA
ENDROOT
BRANCH   1   7
ATOM      7  C   UNL     1      -3.667  -0.719  -0.057  1.00  0.00     0.046 C 
ATOM      8  C   UNL     1      -6.584  -0.568   0.298  1.00  0.00     0.108 C 
ATOM      9  C   UNL     1      -6.002  -0.871  -0.868  1.00  0.00     0.039 A 
ATOM     10  C   UNL     1      -5.739  -0.218   1.503  1.00  0.00     0.058 C 
ATOM     11  C   UNL     1      -6.639  -1.174  -2.143  1.00  0.00     0.031 A 
ATOM     12  C   UNL     1      -4.547  -0.847  -1.069  1.00  0.00     0.069 A 
ATOM     13  C   UNL     1      -4.241  -0.620   1.357  1.00  0.00     0.067 C 
ATOM     14  C   UNL     1      -5.633  -1.254  -3.031  1.00  0.00     0.083 A 
ATOM     15  N   UNL     1      -4.423  -1.035  -2.422  1.00  0.00    -0.360 N 
ATOM     16  C   UNL     1      -6.298  -0.807   2.804  1.00  0.00     0.016 C 
ATOM     17  H   UNL     1      -3.511  -1.105  -2.870  1.00  0.00     0.166 HD
BRANCH   8  18
ATOM     18  O   UNL     1      -7.960  -0.568   0.451  1.00  0.00    -0.500 OA
ATOM     19  C   UNL     1      -8.479   0.759   0.380  1.00  0.00     0.278 C 
ENDBRANCH   8  18
ENDBRANCH   1   7
BRANCH   4  20
ATOM     20  C   UNL     1       0.394   0.825  -1.219  1.00  0.00     0.049 C 
BRANCH  20  21
ATOM     21  C   UNL     1       1.893   0.996  -1.145  1.00  0.00    -0.047 A 
ATOM     22  C   UNL     1       2.499   1.522   0.004  1.00  0.00     0.004 A 
ATOM     23  C   UNL     1       2.694   0.635  -2.240  1.00  0.00     0.004 A 
ATOM     24  C   UNL     1       3.886   1.677   0.062  1.00  0.00     0.014 A 
ATOM     25  C   UNL     1       4.080   0.793  -2.187  1.00  0.00     0.014 A 
ATOM     26  C   UNL     1       4.675   1.296  -1.028  1.00  0.00     0.040 A 
BRANCH  26  27
ATOM     27  C   UNL     1       6.144   1.478  -1.001  1.00  0.00     0.254 C 
ATOM     28  N   UNL     1       6.871   0.904   0.034  1.00  0.00    -0.334 N 
ATOM     29  C   UNL     1       6.373  -0.133   0.945  1.00  0.00     0.148 C 
ATOM     30  C   UNL     1       8.308   1.164   0.106  1.00  0.00     0.148 C 
ATOM     31  C   UNL     1       7.500  -1.083   1.365  1.00  0.00     0.181 C 
ATOM     32  C   UNL     1       8.838   0.913   1.520  1.00  0.00     0.181 C 
ATOM     33  O   UNL     1       8.594  -0.415   2.009  1.00  0.00    -0.378 OA
ATOM     34  O   UNL     1       6.660   2.136  -1.901  1.00  0.00    -0.269 OA
ENDBRANCH  26  27
ENDBRANCH  20  21
ENDBRANCH   4  20
TORSDOF 5
