MODEL        3USER    Run = 3USERUSER    Estimated Free Energy of Binding    = -10.87 kcal/mol  [=(1)+(2)+(3)-(4)]USERUSER    (1) Final Intermolecular Energy     = -13.25 kcal/molUSER        vdW + Hbond + desolv Energy     = -12.99 kcal/molUSER        Electrostatic Energy            =  -0.27 kcal/molUSER        Moving Ligand-Fixed Receptor    = -13.25 kcal/molUSER        Moving Ligand-Moving Receptor   =  +0.00 kcal/molUSER    (2) Final Total Internal Energy     =  -1.99 kcal/molUSER    (3) Torsional Free Energy           =  +2.39 kcal/molUSER    (4) Unbound System's Energy         =  -1.99 kcal/molUSERUSERREMARK SMILES CN1CCN(c2cc(CN[C@@H]3C[C@H](O)CC[C@@H]3n3cnc4c(N)ncnc43)ccc2O)CC1REMARK SMILES IDX 10 1 9 3 8 4 6 5 7 6 30 7 29 8 28 9 5 10 2 11 3 12 33 13REMARK SMILES IDX 4 14 32 15 1 16 31 17 11 19 12 20 17 21 13 22 16 23 15 24REMARK SMILES IDX 18 25 19 26 27 27 20 28 26 29 21 30 25 31 22 32 24 33 23 34REMARK SMILES IDX 14 37REMARK H PARENT 10 2 31 18 23 35 23 36 14 38USER                              x       y       z     vdW  Elec       q    TypeUSER                           _______ _______ _______ _____ _____    ______ ____ROOTATOM      1  N   UNL     1      37.778  45.426  15.570 -0.14 +0.11    -0.308 NA ATOM      2  H   UNL     1      38.310  45.436  14.693 +0.08 -0.03    +0.123 HD ENDROOTBRANCH   1   3ATOM      3  C   UNL     1      36.841  44.303  15.572 -0.34 -0.04    +0.117 C  BRANCH   3   4ATOM      4  C   UNL     1      35.996  44.183  16.818 -0.31 +0.01    -0.032 A  ATOM      5  C   UNL     1      35.822  43.656  19.232 -0.32 -0.01    +0.079 A  ATOM      6  C   UNL     1      36.572  43.801  18.046 -0.25 -0.01    +0.035 A  ATOM      7  C   UNL     1      34.444  43.948  19.129 -0.29 -0.03    +0.138 A  ATOM      8  C   UNL     1      33.853  44.337  17.920 -0.29 -0.02    +0.049 A  ATOM      9  C   UNL     1      34.626  44.450  16.769 -0.30 -0.00    +0.009 A  BRANCH   5  10ATOM     10  N   UNL     1      36.444  43.245  20.406 -0.17 +0.01    -0.366 N  ATOM     11  N   UNL     1      37.757  42.394  22.967 -0.20 -0.03    -0.303 NA ATOM     12  C   UNL     1      37.176  41.460  21.982 -0.53 +0.01    +0.105 C  ATOM     13  C   UNL     1      37.589  43.799  22.533 -0.35 +0.01    +0.105 C  ATOM     14  C   UNL     1      36.027  42.026  21.114 -0.47 +0.00    +0.132 C  ATOM     15  C   UNL     1      37.560  43.999  20.999 -0.36 +0.00    +0.132 C  ATOM     16  C   UNL     1      37.195  42.199  24.300 -0.39 +0.00    +0.105 C  ENDBRANCH   5  10BRANCH   7  17ATOM     17  O   UNL     1      33.636  43.893  20.241 -0.46 +0.00    -0.506 OA ATOM     18  H   UNL     1      33.137  44.722  20.305 -0.21 -0.07    +0.293 HD ENDBRANCH   7  17ENDBRANCH   3   4ENDBRANCH   1   3BRANCH   1  19ATOM     19  C   UNL     1      37.149  46.746  15.769 -0.40 -0.05    +0.079 C  ATOM     20  C   UNL     1      35.742  46.799  15.128 -0.27 -0.05    +0.052 C  ATOM     21  C   UNL     1      38.020  47.866  15.140 -0.48 -0.06    +0.107 C  ATOM     22  C   UNL     1      35.763  46.718  13.597 -0.49 -0.08    +0.116 C  ATOM     23  C   UNL     1      38.093  47.751  13.606 -0.55 -0.01    +0.030 C  ATOM     24  C   UNL     1      36.692  47.769  12.987 -0.68 -0.01    +0.034 C  BRANCH  21  25ATOM     25  N   UNL     1      39.319  47.980  15.790 -0.26 +0.12    -0.310 N  ATOM     26  C   UNL     1      40.403  48.712  15.376 -0.42 -0.05    +0.202 A  ATOM     27  C   UNL     1      39.682  47.327  16.940 -0.35 -0.04    +0.165 A  ATOM     28  N   UNL     1      41.410  48.626  16.219 -0.83 +0.01    -0.231 NA ATOM     29  N   UNL     1      38.953  46.458  17.661 -0.29 +0.05    -0.217 NA ATOM     30  C   UNL     1      40.973  47.754  17.198 -0.41 -0.02    +0.150 A  ATOM     31  C   UNL     1      39.653  46.010  18.724 -0.27 -0.02    +0.226 A  ATOM     32  C   UNL     1      41.592  47.228  18.345 -0.41 -0.01    +0.155 A  ATOM     33  N   UNL     1      40.911  46.329  19.096 -0.31 -0.00    -0.217 NA BRANCH  32  34ATOM     34  N   UNL     1      42.886  47.564  18.728 -0.32 -0.03    -0.382 N  ATOM     35  H   UNL     1      43.548  47.391  17.983 -0.48 -0.00    +0.158 HD ATOM     36  H   UNL     1      42.925  48.470  19.185 -0.38 -0.01    +0.158 HD ENDBRANCH  32  34ENDBRANCH  21  25BRANCH  22  37ATOM     37  O   UNL     1      36.188  45.414  13.200 -0.23 +0.17    -0.393 OA ATOM     38  H   UNL     1      37.100  45.296  13.521 +0.16 -0.08    +0.210 HD ENDBRANCH  22  37ENDBRANCH   1  19TORSDOF 8TERENDMDL