MODEL        4USER    Run = 4USERUSER    Estimated Free Energy of Binding    = -10.53 kcal/mol  [=(1)+(2)+(3)-(4)]USERUSER    (1) Final Intermolecular Energy     = -12.02 kcal/molUSER        vdW + Hbond + desolv Energy     = -11.91 kcal/molUSER        Electrostatic Energy            =  -0.11 kcal/molUSER        Moving Ligand-Fixed Receptor    = -12.02 kcal/molUSER        Moving Ligand-Moving Receptor   =  +0.00 kcal/molUSER    (2) Final Total Internal Energy     =  -2.57 kcal/molUSER    (3) Torsional Free Energy           =  +1.49 kcal/molUSER    (4) Unbound System's Energy         =  -2.57 kcal/molUSERUSERREMARK SMILES COC1=c2cc[nH]c2=C(N2CC[C@H](Cc3ccc(C(=O)N4CCOCC4)cc3)C2=O)C[C@@H]1CREMARK SMILES IDX 10 1 11 2 12 3 13 4 29 5 30 6 9 7 3 8 4 9 32 10 5 11 8 12REMARK SMILES IDX 31 13 6 14 7 15 33 16 2 18 1 19 14 20 15 21 16 22 28 23REMARK SMILES IDX 17 24 27 25 18 26 19 27 21 28 22 29 26 30 23 31 25 32 24 33REMARK SMILES IDX 20 34REMARK H PARENT 7 17USER                              x       y       z     vdW  Elec       q    TypeUSER                           _______ _______ _______ _____ _____    ______ ____ROOTATOM      1  N   UNL     1      35.551  43.690  19.446 -0.18 +0.04    -0.314 N  ATOM      2  C   UNL     1      34.717  42.509  19.330 -0.40 -0.01    +0.126 C  ATOM      3  C   UNL     1      33.434  43.000  18.695 -0.40 -0.01    +0.036 C  ATOM      4  C   UNL     1      33.896  44.143  17.800 -0.31 -0.03    +0.085 C  ATOM      5  C   UNL     1      35.073  44.696  18.580 -0.26 -0.07    +0.230 C  ATOM      6  O   UNL     1      35.500  45.827  18.392 -0.26 +0.12    -0.274 OA ENDROOTBRANCH   1   7ATOM      7  C   UNL     1      36.681  43.728  20.274 -0.44 -0.00    +0.046 C  ATOM      8  C   UNL     1      39.050  43.654  22.018 -0.26 +0.00    +0.108 C  ATOM      9  C   UNL     1      38.958  44.440  20.938 -0.32 +0.00    +0.039 A  ATOM     10  C   UNL     1      37.931  42.696  22.360 -0.39 +0.00    +0.058 C  ATOM     11  C   UNL     1      39.946  45.375  20.416 -0.35 +0.00    +0.031 A  ATOM     12  C   UNL     1      37.818  44.402  20.013 -0.32 -0.00    +0.069 A  ATOM     13  C   UNL     1      36.596  42.998  21.615 -0.44 +0.00    +0.067 C  ATOM     14  C   UNL     1      39.446  45.798  19.241 -0.34 -0.00    +0.083 A  ATOM     15  N   UNL     1      38.230  45.215  18.988 -0.16 +0.04    -0.360 N  ATOM     16  C   UNL     1      37.664  42.619  23.868 -0.41 +0.00    +0.016 C  ATOM     17  H   UNL     1      37.626  45.422  18.194 +0.10 -0.04    +0.166 HD BRANCH   8  18ATOM     18  O   UNL     1      40.151  43.689  22.856 -0.03 -0.02    -0.500 OA ATOM     19  C   UNL     1      41.208  42.881  22.340 -0.21 +0.00    +0.278 C  ENDBRANCH   8  18ENDBRANCH   1   7BRANCH   4  20ATOM     20  C   UNL     1      34.376  43.704  16.412 -0.38 -0.02    +0.049 C  BRANCH  20  21ATOM     21  C   UNL     1      35.429  44.627  15.845 -0.31 +0.02    -0.047 A  ATOM     22  C   UNL     1      36.766  44.218  15.751 -0.37 -0.00    +0.004 A  ATOM     23  C   UNL     1      35.073  45.914  15.413 -0.34 -0.00    +0.004 A  ATOM     24  C   UNL     1      37.732  45.079  15.226 -0.33 -0.00    +0.014 A  ATOM     25  C   UNL     1      36.036  46.779  14.891 -0.36 -0.01    +0.014 A  ATOM     26  C   UNL     1      37.362  46.352  14.781 -0.37 -0.02    +0.040 A  BRANCH  26  27ATOM     27  C   UNL     1      38.372  47.293  14.248 -0.35 -0.09    +0.254 C  ATOM     28  N   UNL     1      39.283  47.867  15.126 -0.24 +0.12    -0.334 N  ATOM     29  C   UNL     1      39.552  47.400  16.491 -0.44 -0.04    +0.148 C  ATOM     30  C   UNL     1      40.219  48.864  14.609 -0.49 -0.05    +0.148 C  ATOM     31  C   UNL     1      41.019  47.626  16.871 -0.41 -0.02    +0.181 C  ATOM     32  C   UNL     1      40.766  49.738  15.741 -0.55 -0.05    +0.181 C  ATOM     33  O   UNL     1      41.422  49.000  16.784 -0.92 -0.01    -0.378 OA ATOM     34  O   UNL     1      38.360  47.530  13.042 -0.68 +0.04    -0.269 OA ENDBRANCH  26  27ENDBRANCH  20  21ENDBRANCH   4  20TORSDOF 5TERENDMDL