REMARK SMILES COC1=c2cc[nH]c2=C(N2CC[C@H](Cc3ccc(C(=O)NCCN(C)C)cc3)C2=O)C[C@@H]1C
REMARK SMILES IDX 15 1 16 2 17 3 18 4 27 5 28 6 14 7 13 8 10 9 11 10 29 11
REMARK SMILES IDX 12 12 30 13 9 14 3 15 4 16 32 17 5 18 8 19 31 20 6 21 7 22
REMARK SMILES IDX 33 23 2 25 1 26 19 27 21 28 20 29 22 31 23 32 24 33 25 34
REMARK SMILES IDX 26 35
REMARK H PARENT 7 24 21 30
ROOT
ATOM      1  C   UNL     1       0.802  -1.946   0.613  1.00  0.00    -0.047 A 
ATOM      2  C   UNL     1       1.977  -2.514   0.102  1.00  0.00     0.004 A 
ATOM      3  C   UNL     1       3.186  -1.812   0.153  1.00  0.00     0.014 A 
ATOM      4  C   UNL     1       3.228  -0.530   0.713  1.00  0.00     0.039 A 
ATOM      5  C   UNL     1       2.060   0.036   1.236  1.00  0.00     0.014 A 
ATOM      6  C   UNL     1       0.853  -0.665   1.178  1.00  0.00     0.004 A 
ENDROOT
BRANCH   1   7
ATOM      7  C   UNL     1      -0.505  -2.702   0.551  1.00  0.00     0.049 C 
BRANCH   7   8
ATOM      8  C   UNL     1      -1.183  -2.614  -0.822  1.00  0.00     0.085 C 
ATOM      9  N   UNL     1      -3.219  -1.407  -0.608  1.00  0.00    -0.314 N 
ATOM     10  C   UNL     1      -3.508  -2.798  -0.316  1.00  0.00     0.126 C 
ATOM     11  C   UNL     1      -1.871  -1.272  -1.005  1.00  0.00     0.230 C 
ATOM     12  C   UNL     1      -2.364  -3.570  -0.938  1.00  0.00     0.036 C 
ATOM     13  O   UNL     1      -1.281  -0.282  -1.415  1.00  0.00    -0.274 OA
BRANCH   9  14
ATOM     14  C   UNL     1      -4.180  -0.396  -0.461  1.00  0.00     0.046 C 
ATOM     15  C   UNL     1      -6.229   1.667  -0.013  1.00  0.00     0.108 C 
ATOM     16  C   UNL     1      -5.037   1.924  -0.567  1.00  0.00     0.039 A 
ATOM     17  C   UNL     1      -6.540   0.280   0.502  1.00  0.00     0.058 C 
ATOM     18  C   UNL     1      -4.527   3.190  -1.072  1.00  0.00     0.031 A 
ATOM     19  C   UNL     1      -3.972   0.917  -0.676  1.00  0.00     0.069 A 
ATOM     20  C   UNL     1      -5.596  -0.820  -0.066  1.00  0.00     0.067 C 
ATOM     21  C   UNL     1      -3.237   2.957  -1.373  1.00  0.00     0.083 A 
ATOM     22  N   UNL     1      -2.889   1.658  -1.084  1.00  0.00    -0.360 N 
ATOM     23  C   UNL     1      -7.998  -0.129   0.264  1.00  0.00     0.016 C 
ATOM     24  H   UNL     1      -2.049   1.196  -1.435  1.00  0.00     0.166 HD
BRANCH  15  25
ATOM     25  O   UNL     1      -7.212   2.633   0.108  1.00  0.00    -0.500 OA
ATOM     26  C   UNL     1      -7.167   3.238   1.399  1.00  0.00     0.278 C 
ENDBRANCH  15  25
ENDBRANCH   9  14
ENDBRANCH   7   8
ENDBRANCH   1   7
BRANCH   4  27
ATOM     27  C   UNL     1       4.492   0.250   0.799  1.00  0.00     0.251 C 
ATOM     28  N   UNL     1       5.409   0.041  -0.210  1.00  0.00    -0.351 N 
ATOM     29  O   UNL     1       4.668   1.044   1.716  1.00  0.00    -0.269 OA
ATOM     30  H   UNL     1       5.142  -0.500  -1.021  1.00  0.00     0.163 HD
BRANCH  28  31
ATOM     31  C   UNL     1       6.662   0.776  -0.256  1.00  0.00     0.131 C 
BRANCH  31  32
ATOM     32  C   UNL     1       7.713   0.200   0.716  1.00  0.00     0.105 C 
BRANCH  32  33
ATOM     33  N   UNL     1       9.047   0.828   0.723  1.00  0.00    -0.308 NA
ATOM     34  C   UNL     1       9.739   0.710  -0.555  1.00  0.00     0.105 C 
ATOM     35  C   UNL     1       8.999   2.218   1.171  1.00  0.00     0.105 C 
ENDBRANCH  32  33
ENDBRANCH  31  32
ENDBRANCH  28  31
ENDBRANCH   4  27
TORSDOF 8
