REMARK SMILES CN1CCN(c2cc(CN[C@@H]3C[C@H](O)CC[C@@H]3n3cnc4c(N)ncnc43)ccc2O)CC1
REMARK SMILES IDX 10 1 9 3 8 4 6 5 7 6 30 7 29 8 28 9 5 10 2 11 3 12 33 13
REMARK SMILES IDX 4 14 32 15 1 16 31 17 11 19 12 20 17 21 13 22 16 23 15 24
REMARK SMILES IDX 18 25 19 26 27 27 20 28 26 29 21 30 25 31 22 32 24 33 23 34
REMARK SMILES IDX 14 37
REMARK H PARENT 10 2 31 18 23 35 23 36 14 38
ROOT
ATOM      1  N   UNL     1      -1.290   0.112  -0.979  1.00  0.00    -0.308 NA
ATOM      2  H   UNL     1      -0.567  -0.558  -1.264  1.00  0.00     0.123 HD
ENDROOT
BRANCH   1   3
ATOM      3  C   UNL     1      -0.736   1.466  -0.965  1.00  0.00     0.117 C 
BRANCH   3   4
ATOM      4  C   UNL     1       0.453   1.656  -0.054  1.00  0.00    -0.032 A 
ATOM      5  C   UNL     1       2.797   1.110   0.533  1.00  0.00     0.079 A 
ATOM      6  C   UNL     1       1.665   0.980  -0.299  1.00  0.00     0.035 A 
ATOM      7  C   UNL     1       2.659   1.991   1.628  1.00  0.00     0.138 A 
ATOM      8  C   UNL     1       1.466   2.679   1.885  1.00  0.00     0.049 A 
ATOM      9  C   UNL     1       0.367   2.509   1.049  1.00  0.00     0.009 A 
BRANCH   5  10
ATOM     10  N   UNL     1       3.954   0.391   0.256  1.00  0.00    -0.366 N 
ATOM     11  N   UNL     1       6.429  -1.206  -0.323  1.00  0.00    -0.303 NA
ATOM     12  C   UNL     1       5.795  -0.280  -1.283  1.00  0.00     0.105 C 
ATOM     13  C   UNL     1       5.674  -1.254   0.949  1.00  0.00     0.105 C 
ATOM     14  C   UNL     1       4.273  -0.064  -1.105  1.00  0.00     0.132 C 
ATOM     15  C   UNL     1       4.930   0.055   1.305  1.00  0.00     0.132 C 
ATOM     16  C   UNL     1       6.582  -2.547  -0.878  1.00  0.00     0.105 C 
ENDBRANCH   5  10
BRANCH   7  17
ATOM     17  O   UNL     1       3.722   2.232   2.467  1.00  0.00    -0.506 OA
ATOM     18  H   UNL     1       3.502   2.980   3.043  1.00  0.00     0.293 HD
ENDBRANCH   7  17
ENDBRANCH   3   4
ENDBRANCH   1   3
BRANCH   1  19
ATOM     19  C   UNL     1      -1.873  -0.322   0.305  1.00  0.00     0.079 C 
ATOM     20  C   UNL     1      -0.973  -1.367   1.005  1.00  0.00     0.052 C 
ATOM     21  C   UNL     1      -3.276  -0.948   0.083  1.00  0.00     0.107 C 
ATOM     22  C   UNL     1      -0.893  -2.704   0.259  1.00  0.00     0.116 C 
ATOM     23  C   UNL     1      -3.204  -2.261  -0.720  1.00  0.00     0.030 C 
ATOM     24  C   UNL     1      -2.282  -3.274  -0.034  1.00  0.00     0.034 C 
BRANCH  21  25
ATOM     25  N   UNL     1      -4.231   0.018  -0.443  1.00  0.00    -0.310 N 
ATOM     26  C   UNL     1      -4.522   0.280  -1.757  1.00  0.00     0.202 A 
ATOM     27  C   UNL     1      -4.992   0.866   0.321  1.00  0.00     0.165 A 
ATOM     28  N   UNL     1      -5.467   1.188  -1.884  1.00  0.00    -0.231 NA
ATOM     29  N   UNL     1      -4.992   0.996   1.659  1.00  0.00    -0.217 NA
ATOM     30  C   UNL     1      -5.762   1.569  -0.589  1.00  0.00     0.150 A 
ATOM     31  C   UNL     1      -5.868   1.945   2.049  1.00  0.00     0.226 A 
ATOM     32  C   UNL     1      -6.650   2.521  -0.059  1.00  0.00     0.155 A 
ATOM     33  N   UNL     1      -6.674   2.710   1.282  1.00  0.00    -0.217 NA
BRANCH  32  34
ATOM     34  N   UNL     1      -7.484   3.302  -0.852  1.00  0.00    -0.382 N 
ATOM     35  H   UNL     1      -7.709   4.178  -0.399  1.00  0.00     0.158 HD
ATOM     36  H   UNL     1      -7.165   3.343  -1.815  1.00  0.00     0.158 HD
ENDBRANCH  32  34
ENDBRANCH  21  25
BRANCH  22  37
ATOM     37  O   UNL     1      -0.183  -2.518  -0.966  1.00  0.00    -0.393 OA
ATOM     38  H   UNL     1      -0.058  -3.397  -1.365  1.00  0.00     0.210 HD
ENDBRANCH  22  37
ENDBRANCH   1  19
TORSDOF 8
