REMARK SMILES CN(O)C(=O)c1ccc(CN[C@H]2C[C@H](O)CC[C@@H]2n2cnc3c(N)ncnc32)cc1
REMARK SMILES IDX 10 1 9 2 6 3 7 4 30 5 8 6 29 7 4 8 5 9 2 10 1 11 3 12 11 14
REMARK SMILES IDX 12 16 13 17 18 18 14 19 17 20 16 21 19 22 20 23 28 24 21 25
REMARK SMILES IDX 27 26 22 27 26 28 23 29 25 30 24 31 15 34
REMARK H PARENT 3 13 11 15 24 32 24 33 15 35
ROOT
ATOM      1  C   UNL     1       0.520   0.998   0.193  1.00  0.00     0.117 C 
ENDROOT
BRANCH   1   2
ATOM      2  C   UNL     1       2.012   0.781   0.060  1.00  0.00    -0.034 A 
ATOM      3  C   UNL     1       4.766   0.287  -0.257  1.00  0.00     0.042 A 
ATOM      4  C   UNL     1       4.083  -0.217   0.857  1.00  0.00     0.014 A 
ATOM      5  C   UNL     1       4.066   1.025  -1.219  1.00  0.00     0.014 A 
ATOM      6  C   UNL     1       2.715   0.034   1.016  1.00  0.00     0.006 A 
ATOM      7  C   UNL     1       2.699   1.271  -1.062  1.00  0.00     0.006 A 
BRANCH   3   8
ATOM      8  C   UNL     1       6.216   0.011  -0.488  1.00  0.00     0.276 C 
ATOM      9  O   UNL     1       6.616  -0.080  -1.649  1.00  0.00    -0.267 OA
BRANCH   8  10
ATOM     10  N   UNL     1       7.044  -0.174   0.616  1.00  0.00    -0.224 N 
ATOM     11  C   UNL     1       8.479  -0.313   0.443  1.00  0.00     0.183 C 
BRANCH  10  12
ATOM     12  O   UNL     1       6.768   0.569   1.794  1.00  0.00    -0.286 OA
ATOM     13  H   UNL     1       6.430   1.423   1.461  1.00  0.00     0.246 HD
ENDBRANCH  10  12
ENDBRANCH   8  10
ENDBRANCH   3   8
ENDBRANCH   1   2
BRANCH   1  14
ATOM     14  N   UNL     1      -0.206  -0.235  -0.129  1.00  0.00    -0.308 NA
ATOM     15  H   UNL     1       0.351  -0.765  -0.800  1.00  0.00     0.123 HD
BRANCH  14  16
ATOM     16  C   UNL     1      -1.549   0.042  -0.696  1.00  0.00     0.079 C 
ATOM     17  C   UNL     1      -1.458   0.233  -2.226  1.00  0.00     0.052 C 
ATOM     18  C   UNL     1      -2.502  -1.133  -0.318  1.00  0.00     0.107 C 
ATOM     19  C   UNL     1      -1.511  -1.096  -2.977  1.00  0.00     0.116 C 
ATOM     20  C   UNL     1      -3.526  -1.429  -1.430  1.00  0.00     0.030 C 
ATOM     21  C   UNL     1      -2.832  -1.836  -2.737  1.00  0.00     0.034 C 
BRANCH  18  22
ATOM     22  N   UNL     1      -3.141  -0.925   0.979  1.00  0.00    -0.310 N 
ATOM     23  C   UNL     1      -2.922  -1.682   2.106  1.00  0.00     0.202 A 
ATOM     24  C   UNL     1      -4.080   0.021   1.295  1.00  0.00     0.165 A 
ATOM     25  N   UNL     1      -3.667  -1.286   3.119  1.00  0.00    -0.231 NA
ATOM     26  N   UNL     1      -4.577   0.986   0.503  1.00  0.00    -0.217 NA
ATOM     27  C   UNL     1      -4.415  -0.238   2.617  1.00  0.00     0.150 A 
ATOM     28  C   UNL     1      -5.513   1.708   1.151  1.00  0.00     0.226 A 
ATOM     29  C   UNL     1      -5.410   0.585   3.181  1.00  0.00     0.155 A 
ATOM     30  N   UNL     1      -5.949   1.565   2.422  1.00  0.00    -0.217 NA
BRANCH  29  31
ATOM     31  N   UNL     1      -5.855   0.462   4.490  1.00  0.00    -0.382 N 
ATOM     32  H   UNL     1      -6.289   1.315   4.813  1.00  0.00     0.158 HD
ATOM     33  H   UNL     1      -5.171   0.026   5.103  1.00  0.00     0.158 HD
ENDBRANCH  29  31
ENDBRANCH  18  22
BRANCH  19  34
ATOM     34  O   UNL     1      -1.346  -0.843  -4.370  1.00  0.00    -0.393 OA
ATOM     35  H   UNL     1      -1.376  -1.699  -4.830  1.00  0.00     0.210 HD
ENDBRANCH  19  34
ENDBRANCH  14  16
ENDBRANCH   1  14
TORSDOF 9
