REMARK SMILES CN(C)c1cc(CN[C@H]2C[C@H](O)CC[C@@H]2n2cnc3c(N)ncnc32)ccc1C(F)(F)F
REMARK SMILES IDX 8 1 7 3 6 4 4 5 5 6 28 7 27 8 26 9 2 10 1 11 3 12 29 13
REMARK SMILES IDX 30 14 31 15 32 16 9 17 10 18 15 19 11 20 14 21 13 22 16 23
REMARK SMILES IDX 17 24 25 25 18 26 24 27 19 28 23 29 20 30 22 31 21 32 12 35
REMARK H PARENT 8 2 21 33 21 34 12 36
ROOT
ATOM      1  N   UNL     1      -0.235  -1.452  -0.544  1.00  0.00    -0.308 NA
ATOM      2  H   UNL     1      -0.081  -1.808  -1.488  1.00  0.00     0.123 HD
ENDROOT
BRANCH   1   3
ATOM      3  C   UNL     1       0.822  -1.954   0.327  1.00  0.00     0.117 C 
BRANCH   3   4
ATOM      4  C   UNL     1       2.161  -1.389  -0.088  1.00  0.00    -0.032 A 
ATOM      5  C   UNL     1       3.575   0.569  -0.558  1.00  0.00     0.049 A 
ATOM      6  C   UNL     1       2.344   0.001  -0.183  1.00  0.00     0.031 A 
ATOM      7  C   UNL     1       4.656  -0.288  -0.829  1.00  0.00     0.079 A 
ATOM      8  C   UNL     1       4.476  -1.682  -0.726  1.00  0.00     0.015 A 
ATOM      9  C   UNL     1       3.244  -2.226  -0.360  1.00  0.00     0.006 A 
BRANCH   5  10
ATOM     10  N   UNL     1       3.747   1.965  -0.654  1.00  0.00    -0.377 N 
ATOM     11  C   UNL     1       2.780   2.610  -1.554  1.00  0.00     0.143 C 
ATOM     12  C   UNL     1       3.823   2.595   0.669  1.00  0.00     0.143 C 
ENDBRANCH   5  10
BRANCH   7  13
ATOM     13  C   UNL     1       6.000   0.265  -1.237  1.00  0.00     0.418 C 
ATOM     14  F   UNL     1       6.574   1.066  -0.292  1.00  0.00    -0.166 F 
ATOM     15  F   UNL     1       5.976   0.983  -2.396  1.00  0.00    -0.166 F 
ATOM     16  F   UNL     1       6.926  -0.722  -1.460  1.00  0.00    -0.166 F 
ENDBRANCH   7  13
ENDBRANCH   3   4
ENDBRANCH   1   3
BRANCH   1  17
ATOM     17  C   UNL     1      -1.625  -1.710  -0.130  1.00  0.00     0.079 C 
ATOM     18  C   UNL     1      -1.924  -3.199   0.110  1.00  0.00     0.052 C 
ATOM     19  C   UNL     1      -2.069  -0.863   1.101  1.00  0.00     0.107 C 
ATOM     20  C   UNL     1      -3.415  -3.458   0.370  1.00  0.00     0.116 C 
ATOM     21  C   UNL     1      -3.454  -1.272   1.650  1.00  0.00     0.030 C 
ATOM     22  C   UNL     1      -4.215  -2.201   0.712  1.00  0.00     0.034 C 
BRANCH  19  23
ATOM     23  N   UNL     1      -1.967   0.571   0.851  1.00  0.00    -0.310 N 
ATOM     24  C   UNL     1      -1.087   1.423   1.471  1.00  0.00     0.202 A 
ATOM     25  C   UNL     1      -2.688   1.311  -0.046  1.00  0.00     0.165 A 
ATOM     26  N   UNL     1      -1.191   2.657   1.025  1.00  0.00    -0.231 NA
ATOM     27  N   UNL     1      -3.672   0.895  -0.859  1.00  0.00    -0.217 NA
ATOM     28  C   UNL     1      -2.180   2.596   0.064  1.00  0.00     0.150 A 
ATOM     29  C   UNL     1      -4.141   1.914  -1.607  1.00  0.00     0.226 A 
ATOM     30  C   UNL     1      -2.746   3.571  -0.775  1.00  0.00     0.155 A 
ATOM     31  N   UNL     1      -3.749   3.207  -1.606  1.00  0.00    -0.217 NA
BRANCH  30  32
ATOM     32  N   UNL     1      -2.342   4.901  -0.776  1.00  0.00    -0.382 N 
ATOM     33  H   UNL     1      -1.883   5.176   0.085  1.00  0.00     0.158 HD
ATOM     34  H   UNL     1      -3.063   5.511  -1.139  1.00  0.00     0.158 HD
ENDBRANCH  30  32
ENDBRANCH  19  23
BRANCH  20  35
ATOM     35  O   UNL     1      -4.009  -4.051  -0.781  1.00  0.00    -0.393 OA
ATOM     36  H   UNL     1      -3.582  -4.912  -0.933  1.00  0.00     0.210 HD
ENDBRANCH  20  35
ENDBRANCH   1  17
TORSDOF 8
