MODEL        7USER    Run = 7USERUSER    Estimated Free Energy of Binding    =  -7.50 kcal/mol  [=(1)+(2)+(3)-(4)]USERUSER    (1) Final Intermolecular Energy     = -11.97 kcal/molUSER        vdW + Hbond + desolv Energy     = -12.10 kcal/molUSER        Electrostatic Energy            =  -0.15 kcal/molUSER        Moving Ligand-Fixed Receptor    = -12.25 kcal/molUSER        Moving Ligand-Moving Receptor   =  +0.27 kcal/molUSER    (2) Final Total Internal Energy     =  -3.56 kcal/molUSER    (3) Torsional Free Energy           =  +4.47 kcal/molUSER    (4) Unbound System's Energy         =  -3.56 kcal/molUSERUSERREMARK SMILES COc1ccc2nc(C(=O)N[C@@H]3CNCCC[C@H]3NC(=O)c3ccc(C(=O)c4c(O)ccc(OC)c4F)cc3)cnc2c1REMARK SMILES IDX 18 1 12 3 11 4 9 5 10 6 8 8 3 9 4 10 43 11 5 12 42 13 6 14REMARK SMILES IDX 41 15 7 16 40 17 2 18 1 19 13 20 14 21 15 23 16 24 17 25REMARK SMILES IDX 19 27 20 28 21 30 22 31 23 32 39 33 24 34 38 35 25 36 26 37REMARK SMILES IDX 27 38 28 39 29 40 36 41 31 42 33 43 32 44 37 45 30 46 34 48REMARK SMILES IDX 35 49REMARK H PARENT 11 7 14 22 19 29 30 47REMARK Flexibility Score:  100.900USER                              x       y       z     vdW  Elec       q    TypeUSER                           _______ _______ _______ _____ _____    ______ ____ROOTATOM      1  C   UNL     1      37.588  43.186  24.937 -0.31 +0.00    +0.106 CG0ATOM      2  G   UNL     1      36.217  42.510  24.746 +0.00 +0.00    +0.000 G0 ENDROOTBRANCH   1   3ATOM      3  C   UNL     1      37.664  44.185  26.126 -0.26 -0.01    +0.118 C  BRANCH   3   4ATOM      4  N   UNL     1      38.743  45.164  25.969 -0.05 +0.00    -0.345 N  ATOM      5  C   UNL     1      38.539  46.408  25.408 -0.17 +0.01    +0.271 C  ATOM      6  O   UNL     1      37.440  46.838  25.076 -0.80 -0.05    -0.267 OA ATOM      7  H   UNL     1      39.714  44.901  26.114 +0.06 +0.00    +0.164 HD BRANCH   5   8ATOM      8  C   UNL     1      39.776  47.216  25.224 -0.16 +0.01    +0.147 A  ATOM      9  C   UNL     1      44.266  49.229  25.526 -0.22 +0.01    +0.121 A  ATOM     10  C   UNL     1      44.207  48.246  26.507 -0.11 +0.00    +0.049 A  ATOM     11  C   UNL     1      43.151  49.440  24.710 -0.21 +0.02    +0.077 A  ATOM     12  C   UNL     1      43.038  47.493  26.667 -0.09 +0.00    +0.034 A  ATOM     13  C   UNL     1      41.986  48.701  24.858 -0.30 +0.02    +0.092 A  ATOM     14  C   UNL     1      41.925  47.701  25.864 -0.13 +0.01    +0.090 A  ATOM     15  N   UNL     1      40.936  48.943  24.045 -0.22 -0.05    -0.252 NA ATOM     16  N   UNL     1      40.820  46.953  26.057 -0.08 -0.02    -0.239 NA ATOM     17  C   UNL     1      39.831  48.184  24.240 -0.26 +0.02    +0.146 A  BRANCH   9  18ATOM     18  O   UNL     1      45.333  50.037  25.258 -0.14 -0.06    -0.497 OA ATOM     19  C   UNL     1      45.533  51.152  26.118 -0.18 +0.02    +0.278 C  ENDBRANCH   9  18ENDBRANCH   5   8ENDBRANCH   3   4BRANCH   3  20ATOM     20  C   UNL     1      37.668  43.529  27.538 -0.32 -0.02    +0.108 C  BRANCH  20  21ATOM     21  N   UNL     1      36.646  42.514  27.842 -0.12 +0.11    -0.315 NA ATOM     22  H   UNL     1      36.802  42.218  28.808 -0.47 -0.09    +0.122 HD BRANCH  21  23ATOM     23  C   UNL     1      36.756  41.342  26.979 -0.51 -0.02    +0.081 C  BRANCH  23  24ATOM     24  C   UNL     1      35.824  41.459  25.780 -0.34 -0.00    +0.017 C  BRANCH  24  25ATOM     25  C   UNL     1      36.216  42.514  24.748 -0.25 +0.00    +0.028 CG0ATOM     26  G   UNL     1      37.590  43.186  24.938 +0.00 +0.00    +0.000 G0 ENDBRANCH  24  25ENDBRANCH  23  24ENDBRANCH  21  23ENDBRANCH  20  21ENDBRANCH   3  20ENDBRANCH   1   3BRANCH   1  27ATOM     27  N   UNL     1      38.038  43.796  23.689 -0.11 -0.02    -0.347 N  ATOM     28  C   UNL     1      39.368  43.970  23.382 -0.14 +0.01    +0.251 C  ATOM     29  H   UNL     1      37.330  43.882  22.968 +0.09 +0.02    +0.164 HD ATOM     30  O   UNL     1      40.279  43.768  24.177 -0.10 -0.01    -0.269 OA BRANCH  28  31ATOM     31  C   UNL     1      39.672  44.452  22.006 -0.26 +0.00    +0.039 A  ATOM     32  C   UNL     1      38.782  45.259  21.282 -0.32 +0.00    +0.014 A  ATOM     33  C   UNL     1      40.881  44.056  21.419 -0.30 +0.00    +0.014 A  ATOM     34  C   UNL     1      39.118  45.694  19.994 -0.28 -0.00    +0.013 A  ATOM     35  C   UNL     1      41.217  44.492  20.135 -0.35 +0.00    +0.013 A  ATOM     36  C   UNL     1      40.348  45.331  19.430 -0.42 +0.00    +0.023 A  BRANCH  36  37ATOM     37  C   UNL     1      40.728  45.751  18.061 -0.39 -0.01    +0.199 C  ATOM     38  O   UNL     1      41.816  45.391  17.610 -0.25 -0.01    -0.288 OA BRANCH  37  39ATOM     39  C   UNL     1      39.839  46.542  17.181 -0.40 -0.02    +0.104 A  ATOM     40  C   UNL     1      40.301  47.752  16.650 -0.43 -0.03    +0.130 A  ATOM     41  C   UNL     1      38.534  46.139  16.892 -0.28 -0.05    +0.179 A  ATOM     42  C   UNL     1      39.495  48.510  15.803 -0.49 -0.02    +0.051 A  ATOM     43  C   UNL     1      37.708  46.898  16.048 -0.29 -0.08    +0.155 A  ATOM     44  C   UNL     1      38.200  48.083  15.497 -0.45 -0.03    +0.053 A  ATOM     45  F   UNL     1      38.035  45.019  17.441 -0.08 +0.05    -0.202 F  BRANCH  40  46ATOM     46  O   UNL     1      41.543  48.260  16.921 -0.53 +0.01    -0.507 OA ATOM     47  H   UNL     1      42.146  47.502  17.098 -0.34 -0.06    +0.293 HD ENDBRANCH  40  46BRANCH  43  48ATOM     48  O   UNL     1      36.454  46.387  15.837 -0.08 +0.35    -0.494 OA ATOM     49  C   UNL     1      36.132  45.969  14.517 -0.26 -0.17    +0.278 C  ENDBRANCH  43  48ENDBRANCH  37  39ENDBRANCH  36  37ENDBRANCH  28  31ENDBRANCH   1  27TORSDOF 9TERENDMDL