MODEL        4USER    Run = 4USERUSER    Estimated Free Energy of Binding    =  -7.81 kcal/mol  [=(1)+(2)+(3)-(4)]USERUSER    (1) Final Intermolecular Energy     = -10.20 kcal/molUSER        vdW + Hbond + desolv Energy     = -10.21 kcal/molUSER        Electrostatic Energy            =  +0.01 kcal/molUSER        Moving Ligand-Fixed Receptor    = -10.20 kcal/molUSER        Moving Ligand-Moving Receptor   =  +0.00 kcal/molUSER    (2) Final Total Internal Energy     =  -2.14 kcal/molUSER    (3) Torsional Free Energy           =  +2.39 kcal/molUSER    (4) Unbound System's Energy         =  -2.14 kcal/molUSERUSERREMARK SMILES CN(C)c1cc(CN[C@H]2C[C@H](O)CC[C@@H]2n2cnc3c(N)ncnc32)ccc1C(F)(F)FREMARK SMILES IDX 8 1 7 3 6 4 4 5 5 6 28 7 27 8 26 9 2 10 1 11 3 12 29 13REMARK SMILES IDX 30 14 31 15 32 16 9 17 10 18 15 19 11 20 14 21 13 22 16 23REMARK SMILES IDX 17 24 25 25 18 26 24 27 19 28 23 29 20 30 22 31 21 32 12 35REMARK H PARENT 8 2 21 33 21 34 12 36USER                              x       y       z     vdW  Elec       q    TypeUSER                           _______ _______ _______ _____ _____    ______ ____ROOTATOM      1  N   UNL     1      38.013  44.679  16.871 -0.14 +0.07    -0.308 NA ATOM      2  H   UNL     1      37.885  44.712  15.859 +0.08 -0.04    +0.123 HD ENDROOTBRANCH   1   3ATOM      3  C   UNL     1      36.711  44.804  17.516 -0.31 -0.04    +0.117 C  BRANCH   3   4ATOM      4  C   UNL     1      36.700  44.062  18.833 -0.32 +0.01    -0.032 A  ATOM      5  C   UNL     1      37.583  43.791  21.113 -0.35 +0.00    +0.049 A  ATOM      6  C   UNL     1      37.566  44.449  19.870 -0.34 -0.00    +0.031 A  ATOM      7  C   UNL     1      36.691  42.725  21.322 -0.41 +0.00    +0.079 A  ATOM      8  C   UNL     1      35.817  42.341  20.285 -0.46 -0.00    +0.015 A  ATOM      9  C   UNL     1      35.821  43.002  19.056 -0.37 -0.00    +0.006 A  BRANCH   5  10ATOM     10  N   UNL     1      38.459  44.185  22.146 -0.11 -0.02    -0.377 N  ATOM     11  C   UNL     1      39.801  43.599  22.025 -0.21 +0.01    +0.143 C  ATOM     12  C   UNL     1      38.471  45.641  22.321 -0.25 +0.01    +0.143 C  ENDBRANCH   5  10BRANCH   7  13ATOM     13  C   UNL     1      36.667  41.981  22.636 -0.26 +0.03    +0.418 C  ATOM     14  F   UNL     1      35.774  40.948  22.665 -0.20 -0.00    -0.166 F  ATOM     15  F   UNL     1      36.389  42.769  23.714 -0.12 -0.02    -0.166 F  ATOM     16  F   UNL     1      37.874  41.402  22.932 -0.04 -0.03    -0.166 F  ENDBRANCH   7  13ENDBRANCH   3   4ENDBRANCH   1   3BRANCH   1  17ATOM     17  C   UNL     1      39.057  45.637  17.277 -0.40 -0.01    +0.079 C  ATOM     18  C   UNL     1      40.085  45.042  18.253 -0.44 -0.00    +0.052 C  ATOM     19  C   UNL     1      39.781  46.307  16.070 -0.42 -0.02    +0.107 C  ATOM     20  C   UNL     1      41.055  46.102  18.793 -0.46 +0.00    +0.116 C  ATOM     21  C   UNL     1      40.998  47.161  16.492 -0.32 -0.00    +0.030 C  ATOM     22  C   UNL     1      41.060  47.406  17.995 -0.57 -0.00    +0.034 C  BRANCH  19  23ATOM     23  N   UNL     1      38.858  47.037  15.207 -0.20 +0.10    -0.310 N  ATOM     24  C   UNL     1      38.678  48.398  15.210 -0.36 -0.11    +0.202 A  ATOM     25  C   UNL     1      38.042  46.519  14.239 -0.31 -0.06    +0.165 A  ATOM     26  N   UNL     1      37.808  48.787  14.302 -0.38 +0.14    -0.231 NA ATOM     27  N   UNL     1      37.878  45.231  13.897 -0.26 +0.06    -0.217 NA ATOM     28  C   UNL     1      37.414  47.620  13.677 -0.43 -0.06    +0.150 A  ATOM     29  C   UNL     1      36.991  45.110  12.889 -0.32 -0.08    +0.226 A  ATOM     30  C   UNL     1      36.516  47.366  12.627 -0.54 -0.07    +0.155 A  ATOM     31  N   UNL     1      36.305  46.084  12.251 -0.45 +0.09    -0.217 NA BRANCH  30  32ATOM     32  N   UNL     1      35.811  48.367  11.969 -0.06 +0.22    -0.382 N  ATOM     33  H   UNL     1      35.102  48.006  11.342 -0.15 -0.13    +0.158 HD ATOM     34  H   UNL     1      36.427  49.088  11.616 -0.35 -0.05    +0.158 HD ENDBRANCH  30  32ENDBRANCH  19  23BRANCH  20  35ATOM     35  O   UNL     1      40.722  46.420  20.141 -0.10 -0.02    -0.393 OA ATOM     36  H   UNL     1      41.523  46.751  20.582 +0.12 +0.02    +0.210 HD ENDBRANCH  20  35ENDBRANCH   1  17TORSDOF 8TERENDMDL