MODEL        2USER    Run = 2USERUSER    Estimated Free Energy of Binding    =  -9.12 kcal/mol  [=(1)+(2)+(3)-(4)]USERUSER    (1) Final Intermolecular Energy     = -11.21 kcal/molUSER        vdW + Hbond + desolv Energy     = -10.90 kcal/molUSER        Electrostatic Energy            =  -0.31 kcal/molUSER        Moving Ligand-Fixed Receptor    = -11.21 kcal/molUSER        Moving Ligand-Moving Receptor   =  +0.00 kcal/molUSER    (2) Final Total Internal Energy     =  -1.15 kcal/molUSER    (3) Torsional Free Energy           =  +2.09 kcal/molUSER    (4) Unbound System's Energy         =  -1.15 kcal/molUSERUSERREMARK SMILES Cc1ncc2n1[C@]2(NS(=O)(=O)Cc1ccnc(N)c1)c1ccc(O)cc1REMARK SMILES IDX 8 1 7 3 2 4 3 5 6 6 4 7 5 8 1 9 20 10 21 11 26 12 22 13REMARK SMILES IDX 25 14 23 15 24 16 9 18 10 19 11 20 12 21 13 22 14 23 19 24REMARK SMILES IDX 15 25 17 26 16 27 18 28REMARK H PARENT 8 2 24 17 18 29 18 30USER                              x       y       z     vdW  Elec       q    TypeUSER                           _______ _______ _______ _____ _____    ______ ____ROOTATOM      1  N   UNL     1      37.282  44.090  16.753 -0.24 +0.05    -0.180 NA ATOM      2  H   UNL     1      37.012  43.380  17.438 +0.10 -0.03    +0.144 HD ENDROOTBRANCH   1   3ATOM      3  C   UNL     1      36.135  44.700  16.047 -0.28 -0.08    +0.178 C  ATOM      4  C   UNL     1      34.020  45.457  17.600 -0.31 -0.07    +0.108 A  ATOM      5  N   UNL     1      33.074  44.580  17.431 -0.17 +0.10    -0.241 NA ATOM      6  N   UNL     1      35.144  45.247  16.892 -0.13 +0.18    -0.299 N  ATOM      7  C   UNL     1      33.578  43.743  16.508 -0.23 -0.06    +0.139 A  ATOM      8  C   UNL     1      34.846  44.033  16.124 -0.29 -0.04    +0.087 A  ATOM      9  C   UNL     1      33.929  46.639  18.497 -0.53 -0.07    +0.088 C  BRANCH   3  10ATOM     10  C   UNL     1      36.456  45.520  14.809 -0.38 -0.00    +0.000 A  ATOM     11  C   UNL     1      36.847  44.899  13.604 -0.42 -0.00    +0.012 A  ATOM     12  C   UNL     1      36.346  46.925  14.795 -0.40 -0.01    +0.012 A  ATOM     13  C   UNL     1      37.130  45.643  12.455 -0.44 -0.02    +0.046 A  ATOM     14  C   UNL     1      36.625  47.676  13.647 -0.53 -0.03    +0.046 A  ATOM     15  C   UNL     1      37.016  47.025  12.487 -0.55 -0.04    +0.115 A  BRANCH  15  16ATOM     16  O   UNL     1      37.296  47.712  11.343 -0.59 +0.09    -0.508 OA ATOM     17  H   UNL     1      36.670  48.452  11.266 -0.17 -0.14    +0.293 HD ENDBRANCH  15  16ENDBRANCH   3  10ENDBRANCH   1   3BRANCH   1  18ATOM     18  S   UNL     1      38.388  45.147  17.481 -0.39 -0.05    +0.218 S  ATOM     19  O   UNL     1      37.672  46.168  18.212 -0.21 +0.06    -0.212 OA ATOM     20  O   UNL     1      39.336  44.269  18.136 -0.28 +0.02    -0.212 OA BRANCH  18  21ATOM     21  C   UNL     1      39.160  45.865  16.024 -0.27 -0.04    +0.189 C  BRANCH  21  22ATOM     22  C   UNL     1      40.081  46.978  16.440 -0.48 +0.00    -0.026 A  ATOM     23  C   UNL     1      40.907  46.852  17.557 -0.49 -0.00    +0.025 A  ATOM     24  C   UNL     1      40.122  48.179  15.721 -0.52 -0.01    +0.051 A  ATOM     25  C   UNL     1      41.728  47.916  17.894 -0.37 -0.01    +0.114 A  ATOM     26  C   UNL     1      40.988  49.187  16.128 -0.49 -0.02    +0.123 A  ATOM     27  N   UNL     1      41.787  49.072  17.199 -0.74 -0.04    -0.240 NA BRANCH  26  28ATOM     28  N   UNL     1      41.040  50.395  15.441 -0.35 +0.13    -0.384 N  ATOM     29  H   UNL     1      40.081  50.633  15.196 -0.34 -0.13    +0.158 HD ATOM     30  H   UNL     1      41.479  51.122  15.991 -0.44 -0.06    +0.158 HD ENDBRANCH  26  28ENDBRANCH  21  22ENDBRANCH  18  21ENDBRANCH   1  18TORSDOF 7TERENDMDL