MODEL        9USER    Run = 9USERUSER    Estimated Free Energy of Binding    =  -9.24 kcal/mol  [=(1)+(2)+(3)-(4)]USERUSER    (1) Final Intermolecular Energy     = -11.02 kcal/molUSER        vdW + Hbond + desolv Energy     = -10.64 kcal/molUSER        Electrostatic Energy            =  -0.38 kcal/molUSER        Moving Ligand-Fixed Receptor    = -11.02 kcal/molUSER        Moving Ligand-Moving Receptor   =  +0.00 kcal/molUSER    (2) Final Total Internal Energy     =  -1.35 kcal/molUSER    (3) Torsional Free Energy           =  +1.79 kcal/molUSER    (4) Unbound System's Energy         =  -1.35 kcal/molUSERUSERREMARK SMILES Cc1cc(CS(=O)(=O)N[C@]2(c3ccc(O)cc3)c3cnc(C)n32)ccn1REMARK SMILES IDX 9 1 6 3 7 4 8 5 5 6 4 7 2 8 3 9 26 10 25 11 24 12 1 13 10 14REMARK SMILES IDX 18 15 23 16 19 17 21 18 20 19 22 20 11 21 12 22 17 23 13 24REMARK SMILES IDX 16 25 14 26 15 27REMARK H PARENT 9 2 15 28USER                              x       y       z     vdW  Elec       q    TypeUSER                           _______ _______ _______ _____ _____    ______ ____ROOTATOM      1  N   UNL     1      35.700  46.626  16.340 -0.26 +0.19    -0.180 NA ATOM      2  H   UNL     1      35.119  47.456  16.477 -0.05 -0.31    +0.144 HD ENDROOTBRANCH   1   3ATOM      3  S   UNL     1      34.715  45.421  15.653 -0.34 -0.17    +0.218 S  ATOM      4  O   UNL     1      34.339  45.965  14.364 -0.35 +0.19    -0.212 OA ATOM      5  O   UNL     1      35.353  44.131  15.787 -0.27 +0.09    -0.212 OA BRANCH   3   6ATOM      6  C   UNL     1      33.303  45.501  16.761 -0.22 -0.15    +0.189 C  BRANCH   6   7ATOM      7  C   UNL     1      33.554  44.609  17.947 -0.33 +0.01    -0.028 A  ATOM      8  C   UNL     1      34.935  43.875  19.782 -0.38 -0.00    +0.038 A  ATOM      9  C   UNL     1      34.742  44.708  18.681 -0.36 -0.01    +0.028 A  ATOM     10  N   UNL     1      34.020  42.961  20.173 -0.63 -0.03    -0.262 NA ATOM     11  C   UNL     1      32.874  42.885  19.461 -0.32 +0.00    +0.111 A  ATOM     12  C   UNL     1      32.599  43.675  18.357 -0.33 -0.00    +0.025 A  ATOM     13  C   UNL     1      36.198  43.972  20.585 -0.43 -0.00    +0.067 C  ENDBRANCH   6   7ENDBRANCH   3   6ENDBRANCH   1   3BRANCH   1  14ATOM     14  C   UNL     1      36.951  46.937  15.608 -0.34 -0.12    +0.178 C  ATOM     15  C   UNL     1      36.904  47.981  14.599 -0.42 -0.07    +0.087 A  ATOM     16  N   UNL     1      36.953  46.559  14.247 -0.19 +0.15    -0.299 N  ATOM     17  C   UNL     1      36.859  48.585  13.387 -0.33 -0.06    +0.139 A  ATOM     18  C   UNL     1      36.920  46.562  12.904 -0.51 -0.04    +0.108 A  ATOM     19  N   UNL     1      36.853  47.736  12.344 -1.02 +0.07    -0.241 NA ATOM     20  C   UNL     1      36.975  45.275  12.163 -0.52 -0.03    +0.088 C  BRANCH  14  21ATOM     21  C   UNL     1      38.258  46.689  16.347 -0.40 -0.00    +0.000 A  ATOM     22  C   UNL     1      39.435  47.399  16.039 -0.48 -0.00    +0.012 A  ATOM     23  C   UNL     1      38.336  45.751  17.398 -0.38 -0.00    +0.012 A  ATOM     24  C   UNL     1      40.629  47.174  16.730 -0.47 -0.01    +0.046 A  ATOM     25  C   UNL     1      39.529  45.520  18.094 -0.40 -0.01    +0.046 A  ATOM     26  C   UNL     1      40.667  46.234  17.750 -0.41 -0.01    +0.115 A  BRANCH  26  27ATOM     27  O   UNL     1      41.852  46.043  18.395 -0.16 -0.02    -0.508 OA ATOM     28  H   UNL     1      42.538  46.569  17.953 -0.32 -0.03    +0.293 HD ENDBRANCH  26  27ENDBRANCH  14  21ENDBRANCH   1  14TORSDOF 6TERENDMDL