MODEL        10USER    Run = 10USERUSER    Estimated Free Energy of Binding    =  -8.36 kcal/mol  [=(1)+(2)+(3)-(4)]USERUSER    (1) Final Intermolecular Energy     = -10.45 kcal/molUSER        vdW + Hbond + desolv Energy     = -10.21 kcal/molUSER        Electrostatic Energy            =  -0.24 kcal/molUSER        Moving Ligand-Fixed Receptor    = -10.45 kcal/molUSER        Moving Ligand-Moving Receptor   =  +0.00 kcal/molUSER    (2) Final Total Internal Energy     =  -1.66 kcal/molUSER    (3) Torsional Free Energy           =  +2.09 kcal/molUSER    (4) Unbound System's Energy         =  -1.66 kcal/molUSERUSERREMARK SMILES Cc1ncc2n1[C@]2(NS(=O)(=O)Cc1ccc(N)cc1)c1ccc(O)cc1REMARK SMILES IDX 8 1 7 3 2 4 3 5 6 6 4 7 5 8 1 9 20 10 21 11 26 12 22 13REMARK SMILES IDX 25 14 23 15 24 16 9 18 10 19 11 20 12 21 13 22 14 23 19 24REMARK SMILES IDX 15 25 18 26 16 27 17 28REMARK H PARENT 8 2 24 17 17 29 17 30USER                              x       y       z     vdW  Elec       q    TypeUSER                           _______ _______ _______ _____ _____    ______ ____ROOTATOM      1  N   UNL     1      37.961  44.087  16.930 -0.17 +0.04    -0.180 NA ATOM      2  H   UNL     1      38.709  43.978  16.243 +0.21 -0.03    +0.144 HD ENDROOTBRANCH   1   3ATOM      3  C   UNL     1      36.648  44.493  16.395 -0.28 -0.06    +0.178 C  ATOM      4  C   UNL     1      34.412  45.242  17.322 -0.27 -0.07    +0.108 A  ATOM      5  N   UNL     1      33.465  44.494  16.810 -0.15 +0.12    -0.241 NA ATOM      6  N   UNL     1      35.580  44.547  17.336 -0.11 +0.12    -0.299 N  ATOM      7  C   UNL     1      34.122  43.350  16.443 -0.27 -0.06    +0.139 A  ATOM      8  C   UNL     1      35.497  43.444  16.492 -0.34 -0.03    +0.087 A  ATOM      9  C   UNL     1      34.269  46.593  17.907 -0.42 -0.09    +0.088 C  BRANCH   3  10ATOM     10  C   UNL     1      36.647  45.497  15.254 -0.37 -0.00    +0.000 A  ATOM     11  C   UNL     1      36.686  46.887  15.473 -0.39 -0.01    +0.012 A  ATOM     12  C   UNL     1      36.564  45.061  13.916 -0.41 -0.00    +0.012 A  ATOM     13  C   UNL     1      36.660  47.799  14.412 -0.42 -0.03    +0.046 A  ATOM     14  C   UNL     1      36.537  45.965  12.852 -0.53 -0.02    +0.046 A  ATOM     15  C   UNL     1      36.588  47.327  13.109 -0.52 -0.05    +0.115 A  BRANCH  15  16ATOM     16  O   UNL     1      36.558  48.176  12.045 -0.77 +0.18    -0.508 OA ATOM     17  H   UNL     1      35.720  48.047  11.569 -0.10 -0.20    +0.293 HD ENDBRANCH  15  16ENDBRANCH   3  10ENDBRANCH   1   3BRANCH   1  18ATOM     18  S   UNL     1      38.544  44.943  18.259 -0.41 -0.03    +0.218 S  ATOM     19  O   UNL     1      38.492  44.106  19.439 -0.27 +0.01    -0.212 OA ATOM     20  O   UNL     1      37.832  46.205  18.235 -0.23 +0.05    -0.212 OA BRANCH  18  21ATOM     21  C   UNL     1      40.271  45.228  17.845 -0.29 -0.01    +0.189 C  BRANCH  21  22ATOM     22  C   UNL     1      40.467  46.574  17.194 -0.47 +0.00    -0.031 A  ATOM     23  C   UNL     1      39.911  46.838  15.936 -0.47 -0.00    +0.007 A  ATOM     24  C   UNL     1      41.238  47.570  17.806 -0.51 -0.00    +0.007 A  ATOM     25  C   UNL     1      40.094  48.082  15.324 -0.54 -0.01    +0.026 A  ATOM     26  C   UNL     1      41.415  48.812  17.187 -0.18 -0.00    +0.026 A  ATOM     27  C   UNL     1      40.802  49.098  15.967 -0.59 -0.01    +0.031 A  BRANCH  27  28ATOM     28  N   UNL     1      41.082  50.294  15.301 -0.33 +0.13    -0.399 N  ATOM     29  H   UNL     1      41.469  51.020  15.897 -0.37 -0.06    +0.156 HD ATOM     30  H   UNL     1      40.324  50.634  14.718 -0.24 -0.12    +0.156 HD ENDBRANCH  27  28ENDBRANCH  21  22ENDBRANCH  18  21ENDBRANCH   1  18TORSDOF 7TERENDMDL