MODEL        4USER    Run = 4USERUSER    Estimated Free Energy of Binding    =  -9.14 kcal/mol  [=(1)+(2)+(3)-(4)]USERUSER    (1) Final Intermolecular Energy     = -10.93 kcal/molUSER        vdW + Hbond + desolv Energy     = -10.67 kcal/molUSER        Electrostatic Energy            =  -0.26 kcal/molUSER        Moving Ligand-Fixed Receptor    = -10.93 kcal/molUSER        Moving Ligand-Moving Receptor   =  +0.00 kcal/molUSER    (2) Final Total Internal Energy     =  -1.07 kcal/molUSER    (3) Torsional Free Energy           =  +1.79 kcal/molUSER    (4) Unbound System's Energy         =  -1.07 kcal/molUSERUSERREMARK SMILES Cc1ncc2n1[C@@]2(NS(=O)(=O)Cc1ccncc1)c1ccc(O)cc1REMARK SMILES IDX 1 1 2 2 3 3 4 4 5 5 6 6 7 7 8 8 9 10 10 11 11 12 12 13 13 14REMARK SMILES IDX 14 15 18 16 15 17 17 18 16 19 19 20 20 21 25 22 21 23 24 24REMARK SMILES IDX 22 25 23 26REMARK H PARENT 8 9 23 27USER                              x       y       z     vdW  Elec       q    TypeUSER                           _______ _______ _______ _____ _____    ______ ____ROOTATOM      1  C   UNL     1      36.933  44.628  12.496 -0.47 -0.03    +0.088 C  ATOM      2  C   UNL     1      36.732  46.089  12.601 -0.51 -0.04    +0.108 A  ATOM      3  N   UNL     1      35.835  46.821  11.985 -0.48 +0.14    -0.241 NA ATOM      4  C   UNL     1      36.154  48.103  12.345 -0.45 -0.07    +0.139 A  ATOM      5  C   UNL     1      37.040  48.178  13.401 -0.49 -0.04    +0.087 A  ATOM      6  N   UNL     1      37.537  46.884  13.360 -0.27 +0.10    -0.299 N  ATOM      7  C   UNL     1      37.324  47.358  14.696 -0.39 -0.10    +0.178 C  ENDROOTBRANCH   7   8ATOM      8  N   UNL     1      36.139  46.845  15.443 -0.26 +0.17    -0.180 NA ATOM      9  H   UNL     1      35.990  47.421  16.283 +0.08 -0.19    +0.144 HD BRANCH   8  10ATOM     10  S   UNL     1      36.298  45.238  15.976 -0.36 -0.11    +0.218 S  ATOM     11  O   UNL     1      35.054  44.538  15.745 -0.25 +0.11    -0.212 OA ATOM     12  O   UNL     1      37.546  44.736  15.440 -0.27 +0.07    -0.212 OA BRANCH  10  13ATOM     13  C   UNL     1      36.478  45.438  17.756 -0.27 -0.07    +0.189 C  BRANCH  13  14ATOM     14  C   UNL     1      35.403  44.687  18.500 -0.34 +0.01    -0.029 A  ATOM     15  C   UNL     1      35.672  43.429  19.050 -0.36 -0.00    +0.025 A  ATOM     16  C   UNL     1      34.116  45.214  18.651 -0.43 -0.01    +0.025 A  ATOM     17  C   UNL     1      34.653  42.756  19.706 -0.35 -0.00    +0.111 A  ATOM     18  C   UNL     1      33.162  44.461  19.317 -0.35 -0.02    +0.111 A  ATOM     19  N   UNL     1      33.404  43.242  19.844 -0.78 -0.01    -0.265 NA ENDBRANCH  13  14ENDBRANCH  10  13ENDBRANCH   8  10ENDBRANCH   7   8BRANCH   7  20ATOM     20  C   UNL     1      38.608  47.628  15.455 -0.48 -0.00    +0.000 A  ATOM     21  C   UNL     1      39.562  48.538  14.956 -0.54 -0.00    +0.012 A  ATOM     22  C   UNL     1      38.911  46.989  16.674 -0.43 -0.00    +0.012 A  ATOM     23  C   UNL     1      40.749  48.813  15.644 -0.58 -0.01    +0.046 A  ATOM     24  C   UNL     1      40.094  47.259  17.367 -0.44 -0.01    +0.046 A  ATOM     25  C   UNL     1      41.001  48.170  16.849 -0.45 -0.01    +0.115 A  BRANCH  25  26ATOM     26  O   UNL     1      42.143  48.406  17.556 -0.40 -0.04    -0.508 OA ATOM     27  H   UNL     1      42.794  47.721  17.334 -0.36 -0.06    +0.293 HD ENDBRANCH  25  26ENDBRANCH   7  20TORSDOF 6TERENDMDL