REMARK SMILES O=C(NC1CCN(C(=O)c2ccnc(Cl)c2)CC1)c1ccc(C(=O)c2cc(O)cc(F)c2O)cc1
REMARK SMILES IDX 19 1 20 2 21 3 22 4 34 5 35 6 2 7 3 8 1 9 4 11 5 12 18 13
REMARK SMILES IDX 6 14 17 15 7 16 8 17 9 18 10 19 11 20 16 21 12 22 14 23
REMARK SMILES IDX 13 24 15 25 23 26 24 27 25 28 26 29 32 30 27 31 30 32 29 33
REMARK SMILES IDX 31 34 33 35 28 37
REMARK H PARENT 3 10 33 36 28 38
ROOT
ATOM      1  C   UNL     1       1.587  -0.305   0.435  1.00  0.00     0.039 A 
ATOM      2  C   UNL     1       2.498  -0.818  -0.499  1.00  0.00     0.014 A 
ATOM      3  C   UNL     1       3.733  -0.194  -0.700  1.00  0.00     0.013 A 
ATOM      4  C   UNL     1       4.072   0.933   0.055  1.00  0.00     0.023 A 
ATOM      5  C   UNL     1       3.162   1.453   0.984  1.00  0.00     0.013 A 
ATOM      6  C   UNL     1       1.926   0.829   1.183  1.00  0.00     0.014 A 
ENDROOT
BRANCH   1   7
ATOM      7  C   UNL     1       0.288  -1.010   0.615  1.00  0.00     0.251 C 
ATOM      8  N   UNL     1      -0.776  -0.237   1.039  1.00  0.00    -0.349 N 
ATOM      9  O   UNL     1       0.197  -2.205   0.359  1.00  0.00    -0.269 OA
ATOM     10  H   UNL     1      -0.692   0.768   0.963  1.00  0.00     0.164 HD
BRANCH   8  11
ATOM     11  C   UNL     1      -2.121  -0.800   1.135  1.00  0.00     0.085 C 
ATOM     12  C   UNL     1      -2.985   0.008   2.113  1.00  0.00     0.046 C 
ATOM     13  C   UNL     1      -2.752  -0.920  -0.260  1.00  0.00     0.046 C 
ATOM     14  C   UNL     1      -3.941   0.946   1.389  1.00  0.00     0.122 C 
ATOM     15  C   UNL     1      -4.272  -0.972  -0.179  1.00  0.00     0.122 C 
ATOM     16  N   UNL     1      -4.820   0.223   0.473  1.00  0.00    -0.338 N 
ATOM     17  C   UNL     1      -6.010   0.845   0.099  1.00  0.00     0.254 C 
ATOM     18  O   UNL     1      -6.304   1.993   0.423  1.00  0.00    -0.269 OA
BRANCH  17  19
ATOM     19  C   UNL     1      -6.985   0.101  -0.725  1.00  0.00     0.044 A 
ATOM     20  C   UNL     1      -7.445  -1.155  -0.331  1.00  0.00     0.034 A 
ATOM     21  C   UNL     1      -7.492   0.712  -1.868  1.00  0.00     0.055 A 
ATOM     22  C   UNL     1      -8.379  -1.777  -1.137  1.00  0.00     0.113 A 
ATOM     23  C   UNL     1      -8.420  -0.001  -2.597  1.00  0.00     0.129 A 
ATOM     24  N   UNL     1      -8.868  -1.232  -2.270  1.00  0.00    -0.245 NA
ATOM     25  Cl  UNL     1      -9.095   0.645  -4.034  1.00  0.00    -0.062 Cl
ENDBRANCH  17  19
ENDBRANCH   8  11
ENDBRANCH   1   7
BRANCH   4  26
ATOM     26  C   UNL     1       5.360   1.640  -0.137  1.00  0.00     0.196 C 
ATOM     27  O   UNL     1       5.366   2.871  -0.134  1.00  0.00    -0.288 OA
BRANCH  26  28
ATOM     28  C   UNL     1       6.644   0.926  -0.353  1.00  0.00     0.071 A 
ATOM     29  C   UNL     1       6.851  -0.365   0.151  1.00  0.00     0.062 A 
ATOM     30  C   UNL     1       7.685   1.570  -1.038  1.00  0.00     0.162 A 
ATOM     31  C   UNL     1       8.066  -1.011  -0.072  1.00  0.00     0.119 A 
ATOM     32  C   UNL     1       8.890   0.901  -1.254  1.00  0.00     0.169 A 
ATOM     33  C   UNL     1       9.089  -0.391  -0.778  1.00  0.00     0.089 A 
ATOM     34  F   UNL     1       9.889   1.499  -1.921  1.00  0.00    -0.203 F 
BRANCH  30  35
ATOM     35  O   UNL     1       7.572   2.850  -1.516  1.00  0.00    -0.504 OA
ATOM     36  H   UNL     1       6.766   3.253  -1.121  1.00  0.00     0.293 HD
ENDBRANCH  30  35
BRANCH  31  37
ATOM     37  O   UNL     1       8.210  -2.269   0.431  1.00  0.00    -0.508 OA
ATOM     38  H   UNL     1       9.104  -2.597   0.228  1.00  0.00     0.293 HD
ENDBRANCH  31  37
ENDBRANCH  26  28
ENDBRANCH   4  26
TORSDOF 7
