REMARK SMILES COc1cc(F)c(O)c(C(=O)c2ccc(C(=O)NC3CCN(C(=O)c4ccncc4)CC3)cc2)c1O
REMARK SMILES IDX 12 1 13 2 14 3 15 4 33 5 34 6 10 7 11 8 9 9 3 10 4 11 35 12
REMARK SMILES IDX 5 13 7 14 6 15 2 16 1 17 36 18 8 20 16 22 18 23 17 24 19 26
REMARK SMILES IDX 20 27 32 28 21 29 31 30 22 31 23 32 24 33 25 34 26 35 30 36
REMARK SMILES IDX 27 37 29 38 28 39
REMARK H PARENT 36 19 8 21 18 25
ROOT
ATOM      1  C   UNL     1      -3.662  -0.528  -2.001  1.00  0.00     0.023 A 
ATOM      2  C   UNL     1      -2.903  -0.495  -3.179  1.00  0.00     0.013 A 
ATOM      3  C   UNL     1      -1.512  -0.375  -3.121  1.00  0.00     0.014 A 
ATOM      4  C   UNL     1      -0.864  -0.306  -1.883  1.00  0.00     0.039 A 
ATOM      5  C   UNL     1      -1.618  -0.329  -0.702  1.00  0.00     0.014 A 
ATOM      6  C   UNL     1      -3.013  -0.441  -0.761  1.00  0.00     0.013 A 
ENDROOT
BRANCH   1   7
ATOM      7  C   UNL     1      -5.141  -0.664  -2.123  1.00  0.00     0.200 C 
ATOM      8  O   UNL     1      -5.663  -0.952  -3.198  1.00  0.00    -0.288 OA
BRANCH   7   9
ATOM      9  C   UNL     1      -6.017  -0.442  -0.963  1.00  0.00     0.113 A 
ATOM     10  C   UNL     1      -7.266   1.092   0.465  1.00  0.00     0.164 A 
ATOM     11  C   UNL     1      -7.824   0.003   1.137  1.00  0.00     0.093 A 
ATOM     12  C   UNL     1      -6.357   0.860  -0.582  1.00  0.00     0.173 A 
ATOM     13  C   UNL     1      -7.465  -1.291   0.760  1.00  0.00     0.169 A 
ATOM     14  C   UNL     1      -6.567  -1.525  -0.280  1.00  0.00     0.166 A 
ATOM     15  F   UNL     1      -7.987  -2.337   1.419  1.00  0.00    -0.203 F 
BRANCH  10  16
ATOM     16  O   UNL     1      -7.516   2.415   0.728  1.00  0.00    -0.493 OA
ATOM     17  C   UNL     1      -8.502   2.698   1.718  1.00  0.00     0.278 C 
ENDBRANCH  10  16
BRANCH  12  18
ATOM     18  O   UNL     1      -5.802   1.937  -1.228  1.00  0.00    -0.504 OA
ATOM     19  H   UNL     1      -6.227   2.731  -0.847  1.00  0.00     0.293 HD
ENDBRANCH  12  18
BRANCH  14  20
ATOM     20  O   UNL     1      -6.219  -2.810  -0.597  1.00  0.00    -0.504 OA
ATOM     21  H   UNL     1      -6.804  -3.410  -0.095  1.00  0.00     0.293 HD
ENDBRANCH  14  20
ENDBRANCH   7   9
ENDBRANCH   1   7
BRANCH   4  22
ATOM     22  C   UNL     1       0.618  -0.186  -1.869  1.00  0.00     0.251 C 
ATOM     23  N   UNL     1       1.273  -0.816  -0.828  1.00  0.00    -0.349 N 
ATOM     24  O   UNL     1       1.194   0.421  -2.763  1.00  0.00    -0.269 OA
ATOM     25  H   UNL     1       0.741  -1.385  -0.183  1.00  0.00     0.164 HD
BRANCH  23  26
ATOM     26  C   UNL     1       2.731  -0.815  -0.737  1.00  0.00     0.085 C 
ATOM     27  C   UNL     1       3.246  -1.999   0.098  1.00  0.00     0.046 C 
ATOM     28  C   UNL     1       3.243   0.533  -0.221  1.00  0.00     0.046 C 
ATOM     29  C   UNL     1       4.128  -1.573   1.270  1.00  0.00     0.122 C 
ATOM     30  C   UNL     1       4.752   0.479  -0.009  1.00  0.00     0.122 C 
ATOM     31  N   UNL     1       5.164  -0.629   0.861  1.00  0.00    -0.338 N 
ATOM     32  C   UNL     1       6.373  -0.642   1.564  1.00  0.00     0.253 C 
ATOM     33  O   UNL     1       6.597  -1.374   2.527  1.00  0.00    -0.269 OA
BRANCH  32  34
ATOM     34  C   UNL     1       7.456   0.270   1.135  1.00  0.00     0.043 A 
ATOM     35  C   UNL     1       8.015   1.134   2.075  1.00  0.00     0.034 A 
ATOM     36  C   UNL     1       7.956   0.222  -0.166  1.00  0.00     0.034 A 
ATOM     37  C   UNL     1       9.039   1.961   1.650  1.00  0.00     0.112 A 
ATOM     38  C   UNL     1       8.983   1.091  -0.488  1.00  0.00     0.112 A 
ATOM     39  N   UNL     1       9.525   1.967   0.387  1.00  0.00    -0.265 NA
ENDBRANCH  32  34
ENDBRANCH  23  26
ENDBRANCH   4  22
TORSDOF 8
