MODEL        7USER    Run = 7USERUSER    Estimated Free Energy of Binding    =  -9.44 kcal/mol  [=(1)+(2)+(3)-(4)]USERUSER    (1) Final Intermolecular Energy     = -11.83 kcal/molUSER        vdW + Hbond + desolv Energy     = -11.76 kcal/molUSER        Electrostatic Energy            =  -0.07 kcal/molUSER        Moving Ligand-Fixed Receptor    = -11.83 kcal/molUSER        Moving Ligand-Moving Receptor   =  +0.00 kcal/molUSER    (2) Final Total Internal Energy     =  -2.17 kcal/molUSER    (3) Torsional Free Energy           =  +2.39 kcal/molUSER    (4) Unbound System's Energy         =  -2.17 kcal/molUSERUSERREMARK SMILES COc1cc(F)c(O)c(C(=O)c2ccc(C(=O)NC3CCN(C(=O)c4ccncc4)CC3)cc2)c1OREMARK SMILES IDX 12 1 13 2 14 3 15 4 33 5 34 6 10 7 11 8 9 9 3 10 4 11 35 12REMARK SMILES IDX 5 13 7 14 6 15 2 16 1 17 36 18 8 20 16 22 18 23 17 24 19 26REMARK SMILES IDX 20 27 32 28 21 29 31 30 22 31 23 32 24 33 25 34 26 35 30 36REMARK SMILES IDX 27 37 29 38 28 39REMARK H PARENT 36 19 8 21 18 25USER                              x       y       z     vdW  Elec       q    TypeUSER                           _______ _______ _______ _____ _____    ______ ____ROOTATOM      1  C   UNL     1      37.142  43.226  25.459 -0.33 -0.00    +0.023 A  ATOM      2  C   UNL     1      37.575  44.357  24.753 -0.30 +0.00    +0.013 A  ATOM      3  C   UNL     1      37.596  44.353  23.356 -0.33 +0.00    +0.014 A  ATOM      4  C   UNL     1      37.167  43.224  22.650 -0.37 +0.00    +0.039 A  ATOM      5  C   UNL     1      36.742  42.087  23.350 -0.46 +0.00    +0.014 A  ATOM      6  C   UNL     1      36.729  42.089  24.751 -0.40 -0.00    +0.013 A  ENDROOTBRANCH   1   7ATOM      7  C   UNL     1      37.134  43.289  26.948 -0.27 -0.03    +0.200 C  ATOM      8  O   UNL     1      37.750  42.464  27.619 -0.23 +0.05    -0.288 OA BRANCH   7   9ATOM      9  C   UNL     1      36.375  44.332  27.655 -0.37 -0.03    +0.113 A  ATOM     10  C   UNL     1      36.092  46.677  28.263 -0.20 -0.05    +0.164 A  ATOM     11  C   UNL     1      34.861  46.371  28.846 -0.29 -0.02    +0.093 A  ATOM     12  C   UNL     1      36.847  45.648  27.674 -0.27 -0.04    +0.173 A  ATOM     13  C   UNL     1      34.408  45.052  28.836 -0.43 -0.04    +0.169 A  ATOM     14  C   UNL     1      35.152  44.030  28.249 -0.44 -0.05    +0.166 A  ATOM     15  F   UNL     1      33.233  44.755  29.413 -0.24 +0.01    -0.203 F  BRANCH  10  16ATOM     16  O   UNL     1      36.668  47.921  28.204 -0.11 +0.10    -0.493 OA ATOM     17  C   UNL     1      36.434  48.681  27.021 -0.27 -0.02    +0.278 C  ENDBRANCH  10  16BRANCH  12  18ATOM     18  O   UNL     1      38.063  45.956  27.116 -0.08 +0.05    -0.504 OA ATOM     19  H   UNL     1      38.373  46.765  27.569 +0.06 -0.04    +0.293 HD ENDBRANCH  12  18BRANCH  14  20ATOM     20  O   UNL     1      34.685  42.744  28.289 -0.22 +0.18    -0.504 OA ATOM     21  H   UNL     1      35.447  42.154  28.445 -0.25 -0.17    +0.293 HD ENDBRANCH  14  20ENDBRANCH   7   9ENDBRANCH   1   7BRANCH   4  22ATOM     22  C   UNL     1      37.200  43.268  21.164 -0.29 +0.00    +0.251 C  ATOM     23  N   UNL     1      37.960  44.274  20.598 -0.15 +0.00    -0.349 N  ATOM     24  O   UNL     1      36.599  42.424  20.511 -0.30 +0.01    -0.269 OA ATOM     25  H   UNL     1      38.512  44.872  21.198 +0.09 +0.01    +0.164 HD BRANCH  23  26ATOM     26  C   UNL     1      38.114  44.386  19.150 -0.36 -0.01    +0.085 C  ATOM     27  C   UNL     1      39.485  44.970  18.771 -0.44 -0.00    +0.046 C  ATOM     28  C   UNL     1      36.951  45.173  18.538 -0.30 -0.01    +0.046 C  ATOM     29  C   UNL     1      39.388  46.218  17.895 -0.41 -0.02    +0.122 C  ATOM     30  C   UNL     1      37.188  45.393  17.048 -0.33 -0.04    +0.122 C  ATOM     31  N   UNL     1      38.482  46.026  16.766 -0.17 +0.10    -0.338 N  ATOM     32  C   UNL     1      38.750  46.730  15.587 -0.31 -0.08    +0.253 C  ATOM     33  O   UNL     1      39.678  47.527  15.462 -0.31 +0.07    -0.269 OA BRANCH  32  34ATOM     34  C   UNL     1      37.876  46.512  14.414 -0.40 -0.02    +0.043 A  ATOM     35  C   UNL     1      37.257  47.614  13.826 -0.52 -0.02    +0.034 A  ATOM     36  C   UNL     1      37.725  45.240  13.863 -0.36 -0.01    +0.034 A  ATOM     37  C   UNL     1      36.462  47.383  12.719 -0.57 -0.05    +0.112 A  ATOM     38  C   UNL     1      36.908  45.117  12.753 -0.43 -0.04    +0.112 A  ATOM     39  N   UNL     1      36.264  46.158  12.179 -0.41 +0.12    -0.265 NA ENDBRANCH  32  34ENDBRANCH  23  26ENDBRANCH   4  22TORSDOF 8TERENDMDL