MODEL        7USER    Run = 7USERUSER    Estimated Free Energy of Binding    = -10.59 kcal/mol  [=(1)+(2)+(3)-(4)]USERUSER    (1) Final Intermolecular Energy     = -12.68 kcal/molUSER        vdW + Hbond + desolv Energy     = -12.47 kcal/molUSER        Electrostatic Energy            =  -0.21 kcal/molUSER        Moving Ligand-Fixed Receptor    = -12.68 kcal/molUSER        Moving Ligand-Moving Receptor   =  +0.00 kcal/molUSER    (2) Final Total Internal Energy     =  -0.82 kcal/molUSER    (3) Torsional Free Energy           =  +2.09 kcal/molUSER    (4) Unbound System's Energy         =  -0.82 kcal/molUSERUSERREMARK SMILES O=C(NC1CCN(C(=O)c2ccnc(Cl)c2)CC1)c1ccc(C(=O)c2cc(O)cc(F)c2O)cc1REMARK SMILES IDX 19 1 20 2 21 3 22 4 34 5 35 6 2 7 3 8 1 9 4 11 5 12 18 13REMARK SMILES IDX 6 14 17 15 7 16 8 17 9 18 10 19 11 20 16 21 12 22 14 23REMARK SMILES IDX 13 24 15 25 23 26 24 27 25 28 26 29 32 30 27 31 30 32 29 33REMARK SMILES IDX 31 34 33 35 28 37REMARK H PARENT 3 10 33 36 28 38USER                              x       y       z     vdW  Elec       q    TypeUSER                           _______ _______ _______ _____ _____    ______ ____ROOTATOM      1  C   UNL     1      37.173  43.167  23.388 -0.35 +0.00    +0.039 A  ATOM      2  C   UNL     1      37.827  44.326  23.829 -0.31 +0.00    +0.014 A  ATOM      3  C   UNL     1      37.826  44.667  25.185 -0.28 +0.00    +0.013 A  ATOM      4  C   UNL     1      37.192  43.833  26.110 -0.31 -0.00    +0.023 A  ATOM      5  C   UNL     1      36.532  42.677  25.673 -0.40 -0.00    +0.013 A  ATOM      6  C   UNL     1      36.531  42.338  24.317 -0.38 +0.00    +0.014 A  ENDROOTBRANCH   1   7ATOM      7  C   UNL     1      37.208  42.845  21.935 -0.31 +0.01    +0.251 C  ATOM      8  N   UNL     1      37.198  43.921  21.068 -0.18 -0.01    -0.349 N  ATOM      9  O   UNL     1      37.276  41.679  21.565 -0.38 -0.01    -0.269 OA ATOM     10  H   UNL     1      37.417  44.834  21.443 +0.08 +0.01    +0.164 HD BRANCH   8  11ATOM     11  C   UNL     1      37.348  43.726  19.628 -0.31 -0.01    +0.085 C  ATOM     12  C   UNL     1      36.033  43.243  19.000 -0.38 -0.01    +0.046 C  ATOM     13  C   UNL     1      37.892  45.002  18.968 -0.37 -0.01    +0.046 C  ATOM     14  C   UNL     1      35.292  44.369  18.292 -0.30 -0.04    +0.122 C  ATOM     15  C   UNL     1      37.559  45.044  17.483 -0.33 -0.03    +0.122 C  ATOM     16  N   UNL     1      36.111  44.987  17.251 -0.10 +0.14    -0.338 N  ATOM     17  C   UNL     1      35.449  45.687  16.244 -0.22 -0.19    +0.254 C  ATOM     18  O   UNL     1      34.237  45.886  16.243 -0.19 +0.30    -0.269 OA BRANCH  17  19ATOM     19  C   UNL     1      36.226  46.221  15.106 -0.36 -0.03    +0.044 A  ATOM     20  C   UNL     1      35.819  45.995  13.792 -0.43 -0.02    +0.034 A  ATOM     21  C   UNL     1      37.335  47.018  15.375 -0.38 -0.03    +0.055 A  ATOM     22  C   UNL     1      36.579  46.551  12.781 -0.52 -0.05    +0.113 A  ATOM     23  C   UNL     1      38.019  47.521  14.288 -0.40 -0.05    +0.129 A  ATOM     24  N   UNL     1      37.679  47.300  13.000 -0.69 +0.06    -0.245 NA ATOM     25  Cl  UNL     1      39.412  48.496  14.501 -0.72 +0.02    -0.062 Cl ENDBRANCH  17  19ENDBRANCH   8  11ENDBRANCH   1   7BRANCH   4  26ATOM     26  C   UNL     1      37.148  44.163  27.554 -0.31 -0.03    +0.196 C  ATOM     27  O   UNL     1      37.952  43.620  28.311 -0.26 +0.05    -0.288 OA BRANCH  26  28ATOM     28  C   UNL     1      36.160  45.109  28.131 -0.38 -0.02    +0.071 A  ATOM     29  C   UNL     1      34.912  44.667  28.589 -0.50 -0.02    +0.062 A  ATOM     30  C   UNL     1      36.462  46.478  28.181 -0.22 -0.04    +0.162 A  ATOM     31  C   UNL     1      34.007  45.579  29.130 -0.28 -0.02    +0.119 A  ATOM     32  C   UNL     1      35.543  47.371  28.732 -0.29 -0.04    +0.169 A  ATOM     33  C   UNL     1      34.314  46.931  29.213 -0.39 -0.02    +0.089 A  ATOM     34  F   UNL     1      35.826  48.681  28.801 -0.09 +0.02    -0.203 F  BRANCH  30  35ATOM     35  O   UNL     1      37.643  46.990  27.707 -0.09 +0.10    -0.504 OA ATOM     36  H   UNL     1      38.282  47.025  28.454 -0.22 -0.12    +0.293 HD ENDBRANCH  30  35BRANCH  31  37ATOM     37  O   UNL     1      32.812  45.093  29.570 -0.66 -0.03    -0.508 OA ATOM     38  H   UNL     1      32.633  45.438  30.463 -0.25 -0.11    +0.293 HD ENDBRANCH  31  37ENDBRANCH  26  28ENDBRANCH   4  26TORSDOF 7TERENDMDL