MODEL        6USER    Run = 6USERUSER    Estimated Free Energy of Binding    = -10.26 kcal/mol  [=(1)+(2)+(3)-(4)]USERUSER    (1) Final Intermolecular Energy     = -12.65 kcal/molUSER        vdW + Hbond + desolv Energy     = -12.27 kcal/molUSER        Electrostatic Energy            =  -0.38 kcal/molUSER        Moving Ligand-Fixed Receptor    = -12.65 kcal/molUSER        Moving Ligand-Moving Receptor   =  +0.00 kcal/molUSER    (2) Final Total Internal Energy     =  -2.14 kcal/molUSER    (3) Torsional Free Energy           =  +2.39 kcal/molUSER    (4) Unbound System's Energy         =  -2.14 kcal/molUSERUSERREMARK SMILES CS(=O)(=O)c1nc2c([nH]1)CN(C(=O)[C@H](Cc1ccc(F)cc1)NC(=O)c1ccnc(F)c1)C[C@H]2OREMARK SMILES IDX 12 1 13 2 11 3 5 4 6 5 9 6 7 7 8 8 34 9 10 10 33 11 2 13REMARK SMILES IDX 1 14 3 15 4 16 35 17 14 19 15 20 16 21 17 22 22 23 18 24REMARK SMILES IDX 21 25 19 26 20 27 23 28 24 29 25 31 26 32 27 33 32 34 28 35REMARK SMILES IDX 30 36 29 37 31 38REMARK H PARENT 9 12 35 18 23 30USER                              x       y       z     vdW  Elec       q    TypeUSER                           _______ _______ _______ _____ _____    ______ ____ROOTATOM      1  C   UNL     1      34.402  42.727  18.075 -0.27 -0.06    +0.245 C  ATOM      2  O   UNL     1      34.752  41.771  18.781 -0.32 +0.04    -0.272 OA ENDROOTBRANCH   1   3ATOM      3  N   UNL     1      35.090  43.931  18.103 -0.09 +0.10    -0.332 N  ATOM      4  C   UNL     1      37.357  46.982  15.618 -0.25 -0.14    +0.225 A  ATOM      5  N   UNL     1      36.176  47.379  16.063 -0.20 +0.26    -0.220 NA ATOM      6  N   UNL     1      37.666  45.718  16.085 -0.13 +0.13    -0.331 N  ATOM      7  C   UNL     1      35.732  46.345  16.847 -0.29 -0.08    +0.095 A  ATOM      8  C   UNL     1      36.600  45.285  16.818 -0.30 -0.03    +0.061 A  ATOM      9  C   UNL     1      34.484  46.353  17.662 -0.32 -0.18    +0.184 C  ATOM     10  C   UNL     1      36.431  43.972  17.487 -0.26 -0.05    +0.175 C  ATOM     11  C   UNL     1      34.589  45.200  18.703 -0.37 -0.06    +0.158 C  ATOM     12  H   UNL     1      38.527  45.228  15.881 +0.11 -0.04    +0.169 HD BRANCH   4  13ATOM     13  S   UNL     1      38.460  47.873  14.560 -0.56 -0.09    +0.208 S  ATOM     14  C   UNL     1      39.075  49.163  15.611 -0.29 -0.10    +0.167 C  ATOM     15  O   UNL     1      37.590  48.459  13.554 -0.75 +0.08    -0.221 OA ATOM     16  O   UNL     1      39.541  46.973  14.223 -0.35 +0.04    -0.221 OA ENDBRANCH   4  13BRANCH   9  17ATOM     17  O   UNL     1      34.316  47.593  18.341 -0.93 +0.42    -0.385 OA ATOM     18  H   UNL     1      34.564  48.275  17.685 -0.31 -0.52    +0.211 HD ENDBRANCH   9  17ENDBRANCH   1   3BRANCH   1  19ATOM     19  C   UNL     1      33.121  42.600  17.227 -0.29 -0.07    +0.176 C  BRANCH  19  20ATOM     20  C   UNL     1      32.203  43.779  17.587 -0.31 -0.02    +0.070 C  BRANCH  20  21ATOM     21  C   UNL     1      31.667  44.540  16.395 -0.29 +0.02    -0.045 A  ATOM     22  C   UNL     1      30.283  44.634  16.168 -0.32 -0.00    +0.007 A  ATOM     23  C   UNL     1      32.554  45.171  15.506 -0.36 -0.00    +0.007 A  ATOM     24  C   UNL     1      29.797  45.340  15.064 -0.35 -0.02    +0.039 A  ATOM     25  C   UNL     1      32.066  45.879  14.406 -0.42 -0.03    +0.039 A  ATOM     26  C   UNL     1      30.692  45.955  14.194 -0.45 -0.08    +0.123 A  ATOM     27  F   UNL     1      30.227  46.625  13.134 -0.22 +0.11    -0.207 F  ENDBRANCH  20  21ENDBRANCH  19  20BRANCH  19  28ATOM     28  N   UNL     1      32.505  41.312  17.570 -0.16 +0.12    -0.340 N  ATOM     29  C   UNL     1      32.015  41.070  18.835 -0.26 -0.01    +0.252 C  ATOM     30  H   UNL     1      32.188  40.760  16.774 -0.34 -0.11    +0.164 HD ATOM     31  O   UNL     1      32.080  41.885  19.749 -0.34 -0.03    -0.269 OA BRANCH  29  32ATOM     32  C   UNL     1      31.361  39.753  19.069 -0.37 +0.00    +0.045 A  ATOM     33  C   UNL     1      30.541  39.140  18.121 -0.37 +0.00    +0.034 A  ATOM     34  C   UNL     1      31.621  39.098  20.270 -0.36 +0.02    +0.074 A  ATOM     35  C   UNL     1      30.004  37.900  18.433 -0.27 +0.05    +0.115 A  ATOM     36  C   UNL     1      31.038  37.864  20.478 -0.33 +0.03    +0.213 A  ATOM     37  N   UNL     1      30.233  37.250  19.590 -0.43 -0.08    -0.228 NA ATOM     38  F   UNL     1      31.269  37.230  21.643 -0.17 -0.01    -0.185 F  ENDBRANCH  29  32ENDBRANCH  19  28ENDBRANCH   1  19TORSDOF 8TERENDMDL