MODEL        2USER    Run = 2USERUSER    Estimated Free Energy of Binding    =  -9.51 kcal/mol  [=(1)+(2)+(3)-(4)]USERUSER    (1) Final Intermolecular Energy     = -10.40 kcal/molUSER        vdW + Hbond + desolv Energy     = -10.34 kcal/molUSER        Electrostatic Energy            =  -0.06 kcal/molUSER        Moving Ligand-Fixed Receptor    = -10.40 kcal/molUSER        Moving Ligand-Moving Receptor   =  +0.00 kcal/molUSER    (2) Final Total Internal Energy     =  -0.89 kcal/molUSER    (3) Torsional Free Energy           =  +0.89 kcal/molUSER    (4) Unbound System's Energy         =  -0.89 kcal/molUSERUSERREMARK SMILES c1cc(-c2ccc(-c3ccc4[nH]ncc4c3)cc2)cc(N2CCOCC2)n1REMARK SMILES IDX 4 1 5 2 6 3 7 4 17 5 18 6 3 7 1 8 2 9 27 10 20 11 19 12REMARK SMILES IDX 21 13 22 14 26 15 23 16 25 17 24 18 8 19 9 20 16 21 10 22REMARK SMILES IDX 15 23 11 24 14 25 12 26 13 27REMARK H PARENT 12 28USER                              x       y       z     vdW  Elec       q    TypeUSER                           _______ _______ _______ _____ _____    ______ ____ROOTATOM      1  C   UNL     1      40.522  45.457  19.152 -0.44 -0.00    -0.018 A  ATOM      2  C   UNL     1      39.331  44.854  18.719 -0.41 -0.00    +0.009 A  ATOM      3  C   UNL     1      38.667  45.305  17.572 -0.38 -0.00    +0.009 A  ATOM      4  C   UNL     1      39.169  46.376  16.818 -0.42 +0.00    -0.018 A  ATOM      5  C   UNL     1      40.359  46.979  17.250 -0.50 -0.00    +0.009 A  ATOM      6  C   UNL     1      41.024  46.528  18.397 -0.51 -0.00    +0.009 A  ENDROOTBRANCH   1   7ATOM      7  C   UNL     1      41.220  44.984  20.357 -0.36 -0.00    -0.013 A  ATOM      8  C   UNL     1      42.083  43.240  21.740 -0.29 +0.01    +0.114 A  ATOM      9  C   UNL     1      41.415  43.624  20.593 -0.17 +0.00    +0.029 A  ATOM     10  N   UNL     1      42.563  44.105  22.659 -0.13 -0.03    -0.239 NA ATOM     11  C   UNL     1      42.379  45.425  22.451 -0.15 +0.02    +0.129 A  ATOM     12  C   UNL     1      41.717  45.885  21.309 -0.28 +0.01    +0.055 A  BRANCH  11  13ATOM     13  N   UNL     1      42.863  46.361  23.388 -0.03 -0.06    -0.352 N  ATOM     14  C   UNL     1      41.811  47.004  24.209 -0.16 +0.02    +0.146 C  ATOM     15  C   UNL     1      43.785  47.334  22.751 -0.27 +0.04    +0.146 C  ATOM     16  C   UNL     1      41.428  48.373  23.629 -0.27 +0.03    +0.181 C  ATOM     17  C   UNL     1      43.811  48.654  23.537 -0.17 +0.05    +0.181 C  ATOM     18  O   UNL     1      42.530  49.301  23.596 -0.89 -0.15    -0.378 OA ENDBRANCH  11  13ENDBRANCH   1   7BRANCH   4  19ATOM     19  C   UNL     1      38.470  46.850  15.612 -0.41 +0.01    -0.018 A  ATOM     20  C   UNL     1      38.330  48.226  15.359 -0.51 -0.01    +0.011 A  ATOM     21  C   UNL     1      37.929  45.930  14.691 -0.39 -0.01    +0.020 A  ATOM     22  C   UNL     1      37.672  48.715  14.221 -0.47 -0.02    +0.029 A  ATOM     23  C   UNL     1      37.263  46.400  13.544 -0.48 -0.01    +0.020 A  ATOM     24  C   UNL     1      37.151  47.769  13.337 -0.53 -0.03    +0.065 A  ATOM     25  C   UNL     1      36.610  45.820  12.435 -0.48 -0.06    +0.143 A  ATOM     26  N   UNL     1      36.466  47.900  12.158 -0.44 +0.11    -0.278 N  ATOM     27  N   UNL     1      36.123  46.732  11.587 -0.54 +0.09    -0.183 NA ATOM     28  H   UNL     1      36.200  48.759  11.691 -0.29 -0.09    +0.190 HD ENDBRANCH   4  19TORSDOF 3TERENDMDL