REMARK SMILES Nc1cc(-c2nc3ccccc3s2)ccn1
REMARK SMILES IDX 2 1 3 2 4 3 14 4 15 5 16 6 1 7 5 10 6 11 13 12 7 13 12 14
REMARK SMILES IDX 8 15 11 16 9 17 10 18
REMARK H PARENT 1 8 1 9
ROOT
ATOM      1  C   UNL     1      -3.706   0.400   0.274  1.00  0.00     0.123 A 
ATOM      2  C   UNL     1      -2.336   0.514   0.073  1.00  0.00     0.057 A 
ATOM      3  C   UNL     1      -1.504  -0.601   0.257  1.00  0.00     0.016 A 
ATOM      4  C   UNL     1      -2.106  -1.800   0.643  1.00  0.00     0.031 A 
ATOM      5  C   UNL     1      -3.479  -1.823   0.821  1.00  0.00     0.114 A 
ATOM      6  N   UNL     1      -4.279  -0.753   0.645  1.00  0.00    -0.240 NA
ENDROOT
BRANCH   1   7
ATOM      7  N   UNL     1      -4.537   1.510   0.091  1.00  0.00    -0.384 N 
ATOM      8  H   UNL     1      -4.446   1.847  -0.862  1.00  0.00     0.158 HD
ATOM      9  H   UNL     1      -4.248   2.256   0.716  1.00  0.00     0.158 HD
ENDBRANCH   1   7
BRANCH   3  10
ATOM     10  C   UNL     1      -0.052  -0.444   0.035  1.00  0.00     0.124 A 
ATOM     11  N   UNL     1       0.507   0.694  -0.329  1.00  0.00    -0.236 NA
ATOM     12  S   UNL     1       1.053  -1.751   0.233  1.00  0.00    -0.114 S 
ATOM     13  C   UNL     1       1.877   0.547  -0.463  1.00  0.00     0.082 A 
ATOM     14  C   UNL     1       2.367  -0.730  -0.195  1.00  0.00     0.055 A 
ATOM     15  C   UNL     1       2.785   1.558  -0.837  1.00  0.00     0.030 A 
ATOM     16  C   UNL     1       3.735  -1.036  -0.288  1.00  0.00     0.021 A 
ATOM     17  C   UNL     1       4.150   1.266  -0.933  1.00  0.00     0.002 A 
ATOM     18  C   UNL     1       4.617  -0.016  -0.661  1.00  0.00     0.002 A 
ENDBRANCH   3  10
TORSDOF 2
