MODEL        2USER    Run = 2USERUSER    Estimated Free Energy of Binding    =  -6.68 kcal/mol  [=(1)+(2)+(3)-(4)]USERUSER    (1) Final Intermolecular Energy     =  -7.28 kcal/molUSER        vdW + Hbond + desolv Energy     =  -7.29 kcal/molUSER        Electrostatic Energy            =  +0.02 kcal/molUSER        Moving Ligand-Fixed Receptor    =  -7.28 kcal/molUSER        Moving Ligand-Moving Receptor   =  +0.00 kcal/molUSER    (2) Final Total Internal Energy     =  -0.25 kcal/molUSER    (3) Torsional Free Energy           =  +0.60 kcal/molUSER    (4) Unbound System's Energy         =  -0.25 kcal/molUSERUSERREMARK SMILES CN1CCn2c1cnc2NC(=O)c1cc(F)cc(F)c1REMARK SMILES IDX 10 1 11 2 12 3 9 5 2 6 3 7 6 8 4 9 5 10 7 11 8 12 1 13 13 14REMARK SMILES IDX 14 15 20 16 15 17 18 18 17 19 16 20 19 21REMARK H PARENT 10 4USER                              x       y       z     vdW  Elec       q    TypeUSER                           _______ _______ _______ _____ _____    ______ ____ROOTATOM      1  N   UNL     1      39.790  47.293  15.505 -0.26 +0.07    -0.292 N  ATOM      2  C   UNL     1      38.450  47.006  15.670 -0.30 -0.10    +0.258 C  ATOM      3  O   UNL     1      37.821  46.895  16.714 -0.27 +0.13    -0.269 OA ATOM      4  H   UNL     1      40.156  47.474  14.585 +0.13 -0.03    +0.173 HD ENDROOTBRANCH   1   5ATOM      5  C   UNL     1      40.641  47.446  16.575 -0.35 -0.03    +0.211 A  ATOM      6  N   UNL     1      41.742  46.016  19.490 -0.20 -0.04    -0.358 N  ATOM      7  C   UNL     1      40.624  45.062  19.341 -0.39 +0.00    +0.139 C  ATOM      8  C   UNL     1      41.644  46.918  18.488 -0.43 -0.00    +0.130 A  ATOM      9  C   UNL     1      40.121  45.255  17.892 -0.35 -0.01    +0.149 C  ATOM     10  N   UNL     1      40.744  46.514  17.552 -0.28 +0.03    -0.295 N  ATOM     11  C   UNL     1      42.091  48.130  18.045 -0.22 -0.00    +0.160 A  ATOM     12  N   UNL     1      41.453  48.447  16.855 -0.82 +0.00    -0.219 NA ATOM     13  C   UNL     1      42.119  46.452  20.821 -0.32 +0.03    +0.145 C  ENDBRANCH   1   5BRANCH   2  14ATOM     14  C   UNL     1      37.690  46.853  14.399 -0.41 -0.02    +0.046 A  ATOM     15  C   UNL     1      37.079  47.945  13.771 -0.52 -0.03    +0.053 A  ATOM     16  C   UNL     1      37.619  45.584  13.813 -0.40 -0.02    +0.053 A  ATOM     17  C   UNL     1      36.386  47.745  12.580 -0.56 -0.06    +0.126 A  ATOM     18  C   UNL     1      36.919  45.415  12.623 -0.44 -0.04    +0.126 A  ATOM     19  C   UNL     1      36.294  46.487  12.000 -0.61 -0.04    +0.078 A  ATOM     20  F   UNL     1      35.799  48.790  11.984 -0.12 +0.11    -0.207 F  ATOM     21  F   UNL     1      36.843  44.199  12.069 -0.17 +0.06    -0.207 F  ENDBRANCH   2  14TORSDOF 2TERENDMDL