MODEL        1USER    Run = 1USERUSER    Estimated Free Energy of Binding    =  -8.31 kcal/mol  [=(1)+(2)+(3)-(4)]USERUSER    (1) Final Intermolecular Energy     =  -8.91 kcal/molUSER        vdW + Hbond + desolv Energy     =  -8.98 kcal/molUSER        Electrostatic Energy            =  +0.07 kcal/molUSER        Moving Ligand-Fixed Receptor    =  -8.91 kcal/molUSER        Moving Ligand-Moving Receptor   =  +0.00 kcal/molUSER    (2) Final Total Internal Energy     =  -0.65 kcal/molUSER    (3) Torsional Free Energy           =  +0.60 kcal/molUSER    (4) Unbound System's Energy         =  -0.65 kcal/molUSERUSERREMARK SMILES O=C(c1ccccc1-c1cn[nH]n1)N1CCOCC1REMARK SMILES IDX 3 1 4 2 5 3 6 4 7 5 8 6 2 7 14 8 15 9 19 10 16 11 18 12REMARK SMILES IDX 17 13 1 14 9 15 10 16 13 17 11 18 12 19REMARK H PARENT 12 20USER                              x       y       z     vdW  Elec       q    TypeUSER                           _______ _______ _______ _____ _____    ______ ____ROOTATOM      1  C   UNL     1      38.884  47.370  16.256 -0.41 -0.02    +0.049 A  ATOM      2  C   UNL     1      38.288  46.337  16.995 -0.38 -0.00    +0.014 A  ATOM      3  C   UNL     1      39.035  45.644  17.945 -0.42 -0.00    +0.001 A  ATOM      4  C   UNL     1      40.373  45.980  18.153 -0.48 -0.00    +0.001 A  ATOM      5  C   UNL     1      40.960  47.017  17.423 -0.49 -0.00    +0.011 A  ATOM      6  C   UNL     1      40.220  47.740  16.471 -0.52 -0.00    +0.016 A  ENDROOTBRANCH   1   7ATOM      7  C   UNL     1      38.045  48.038  15.248 -0.37 -0.15    +0.254 C  ATOM      8  N   UNL     1      37.451  47.259  14.268 -0.20 +0.16    -0.334 N  ATOM      9  C   UNL     1      37.574  45.800  14.149 -0.38 -0.05    +0.148 C  ATOM     10  C   UNL     1      36.601  47.901  13.264 -0.55 -0.07    +0.148 C  ATOM     11  C   UNL     1      37.302  45.342  12.712 -0.35 -0.06    +0.181 C  ATOM     12  C   UNL     1      35.507  46.946  12.781 -0.43 -0.12    +0.181 C  ATOM     13  O   UNL     1      36.004  45.717  12.230 -0.33 +0.17    -0.378 OA ATOM     14  O   UNL     1      37.915  49.255  15.334 -0.43 +0.23    -0.269 OA ENDBRANCH   1   7BRANCH   6  15ATOM     15  C   UNL     1      40.875  48.817  15.736 -0.51 -0.02    +0.113 A  ATOM     16  C   UNL     1      41.051  48.991  14.341 -0.37 -0.03    +0.165 A  ATOM     17  N   UNL     1      41.422  49.875  16.361 -1.05 +0.01    -0.156 NA ATOM     18  N   UNL     1      41.707  50.129  14.092 -0.56 +0.04    -0.164 NA ATOM     19  N   UNL     1      41.888  50.601  15.332 -0.50 +0.03    -0.197 N  ATOM     20  H   UNL     1      42.364  51.485  15.490 -0.24 -0.04    +0.214 HD ENDBRANCH   6  15TORSDOF 2TERENDMDL