REMARK SMILES CN1CCn2c1cnc2NC(=O)c1cc(F)cc(F)c1
REMARK SMILES IDX 10 1 11 2 12 3 9 5 2 6 3 7 6 8 4 9 5 10 7 11 8 12 1 13 13 14
REMARK SMILES IDX 14 15 20 16 15 17 18 18 17 19 16 20 19 21
REMARK H PARENT 10 4
ROOT
ATOM      1  N   UNL     1       0.614   0.335  -0.227  1.00  0.00    -0.292 N 
ATOM      2  C   UNL     1       1.699   1.085  -0.634  1.00  0.00     0.258 C 
ATOM      3  O   UNL     1       1.707   2.219  -1.094  1.00  0.00    -0.269 OA
ATOM      4  H   UNL     1       0.758  -0.542   0.246  1.00  0.00     0.173 HD
ENDROOT
BRANCH   1   5
ATOM      5  C   UNL     1      -0.677   0.792  -0.351  1.00  0.00     0.211 A 
ATOM      6  N   UNL     1      -3.970   0.050   0.251  1.00  0.00    -0.358 N 
ATOM      7  C   UNL     1      -3.511  -1.319   0.568  1.00  0.00     0.139 C 
ATOM      8  C   UNL     1      -2.892   0.755  -0.161  1.00  0.00     0.130 A 
ATOM      9  C   UNL     1      -1.976  -1.206   0.709  1.00  0.00     0.149 C 
ATOM     10  N   UNL     1      -1.739   0.081   0.096  1.00  0.00    -0.295 N 
ATOM     11  C   UNL     1      -2.496   1.907  -0.778  1.00  0.00     0.160 A 
ATOM     12  N   UNL     1      -1.114   1.913  -0.894  1.00  0.00    -0.219 NA
ATOM     13  C   UNL     1      -5.246   0.225  -0.415  1.00  0.00     0.145 C 
ENDBRANCH   1   5
BRANCH   2  14
ATOM     14  C   UNL     1       3.017   0.419  -0.444  1.00  0.00     0.046 A 
ATOM     15  C   UNL     1       3.183  -0.956  -0.647  1.00  0.00     0.053 A 
ATOM     16  C   UNL     1       4.117   1.207  -0.084  1.00  0.00     0.053 A 
ATOM     17  C   UNL     1       4.440  -1.525  -0.460  1.00  0.00     0.126 A 
ATOM     18  C   UNL     1       5.360   0.610   0.095  1.00  0.00     0.126 A 
ATOM     19  C   UNL     1       5.533  -0.756  -0.085  1.00  0.00     0.078 A 
ATOM     20  F   UNL     1       4.594  -2.841  -0.650  1.00  0.00    -0.207 F 
ATOM     21  F   UNL     1       6.408   1.363   0.450  1.00  0.00    -0.207 F 
ENDBRANCH   2  14
TORSDOF 2
