REMARK SMILES c1cc(-c2ccc(-c3ccc4[nH]ncc4c3)cc2)cc(N2CCOCC2)n1
REMARK SMILES IDX 4 1 5 2 6 3 7 4 17 5 18 6 3 7 1 8 2 9 27 10 20 11 19 12
REMARK SMILES IDX 21 13 22 14 26 15 23 16 25 17 24 18 8 19 9 20 16 21 10 22
REMARK SMILES IDX 15 23 11 24 14 25 12 26 13 27
REMARK H PARENT 12 28
ROOT
ATOM      1  C   UNL     1      -0.073   0.453   0.740  1.00  0.00    -0.018 A 
ATOM      2  C   UNL     1      -0.975   0.309   1.805  1.00  0.00     0.009 A 
ATOM      3  C   UNL     1      -2.333   0.059   1.573  1.00  0.00     0.009 A 
ATOM      4  C   UNL     1      -2.837  -0.055   0.269  1.00  0.00    -0.018 A 
ATOM      5  C   UNL     1      -1.935   0.089  -0.795  1.00  0.00     0.009 A 
ATOM      6  C   UNL     1      -0.577   0.339  -0.564  1.00  0.00     0.009 A 
ENDROOT
BRANCH   1   7
ATOM      7  C   UNL     1       1.354   0.716   0.983  1.00  0.00    -0.013 A 
ATOM      8  C   UNL     1       3.122   1.971   1.982  1.00  0.00     0.114 A 
ATOM      9  C   UNL     1       1.768   1.778   1.786  1.00  0.00     0.029 A 
ATOM     10  N   UNL     1       4.082   1.192   1.439  1.00  0.00    -0.239 NA
ATOM     11  C   UNL     1       3.701   0.163   0.655  1.00  0.00     0.129 A 
ATOM     12  C   UNL     1       2.348  -0.095   0.418  1.00  0.00     0.055 A 
BRANCH  11  13
ATOM     13  N   UNL     1       4.673  -0.673   0.067  1.00  0.00    -0.352 N 
ATOM     14  C   UNL     1       6.036  -0.511   0.624  1.00  0.00     0.146 C 
ATOM     15  C   UNL     1       4.631  -0.589  -1.414  1.00  0.00     0.146 C 
ATOM     16  C   UNL     1       6.876   0.424  -0.257  1.00  0.00     0.181 C 
ATOM     17  C   UNL     1       5.997  -0.951  -2.018  1.00  0.00     0.181 C 
ATOM     18  O   UNL     1       7.051  -0.069  -1.600  1.00  0.00    -0.378 OA
ENDBRANCH  11  13
ENDBRANCH   1   7
BRANCH   4  19
ATOM     19  C   UNL     1      -4.265  -0.317   0.026  1.00  0.00    -0.018 A 
ATOM     20  C   UNL     1      -4.671  -1.417  -0.750  1.00  0.00     0.011 A 
ATOM     21  C   UNL     1      -5.250   0.533   0.569  1.00  0.00     0.020 A 
ATOM     22  C   UNL     1      -6.021  -1.699  -1.002  1.00  0.00     0.029 A 
ATOM     23  C   UNL     1      -6.611   0.269   0.327  1.00  0.00     0.020 A 
ATOM     24  C   UNL     1      -6.962  -0.831  -0.446  1.00  0.00     0.065 A 
ATOM     25  C   UNL     1      -7.843   0.862   0.678  1.00  0.00     0.143 A 
ATOM     26  N   UNL     1      -8.331  -0.815  -0.494  1.00  0.00    -0.278 N 
ATOM     27  N   UNL     1      -8.894   0.204   0.180  1.00  0.00    -0.183 NA
ATOM     28  H   UNL     1      -8.940  -1.470  -0.970  1.00  0.00     0.190 HD
ENDBRANCH   4  19
TORSDOF 3
