REMARK SMILES O=C(Cc1cn[nH]n1)Nc1cc(-c2nc3ccccc3s2)ccn1
REMARK SMILES IDX 1 1 2 2 9 3 3 5 4 6 5 7 8 8 6 9 7 10 10 12 11 13 24 14 12 15
REMARK SMILES IDX 23 16 22 17 13 18 14 19 21 20 15 21 20 22 16 23 19 24 17 25
REMARK SMILES IDX 18 26
REMARK H PARENT 9 4 7 11
ROOT
ATOM      1  O   UNL     1       1.716  -0.525   2.079  1.00  0.00    -0.274 OA
ATOM      2  C   UNL     1       2.604   0.157   1.576  1.00  0.00     0.231 C 
ATOM      3  N   UNL     1       2.489   0.945   0.453  1.00  0.00    -0.310 N 
ATOM      4  H   UNL     1       3.331   1.373   0.078  1.00  0.00     0.171 HD
ENDROOT
BRANCH   2   5
ATOM      5  C   UNL     1       3.982   0.216   2.208  1.00  0.00     0.160 C 
BRANCH   5   6
ATOM      6  C   UNL     1       5.010  -0.344   1.300  1.00  0.00     0.092 A 
ATOM      7  C   UNL     1       5.474  -1.668   1.190  1.00  0.00     0.161 A 
ATOM      8  N   UNL     1       5.645   0.424   0.400  1.00  0.00    -0.161 NA
ATOM      9  N   UNL     1       6.406  -1.744   0.236  1.00  0.00    -0.164 NA
ATOM     10  N   UNL     1       6.458  -0.472  -0.190  1.00  0.00    -0.198 N 
ATOM     11  H   UNL     1       7.091  -0.195  -0.938  1.00  0.00     0.214 HD
ENDBRANCH   5   6
ENDBRANCH   2   5
BRANCH   3  12
ATOM     12  C   UNL     1       1.372   1.160  -0.352  1.00  0.00     0.133 A 
ATOM     13  C   UNL     1       0.105   0.668  -0.083  1.00  0.00     0.058 A 
ATOM     14  N   UNL     1       1.639   1.916  -1.436  1.00  0.00    -0.239 NA
ATOM     15  C   UNL     1      -0.950   0.947  -0.967  1.00  0.00     0.016 A 
ATOM     16  C   UNL     1       0.620   2.184  -2.277  1.00  0.00     0.114 A 
ATOM     17  C   UNL     1      -0.673   1.730  -2.090  1.00  0.00     0.031 A 
BRANCH  15  18
ATOM     18  C   UNL     1      -2.295   0.418  -0.663  1.00  0.00     0.124 A 
ATOM     19  N   UNL     1      -2.648  -0.037   0.522  1.00  0.00    -0.236 NA
ATOM     20  S   UNL     1      -3.528   0.321  -1.863  1.00  0.00    -0.114 S 
ATOM     21  C   UNL     1      -3.958  -0.482   0.507  1.00  0.00     0.082 A 
ATOM     22  C   UNL     1      -4.612  -0.366  -0.719  1.00  0.00     0.055 A 
ATOM     23  C   UNL     1      -4.659  -1.028   1.601  1.00  0.00     0.030 A 
ATOM     24  C   UNL     1      -5.944  -0.775  -0.892  1.00  0.00     0.021 A 
ATOM     25  C   UNL     1      -5.987  -1.439   1.441  1.00  0.00     0.002 A 
ATOM     26  C   UNL     1      -6.619  -1.313   0.208  1.00  0.00     0.002 A 
ENDBRANCH  15  18
ENDBRANCH   3  12
TORSDOF 4
