REMARK SMILES O=C(C[C@@H](c1cc(F)cc(F)c1)N1CCOCC1)c1cccnc1
REMARK SMILES IDX 3 1 2 2 1 3 19 4 20 5 24 6 21 7 23 8 22 9 4 10 5 11 6 12
REMARK SMILES IDX 12 13 7 14 10 15 9 16 8 17 11 18 13 19 14 20 18 21 15 22
REMARK SMILES IDX 17 23 16 24
REMARK H PARENT
ROOT
ATOM      1  C   UNL     1       0.386  -0.763   0.215  1.00  0.00     0.105 C 
ENDROOT
BRANCH   1   2
ATOM      2  C   UNL     1       1.457  -0.231   1.154  1.00  0.00     0.166 C 
ATOM      3  O   UNL     1       1.188   0.288   2.235  1.00  0.00    -0.294 OA
BRANCH   2   4
ATOM      4  C   UNL     1       2.883  -0.368   0.766  1.00  0.00     0.036 A 
ATOM      5  C   UNL     1       3.845   0.438   1.378  1.00  0.00     0.015 A 
ATOM      6  C   UNL     1       3.317  -1.285  -0.183  1.00  0.00     0.122 A 
ATOM      7  C   UNL     1       5.183   0.313   1.010  1.00  0.00     0.021 A 
ATOM      8  N   UNL     1       4.610  -1.425  -0.562  1.00  0.00    -0.264 NA
ATOM      9  C   UNL     1       5.513  -0.622   0.043  1.00  0.00     0.111 A 
ENDBRANCH   2   4
ENDBRANCH   1   2
BRANCH   1  10
ATOM     10  C   UNL     1      -0.959  -0.021   0.400  1.00  0.00     0.095 C 
BRANCH  10  11
ATOM     11  C   UNL     1      -0.928   1.471   0.049  1.00  0.00    -0.025 A 
ATOM     12  C   UNL     1      -1.826   2.334   0.705  1.00  0.00     0.044 A 
ATOM     13  C   UNL     1      -0.074   2.027  -0.916  1.00  0.00     0.044 A 
ATOM     14  C   UNL     1      -1.846   3.697   0.415  1.00  0.00     0.126 A 
ATOM     15  C   UNL     1      -0.112   3.395  -1.189  1.00  0.00     0.126 A 
ATOM     16  C   UNL     1      -0.991   4.240  -0.530  1.00  0.00     0.078 A 
ATOM     17  F   UNL     1      -2.709   4.494   1.057  1.00  0.00    -0.207 F 
ATOM     18  F   UNL     1       0.717   3.898  -2.114  1.00  0.00    -0.207 F 
ENDBRANCH  10  11
BRANCH  10  19
ATOM     19  N   UNL     1      -2.101  -0.656  -0.290  1.00  0.00    -0.291 NA
ATOM     20  C   UNL     1      -2.646  -1.820   0.431  1.00  0.00     0.113 C 
ATOM     21  C   UNL     1      -1.954  -0.919  -1.731  1.00  0.00     0.113 C 
ATOM     22  C   UNL     1      -3.601  -2.629  -0.457  1.00  0.00     0.175 C 
ATOM     23  C   UNL     1      -1.841  -2.415  -2.069  1.00  0.00     0.175 C 
ATOM     24  O   UNL     1      -2.943  -3.200  -1.597  1.00  0.00    -0.379 OA
ENDBRANCH  10  19
ENDBRANCH   1  10
TORSDOF 5
