REMARK SMILES O=C(c1ccccc1-c1cn[nH]n1)N1CCOCC1
REMARK SMILES IDX 3 1 4 2 5 3 6 4 7 5 8 6 2 7 14 8 15 9 19 10 16 11 18 12
REMARK SMILES IDX 17 13 1 14 9 15 10 16 13 17 11 18 12 19
REMARK H PARENT 12 20
ROOT
ATOM      1  C   UNL     1       0.885   1.258  -0.136  1.00  0.00     0.049 A 
ATOM      2  C   UNL     1       0.759   2.586   0.299  1.00  0.00     0.014 A 
ATOM      3  C   UNL     1       1.645   3.091   1.248  1.00  0.00     0.001 A 
ATOM      4  C   UNL     1       2.651   2.273   1.761  1.00  0.00     0.001 A 
ATOM      5  C   UNL     1       2.780   0.954   1.317  1.00  0.00     0.011 A 
ATOM      6  C   UNL     1       1.907   0.428   0.349  1.00  0.00     0.016 A 
ENDROOT
BRANCH   1   7
ATOM      7  C   UNL     1      -0.105   0.781  -1.116  1.00  0.00     0.254 C 
ATOM      8  N   UNL     1      -1.232   0.127  -0.645  1.00  0.00    -0.334 N 
ATOM      9  C   UNL     1      -1.541  -0.127   0.768  1.00  0.00     0.148 C 
ATOM     10  C   UNL     1      -2.235  -0.343  -1.601  1.00  0.00     0.148 C 
ATOM     11  C   UNL     1      -2.500  -1.313   0.915  1.00  0.00     0.181 C 
ATOM     12  C   UNL     1      -3.632  -0.340  -0.975  1.00  0.00     0.181 C 
ATOM     13  O   UNL     1      -3.740  -1.133   0.217  1.00  0.00    -0.378 OA
ATOM     14  O   UNL     1       0.124   0.994  -2.303  1.00  0.00    -0.269 OA
ENDBRANCH   1   7
BRANCH   6  15
ATOM     15  C   UNL     1       2.083  -0.953  -0.087  1.00  0.00     0.113 A 
ATOM     16  C   UNL     1       2.015  -1.514  -1.386  1.00  0.00     0.165 A 
ATOM     17  N   UNL     1       2.374  -1.941   0.779  1.00  0.00    -0.156 NA
ATOM     18  N   UNL     1       2.246  -2.830  -1.339  1.00  0.00    -0.164 NA
ATOM     19  N   UNL     1       2.456  -3.010  -0.029  1.00  0.00    -0.197 N 
ATOM     20  H   UNL     1       2.673  -3.931   0.343  1.00  0.00     0.214 HD
ENDBRANCH   6  15
TORSDOF 2
