MODEL        4USER    Run = 4USERUSER    Estimated Free Energy of Binding    =  -9.08 kcal/mol  [=(1)+(2)+(3)-(4)]USERUSER    (1) Final Intermolecular Energy     = -10.27 kcal/molUSER        vdW + Hbond + desolv Energy     = -10.19 kcal/molUSER        Electrostatic Energy            =  -0.08 kcal/molUSER        Moving Ligand-Fixed Receptor    = -10.27 kcal/molUSER        Moving Ligand-Moving Receptor   =  +0.00 kcal/molUSER    (2) Final Total Internal Energy     =  -1.07 kcal/molUSER    (3) Torsional Free Energy           =  +1.19 kcal/molUSER    (4) Unbound System's Energy         =  -1.07 kcal/molUSERUSERREMARK SMILES O=C(Cc1cn[nH]n1)Nc1cc(-c2nc3ccccc3s2)ccn1REMARK SMILES IDX 1 1 2 2 9 3 3 5 4 6 5 7 8 8 6 9 7 10 10 12 11 13 24 14 12 15REMARK SMILES IDX 23 16 22 17 13 18 14 19 21 20 15 21 20 22 16 23 19 24 17 25REMARK SMILES IDX 18 26REMARK H PARENT 9 4 7 11USER                              x       y       z     vdW  Elec       q    TypeUSER                           _______ _______ _______ _____ _____    ______ ____ROOTATOM      1  O   UNL     1      40.324  47.978  16.624 -0.39 +0.06    -0.274 OA ATOM      2  C   UNL     1      40.199  48.861  15.781 -0.46 -0.07    +0.231 C  ATOM      3  N   UNL     1      39.297  48.874  14.741 -0.25 +0.15    -0.310 N  ATOM      4  H   UNL     1      39.371  49.614  14.049 -0.19 -0.13    +0.171 HD ENDROOTBRANCH   2   5ATOM      5  C   UNL     1      41.062  50.107  15.837 -0.54 -0.04    +0.160 C  BRANCH   5   6ATOM      6  C   UNL     1      41.815  50.292  14.575 -0.60 -0.02    +0.092 A  ATOM      7  C   UNL     1      42.919  51.124  14.311 -0.33 -0.03    +0.161 A  ATOM      8  N   UNL     1      41.499  49.610  13.463 -0.40 +0.03    -0.161 NA ATOM      9  N   UNL     1      43.299  50.983  13.038 -0.48 +0.07    -0.164 NA ATOM     10  N   UNL     1      42.417  50.073  12.594 -0.51 +0.06    -0.198 N  ATOM     11  H   UNL     1      42.444  49.743  11.632 -0.03 -0.08    +0.214 HD ENDBRANCH   5   6ENDBRANCH   2   5BRANCH   3  12ATOM     12  C   UNL     1      38.333  47.923  14.410 -0.42 -0.06    +0.133 A  ATOM     13  C   UNL     1      37.686  47.110  15.326 -0.39 -0.03    +0.058 A  ATOM     14  N   UNL     1      38.074  47.872  13.088 -0.72 +0.04    -0.239 NA ATOM     15  C   UNL     1      36.730  46.183  14.878 -0.38 -0.01    +0.016 A  ATOM     16  C   UNL     1      37.151  46.984  12.666 -0.53 -0.04    +0.114 A  ATOM     17  C   UNL     1      36.462  46.131  13.508 -0.48 -0.01    +0.031 A  BRANCH  15  18ATOM     18  C   UNL     1      36.047  45.327  15.869 -0.26 -0.07    +0.124 A  ATOM     19  N   UNL     1      35.712  44.074  15.639 -0.22 +0.10    -0.236 NA ATOM     20  S   UNL     1      35.597  45.915  17.424 -0.46 +0.07    -0.114 S  ATOM     21  C   UNL     1      35.072  43.528  16.738 -0.31 -0.03    +0.082 A  ATOM     22  C   UNL     1      34.915  44.388  17.824 -0.28 -0.02    +0.055 A  ATOM     23  C   UNL     1      34.581  42.211  16.840 -0.39 -0.01    +0.030 A  ATOM     24  C   UNL     1      34.286  43.980  19.011 -0.37 -0.00    +0.021 A  ATOM     25  C   UNL     1      33.952  41.792  18.018 -0.42 -0.00    +0.002 A  ATOM     26  C   UNL     1      33.807  42.668  19.088 -0.40 -0.00    +0.002 A  ENDBRANCH  15  18ENDBRANCH   3  12TORSDOF 4TERENDMDL