MODEL        8USER    Run = 8USERUSER    Estimated Free Energy of Binding    =  -8.68 kcal/mol  [=(1)+(2)+(3)-(4)]USERUSER    (1) Final Intermolecular Energy     =  -9.87 kcal/molUSER        vdW + Hbond + desolv Energy     =  -9.64 kcal/molUSER        Electrostatic Energy            =  -0.24 kcal/molUSER        Moving Ligand-Fixed Receptor    =  -9.87 kcal/molUSER        Moving Ligand-Moving Receptor   =  +0.00 kcal/molUSER    (2) Final Total Internal Energy     =  -0.45 kcal/molUSER    (3) Torsional Free Energy           =  +1.19 kcal/molUSER    (4) Unbound System's Energy         =  -0.45 kcal/molUSERUSERREMARK SMILES Nc1cc(-c2ccc(-c3cc(O)c4[nH]ncc4c3)cc2)ccn1REMARK SMILES IDX 5 1 6 2 7 3 8 4 19 5 20 6 4 7 2 8 3 9 23 10 22 11 21 12 1 13REMARK SMILES IDX 9 16 10 17 18 18 11 19 17 20 13 21 16 22 14 23 15 24 12 26REMARK H PARENT 1 14 1 15 14 25 12 27USER                              x       y       z     vdW  Elec       q    TypeUSER                           _______ _______ _______ _____ _____    ______ ____ROOTATOM      1  C   UNL     1      40.839  45.941  19.065 -0.45 -0.00    -0.018 A  ATOM      2  C   UNL     1      41.232  47.008  18.244 -0.52 -0.00    +0.009 A  ATOM      3  C   UNL     1      40.453  47.403  17.149 -0.51 -0.00    +0.009 A  ATOM      4  C   UNL     1      39.253  46.747  16.842 -0.43 +0.00    -0.018 A  ATOM      5  C   UNL     1      38.859  45.682  17.664 -0.40 -0.00    +0.009 A  ATOM      6  C   UNL     1      39.639  45.285  18.756 -0.43 -0.00    +0.009 A  ENDROOTBRANCH   1   7ATOM      7  C   UNL     1      41.659  45.526  20.213 -0.36 -0.00    -0.013 A  ATOM      8  C   UNL     1      42.442  43.835  21.754 -0.25 +0.02    +0.123 A  ATOM      9  C   UNL     1      41.655  44.200  20.666 -0.27 +0.01    +0.055 A  ATOM     10  N   UNL     1      43.219  44.715  22.402 -0.12 -0.06    -0.240 NA ATOM     11  C   UNL     1      43.219  45.990  21.965 -0.21 +0.04    +0.114 A  ATOM     12  C   UNL     1      42.470  46.438  20.892 -0.35 +0.01    +0.029 A  BRANCH   8  13ATOM     13  N   UNL     1      42.447  42.511  22.205 -0.12 +0.03    -0.384 N  ATOM     14  H   UNL     1      43.373  42.114  22.086 -0.50 -0.03    +0.158 HD ATOM     15  H   UNL     1      41.792  41.962  21.657 -0.39 -0.02    +0.158 HD ENDBRANCH   8  13ENDBRANCH   1   7BRANCH   4  16ATOM     16  C   UNL     1      38.433  47.162  15.692 -0.43 +0.01    -0.014 A  ATOM     17  C   UNL     1      37.889  48.459  15.630 -0.35 -0.04    +0.057 A  ATOM     18  C   UNL     1      38.181  46.260  14.635 -0.40 -0.01    +0.021 A  ATOM     19  C   UNL     1      37.109  48.871  14.547 -0.37 -0.12    +0.141 A  ATOM     20  C   UNL     1      37.395  46.667  13.542 -0.48 -0.01    +0.024 A  ATOM     21  C   UNL     1      36.882  47.957  13.526 -0.50 -0.05    +0.107 A  ATOM     22  C   UNL     1      36.929  46.090  12.340 -0.49 -0.05    +0.143 A  ATOM     23  N   UNL     1      36.175  48.055  12.360 -0.47 +0.13    -0.274 N  ATOM     24  N   UNL     1      36.186  46.932  11.614 -0.55 +0.09    -0.183 NA ATOM     25  H   UNL     1      35.666  48.865  12.023 -0.10 -0.10    +0.190 HD BRANCH  19  26ATOM     26  O   UNL     1      36.580  50.127  14.472 -0.00 +0.52    -0.506 OA ATOM     27  H   UNL     1      36.119  50.319  15.306 -0.18 -0.59    +0.293 HD ENDBRANCH  19  26ENDBRANCH   4  16TORSDOF 4TERENDMDL