MODEL        1USER    Run = 1USERUSER    Estimated Free Energy of Binding    =  -7.31 kcal/mol  [=(1)+(2)+(3)-(4)]USERUSER    (1) Final Intermolecular Energy     =  -7.91 kcal/molUSER        vdW + Hbond + desolv Energy     =  -7.81 kcal/molUSER        Electrostatic Energy            =  -0.10 kcal/molUSER        Moving Ligand-Fixed Receptor    =  -7.91 kcal/molUSER        Moving Ligand-Moving Receptor   =  +0.00 kcal/molUSER    (2) Final Total Internal Energy     =  -0.14 kcal/molUSER    (3) Torsional Free Energy           =  +0.60 kcal/molUSER    (4) Unbound System's Energy         =  -0.14 kcal/molUSERUSERREMARK SMILES Nc1cc(-c2nc3ccccc3s2)ccn1REMARK SMILES IDX 2 1 3 2 4 3 14 4 15 5 16 6 1 7 5 10 6 11 13 12 7 13 12 14REMARK SMILES IDX 8 15 11 16 9 17 10 18REMARK H PARENT 1 8 1 9USER                              x       y       z     vdW  Elec       q    TypeUSER                           _______ _______ _______ _____ _____    ______ ____ROOTATOM      1  C   UNL     1      42.072  46.954  18.769 -0.45 +0.01    +0.123 A  ATOM      2  C   UNL     1      41.275  47.158  17.650 -0.42 -0.01    +0.057 A  ATOM      3  C   UNL     1      39.988  46.601  17.592 -0.47 -0.00    +0.016 A  ATOM      4  C   UNL     1      39.560  45.850  18.688 -0.41 -0.00    +0.031 A  ATOM      5  C   UNL     1      40.420  45.697  19.762 -0.33 +0.00    +0.114 A  ATOM      6  N   UNL     1      41.656  46.231  19.818 -0.27 -0.03    -0.240 NA ENDROOTBRANCH   1   7ATOM      7  N   UNL     1      43.355  47.508  18.828 -0.28 -0.06    -0.384 N  ATOM      8  H   UNL     1      43.288  48.488  19.087 -0.53 -0.02    +0.158 HD ATOM      9  H   UNL     1      43.789  47.455  17.912 -0.44 +0.00    +0.158 HD ENDBRANCH   1   7BRANCH   3  10ATOM     10  C   UNL     1      39.168  46.838  16.387 -0.36 -0.04    +0.124 A  ATOM     11  N   UNL     1      38.621  45.868  15.680 -0.21 +0.07    -0.236 NA ATOM     12  S   UNL     1      38.852  48.423  15.789 -0.58 +0.06    -0.114 S  ATOM     13  C   UNL     1      37.911  46.382  14.608 -0.36 -0.03    +0.082 A  ATOM     14  C   UNL     1      37.921  47.772  14.500 -0.47 -0.03    +0.055 A  ATOM     15  C   UNL     1      37.202  45.631  13.649 -0.44 -0.01    +0.030 A  ATOM     16  C   UNL     1      37.247  48.442  13.466 -0.49 -0.01    +0.021 A  ATOM     17  C   UNL     1      36.526  46.287  12.614 -0.62 -0.00    +0.002 A  ATOM     18  C   UNL     1      36.549  47.675  12.526 -0.68 -0.00    +0.002 A  ENDBRANCH   3  10TORSDOF 2TERENDMDL