REMARK SMILES Nc1cc(-c2ccc(-c3cc(O)c4[nH]ncc4c3)cc2)ccn1
REMARK SMILES IDX 5 1 6 2 7 3 8 4 19 5 20 6 4 7 2 8 3 9 23 10 22 11 21 12 1 13
REMARK SMILES IDX 9 16 10 17 18 18 11 19 17 20 13 21 16 22 14 23 15 24 12 26
REMARK H PARENT 1 14 1 15 14 25 12 27
ROOT
ATOM      1  C   UNL     1      -1.996   0.393  -0.129  1.00  0.00    -0.018 A 
ATOM      2  C   UNL     1      -1.195   1.232   0.659  1.00  0.00     0.009 A 
ATOM      3  C   UNL     1       0.195   1.068   0.708  1.00  0.00     0.009 A 
ATOM      4  C   UNL     1       0.830   0.062  -0.034  1.00  0.00    -0.018 A 
ATOM      5  C   UNL     1       0.030  -0.775  -0.824  1.00  0.00     0.009 A 
ATOM      6  C   UNL     1      -1.360  -0.613  -0.870  1.00  0.00     0.009 A 
ENDROOT
BRANCH   1   7
ATOM      7  C   UNL     1      -3.456   0.565  -0.178  1.00  0.00    -0.013 A 
ATOM      8  C   UNL     1      -5.699  -0.308   0.049  1.00  0.00     0.123 A 
ATOM      9  C   UNL     1      -4.322  -0.501   0.101  1.00  0.00     0.055 A 
ATOM     10  N   UNL     1      -6.245   0.875  -0.265  1.00  0.00    -0.240 NA
ATOM     11  C   UNL     1      -5.409   1.898  -0.535  1.00  0.00     0.114 A 
ATOM     12  C   UNL     1      -4.030   1.796  -0.504  1.00  0.00     0.029 A 
BRANCH   8  13
ATOM     13  N   UNL     1      -6.567  -1.367   0.334  1.00  0.00    -0.384 N 
ATOM     14  H   UNL     1      -6.398  -1.702   1.277  1.00  0.00     0.158 HD
ATOM     15  H   UNL     1      -6.396  -2.132  -0.311  1.00  0.00     0.158 HD
ENDBRANCH   8  13
ENDBRANCH   1   7
BRANCH   4  16
ATOM     16  C   UNL     1       2.291  -0.111   0.016  1.00  0.00    -0.014 A 
ATOM     17  C   UNL     1       2.946  -0.326   1.244  1.00  0.00     0.057 A 
ATOM     18  C   UNL     1       3.055  -0.062  -1.171  1.00  0.00     0.021 A 
ATOM     19  C   UNL     1       4.331  -0.493   1.312  1.00  0.00     0.141 A 
ATOM     20  C   UNL     1       4.451  -0.227  -1.110  1.00  0.00     0.024 A 
ATOM     21  C   UNL     1       5.050  -0.438   0.124  1.00  0.00     0.107 A 
ATOM     22  C   UNL     1       5.524  -0.241  -2.028  1.00  0.00     0.143 A 
ATOM     23  N   UNL     1       6.387  -0.560  -0.135  1.00  0.00    -0.274 N 
ATOM     24  N   UNL     1       6.707  -0.445  -1.439  1.00  0.00    -0.183 NA
ATOM     25  H   UNL     1       7.125  -0.723   0.541  1.00  0.00     0.190 HD
BRANCH  19  26
ATOM     26  O   UNL     1       4.978  -0.708   2.494  1.00  0.00    -0.506 OA
ATOM     27  H   UNL     1       4.318  -0.727   3.208  1.00  0.00     0.293 HD
ENDBRANCH  19  26
ENDBRANCH   4  16
TORSDOF 4
