MODEL        2USER    Run = 2USERUSER    Estimated Free Energy of Binding    =  -8.37 kcal/mol  [=(1)+(2)+(3)-(4)]USERUSER    (1) Final Intermolecular Energy     =  -9.86 kcal/molUSER        vdW + Hbond + desolv Energy     =  -9.69 kcal/molUSER        Electrostatic Energy            =  -0.16 kcal/molUSER        Moving Ligand-Fixed Receptor    =  -9.86 kcal/molUSER        Moving Ligand-Moving Receptor   =  +0.00 kcal/molUSER    (2) Final Total Internal Energy     =  -1.11 kcal/molUSER    (3) Torsional Free Energy           =  +1.49 kcal/molUSER    (4) Unbound System's Energy         =  -1.11 kcal/molUSERUSERREMARK SMILES O=C(C[C@@H](c1cc(F)cc(F)c1)N1CCOCC1)c1cccnc1REMARK SMILES IDX 3 1 2 2 1 3 19 4 20 5 24 6 21 7 23 8 22 9 4 10 5 11 6 12REMARK SMILES IDX 12 13 7 14 10 15 9 16 8 17 11 18 13 19 14 20 18 21 15 22REMARK SMILES IDX 17 23 16 24REMARK H PARENTUSER                              x       y       z     vdW  Elec       q    TypeUSER                           _______ _______ _______ _____ _____    ______ ____ROOTATOM      1  C   UNL     1      38.421  45.498  16.555 -0.34 -0.03    +0.105 C  ENDROOTBRANCH   1   2ATOM      2  C   UNL     1      39.314  46.458  17.324 -0.39 -0.04    +0.166 C  ATOM      3  O   UNL     1      39.502  46.358  18.535 -0.30 +0.04    -0.294 OA BRANCH   2   4ATOM      4  C   UNL     1      40.008  47.541  16.584 -0.48 -0.01    +0.036 A  ATOM      5  C   UNL     1      39.604  47.857  15.285 -0.52 -0.00    +0.015 A  ATOM      6  C   UNL     1      41.049  48.278  17.135 -0.37 -0.01    +0.122 A  ATOM      7  C   UNL     1      40.259  48.871  14.588 -0.54 -0.01    +0.021 A  ATOM      8  N   UNL     1      41.705  49.265  16.478 -0.88 -0.04    -0.264 NA ATOM      9  C   UNL     1      41.295  49.538  15.220 -0.56 -0.02    +0.111 A  ENDBRANCH   2   4ENDBRANCH   1   2BRANCH   1  10ATOM     10  C   UNL     1      37.086  46.161  16.142 -0.36 -0.05    +0.095 C  BRANCH  10  11ATOM     11  C   UNL     1      36.858  46.269  14.630 -0.39 +0.01    -0.025 A  ATOM     12  C   UNL     1      37.085  45.130  13.834 -0.40 -0.02    +0.044 A  ATOM     13  C   UNL     1      36.464  47.450  13.983 -0.46 -0.03    +0.044 A  ATOM     14  C   UNL     1      36.903  45.177  12.453 -0.44 -0.04    +0.126 A  ATOM     15  C   UNL     1      36.288  47.473  12.599 -0.56 -0.06    +0.126 A  ATOM     16  C   UNL     1      36.502  46.344  11.824 -0.58 -0.03    +0.078 A  ATOM     17  F   UNL     1      37.123  44.077  11.722 -0.20 +0.06    -0.207 F  ATOM     18  F   UNL     1      35.909  48.615  12.009 -0.17 +0.11    -0.207 F  ENDBRANCH  10  11BRANCH  10  19ATOM     19  N   UNL     1      35.891  45.560  16.769 -0.15 +0.17    -0.291 NA ATOM     20  C   UNL     1      35.089  46.524  17.543 -0.35 -0.11    +0.113 C  ATOM     21  C   UNL     1      36.078  44.291  17.493 -0.30 -0.04    +0.113 C  ATOM     22  C   UNL     1      34.057  45.809  18.426 -0.42 -0.10    +0.175 C  ATOM     23  C   UNL     1      35.926  44.431  19.017 -0.30 -0.04    +0.175 C  ATOM     24  O   UNL     1      34.666  44.979  19.425 -0.23 +0.11    -0.379 OA ENDBRANCH  10  19ENDBRANCH   1  10TORSDOF 5TERENDMDL