MODEL        6USER    Run = 6USERUSER    Estimated Free Energy of Binding    = -11.76 kcal/mol  [=(1)+(2)+(3)-(4)]USERUSER    (1) Final Intermolecular Energy     = -13.84 kcal/molUSER        vdW + Hbond + desolv Energy     = -13.64 kcal/molUSER        Electrostatic Energy            =  -0.21 kcal/molUSER        Moving Ligand-Fixed Receptor    = -13.84 kcal/molUSER        Moving Ligand-Moving Receptor   =  +0.00 kcal/molUSER    (2) Final Total Internal Energy     =  -2.08 kcal/molUSER    (3) Torsional Free Energy           =  +2.09 kcal/molUSER    (4) Unbound System's Energy         =  -2.08 kcal/molUSERUSERREMARK SMILES Oc1nc2ccccc2n1C1CCN(Cc2ccc(-c3nc4ccccc4nc3-c3ccnc(N4CCOCC4)c3)cc2)CC1REMARK SMILES IDX 15 1 14 2 11 3 12 4 45 5 13 6 44 7 10 8 2 9 3 10 4 11 9 12REMARK SMILES IDX 5 13 8 14 6 15 7 16 1 17 16 19 17 20 43 21 18 22 42 23 19 24REMARK SMILES IDX 20 25 21 26 29 27 22 28 28 29 23 30 27 31 24 32 26 33 25 34REMARK SMILES IDX 30 35 31 36 41 37 32 38 34 39 33 40 35 41 36 42 40 43 37 44REMARK SMILES IDX 39 45 38 46REMARK H PARENT 1 18USER                              x       y       z     vdW  Elec       q    TypeUSER                           _______ _______ _______ _____ _____    ______ ____ROOTATOM      1  C   UNL     1      36.196  44.004  17.887 -0.30 -0.03    +0.120 C  ENDROOTBRANCH   1   2ATOM      2  N   UNL     1      34.993  44.838  17.749 -0.12 +0.13    -0.299 NA ATOM      3  C   UNL     1      32.759  43.029  16.966 -0.32 -0.04    +0.095 C  ATOM      4  C   UNL     1      33.838  43.505  15.983 -0.32 -0.02    +0.041 C  ATOM      5  C   UNL     1      33.176  43.228  18.436 -0.38 -0.01    +0.041 C  ATOM      6  C   UNL     1      34.451  44.840  16.389 -0.31 -0.05    +0.087 C  ATOM      7  C   UNL     1      33.938  44.527  18.718 -0.40 -0.03    +0.087 C  BRANCH   3   8ATOM      8  N   UNL     1      31.428  43.490  16.576 -0.13 +0.11    -0.291 N  ATOM      9  C   UNL     1      30.976  44.758  16.344 -0.10 -0.08    +0.295 A  ATOM     10  N   UNL     1      29.719  44.810  15.995 -0.26 +0.07    -0.195 NA ATOM     11  C   UNL     1      29.303  43.505  16.008 -0.21 -0.05    +0.092 A  ATOM     12  C   UNL     1      30.342  42.650  16.375 -0.26 -0.03    +0.072 A  ATOM     13  C   UNL     1      28.038  42.973  15.718 -0.20 -0.02    +0.031 A  ATOM     14  C   UNL     1      30.171  41.262  16.467 -0.35 -0.01    +0.029 A  ATOM     15  C   UNL     1      27.850  41.589  15.805 -0.28 -0.00    +0.002 A  ATOM     16  C   UNL     1      28.901  40.750  16.175 -0.38 -0.00    +0.002 A  BRANCH   9  17ATOM     17  O   UNL     1      31.684  45.859  16.459 -0.53 +0.19    -0.480 OA ATOM     18  H   UNL     1      31.888  46.056  15.526 +0.03 -0.26    +0.296 HD ENDBRANCH   9  17ENDBRANCH   3   8ENDBRANCH   1   2BRANCH   1  19ATOM     19  C   UNL     1      36.540  43.681  19.327 -0.34 +0.00    -0.034 A  ATOM     20  C   UNL     1      37.196  44.618  20.132 -0.24 -0.00    +0.006 A  ATOM     21  C   UNL     1      36.170  42.452  19.889 -0.41 -0.00    +0.006 A  ATOM     22  C   UNL     1      37.495  44.319  21.466 -0.38 +0.00    +0.011 A  ATOM     23  C   UNL     1      36.471  42.157  21.221 -0.51 +0.00    +0.011 A  ATOM     24  C   UNL     1      37.155  43.078  22.032 -0.42 +0.00    +0.002 A  BRANCH  24  25ATOM     25  C   UNL     1      37.496  42.780  23.434 -0.33 +0.01    +0.097 A  ATOM     26  N   UNL     1      36.454  42.282  24.158 -0.26 -0.01    -0.244 NA ATOM     27  C   UNL     1      38.764  42.952  24.013 -0.21 +0.01    +0.097 A  ATOM     28  C   UNL     1      36.692  41.929  25.433 -0.32 -0.01    +0.089 A  ATOM     29  N   UNL     1      39.002  42.581  25.304 -0.13 -0.01    -0.244 NA ATOM     30  C   UNL     1      35.662  41.404  26.204 -0.44 -0.01    +0.030 A  ATOM     31  C   UNL     1      37.974  42.075  26.007 -0.27 -0.01    +0.089 A  ATOM     32  C   UNL     1      35.869  41.019  27.530 -0.64 -0.00    +0.002 A  ATOM     33  C   UNL     1      38.171  41.690  27.329 -0.40 -0.00    +0.030 A  ATOM     34  C   UNL     1      37.130  41.163  28.095 -0.41 -0.00    +0.002 A  BRANCH  27  35ATOM     35  C   UNL     1      39.937  43.545  23.346 -0.23 +0.00    +0.008 A  ATOM     36  C   UNL     1      40.958  42.730  22.854 -0.25 +0.00    +0.030 A  ATOM     37  C   UNL     1      40.094  44.931  23.203 -0.18 +0.00    +0.057 A  ATOM     38  C   UNL     1      42.040  43.320  22.230 -0.28 +0.00    +0.114 A  ATOM     39  C   UNL     1      41.217  45.459  22.562 -0.15 +0.01    +0.129 A  ATOM     40  N   UNL     1      42.180  44.653  22.071 -0.14 -0.04    -0.239 NA BRANCH  39  41ATOM     41  N   UNL     1      41.336  46.860  22.440 -0.07 -0.04    -0.352 N  ATOM     42  C   UNL     1      41.094  47.524  23.744 -0.24 +0.02    +0.146 C  ATOM     43  C   UNL     1      42.586  47.303  21.782 -0.25 +0.02    +0.146 C  ATOM     44  C   UNL     1      41.782  48.897  23.788 -0.32 +0.04    +0.181 C  ATOM     45  C   UNL     1      43.637  47.717  22.822 -0.28 +0.04    +0.181 C  ATOM     46  O   UNL     1      43.209  48.820  23.646 -0.77 -0.12    -0.378 OA ENDBRANCH  39  41ENDBRANCH  27  35ENDBRANCH  24  25ENDBRANCH   1  19TORSDOF 7TERENDMDL