MODEL        5USER    Run = 5USERUSER    Estimated Free Energy of Binding    =  -8.22 kcal/mol  [=(1)+(2)+(3)-(4)]USERUSER    (1) Final Intermolecular Energy     = -12.69 kcal/molUSER        vdW + Hbond + desolv Energy     = -13.11 kcal/molUSER        Electrostatic Energy            =  -0.24 kcal/molUSER        Moving Ligand-Fixed Receptor    = -13.35 kcal/molUSER        Moving Ligand-Moving Receptor   =  +0.65 kcal/molUSER    (2) Final Total Internal Energy     =  -3.87 kcal/molUSER    (3) Torsional Free Energy           =  +4.47 kcal/molUSER    (4) Unbound System's Energy         =  -3.87 kcal/molUSERUSERREMARK SMILES COc1ccc(O)c(C(=O)c2ccc(C(=O)N[C@@H]3CCCNC[C@H]3NC(=O)c3cnc4cc(N(C)C)c(F)cc4n3)cc2)c1FREMARK SMILES IDX 18 1 17 3 15 4 16 5 14 7 11 8 12 9 43 10 13 11 42 12 9 13REMARK SMILES IDX 10 14 8 15 3 16 4 17 44 18 5 19 6 20 45 21 2 22 1 23 7 24REMARK SMILES IDX 24 26 23 27 22 28 21 30 20 31 19 32 25 34 26 35 27 37 28 38REMARK SMILES IDX 29 39 41 40 30 41 40 42 31 43 39 44 32 45 37 46 33 47 38 48REMARK SMILES IDX 34 49 35 50 36 51REMARK H PARENT 17 6 7 25 22 29 25 36REMARK Flexibility Score:  100.900USER                              x       y       z     vdW  Elec       q    TypeUSER                           _______ _______ _______ _____ _____    ______ ____ROOTATOM      1  C   UNL     1      37.449  46.245  17.177 -0.34 -0.04    +0.106 CG0ATOM      2  G   UNL     1      37.787  47.047  15.906 +0.00 +0.00    +0.000 G0 ENDROOTBRANCH   1   3ATOM      3  N   UNL     1      36.211  45.490  16.970 -0.11 +0.17    -0.347 N  ATOM      4  C   UNL     1      35.094  45.704  17.750 -0.27 -0.15    +0.251 C  ATOM      5  O   UNL     1      34.987  46.633  18.539 -0.38 +0.16    -0.269 OA ATOM      6  H   UNL     1      36.383  44.530  16.680 +0.11 -0.06    +0.164 HD BRANCH   4   7ATOM      7  C   UNL     1      34.000  44.700  17.614 -0.30 -0.02    +0.039 A  ATOM      8  C   UNL     1      31.886  42.869  17.393 -0.29 -0.01    +0.023 A  ATOM      9  C   UNL     1      33.061  42.675  16.656 -0.28 -0.01    +0.013 A  ATOM     10  C   UNL     1      31.779  43.965  18.257 -0.25 -0.00    +0.013 A  ATOM     11  C   UNL     1      34.110  43.594  16.757 -0.33 -0.01    +0.014 A  ATOM     12  C   UNL     1      32.828  44.883  18.358 -0.29 -0.00    +0.014 A  BRANCH   8  13ATOM     13  C   UNL     1      30.763  41.904  17.334 -0.22 -0.05    +0.199 C  ATOM     14  O   UNL     1      29.718  42.240  16.772 -0.15 +0.08    -0.288 OA BRANCH  13  15ATOM     15  C   UNL     1      30.805  40.568  17.970 -0.27 -0.01    +0.104 A  ATOM     16  C   UNL     1      31.548  39.059  19.738 -0.31 +0.03    +0.155 A  ATOM     17  C   UNL     1      30.833  38.017  19.145 -0.43 +0.01    +0.053 A  ATOM     18  C   UNL     1      31.531  40.327  19.138 -0.24 +0.01    +0.179 A  ATOM     19  C   UNL     1      30.128  38.237  17.959 -0.22 +0.02    +0.051 A  ATOM     20  C   UNL     1      30.128  39.499  17.370 -0.21 +0.02    +0.130 A  ATOM     21  F   UNL     1      32.251  41.312  19.700 -0.08 -0.03    -0.202 F  BRANCH  16  22ATOM     22  O   UNL     1      32.285  38.962  20.887 -0.98 -0.24    -0.494 OA ATOM     23  C   UNL     1      31.656  38.374  22.019 -0.17 +0.01    +0.278 C  ENDBRANCH  16  22BRANCH  20  24ATOM     24  O   UNL     1      29.436  39.621  16.194 -0.08 -0.12    -0.507 OA ATOM     25  H   UNL     1      29.263  40.579  16.045 +0.16 -0.03    +0.293 HD ENDBRANCH  20  24ENDBRANCH  13  15ENDBRANCH   8  13ENDBRANCH   4   7ENDBRANCH   1   3BRANCH   1  26ATOM     26  C   UNL     1      38.594  45.320  17.686 -0.37 -0.02    +0.118 C  BRANCH  26  27ATOM     27  C   UNL     1      40.000  46.006  17.732 -0.45 -0.01    +0.108 C  BRANCH  27  28ATOM     28  N   UNL     1      40.560  46.407  16.429 -0.21 +0.03    -0.315 NA ATOM     29  H   UNL     1      41.577  46.298  16.468 -0.25 +0.00    +0.122 HD BRANCH  28  30ATOM     30  C   UNL     1      40.260  47.800  16.083 -0.55 -0.02    +0.081 C  BRANCH  30  31ATOM     31  C   UNL     1      38.784  48.198  16.053 -0.47 -0.01    +0.017 C  BRANCH  31  32ATOM     32  C   UNL     1      37.787  47.048  15.908 -0.45 -0.02    +0.028 CG0ATOM     33  G   UNL     1      37.449  46.253  17.184 +0.00 +0.00    +0.000 G0 ENDBRANCH  31  32ENDBRANCH  30  31ENDBRANCH  28  30ENDBRANCH  27  28ENDBRANCH  26  27BRANCH  26  34ATOM     34  N   UNL     1      38.250  44.714  18.973 -0.16 +0.04    -0.345 N  ATOM     35  C   UNL     1      37.284  43.740  19.114 -0.10 -0.03    +0.271 C  ATOM     36  H   UNL     1      38.629  45.094  19.838 +0.09 -0.01    +0.164 HD ATOM     37  O   UNL     1      36.672  43.237  18.181 -0.05 +0.05    -0.267 OA BRANCH  35  38ATOM     38  C   UNL     1      37.045  43.315  20.521 -0.29 -0.00    +0.147 A  ATOM     39  C   UNL     1      36.415  42.117  20.792 -0.38 -0.00    +0.146 A  ATOM     40  N   UNL     1      37.493  44.146  21.504 -0.24 -0.01    -0.239 NA ATOM     41  N   UNL     1      36.207  41.691  22.062 -0.37 -0.01    -0.252 NA ATOM     42  C   UNL     1      37.290  43.725  22.767 -0.32 +0.01    +0.093 A  ATOM     43  C   UNL     1      36.646  42.495  23.052 -0.35 +0.01    +0.091 A  ATOM     44  C   UNL     1      37.726  44.506  23.819 -0.28 +0.01    +0.072 A  ATOM     45  C   UNL     1      36.473  42.112  24.380 -0.33 +0.00    +0.059 A  ATOM     46  C   UNL     1      37.543  44.099  25.139 -0.22 +0.00    +0.148 A  ATOM     47  C   UNL     1      36.900  42.892  25.471 -0.33 -0.00    +0.075 A  ATOM     48  F   UNL     1      37.991  44.932  26.091 -0.03 +0.01    -0.205 F  BRANCH  47  49ATOM     49  N   UNL     1      36.710  42.423  26.784 -0.14 +0.07    -0.375 N  ATOM     50  C   UNL     1      37.717  41.472  27.269 -0.41 -0.02    +0.143 C  ATOM     51  C   UNL     1      35.346  42.145  27.237 -0.53 -0.04    +0.143 C  ENDBRANCH  47  49ENDBRANCH  35  38ENDBRANCH  26  34ENDBRANCH   1  26TORSDOF 9TERENDMDL