REMARK SMILES COc1ccc(O)c(C(=O)c2ccc(Nc3nc4c(s3)CCC[C@H]4C(=O)N3CCOCC3)cc2F)c1F
REMARK SMILES IDX 11 1 12 2 13 3 14 4 33 5 34 6 35 7 9 8 10 9 8 10 3 11 4 12
REMARK SMILES IDX 36 13 5 14 6 15 37 16 2 17 1 18 7 19 15 21 16 23 17 24 20 25
REMARK SMILES IDX 18 26 19 27 24 28 21 29 23 30 22 31 25 32 27 33 28 34 32 35
REMARK SMILES IDX 29 36 31 37 30 38 26 39
REMARK H PARENT 7 20 15 22
ROOT
ATOM      1  C   UNL     1       2.562   1.176  -0.459  1.00  0.00     0.059 A 
ATOM      2  C   UNL     1       1.435   0.530  -0.965  1.00  0.00     0.017 A 
ATOM      3  C   UNL     1       0.537  -0.095  -0.090  1.00  0.00     0.027 A 
ATOM      4  C   UNL     1       0.740  -0.085   1.296  1.00  0.00     0.043 A 
ATOM      5  C   UNL     1       1.857   0.614   1.786  1.00  0.00     0.066 A 
ATOM      6  C   UNL     1       2.754   1.234   0.916  1.00  0.00     0.136 A 
ATOM      7  F   UNL     1       3.793   1.905   1.436  1.00  0.00    -0.206 F 
ENDROOT
BRANCH   1   8
ATOM      8  C   UNL     1       3.492   1.835  -1.394  1.00  0.00     0.202 C 
ATOM      9  O   UNL     1       3.027   2.529  -2.299  1.00  0.00    -0.288 OA
BRANCH   8  10
ATOM     10  C   UNL     1       4.963   1.719  -1.282  1.00  0.00     0.104 A 
ATOM     11  C   UNL     1       6.966   0.475  -0.657  1.00  0.00     0.155 A 
ATOM     12  C   UNL     1       7.759   1.539  -1.093  1.00  0.00     0.053 A 
ATOM     13  C   UNL     1       5.571   0.578  -0.754  1.00  0.00     0.179 A 
ATOM     14  C   UNL     1       7.163   2.673  -1.653  1.00  0.00     0.051 A 
ATOM     15  C   UNL     1       5.777   2.753  -1.760  1.00  0.00     0.130 A 
ATOM     16  F   UNL     1       4.820  -0.465  -0.357  1.00  0.00    -0.202 F 
BRANCH  11  17
ATOM     17  O   UNL     1       7.435  -0.702  -0.140  1.00  0.00    -0.494 OA
ATOM     18  C   UNL     1       8.845  -0.883  -0.101  1.00  0.00     0.278 C 
ENDBRANCH  11  17
BRANCH  15  19
ATOM     19  O   UNL     1       5.276   3.881  -2.354  1.00  0.00    -0.507 OA
ATOM     20  H   UNL     1       4.324   3.721  -2.553  1.00  0.00     0.293 HD
ENDBRANCH  15  19
ENDBRANCH   8  10
ENDBRANCH   1   8
BRANCH   4  21
ATOM     21  N   UNL     1      -0.143  -0.666   2.227  1.00  0.00    -0.331 N 
ATOM     22  H   UNL     1       0.268  -0.826   3.138  1.00  0.00     0.169 HD
BRANCH  21  23
ATOM     23  C   UNL     1      -1.334  -1.274   2.005  1.00  0.00     0.187 A 
ATOM     24  N   UNL     1      -2.085  -1.196   0.927  1.00  0.00    -0.224 NA
ATOM     25  S   UNL     1      -1.998  -2.275   3.256  1.00  0.00    -0.102 S 
ATOM     26  C   UNL     1      -3.234  -1.953   1.067  1.00  0.00     0.069 A 
ATOM     27  C   UNL     1      -3.319  -2.649   2.254  1.00  0.00     0.031 A 
ATOM     28  C   UNL     1      -4.255  -2.058  -0.032  1.00  0.00     0.129 C 
ATOM     29  C   UNL     1      -4.373  -3.636   2.617  1.00  0.00     0.049 C 
ATOM     30  C   UNL     1      -5.143  -3.315   0.195  1.00  0.00     0.020 C 
ATOM     31  C   UNL     1      -5.571  -3.517   1.664  1.00  0.00     0.007 C 
BRANCH  28  32
ATOM     32  C   UNL     1      -5.121  -0.789  -0.098  1.00  0.00     0.231 C 
ATOM     33  N   UNL     1      -4.676   0.301  -0.833  1.00  0.00    -0.337 N 
ATOM     34  C   UNL     1      -3.391   0.426  -1.532  1.00  0.00     0.148 C 
ATOM     35  C   UNL     1      -5.476   1.530  -0.797  1.00  0.00     0.148 C 
ATOM     36  C   UNL     1      -2.792   1.816  -1.289  1.00  0.00     0.181 C 
ATOM     37  C   UNL     1      -5.020   2.542  -1.850  1.00  0.00     0.181 C 
ATOM     38  O   UNL     1      -3.633   2.891  -1.740  1.00  0.00    -0.378 OA
ATOM     39  O   UNL     1      -6.210  -0.737   0.487  1.00  0.00    -0.274 OA
ENDBRANCH  28  32
ENDBRANCH  21  23
ENDBRANCH   4  21
TORSDOF 7
