
     RDKit          3D

 76 82  0  0  0  0  0  0  0  0999 V2000
    3.1297   -4.6832   -1.3808 C   0  0  0  0  0  0  0  0  0  0  0  0
    3.5004   -3.3023   -1.1910 N   0  0  0  0  0  0  0  0  0  0  0  0
    2.7815   -2.4944   -0.3305 C   0  0  0  0  0  0  0  0  0  0  0  0
    1.8416   -2.8882    0.3454 O   0  0  0  0  0  0  0  0  0  0  0  0
    3.2423   -1.0781   -0.2976 C   0  0  0  0  0  0  0  0  0  0  0  0
    4.6153   -0.8531   -0.0765 C   0  0  0  0  0  0  0  0  0  0  0  0
    5.1385    0.4441   -0.0822 C   0  0  0  0  0  0  0  0  0  0  0  0
    6.5544    0.7125    0.1755 C   0  0  0  0  0  0  0  0  0  0  0  0
    7.2530    1.7441   -0.2986 N   0  0  0  0  0  0  0  0  0  0  0  0
    8.4807    1.5956    0.2478 C   0  0  0  0  0  0  0  0  0  0  0  0
    9.6725    2.3251    0.1838 C   0  0  0  0  0  0  0  0  0  0  0  0
   10.6296    1.7182    0.9894 C   0  0  0  0  0  0  0  0  0  0  0  0
   10.0240    0.2803    1.7734 S   0  0  0  0  0  0  0  0  0  0  0  0
    8.5610    0.5166    1.0377 C   0  0  0  0  0  0  0  0  0  0  0  0
    7.3476   -0.0723    1.0081 N   0  0  0  0  0  0  0  0  0  0  0  0
    4.2740    1.5116   -0.3415 C   0  0  0  0  0  0  0  0  0  0  0  0
    2.9080    1.2957   -0.5459 C   0  0  0  0  0  0  0  0  0  0  0  0
    2.3639    0.0006   -0.5081 C   0  0  0  0  0  0  0  0  0  0  0  0
    0.8709   -0.1777   -0.7003 C   0  0  0  0  0  0  0  0  0  0  0  0
    0.1201   -0.2036    0.5605 N   0  0  0  0  0  0  0  0  0  0  0  0
    0.0364    1.0521    1.2919 C   0  0  0  0  0  0  0  0  0  0  0  0
   -0.8790    2.0556    0.6061 C   0  0  0  0  0  0  0  0  0  0  0  0
   -2.2140    1.4229    0.1621 C   0  0  0  0  0  0  0  0  0  0  0  0
   -3.3193    2.3417    0.4302 N   0  0  0  0  0  0  0  0  0  0  0  0
   -3.7626    2.7422    1.6620 C   0  0  0  0  0  0  0  0  0  0  0  0
   -3.2348    2.3610    2.8066 O   0  0  0  0  0  0  0  0  0  0  0  0
   -4.7683    3.5714    1.6091 N   0  0  0  0  0  0  0  0  0  0  0  0
   -4.9972    3.7289    0.2700 C   0  0  0  0  0  0  0  0  0  0  0  0
   -5.9606    4.5160   -0.2574 N   0  0  0  0  0  0  0  0  0  0  0  0
   -6.0033    4.5209   -1.6057 C   0  0  0  0  0  0  0  0  0  0  0  0
   -5.1590    3.8021   -2.4452 C   0  0  0  0  0  0  0  0  0  0  0  0
   -4.1656    2.9922   -1.8957 C   0  0  0  0  0  0  0  0  0  0  0  0
   -4.1084    2.9775   -0.5010 C   0  0  0  0  0  0  0  0  0  0  0  0
   -2.4355   -0.0139    0.7216 C   0  0  0  0  0  0  0  0  0  0  0  0
   -3.7300   -0.6465    0.1239 C   0  0  0  0  0  0  0  0  0  0  0  0
   -4.2722   -1.8309    0.8256 N   0  0  0  0  0  0  0  0  0  0  0  0
   -5.7199   -2.0006    0.5020 C   0  0  0  0  0  0  0  0  0  0  0  0
   -6.0457   -3.0486   -0.5861 C   0  0  0  0  0  0  0  0  0  0  0  0
   -5.0109   -3.1209   -1.5714 O   0  0  0  0  0  0  0  0  0  0  0  0
   -3.7633   -3.5294   -0.9878 C   0  0  0  0  0  0  0  0  0  0  0  0
   -3.6013   -3.0996    0.4848 C   0  0  0  0  0  0  0  0  0  0  0  0
   -1.1827   -0.8721    0.4356 C   0  0  0  0  0  0  0  0  0  0  0  0
    3.9499   -5.1947   -1.8872 H   0  0  0  0  0  0  0  0  0  0  0  0
    2.2257   -4.7263   -1.9951 H   0  0  0  0  0  0  0  0  0  0  0  0
    2.9367   -5.1551   -0.4128 H   0  0  0  0  0  0  0  0  0  0  0  0
    4.1041   -2.8668   -1.8771 H   0  0  0  0  0  0  0  0  0  0  0  0
    5.2650   -1.7069    0.0963 H   0  0  0  0  0  0  0  0  0  0  0  0
    9.8325    3.2293   -0.3856 H   0  0  0  0  0  0  0  0  0  0  0  0
   11.6474    2.0333    1.1712 H   0  0  0  0  0  0  0  0  0  0  0  0
    7.0483   -0.8839    1.5279 H   0  0  0  0  0  0  0  0  0  0  0  0
    4.6628    2.5293   -0.3650 H   0  0  0  0  0  0  0  0  0  0  0  0
    2.2659    2.1561   -0.7223 H   0  0  0  0  0  0  0  0  0  0  0  0
    0.4855    0.5999   -1.3736 H   0  0  0  0  0  0  0  0  0  0  0  0
    0.7266   -1.1118   -1.2596 H   0  0  0  0  0  0  0  0  0  0  0  0
    1.0235    1.4960    1.4555 H   0  0  0  0  0  0  0  0  0  0  0  0
   -0.3401    0.8487    2.3039 H   0  0  0  0  0  0  0  0  0  0  0  0
   -1.0266    2.9047    1.2852 H   0  0  0  0  0  0  0  0  0  0  0  0
   -0.3813    2.4784   -0.2770 H   0  0  0  0  0  0  0  0  0  0  0  0
   -2.1636    1.3284   -0.9316 H   0  0  0  0  0  0  0  0  0  0  0  0
   -3.7901    2.8429    3.4490 H   0  0  0  0  0  0  0  0  0  0  0  0
   -6.7810    5.1548   -2.0273 H   0  0  0  0  0  0  0  0  0  0  0  0
   -5.2801    3.8751   -3.5220 H   0  0  0  0  0  0  0  0  0  0  0  0
   -3.4912    2.4169   -2.5187 H   0  0  0  0  0  0  0  0  0  0  0  0
   -2.5672    0.0487    1.8104 H   0  0  0  0  0  0  0  0  0  0  0  0
   -3.5984   -0.8310   -0.9490 H   0  0  0  0  0  0  0  0  0  0  0  0
   -4.4988    0.1304    0.1901 H   0  0  0  0  0  0  0  0  0  0  0  0
   -6.1793   -1.0435    0.2201 H   0  0  0  0  0  0  0  0  0  0  0  0
   -6.2412   -2.3000    1.4211 H   0  0  0  0  0  0  0  0  0  0  0  0
   -6.9786   -2.7794   -1.0953 H   0  0  0  0  0  0  0  0  0  0  0  0
   -6.1843   -4.0430   -0.1436 H   0  0  0  0  0  0  0  0  0  0  0  0
   -3.6865   -4.6190   -1.0681 H   0  0  0  0  0  0  0  0  0  0  0  0
   -2.9667   -3.0961   -1.6026 H   0  0  0  0  0  0  0  0  0  0  0  0
   -4.0429   -3.8809    1.1215 H   0  0  0  0  0  0  0  0  0  0  0  0
   -2.5459   -3.1132    0.7619 H   0  0  0  0  0  0  0  0  0  0  0  0
   -1.2850   -1.3526   -0.5460 H   0  0  0  0  0  0  0  0  0  0  0  0
   -1.1566   -1.6823    1.1723 H   0  0  0  0  0  0  0  0  0  0  0  0
  1  2  1  0
  2  3  1  0
  3  4  2  0
  3  5  1  0
  5  6  2  0
  6  7  1  0
  7  8  1  0
  8  9  2  0
  9 10  1  0
 10 11  1  0
 11 12  2  0
 12 13  1  0
 13 14  1  0
 14 15  1  0
  7 16  2  0
 16 17  1  0
 17 18  2  0
 18 19  1  0
 19 20  1  0
 20 21  1  0
 21 22  1  0
 22 23  1  0
 23 24  1  0
 24 25  1  0
 25 26  1  0
 25 27  2  0
 27 28  1  0
 28 29  2  0
 29 30  1  0
 30 31  2  0
 31 32  1  0
 32 33  2  0
 23 34  1  0
 34 35  1  0
 35 36  1  0
 36 37  1  0
 37 38  1  0
 38 39  1  0
 39 40  1  0
 40 41  1  0
 34 42  1  0
 18  5  1  0
 42 20  1  0
 15  8  1  0
 33 24  1  0
 41 36  1  0
 14 10  2  0
 33 28  1  0
  1 43  1  0
  1 44  1  0
  1 45  1  0
  2 46  1  0
  6 47  1  0
 11 48  1  0
 12 49  1  0
 15 50  1  0
 16 51  1  0
 17 52  1  0
 19 53  1  0
 19 54  1  0
 21 55  1  0
 21 56  1  0
 22 57  1  0
 22 58  1  0
 23 59  1  0
 26 60  1  0
 30 61  1  0
 31 62  1  0
 32 63  1  0
 34 64  1  0
 35 65  1  0
 35 66  1  0
 37 67  1  0
 37 68  1  0
 38 69  1  0
 38 70  1  0
 40 71  1  0
 40 72  1  0
 41 73  1  0
 41 74  1  0
 42 75  1  0
 42 76  1  0
M  END
$$$$
