
     RDKit          3D

 63 67  0  0  0  0  0  0  0  0999 V2000
   -7.2694    1.6201    1.5035 C   0  0  0  0  0  0  0  0  0  0  0  0
   -6.2230    1.1647    0.5943 N   0  0  0  0  0  0  0  0  0  0  0  0
   -5.0452    2.0390    0.6286 C   0  0  0  0  0  0  0  0  0  0  0  0
   -3.9634    1.5864   -0.3796 C   0  0  0  0  0  0  0  0  0  0  0  0
   -3.5347    0.1813   -0.1800 N   0  0  0  0  0  0  0  0  0  0  0  0
   -2.5767   -0.2474   -1.2179 C   0  0  0  0  0  0  0  0  0  0  0  0
   -1.1823    0.4041   -1.0739 C   0  0  0  0  0  0  0  0  0  0  0  0
   -0.2447   -0.0262   -2.2188 C   0  0  0  0  0  0  0  0  0  0  0  0
    0.6165   -1.2383   -1.8663 C   0  0  0  0  0  0  0  0  0  0  0  0
    1.3861   -1.0106   -0.6403 N   0  0  0  0  0  0  0  0  0  0  0  0
    2.7646   -1.2324   -0.6799 C   0  0  0  0  0  0  0  0  0  0  0  0
    3.5949   -0.3411   -0.0539 N   0  0  0  0  0  0  0  0  0  0  0  0
    4.9450   -0.4916   -0.0286 C   0  0  0  0  0  0  0  0  0  0  0  0
    5.6775    0.5595    0.7082 C   0  0  0  0  0  0  0  0  0  0  0  0
    5.2511    1.9019    0.6552 C   0  0  0  0  0  0  0  0  0  0  0  0
    5.9325    2.9091    1.3444 C   0  0  0  0  0  0  0  0  0  0  0  0
    7.0463    2.5830    2.1039 C   0  0  0  0  0  0  0  0  0  0  0  0
    7.6980    3.5447    2.7693 F   0  0  0  0  0  0  0  0  0  0  0  0
    7.4896    1.2702    2.1885 C   0  0  0  0  0  0  0  0  0  0  0  0
    6.8086    0.2647    1.4952 C   0  0  0  0  0  0  0  0  0  0  0  0
    5.5965   -1.5511   -0.6507 C   0  0  0  0  0  0  0  0  0  0  0  0
    4.7651   -2.4778   -1.2704 C   0  0  0  0  0  0  0  0  0  0  0  0
    5.0438   -3.6351   -1.9470 N   0  0  0  0  0  0  0  0  0  0  0  0
    3.9557   -4.2956   -2.3745 N   0  0  0  0  0  0  0  0  0  0  0  0
    2.9483   -3.5254   -1.9553 C   0  0  0  0  0  0  0  0  0  0  0  0
    3.3795   -2.3534   -1.2872 C   0  0  0  0  0  0  0  0  0  0  0  0
    0.9592    0.0802    0.2410 C   0  0  0  0  0  0  0  0  0  0  0  0
   -0.5645    0.1071    0.3053 C   0  0  0  0  0  0  0  0  0  0  0  0
   -4.7407   -0.6945   -0.2062 C   0  0  0  0  0  0  0  0  0  0  0  0
   -5.8482   -0.2626    0.7955 C   0  0  0  0  0  0  0  0  0  0  0  0
   -5.4724   -0.5910    2.2620 C   0  0  0  0  0  0  0  0  0  0  0  0
   -4.1474   -0.5517    2.5905 N   0  0  0  0  0  0  0  0  0  0  0  0
   -6.3105   -0.8306    3.1314 O   0  0  0  0  0  0  0  0  0  0  0  0
   -8.1340    0.9486    1.4688 H   0  0  0  0  0  0  0  0  0  0  0  0
   -6.9292    1.7035    2.5423 H   0  0  0  0  0  0  0  0  0  0  0  0
   -7.6313    2.6069    1.1920 H   0  0  0  0  0  0  0  0  0  0  0  0
   -5.3443    3.0618    0.3654 H   0  0  0  0  0  0  0  0  0  0  0  0
   -4.6130    2.0822    1.6377 H   0  0  0  0  0  0  0  0  0  0  0  0
   -3.1093    2.2596   -0.2607 H   0  0  0  0  0  0  0  0  0  0  0  0
   -4.3486    1.7257   -1.3993 H   0  0  0  0  0  0  0  0  0  0  0  0
   -2.9815   -0.0429   -2.2185 H   0  0  0  0  0  0  0  0  0  0  0  0
   -2.4443   -1.3361   -1.1540 H   0  0  0  0  0  0  0  0  0  0  0  0
   -1.2950    1.4910   -1.1727 H   0  0  0  0  0  0  0  0  0  0  0  0
   -0.8098   -0.2183   -3.1394 H   0  0  0  0  0  0  0  0  0  0  0  0
    0.4263    0.8143   -2.4484 H   0  0  0  0  0  0  0  0  0  0  0  0
    1.2596   -1.4410   -2.7303 H   0  0  0  0  0  0  0  0  0  0  0  0
   -0.0221   -2.1171   -1.7213 H   0  0  0  0  0  0  0  0  0  0  0  0
    4.3740    2.1662    0.0661 H   0  0  0  0  0  0  0  0  0  0  0  0
    5.5977    3.9390    1.2917 H   0  0  0  0  0  0  0  0  0  0  0  0
    8.3584    1.0337    2.7953 H   0  0  0  0  0  0  0  0  0  0  0  0
    7.1587   -0.7604    1.5969 H   0  0  0  0  0  0  0  0  0  0  0  0
    6.6738   -1.6536   -0.6523 H   0  0  0  0  0  0  0  0  0  0  0  0
    5.9545   -4.0370   -2.1384 H   0  0  0  0  0  0  0  0  0  0  0  0
    1.9340   -3.8452   -2.1541 H   0  0  0  0  0  0  0  0  0  0  0  0
    1.3338    1.0468   -0.1170 H   0  0  0  0  0  0  0  0  0  0  0  0
    1.3422   -0.0774    1.2567 H   0  0  0  0  0  0  0  0  0  0  0  0
   -0.9193   -0.8617    0.6807 H   0  0  0  0  0  0  0  0  0  0  0  0
   -0.8931    0.8639    1.0279 H   0  0  0  0  0  0  0  0  0  0  0  0
   -5.1692   -0.7021   -1.2183 H   0  0  0  0  0  0  0  0  0  0  0  0
   -4.4359   -1.7238    0.0238 H   0  0  0  0  0  0  0  0  0  0  0  0
   -6.7272   -0.8821    0.5692 H   0  0  0  0  0  0  0  0  0  0  0  0
   -3.4597   -0.2251    1.9147 H   0  0  0  0  0  0  0  0  0  0  0  0
   -3.8817   -0.6792    3.5561 H   0  0  0  0  0  0  0  0  0  0  0  0
  1  2  1  0
  2  3  1  0
  3  4  1  0
  4  5  1  0
  5  6  1  0
  6  7  1  0
  7  8  1  0
  8  9  1  0
  9 10  1  0
 10 11  1  0
 11 12  2  0
 12 13  1  0
 13 14  1  0
 14 15  2  0
 15 16  1  0
 16 17  2  0
 17 18  1  0
 17 19  1  0
 19 20  2  0
 13 21  2  0
 21 22  1  0
 22 23  1  0
 23 24  1  0
 24 25  2  0
 25 26  1  0
 10 27  1  0
 27 28  1  0
  5 29  1  0
 29 30  1  0
 30 31  1  0
 31 32  1  0
 31 33  2  0
 30  2  1  0
 28  7  1  0
 26 11  1  0
 20 14  1  0
 26 22  2  0
  1 34  1  0
  1 35  1  0
  1 36  1  0
  3 37  1  0
  3 38  1  0
  4 39  1  0
  4 40  1  0
  6 41  1  0
  6 42  1  0
  7 43  1  0
  8 44  1  0
  8 45  1  0
  9 46  1  0
  9 47  1  0
 15 48  1  0
 16 49  1  0
 19 50  1  0
 20 51  1  0
 21 52  1  0
 23 53  1  0
 25 54  1  0
 27 55  1  0
 27 56  1  0
 28 57  1  0
 28 58  1  0
 29 59  1  0
 29 60  1  0
 30 61  1  0
 32 62  1  0
 32 63  1  0
M  END
$$$$
