
     RDKit          3D

 48 51  0  0  0  0  0  0  0  0999 V2000
   -5.6829   -3.1702   -0.6497 N   0  0  0  0  0  0  0  0  0  0  0  0
   -4.7502   -2.6726   -0.1715 C   0  0  0  0  0  0  0  0  0  0  0  0
   -3.5733   -2.0284    0.4332 C   0  0  0  0  0  0  0  0  0  0  0  0
   -3.6224   -0.4949    0.2713 C   0  0  0  0  0  0  0  0  0  0  0  0
   -3.3607   -0.0498   -1.1909 C   0  0  0  0  0  0  0  0  0  0  0  0
   -1.8963    0.3129   -1.4735 C   0  0  0  0  0  0  0  0  0  0  0  0
   -1.0424   -0.4799   -0.5897 N   0  0  0  0  0  0  0  0  0  0  0  0
    0.2801   -0.6182   -1.0372 C   0  0  0  0  0  0  0  0  0  0  0  0
    1.3075   -0.1503   -0.2699 N   0  0  0  0  0  0  0  0  0  0  0  0
    2.6103   -0.2640   -0.6434 C   0  0  0  0  0  0  0  0  0  0  0  0
    3.5858    0.3147    0.3093 C   0  0  0  0  0  0  0  0  0  0  0  0
    3.2319    1.4173    1.1150 C   0  0  0  0  0  0  0  0  0  0  0  0
    4.1352    1.9818    2.0204 C   0  0  0  0  0  0  0  0  0  0  0  0
    5.4087    1.4459    2.1363 C   0  0  0  0  0  0  0  0  0  0  0  0
    6.2776    1.9831    3.0023 F   0  0  0  0  0  0  0  0  0  0  0  0
    5.7924    0.3554    1.3687 C   0  0  0  0  0  0  0  0  0  0  0  0
    4.8860   -0.2076    0.4635 C   0  0  0  0  0  0  0  0  0  0  0  0
    2.9971   -0.8694   -1.8362 C   0  0  0  0  0  0  0  0  0  0  0  0
    1.9606   -1.3834   -2.6090 C   0  0  0  0  0  0  0  0  0  0  0  0
    1.9612   -2.0554   -3.8024 N   0  0  0  0  0  0  0  0  0  0  0  0
    0.7404   -2.4251   -4.2231 N   0  0  0  0  0  0  0  0  0  0  0  0
   -0.0659   -1.9678   -3.2614 C   0  0  0  0  0  0  0  0  0  0  0  0
    0.6260   -1.2817   -2.2354 C   0  0  0  0  0  0  0  0  0  0  0  0
   -1.1493   -0.0991    0.8382 C   0  0  0  0  0  0  0  0  0  0  0  0
   -2.6229    0.1885    1.2277 C   0  0  0  0  0  0  0  0  0  0  0  0
   -2.8961    1.6112    1.1560 O   0  0  0  0  0  0  0  0  0  0  0  0
   -2.4380    2.3411    2.1973 C   0  0  0  0  0  0  0  0  0  0  0  0
   -2.7517    3.6420    2.0221 N   0  0  0  0  0  0  0  0  0  0  0  0
   -1.8295    1.9133    3.1634 O   0  0  0  0  0  0  0  0  0  0  0  0
   -2.6650   -2.4522   -0.0075 H   0  0  0  0  0  0  0  0  0  0  0  0
   -3.5559   -2.2843    1.4996 H   0  0  0  0  0  0  0  0  0  0  0  0
   -4.6344   -0.1531    0.5324 H   0  0  0  0  0  0  0  0  0  0  0  0
   -3.9791    0.8267   -1.4226 H   0  0  0  0  0  0  0  0  0  0  0  0
   -3.6811   -0.8310   -1.8904 H   0  0  0  0  0  0  0  0  0  0  0  0
   -1.7285    1.3834   -1.2951 H   0  0  0  0  0  0  0  0  0  0  0  0
   -1.7002    0.1460   -2.5380 H   0  0  0  0  0  0  0  0  0  0  0  0
    2.2327    1.8450    1.0377 H   0  0  0  0  0  0  0  0  0  0  0  0
    3.8468    2.8294    2.6334 H   0  0  0  0  0  0  0  0  0  0  0  0
    6.7901   -0.0563    1.4833 H   0  0  0  0  0  0  0  0  0  0  0  0
    5.2061   -1.0775   -0.1052 H   0  0  0  0  0  0  0  0  0  0  0  0
    4.0306   -0.9410   -2.1485 H   0  0  0  0  0  0  0  0  0  0  0  0
    2.7602   -2.3053   -4.3743 H   0  0  0  0  0  0  0  0  0  0  0  0
   -1.1299   -2.1484   -3.3417 H   0  0  0  0  0  0  0  0  0  0  0  0
   -0.7894   -0.9418    1.4416 H   0  0  0  0  0  0  0  0  0  0  0  0
   -0.5316    0.7792    1.0604 H   0  0  0  0  0  0  0  0  0  0  0  0
   -2.8122   -0.1483    2.2553 H   0  0  0  0  0  0  0  0  0  0  0  0
   -2.4943    4.3077    2.7353 H   0  0  0  0  0  0  0  0  0  0  0  0
   -3.2842    3.9326    1.2174 H   0  0  0  0  0  0  0  0  0  0  0  0
  1  2  3  0
  2  3  1  0
  3  4  1  0
  4  5  1  0
  5  6  1  0
  6  7  1  0
  7  8  1  0
  8  9  2  0
  9 10  1  0
 10 11  1  0
 11 12  2  0
 12 13  1  0
 13 14  2  0
 14 15  1  0
 14 16  1  0
 16 17  2  0
 10 18  2  0
 18 19  1  0
 19 20  1  0
 20 21  1  0
 21 22  2  0
 22 23  1  0
  7 24  1  0
 24 25  1  0
 25 26  1  0
 26 27  1  0
 27 28  1  0
 27 29  2  0
 25  4  1  0
 23  8  1  0
 17 11  1  0
 23 19  2  0
  3 30  1  0
  3 31  1  0
  4 32  1  0
  5 33  1  0
  5 34  1  0
  6 35  1  0
  6 36  1  0
 12 37  1  0
 13 38  1  0
 16 39  1  0
 17 40  1  0
 18 41  1  0
 20 42  1  0
 22 43  1  0
 24 44  1  0
 24 45  1  0
 25 46  1  0
 28 47  1  0
 28 48  1  0
M  END
$$$$
