REMARK SMILES Nc1nonc1-n1nnc(-c2n[nH]c(-c3cncc(F)c3)n2)c1CN1CCCCC1
REMARK SMILES IDX 7 1 8 2 9 3 10 4 23 5 6 6 2 7 3 8 4 9 5 10 1 11 24 14 25 15
REMARK SMILES IDX 26 16 30 17 27 18 29 19 28 20 11 21 12 22 22 23 13 24 14 25
REMARK SMILES IDX 15 27 16 28 21 29 17 30 19 31 18 32 20 33
REMARK H PARENT 1 12 1 13 13 26
ROOT
ATOM      1  N   UNL     1      -1.240  -2.326  -1.217  1.00  0.00    -0.190 N 
ATOM      2  N   UNL     1      -0.135  -3.132  -1.226  1.00  0.00    -0.060 NA
ATOM      3  N   UNL     1       0.944  -2.391  -1.052  1.00  0.00    -0.126 NA
ATOM      4  C   UNL     1       0.547  -1.093  -0.926  1.00  0.00     0.157 A 
ATOM      5  C   UNL     1      -0.834  -1.011  -1.000  1.00  0.00     0.092 A 
ENDROOT
BRANCH   1   6
ATOM      6  C   UNL     1      -2.531  -2.878  -1.424  1.00  0.00     0.243 A 
ATOM      7  C   UNL     1      -2.875  -4.235  -1.594  1.00  0.00     0.215 A 
ATOM      8  N   UNL     1      -4.191  -4.317  -1.786  1.00  0.00    -0.030 NA
ATOM      9  O   UNL     1      -4.659  -3.010  -1.721  1.00  0.00    -0.240 OA
ATOM     10  N   UNL     1      -3.619  -2.111  -1.498  1.00  0.00    -0.027 NA
BRANCH   7  11
ATOM     11  N   UNL     1      -2.045  -5.293  -1.569  1.00  0.00    -0.378 N 
ATOM     12  H   UNL     1      -2.373  -6.195  -1.897  1.00  0.00     0.158 HD
ATOM     13  H   UNL     1      -1.033  -5.170  -1.602  1.00  0.00     0.158 HD
ENDBRANCH   7  11
ENDBRANCH   1   6
BRANCH   5  14
ATOM     14  C   UNL     1      -1.715   0.179  -0.876  1.00  0.00     0.143 C 
BRANCH  14  15
ATOM     15  N   UNL     1      -1.758   0.670   0.509  1.00  0.00    -0.297 NA
ATOM     16  C   UNL     1      -2.125   2.095   0.533  1.00  0.00     0.085 C 
ATOM     17  C   UNL     1      -2.564  -0.159   1.416  1.00  0.00     0.085 C 
ATOM     18  C   UNL     1      -2.554   2.558   1.923  1.00  0.00     0.016 C 
ATOM     19  C   UNL     1      -3.932   0.435   1.743  1.00  0.00     0.016 C 
ATOM     20  C   UNL     1      -3.798   1.809   2.398  1.00  0.00     0.003 C 
ENDBRANCH  14  15
ENDBRANCH   5  14
BRANCH   4  21
ATOM     21  C   UNL     1       1.547  -0.036  -0.745  1.00  0.00     0.204 A 
ATOM     22  N   UNL     1       1.342   1.269  -0.963  1.00  0.00    -0.151 NA
ATOM     23  N   UNL     1       2.828  -0.346  -0.359  1.00  0.00    -0.205 NA
ATOM     24  N   UNL     1       2.540   1.786  -0.650  1.00  0.00    -0.259 N 
ATOM     25  C   UNL     1       3.440   0.820  -0.291  1.00  0.00     0.157 A 
ATOM     26  H   UNL     1       2.674   2.787  -0.721  1.00  0.00     0.192 HD
BRANCH  25  27
ATOM     27  C   UNL     1       4.830   1.049   0.089  1.00  0.00     0.040 A 
ATOM     28  C   UNL     1       5.681  -0.040   0.293  1.00  0.00     0.123 A 
ATOM     29  C   UNL     1       5.378   2.323   0.269  1.00  0.00     0.054 A 
ATOM     30  N   UNL     1       6.991   0.057   0.643  1.00  0.00    -0.261 NA
ATOM     31  C   UNL     1       6.716   2.445   0.630  1.00  0.00     0.142 A 
ATOM     32  C   UNL     1       7.479   1.306   0.806  1.00  0.00     0.150 A 
ATOM     33  F   UNL     1       7.251   3.660   0.808  1.00  0.00    -0.205 F 
ENDBRANCH  25  27
ENDBRANCH   4  21
TORSDOF 6
