MODEL        6USER    Run = 6USERUSER    Estimated Free Energy of Binding    = -10.62 kcal/mol  [=(1)+(2)+(3)-(4)]USERUSER    (1) Final Intermolecular Energy     = -13.01 kcal/molUSER        vdW + Hbond + desolv Energy     = -12.75 kcal/molUSER        Electrostatic Energy            =  -0.26 kcal/molUSER        Moving Ligand-Fixed Receptor    = -13.01 kcal/molUSER        Moving Ligand-Moving Receptor   =  +0.00 kcal/molUSER    (2) Final Total Internal Energy     =  -1.39 kcal/molUSER    (3) Torsional Free Energy           =  +2.39 kcal/molUSER    (4) Unbound System's Energy         =  -1.39 kcal/molUSERUSERREMARK SMILES N#Cc1ccc(C2=C(Nc3ccc(OCCN4CCNCC4)cc3)C(=O)NC2=O)c(F)c1REMARK SMILES IDX 10 1 11 2 12 3 13 4 23 5 24 6 9 7 8 9 7 10 28 11 25 12 27 13REMARK SMILES IDX 29 14 26 15 6 17 3 18 4 19 32 20 5 21 30 22 31 23 2 24 1 25REMARK SMILES IDX 14 26 15 27 16 28 17 29 18 30 22 31 19 32 21 33 20 34REMARK H PARENT 9 8 27 16 20 35USER                              x       y       z     vdW  Elec       q    TypeUSER                           _______ _______ _______ _____ _____    ______ ____ROOTATOM      1  C   UNL     1      39.517  44.813  19.191 -0.38 -0.00    +0.039 A  ATOM      2  C   UNL     1      38.259  44.319  18.830 -0.31 -0.00    +0.030 A  ATOM      3  C   UNL     1      37.309  44.007  19.806 -0.34 -0.00    +0.048 A  ATOM      4  C   UNL     1      37.582  44.220  21.160 -0.31 +0.00    +0.119 A  ATOM      5  C   UNL     1      38.815  44.764  21.526 -0.32 +0.00    +0.048 A  ATOM      6  C   UNL     1      39.771  45.071  20.547 -0.34 +0.00    +0.030 A  ENDROOTBRANCH   1   7ATOM      7  N   UNL     1      40.430  45.151  18.170 -0.19 +0.01    -0.350 N  ATOM      8  H   UNL     1      40.119  44.769  17.265 +0.12 -0.01    +0.167 HD BRANCH   7   9ATOM      9  C   UNL     1      41.002  46.398  18.014 -0.49 -0.01    +0.118 C  ATOM     10  C   UNL     1      40.798  47.420  17.160 -0.52 -0.01    +0.079 C  ATOM     11  C   UNL     1      41.715  48.514  17.547 -0.04 +0.01    +0.261 C  ATOM     12  C   UNL     1      42.054  46.842  18.974 -0.38 +0.02    +0.275 C  ATOM     13  N   UNL     1      42.425  48.088  18.618 -0.34 -0.00    -0.287 N  ATOM     14  O   UNL     1      41.788  49.610  17.017 -0.91 -0.05    -0.269 OA ATOM     15  O   UNL     1      42.484  46.165  19.901 -0.27 -0.07    -0.267 OA ATOM     16  H   UNL     1      43.118  48.639  19.101 -0.47 -0.02    +0.173 HD BRANCH  10  17ATOM     17  C   UNL     1      39.840  47.494  16.056 -0.50 -0.01    +0.025 A  ATOM     18  C   UNL     1      37.980  47.586  13.942 -0.48 -0.02    +0.055 A  ATOM     19  C   UNL     1      37.880  48.489  15.013 -0.52 -0.01    +0.020 A  ATOM     20  C   UNL     1      39.006  46.637  13.929 -0.23 -0.01    +0.059 A  ATOM     21  C   UNL     1      38.806  48.443  16.063 -0.33 -0.01    +0.013 A  ATOM     22  C   UNL     1      39.923  46.600  14.981 -0.35 -0.02    +0.132 A  ATOM     23  F   UNL     1      40.867  45.646  14.974 -0.00 -0.02    -0.206 F  BRANCH  18  24ATOM     24  C   UNL     1      37.019  47.626  12.875 -0.59 -0.03    +0.099 C  ATOM     25  N   UNL     1      36.234  47.637  12.019 -0.71 +0.10    -0.192 NA ENDBRANCH  18  24ENDBRANCH  10  17ENDBRANCH   7   9ENDBRANCH   1   7BRANCH   4  26ATOM     26  O   UNL     1      36.564  43.868  21.998 -0.14 -0.06    -0.492 OA BRANCH  26  27ATOM     27  C   UNL     1      36.780  42.811  22.943 -0.27 +0.03    +0.245 C  BRANCH  27  28ATOM     28  C   UNL     1      37.327  43.361  24.279 -0.33 +0.01    +0.126 C  BRANCH  28  29ATOM     29  N   UNL     1      36.419  43.334  25.434 -0.19 +0.00    -0.297 NA ATOM     30  C   UNL     1      36.354  42.053  26.143 -0.45 -0.02    +0.100 C  ATOM     31  C   UNL     1      36.562  44.481  26.354 -0.35 -0.01    +0.100 C  ATOM     32  C   UNL     1      35.234  42.052  27.218 -0.59 -0.03    +0.096 C  ATOM     33  C   UNL     1      36.258  44.169  27.843 -0.45 -0.02    +0.096 C  ATOM     34  N   UNL     1      35.122  43.266  28.044 -0.32 +0.10    -0.314 NA ATOM     35  H   UNL     1      35.051  43.007  29.031 -0.47 -0.08    +0.122 HD ENDBRANCH  28  29ENDBRANCH  27  28ENDBRANCH  26  27ENDBRANCH   4  26TORSDOF 8TERENDMDL