MODEL        10USER    Run = 10USERUSER    Estimated Free Energy of Binding    = -10.75 kcal/mol  [=(1)+(2)+(3)-(4)]USERUSER    (1) Final Intermolecular Energy     = -12.54 kcal/molUSER        vdW + Hbond + desolv Energy     = -12.43 kcal/molUSER        Electrostatic Energy            =  -0.11 kcal/molUSER        Moving Ligand-Fixed Receptor    = -12.54 kcal/molUSER        Moving Ligand-Moving Receptor   =  +0.00 kcal/molUSER    (2) Final Total Internal Energy     =  -1.78 kcal/molUSER    (3) Torsional Free Energy           =  +1.79 kcal/molUSER    (4) Unbound System's Energy         =  -1.78 kcal/molUSERUSERREMARK SMILES Nc1nonc1-n1nnc(-c2n[nH]c(-c3cncc(F)c3)n2)c1CN1CCCCC1REMARK SMILES IDX 7 1 8 2 9 3 10 4 23 5 6 6 2 7 3 8 4 9 5 10 1 11 24 14 25 15REMARK SMILES IDX 26 16 30 17 27 18 29 19 28 20 11 21 12 22 22 23 13 24 14 25REMARK SMILES IDX 15 27 16 28 21 29 17 30 19 31 18 32 20 33REMARK H PARENT 1 12 1 13 13 26USER                              x       y       z     vdW  Elec       q    TypeUSER                           _______ _______ _______ _____ _____    ______ ____ROOTATOM      1  N   UNL     1      39.708  48.182  15.331 -0.38 +0.06    -0.190 N  ATOM      2  N   UNL     1      40.540  49.266  15.377 -0.60 +0.02    -0.060 NA ATOM      3  N   UNL     1      41.351  49.148  16.412 -1.06 +0.00    -0.126 NA ATOM      4  C   UNL     1      41.053  47.980  17.048 -0.40 -0.02    +0.157 A  ATOM      5  C   UNL     1      40.032  47.324  16.380 -0.44 -0.02    +0.092 A  ENDROOTBRANCH   1   6ATOM      6  C   UNL     1      38.709  48.087  14.328 -0.32 -0.09    +0.243 A  ATOM      7  C   UNL     1      37.526  48.845  14.209 -0.29 -0.14    +0.215 A  ATOM      8  N   UNL     1      36.856  48.420  13.139 -0.97 +0.01    -0.030 NA ATOM      9  O   UNL     1      37.634  47.407  12.591 -1.02 +0.04    -0.240 OA ATOM     10  N   UNL     1      38.791  47.198  13.337 -0.35 +0.00    -0.027 NA BRANCH   7  11ATOM     11  N   UNL     1      37.113  49.838  15.017 -0.00 +0.42    -0.378 N  ATOM     12  H   UNL     1      37.782  50.523  15.351 -0.44 -0.17    +0.158 HD ATOM     13  H   UNL     1      36.145  50.159  15.005 -0.28 -0.26    +0.158 HD ENDBRANCH   7  11ENDBRANCH   1   6BRANCH   5  14ATOM     14  C   UNL     1      39.404  46.010  16.676 -0.36 -0.03    +0.143 C  BRANCH  14  15ATOM     15  N   UNL     1      38.273  46.155  17.604 -0.21 +0.08    -0.297 NA ATOM     16  C   UNL     1      37.013  45.802  16.930 -0.36 -0.04    +0.085 C  ATOM     17  C   UNL     1      38.460  45.472  18.892 -0.36 -0.01    +0.085 C  ATOM     18  C   UNL     1      35.875  45.565  17.919 -0.39 -0.01    +0.016 C  ATOM     19  C   UNL     1      37.684  44.164  19.015 -0.37 -0.00    +0.016 C  ATOM     20  C   UNL     1      36.182  44.391  18.848 -0.42 -0.00    +0.003 C  ENDBRANCH  14  15ENDBRANCH   5  14BRANCH   4  21ATOM     21  C   UNL     1      41.787  47.598  18.259 -0.35 -0.01    +0.204 A  ATOM     22  N   UNL     1      42.886  48.206  18.722 -0.39 -0.00    -0.151 NA ATOM     23  N   UNL     1      41.390  46.513  19.003 -0.35 -0.01    -0.205 NA ATOM     24  N   UNL     1      43.145  47.490  19.827 -0.30 -0.05    -0.259 N  ATOM     25  C   UNL     1      42.253  46.467  19.999 -0.31 +0.03    +0.157 A  ATOM     26  H   UNL     1      43.945  47.740  20.395 -0.44 +0.04    +0.192 HD BRANCH  25  27ATOM     27  C   UNL     1      42.268  45.497  21.089 -0.26 +0.01    +0.040 A  ATOM     28  C   UNL     1      42.998  45.769  22.248 -0.18 +0.03    +0.123 A  ATOM     29  C   UNL     1      41.581  44.280  21.044 -0.30 +0.01    +0.054 A  ATOM     30  N   UNL     1      43.078  44.942  23.324 -0.05 -0.04    -0.261 NA ATOM     31  C   UNL     1      41.651  43.417  22.133 -0.26 +0.01    +0.142 A  ATOM     32  C   UNL     1      42.399  43.777  23.238 -0.16 +0.01    +0.150 A  ATOM     33  F   UNL     1      41.000  42.247  22.101 -0.07 -0.00    -0.205 F  ENDBRANCH  25  27ENDBRANCH   4  21TORSDOF 6TERENDMDL