REMARK SMILES N#Cc1ccc(C2=C(Nc3ccc(OCCO)cc3)C(=O)NC2=O)cc1
REMARK SMILES IDX 10 1 11 2 12 3 13 4 18 5 19 6 9 7 8 9 7 10 23 11 20 12 22 13
REMARK SMILES IDX 24 14 21 15 6 17 3 18 4 19 26 20 5 21 25 22 2 23 1 24 14 25
REMARK SMILES IDX 15 26 16 27 17 28
REMARK H PARENT 9 8 22 16 17 29
ROOT
ATOM      1  C   UNL     1      -0.749   0.605   0.359  1.00  0.00     0.039 A 
ATOM      2  C   UNL     1      -1.188   1.923   0.170  1.00  0.00     0.030 A 
ATOM      3  C   UNL     1      -2.511   2.203  -0.189  1.00  0.00     0.048 A 
ATOM      4  C   UNL     1      -3.436   1.174  -0.352  1.00  0.00     0.119 A 
ATOM      5  C   UNL     1      -3.018  -0.140  -0.158  1.00  0.00     0.048 A 
ATOM      6  C   UNL     1      -1.689  -0.417   0.199  1.00  0.00     0.030 A 
ENDROOT
BRANCH   1   7
ATOM      7  N   UNL     1       0.586   0.401   0.752  1.00  0.00    -0.350 N 
ATOM      8  H   UNL     1       1.213   1.104   0.370  1.00  0.00     0.167 HD
BRANCH   7   9
ATOM      9  C   UNL     1       1.216  -0.745   1.184  1.00  0.00     0.118 C 
ATOM     10  C   UNL     1       2.491  -1.133   0.997  1.00  0.00     0.076 C 
ATOM     11  C   UNL     1       2.708  -2.369   1.777  1.00  0.00     0.261 C 
ATOM     12  C   UNL     1       0.618  -1.739   2.131  1.00  0.00     0.275 C 
ATOM     13  N   UNL     1       1.526  -2.719   2.314  1.00  0.00    -0.287 N 
ATOM     14  O   UNL     1       3.771  -2.942   1.936  1.00  0.00    -0.269 OA
ATOM     15  O   UNL     1      -0.462  -1.673   2.691  1.00  0.00    -0.267 OA
ATOM     16  H   UNL     1       1.414  -3.458   2.988  1.00  0.00     0.173 HD
BRANCH  10  17
ATOM     17  C   UNL     1       3.518  -0.452   0.205  1.00  0.00    -0.010 A 
ATOM     18  C   UNL     1       5.498   0.856  -1.315  1.00  0.00     0.052 A 
ATOM     19  C   UNL     1       4.248   0.583  -1.876  1.00  0.00     0.020 A 
ATOM     20  C   UNL     1       5.763   0.468   0.001  1.00  0.00     0.020 A 
ATOM     21  C   UNL     1       3.266  -0.070  -1.122  1.00  0.00     0.010 A 
ATOM     22  C   UNL     1       4.780  -0.184   0.754  1.00  0.00     0.010 A 
BRANCH  18  23
ATOM     23  C   UNL     1       6.503   1.529  -2.086  1.00  0.00     0.099 C 
ATOM     24  N   UNL     1       7.312   2.083  -2.707  1.00  0.00    -0.192 NA
ENDBRANCH  18  23
ENDBRANCH  10  17
ENDBRANCH   7   9
ENDBRANCH   1   7
BRANCH   4  25
ATOM     25  O   UNL     1      -4.689   1.587  -0.703  1.00  0.00    -0.491 OA
BRANCH  25  26
ATOM     26  C   UNL     1      -5.737   0.623  -0.763  1.00  0.00     0.257 C 
BRANCH  26  27
ATOM     27  C   UNL     1      -5.830  -0.012  -2.148  1.00  0.00     0.197 C 
BRANCH  27  28
ATOM     28  O   UNL     1      -6.881  -0.970  -2.202  1.00  0.00    -0.393 OA
ATOM     29  H   UNL     1      -6.632  -1.717  -1.630  1.00  0.00     0.210 HD
ENDBRANCH  27  28
ENDBRANCH  26  27
ENDBRANCH  25  26
ENDBRANCH   4  25
TORSDOF 8
