MODEL        5USER    Run = 5USERUSER    Estimated Free Energy of Binding    = -10.94 kcal/mol  [=(1)+(2)+(3)-(4)]USERUSER    (1) Final Intermolecular Energy     = -12.73 kcal/molUSER        vdW + Hbond + desolv Energy     = -12.45 kcal/molUSER        Electrostatic Energy            =  -0.28 kcal/molUSER        Moving Ligand-Fixed Receptor    = -12.73 kcal/molUSER        Moving Ligand-Moving Receptor   =  +0.00 kcal/molUSER    (2) Final Total Internal Energy     =  -2.12 kcal/molUSER    (3) Torsional Free Energy           =  +1.79 kcal/molUSER    (4) Unbound System's Energy         =  -2.12 kcal/molUSERUSERREMARK SMILES Nc1nonc1-n1nnc(-c2n[nH]c(-c3cncc(Cl)c3)n2)c1CN1CCCC1REMARK SMILES IDX 7 1 8 2 9 3 10 4 23 5 6 6 2 7 3 8 4 9 5 10 1 11 24 14 25 15REMARK SMILES IDX 26 16 29 17 27 18 28 19 11 20 12 21 22 22 13 23 14 24 15 26REMARK SMILES IDX 16 27 21 28 17 29 19 30 18 31 20 32REMARK H PARENT 1 12 1 13 13 25USER                              x       y       z     vdW  Elec       q    TypeUSER                           _______ _______ _______ _____ _____    ______ ____ROOTATOM      1  N   UNL     1      39.094  46.808  16.640 -0.31 +0.06    -0.190 N  ATOM      2  N   UNL     1      39.283  45.715  17.440 -0.37 +0.01    -0.060 NA ATOM      3  N   UNL     1      38.211  44.947  17.383 -0.29 +0.03    -0.126 NA ATOM      4  C   UNL     1      37.312  45.537  16.544 -0.25 -0.06    +0.157 A  ATOM      5  C   UNL     1      37.830  46.728  16.061 -0.33 -0.04    +0.092 A  ENDROOTBRANCH   1   6ATOM      6  C   UNL     1      40.119  47.780  16.500 -0.33 -0.06    +0.243 A  ATOM      7  C   UNL     1      40.379  48.608  15.388 -0.41 -0.06    +0.215 A  ATOM      8  N   UNL     1      41.411  49.398  15.682 -1.12 +0.00    -0.030 NA ATOM      9  O   UNL     1      41.794  49.048  16.971 -0.97 -0.04    -0.240 OA ATOM     10  N   UNL     1      40.982  48.037  17.482 -0.58 +0.00    -0.027 NA BRANCH   7  11ATOM     11  N   UNL     1      39.722  48.623  14.214 -0.20 +0.12    -0.378 N  ATOM     12  H   UNL     1      39.184  49.442  13.953 -0.25 -0.11    +0.158 HD ATOM     13  H   UNL     1      39.420  47.756  13.769 +0.11 -0.03    +0.158 HD ENDBRANCH   7  11ENDBRANCH   1   6BRANCH   5  14ATOM     14  C   UNL     1      37.210  47.729  15.156 -0.42 -0.11    +0.143 C  BRANCH  14  15ATOM     15  N   UNL     1      37.293  47.288  13.763 -0.30 +0.13    -0.297 NA ATOM     16  C   UNL     1      36.210  47.842  12.949 -0.60 -0.04    +0.085 C  ATOM     17  C   UNL     1      37.187  45.840  13.585 -0.47 -0.03    +0.085 C  ATOM     18  C   UNL     1      36.258  47.001  11.681 -0.61 -0.01    +0.017 C  ATOM     19  C   UNL     1      36.954  45.707  12.088 -0.63 -0.01    +0.017 C  ENDBRANCH  14  15ENDBRANCH   5  14BRANCH   4  20ATOM     20  C   UNL     1      36.024  44.890  16.281 -0.20 -0.10    +0.204 A  ATOM     21  N   UNL     1      35.825  43.569  16.179 -0.31 +0.06    -0.151 NA ATOM     22  N   UNL     1      34.879  45.639  16.154 -0.20 +0.17    -0.205 NA ATOM     23  N   UNL     1      34.508  43.510  15.936 -0.19 +0.12    -0.259 N  ATOM     24  C   UNL     1      33.929  44.751  15.927 -0.21 -0.10    +0.157 A  ATOM     25  H   UNL     1      34.081  42.603  15.794 -0.05 -0.10    +0.192 HD BRANCH  24  26ATOM     26  C   UNL     1      32.515  45.036  15.706 -0.33 -0.03    +0.039 A  ATOM     27  C   UNL     1      31.520  44.755  16.642 -0.17 -0.03    +0.123 A  ATOM     28  C   UNL     1      32.100  45.622  14.501 -0.36 -0.03    +0.035 A  ATOM     29  N   UNL     1      30.200  45.009  16.464 -0.45 +0.04    -0.262 NA ATOM     30  C   UNL     1      30.753  45.895  14.286 -0.50 -0.04    +0.060 A  ATOM     31  C   UNL     1      29.848  45.576  15.284 -0.28 -0.05    +0.131 A  ATOM     32  Cl  UNL     1      30.228  46.612  12.818 -0.86 +0.05    -0.083 Cl ENDBRANCH  24  26ENDBRANCH   4  20TORSDOF 6TERENDMDL