REMARK SMILES N#Cc1ccc(C2=C(Nc3ccc(OCCN4CCNCC4)cc3)C(=O)NC2=O)c(F)c1
REMARK SMILES IDX 10 1 11 2 12 3 13 4 23 5 24 6 9 7 8 9 7 10 28 11 25 12 27 13
REMARK SMILES IDX 29 14 26 15 6 17 3 18 4 19 32 20 5 21 30 22 31 23 2 24 1 25
REMARK SMILES IDX 14 26 15 27 16 28 17 29 18 30 22 31 19 32 21 33 20 34
REMARK H PARENT 9 8 27 16 20 35
ROOT
ATOM      1  C   UNL     1       2.067   0.474   2.070  1.00  0.00     0.039 A 
ATOM      2  C   UNL     1       1.899   1.862   2.060  1.00  0.00     0.030 A 
ATOM      3  C   UNL     1       0.824   2.445   1.383  1.00  0.00     0.048 A 
ATOM      4  C   UNL     1      -0.126   1.649   0.737  1.00  0.00     0.119 A 
ATOM      5  C   UNL     1       0.004   0.260   0.788  1.00  0.00     0.048 A 
ATOM      6  C   UNL     1       1.086  -0.324   1.462  1.00  0.00     0.030 A 
ENDROOT
BRANCH   1   7
ATOM      7  N   UNL     1       3.145  -0.072   2.799  1.00  0.00    -0.350 N 
ATOM      8  H   UNL     1       2.936  -0.073   3.808  1.00  0.00     0.167 HD
BRANCH   7   9
ATOM      9  C   UNL     1       3.840  -1.208   2.434  1.00  0.00     0.118 C 
ATOM     10  C   UNL     1       4.260  -1.709   1.256  1.00  0.00     0.079 C 
ATOM     11  C   UNL     1       5.001  -2.957   1.542  1.00  0.00     0.261 C 
ATOM     12  C   UNL     1       4.328  -2.136   3.496  1.00  0.00     0.275 C 
ATOM     13  N   UNL     1       4.986  -3.140   2.883  1.00  0.00    -0.287 N 
ATOM     14  O   UNL     1       5.554  -3.667   0.719  1.00  0.00    -0.269 OA
ATOM     15  O   UNL     1       4.137  -1.984   4.697  1.00  0.00    -0.267 OA
ATOM     16  H   UNL     1       5.431  -3.908   3.361  1.00  0.00     0.173 HD
BRANCH  10  17
ATOM     17  C   UNL     1       4.069  -1.147  -0.081  1.00  0.00     0.025 A 
ATOM     18  C   UNL     1       3.649  -0.069  -2.650  1.00  0.00     0.055 A 
ATOM     19  C   UNL     1       4.314   0.682  -1.667  1.00  0.00     0.020 A 
ATOM     20  C   UNL     1       3.193  -1.356  -2.349  1.00  0.00     0.059 A 
ATOM     21  C   UNL     1       4.524   0.144  -0.391  1.00  0.00     0.013 A 
ATOM     22  C   UNL     1       3.406  -1.881  -1.073  1.00  0.00     0.132 A 
ATOM     23  F   UNL     1       2.912  -3.096  -0.790  1.00  0.00    -0.206 F 
BRANCH  18  24
ATOM     24  C   UNL     1       3.422   0.491  -3.953  1.00  0.00     0.099 C 
ATOM     25  N   UNL     1       3.253   0.962  -5.001  1.00  0.00    -0.192 NA
ENDBRANCH  18  24
ENDBRANCH  10  17
ENDBRANCH   7   9
ENDBRANCH   1   7
BRANCH   4  26
ATOM     26  O   UNL     1      -1.117   2.354   0.117  1.00  0.00    -0.492 OA
BRANCH  26  27
ATOM     27  C   UNL     1      -2.180   1.635  -0.525  1.00  0.00     0.245 C 
BRANCH  27  28
ATOM     28  C   UNL     1      -3.277   1.240   0.489  1.00  0.00     0.126 C 
BRANCH  28  29
ATOM     29  N   UNL     1      -4.471   0.570  -0.046  1.00  0.00    -0.297 NA
ATOM     30  C   UNL     1      -5.195   1.321  -1.075  1.00  0.00     0.100 C 
ATOM     31  C   UNL     1      -4.266  -0.844  -0.419  1.00  0.00     0.100 C 
ATOM     32  C   UNL     1      -6.540   0.637  -1.440  1.00  0.00     0.096 C 
ATOM     33  C   UNL     1      -5.134  -1.342  -1.604  1.00  0.00     0.096 C 
ATOM     34  N   UNL     1      -6.505  -0.827  -1.597  1.00  0.00    -0.314 NA
ATOM     35  H   UNL     1      -6.984  -1.093  -2.461  1.00  0.00     0.122 HD
ENDBRANCH  28  29
ENDBRANCH  27  28
ENDBRANCH  26  27
ENDBRANCH   4  26
TORSDOF 8
