REMARK SMILES Nc1nonc1-n1nnc(-c2n[nH]c(-c3cncc(Cl)c3)n2)c1CN1CCCC1
REMARK SMILES IDX 7 1 8 2 9 3 10 4 23 5 6 6 2 7 3 8 4 9 5 10 1 11 24 14 25 15
REMARK SMILES IDX 26 16 29 17 27 18 28 19 11 20 12 21 22 22 13 23 14 24 15 26
REMARK SMILES IDX 16 27 21 28 17 29 19 30 18 31 20 32
REMARK H PARENT 1 12 1 13 13 25
ROOT
ATOM      1  N   UNL     1      -1.564   2.312  -0.387  1.00  0.00    -0.190 N 
ATOM      2  N   UNL     1      -0.538   3.085   0.081  1.00  0.00    -0.060 NA
ATOM      3  N   UNL     1       0.578   2.380   0.064  1.00  0.00    -0.126 NA
ATOM      4  C   UNL     1       0.285   1.137  -0.415  1.00  0.00     0.157 A 
ATOM      5  C   UNL     1      -1.068   1.049  -0.701  1.00  0.00     0.092 A 
ENDROOT
BRANCH   1   6
ATOM      6  C   UNL     1      -2.873   2.849  -0.501  1.00  0.00     0.243 A 
ATOM      7  C   UNL     1      -3.317   4.132  -0.120  1.00  0.00     0.215 A 
ATOM      8  N   UNL     1      -4.609   4.241  -0.429  1.00  0.00    -0.030 NA
ATOM      9  O   UNL     1      -4.962   3.020  -0.990  1.00  0.00    -0.240 OA
ATOM     10  N   UNL     1      -3.874   2.151  -1.037  1.00  0.00    -0.027 NA
BRANCH   7  11
ATOM     11  N   UNL     1      -2.592   5.104   0.462  1.00  0.00    -0.378 N 
ATOM     12  H   UNL     1      -2.962   6.048   0.501  1.00  0.00     0.158 HD
ATOM     13  H   UNL     1      -1.575   5.044   0.512  1.00  0.00     0.158 HD
ENDBRANCH   7  11
ENDBRANCH   1   6
BRANCH   5  14
ATOM     14  C   UNL     1      -1.853  -0.107  -1.203  1.00  0.00     0.143 C 
BRANCH  14  15
ATOM     15  N   UNL     1      -2.120  -1.058  -0.123  1.00  0.00    -0.297 NA
ATOM     16  C   UNL     1      -2.520  -2.370  -0.636  1.00  0.00     0.085 C 
ATOM     17  C   UNL     1      -3.208  -0.662   0.771  1.00  0.00     0.085 C 
ATOM     18  C   UNL     1      -3.089  -3.068   0.591  1.00  0.00     0.017 C 
ATOM     19  C   UNL     1      -3.488  -1.944   1.540  1.00  0.00     0.017 C 
ENDBRANCH  14  15
ENDBRANCH   5  14
BRANCH   4  20
ATOM     20  C   UNL     1       1.349   0.139  -0.556  1.00  0.00     0.204 A 
ATOM     21  N   UNL     1       1.259  -0.997  -1.261  1.00  0.00    -0.151 NA
ATOM     22  N   UNL     1       2.577   0.340   0.026  1.00  0.00    -0.205 NA
ATOM     23  N   UNL     1       2.471  -1.535  -1.064  1.00  0.00    -0.259 N 
ATOM     24  C   UNL     1       3.274  -0.733  -0.297  1.00  0.00     0.157 A 
ATOM     25  H   UNL     1       2.677  -2.434  -1.482  1.00  0.00     0.192 HD
BRANCH  24  26
ATOM     26  C   UNL     1       4.652  -1.018   0.090  1.00  0.00     0.039 A 
ATOM     27  C   UNL     1       5.329  -2.179  -0.281  1.00  0.00     0.123 A 
ATOM     28  C   UNL     1       5.361  -0.098   0.875  1.00  0.00     0.035 A 
ATOM     29  N   UNL     1       6.608  -2.469   0.063  1.00  0.00    -0.262 NA
ATOM     30  C   UNL     1       6.675  -0.365   1.246  1.00  0.00     0.060 A 
ATOM     31  C   UNL     1       7.252  -1.550   0.822  1.00  0.00     0.131 A 
ATOM     32  Cl  UNL     1       7.558   0.750   2.207  1.00  0.00    -0.083 Cl
ENDBRANCH  24  26
ENDBRANCH   4  20
TORSDOF 6
