MODEL        2USER    Run = 2USERUSER    Estimated Free Energy of Binding    =  -9.40 kcal/mol  [=(1)+(2)+(3)-(4)]USERUSER    (1) Final Intermolecular Energy     = -11.79 kcal/molUSER        vdW + Hbond + desolv Energy     = -11.64 kcal/molUSER        Electrostatic Energy            =  -0.15 kcal/molUSER        Moving Ligand-Fixed Receptor    = -11.79 kcal/molUSER        Moving Ligand-Moving Receptor   =  +0.00 kcal/molUSER    (2) Final Total Internal Energy     =  -2.27 kcal/molUSER    (3) Torsional Free Energy           =  +2.39 kcal/molUSER    (4) Unbound System's Energy         =  -2.27 kcal/molUSERUSERREMARK SMILES N#Cc1ccc(C2=C(Nc3ccc(OCCO)cc3)C(=O)NC2=O)cc1REMARK SMILES IDX 10 1 11 2 12 3 13 4 18 5 19 6 9 7 8 9 7 10 23 11 20 12 22 13REMARK SMILES IDX 24 14 21 15 6 17 3 18 4 19 26 20 5 21 25 22 2 23 1 24 14 25REMARK SMILES IDX 15 26 16 27 17 28REMARK H PARENT 9 8 22 16 17 29USER                              x       y       z     vdW  Elec       q    TypeUSER                           _______ _______ _______ _____ _____    ______ ____ROOTATOM      1  C   UNL     1      38.867  44.912  18.586 -0.37 -0.00    +0.039 A  ATOM      2  C   UNL     1      37.901  45.176  17.604 -0.35 -0.01    +0.030 A  ATOM      3  C   UNL     1      36.535  45.044  17.875 -0.30 -0.02    +0.048 A  ATOM      4  C   UNL     1      36.096  44.661  19.141 -0.25 -0.02    +0.119 A  ATOM      5  C   UNL     1      37.042  44.405  20.130 -0.32 -0.00    +0.048 A  ATOM      6  C   UNL     1      38.412  44.536  19.853 -0.34 -0.00    +0.030 A  ENDROOTBRANCH   1   7ATOM      7  N   UNL     1      40.220  45.098  18.252 -0.19 +0.01    -0.350 N  ATOM      8  H   UNL     1      40.783  44.275  18.446 +0.10 +0.01    +0.167 HD BRANCH   7   9ATOM      9  C   UNL     1      40.946  46.261  18.114 -0.48 -0.01    +0.118 C  ATOM     10  C   UNL     1      40.793  47.254  17.220 -0.52 -0.01    +0.076 C  ATOM     11  C   UNL     1      41.730  48.338  17.582 -0.16 +0.00    +0.261 C  ATOM     12  C   UNL     1      41.980  46.738  19.087 -0.37 +0.02    +0.275 C  ATOM     13  N   UNL     1      42.470  47.902  18.616 -0.38 -0.00    -0.287 N  ATOM     14  O   UNL     1      41.791  49.439  17.063 -0.92 -0.05    -0.269 OA ATOM     15  O   UNL     1      42.300  46.221  20.143 -0.29 -0.06    -0.267 OA ATOM     16  H   UNL     1      43.105  48.485  19.135 -0.44 -0.02    +0.173 HD BRANCH  10  17ATOM     17  C   UNL     1      39.847  47.304  16.102 -0.50 +0.00    -0.010 A  ATOM     18  C   UNL     1      38.028  47.405  13.953 -0.47 -0.02    +0.052 A  ATOM     19  C   UNL     1      38.831  46.278  14.140 -0.35 -0.00    +0.020 A  ATOM     20  C   UNL     1      38.139  48.485  14.832 -0.53 -0.01    +0.020 A  ATOM     21  C   UNL     1      39.738  46.229  15.206 -0.41 -0.00    +0.010 A  ATOM     22  C   UNL     1      39.045  48.435  15.898 -0.45 -0.01    +0.010 A  BRANCH  18  23ATOM     23  C   UNL     1      37.095  47.453  12.864 -0.60 -0.03    +0.099 C  ATOM     24  N   UNL     1      36.349  47.489  11.976 -0.75 +0.09    -0.192 NA ENDBRANCH  18  23ENDBRANCH  10  17ENDBRANCH   7   9ENDBRANCH   1   7BRANCH   4  25ATOM     25  O   UNL     1      34.739  44.571  19.268 -0.12 +0.12    -0.491 OA BRANCH  25  26ATOM     26  C   UNL     1      33.932  44.696  18.100 -0.24 -0.10    +0.257 C  BRANCH  26  27ATOM     27  C   UNL     1      33.559  46.152  17.834 -0.29 -0.17    +0.197 C  BRANCH  27  28ATOM     28  O   UNL     1      34.176  47.019  18.780 -0.95 +0.26    -0.393 OA ATOM     29  H   UNL     1      34.114  46.597  19.655 -0.41 -0.12    +0.210 HD ENDBRANCH  27  28ENDBRANCH  26  27ENDBRANCH  25  26ENDBRANCH   4  25TORSDOF 8TERENDMDL