
     RDKit          3D

 40 44  0  0  0  0  0  0  0  0999 V2000
   -4.7225    1.4719    2.2773 C   0  0  0  0  0  0  0  0  0  0  0  0
   -4.4505    0.2499    1.6048 O   0  0  0  0  0  0  0  0  0  0  0  0
   -3.7166    0.4398    0.3823 C   0  0  2  0  0  0  0  0  0  0  0  0
   -4.7102    0.6130   -0.7978 C   0  0  0  0  0  0  0  0  0  0  0  0
   -4.9666   -0.6305   -1.6006 C   0  0  0  0  0  0  0  0  0  0  0  0
   -4.1806   -1.7047   -1.4932 C   0  0  0  0  0  0  0  0  0  0  0  0
   -4.4242   -2.7943   -2.2485 F   0  0  0  0  0  0  0  0  0  0  0  0
   -3.0371   -1.7343   -0.6253 C   0  0  0  0  0  0  0  0  0  0  0  0
   -2.7724   -0.7514    0.2608 C   0  0  0  0  0  0  0  0  0  0  0  0
   -1.6345   -0.7691    1.1965 C   0  0  0  0  0  0  0  0  0  0  0  0
   -0.3148   -1.1035    0.7084 C   0  0  0  0  0  0  0  0  0  0  0  0
    0.9990   -1.1035    0.2868 C   0  0  0  0  0  0  0  0  0  0  0  0
    1.5246    0.1488    0.3618 C   0  0  0  0  0  0  0  0  0  0  0  0
    2.9346    0.6916    0.0121 C   0  0  0  0  0  0  0  0  0  0  0  0
    3.1826    1.9974    0.1884 N   0  0  0  0  0  0  0  0  0  0  0  0
    4.4610    2.1295   -0.1987 N   0  0  0  0  0  0  0  0  0  0  0  0
    5.0484    0.9673   -0.6177 C   0  0  0  0  0  0  0  0  0  0  0  0
    6.3397    0.7038   -1.0874 C   0  0  0  0  0  0  0  0  0  0  0  0
    6.6327   -0.6157   -1.4422 C   0  0  0  0  0  0  0  0  0  0  0  0
    5.6727   -1.6195   -1.3295 C   0  0  0  0  0  0  0  0  0  0  0  0
    4.3853   -1.3321   -0.8563 C   0  0  0  0  0  0  0  0  0  0  0  0
    4.0640   -0.0098   -0.4916 C   0  0  0  0  0  0  0  0  0  0  0  0
    0.5290    0.9290    0.8373 N   0  0  0  0  0  0  0  0  0  0  0  0
   -0.6161    0.2660    1.0740 C   0  0  0  0  0  0  0  0  0  0  0  0
   -5.3217    1.2494    3.1643 H   0  0  0  0  0  0  0  0  0  0  0  0
   -5.2877    2.1546    1.6362 H   0  0  0  0  0  0  0  0  0  0  0  0
   -3.7890    1.9437    2.5992 H   0  0  0  0  0  0  0  0  0  0  0  0
   -3.1200    1.3593    0.4533 H   0  0  0  0  0  0  0  0  0  0  0  0
   -4.3114    1.3662   -1.4891 H   0  0  0  0  0  0  0  0  0  0  0  0
   -5.6717    0.9895   -0.4303 H   0  0  0  0  0  0  0  0  0  0  0  0
   -5.8015   -0.6429   -2.2923 H   0  0  0  0  0  0  0  0  0  0  0  0
   -2.3948   -2.6057   -0.7060 H   0  0  0  0  0  0  0  0  0  0  0  0
   -1.8976   -1.0952    2.1957 H   0  0  0  0  0  0  0  0  0  0  0  0
    1.5306   -1.9790   -0.0560 H   0  0  0  0  0  0  0  0  0  0  0  0
    4.8834    3.0493   -0.1542 H   0  0  0  0  0  0  0  0  0  0  0  0
    7.0877    1.4848   -1.1755 H   0  0  0  0  0  0  0  0  0  0  0  0
    7.6256   -0.8629   -1.8122 H   0  0  0  0  0  0  0  0  0  0  0  0
    5.9234   -2.6397   -1.6117 H   0  0  0  0  0  0  0  0  0  0  0  0
    3.6554   -2.1299   -0.7775 H   0  0  0  0  0  0  0  0  0  0  0  0
    0.6619    1.9187    0.9911 H   0  0  0  0  0  0  0  0  0  0  0  0
  1  2  1  0
  2  3  1  0
  3  4  1  0
  4  5  1  0
  5  6  2  0
  6  7  1  0
  6  8  1  0
  8  9  2  0
  9 10  1  0
 10 11  1  0
 11 12  1  0
 12 13  2  0
 13 14  1  0
 14 15  2  0
 15 16  1  0
 16 17  1  0
 17 18  2  0
 18 19  1  0
 19 20  2  0
 20 21  1  0
 21 22  2  0
 13 23  1  0
 23 24  1  0
  9  3  1  0
 24 10  1  0
 24 11  2  0
 22 14  1  0
 22 17  1  0
  1 25  1  0
  1 26  1  0
  1 27  1  0
  3 28  1  1
  4 29  1  0
  4 30  1  0
  5 31  1  0
  8 32  1  0
 10 33  1  0
 12 34  1  0
 16 35  1  0
 18 36  1  0
 19 37  1  0
 20 38  1  0
 21 39  1  0
 23 40  1  0
M  END
$$$$
