
     RDKit          3D

 48 50  0  0  0  0  0  0  0  0999 V2000
    6.8806   -0.3864   -2.4907 C   0  0  0  0  0  0  0  0  0  0  0  0
    5.7662    0.2229   -1.8514 O   0  0  0  0  0  0  0  0  0  0  0  0
    5.5216   -0.0973   -0.5401 C   0  0  0  0  0  0  0  0  0  0  0  0
    6.2298   -1.0775    0.1662 C   0  0  0  0  0  0  0  0  0  0  0  0
    5.9408   -1.3321    1.5071 C   0  0  0  0  0  0  0  0  0  0  0  0
    4.9280   -0.6255    2.1421 C   0  0  0  0  0  0  0  0  0  0  0  0
    4.7311   -0.9009    3.4694 O   0  0  0  0  0  0  0  0  0  0  0  0
    4.1628    0.3174    1.4416 C   0  0  0  0  0  0  0  0  0  0  0  0
    3.0505    0.9520    2.1800 C   0  0  0  0  0  0  0  0  0  0  0  0
    3.2916    1.3987    3.3013 O   0  0  0  0  0  0  0  0  0  0  0  0
    1.6545    0.9460    1.6743 C   0  0  0  0  0  0  0  0  0  0  0  0
    1.1820   -0.0608    0.8224 C   0  0  0  0  0  0  0  0  0  0  0  0
   -0.1456   -0.0377    0.3793 C   0  0  0  0  0  0  0  0  0  0  0  0
   -1.0108    0.9807    0.8012 C   0  0  0  0  0  0  0  0  0  0  0  0
   -2.4284    1.0520    0.3525 C   0  0  0  0  0  0  0  0  0  0  0  0
   -2.9907    2.1371    0.2622 O   0  0  0  0  0  0  0  0  0  0  0  0
   -3.0497   -0.1479    0.0797 N   0  0  0  0  0  0  0  0  0  0  0  0
   -4.4273   -0.1986   -0.3942 C   0  0  2  0  0  0  0  0  0  0  0  0
   -5.0022   -1.6077   -0.2438 C   0  0  0  0  0  0  0  0  0  0  0  0
   -6.4524   -1.6769   -0.7343 C   0  0  0  0  0  0  0  0  0  0  0  0
   -6.8214   -0.5495   -1.7017 C   0  0  0  0  0  0  0  0  0  0  0  0
   -5.7104   -0.2586   -2.5980 N   0  0  0  0  0  0  0  0  0  0  0  0
   -4.5484    0.2744   -1.8673 C   0  0  0  0  0  0  0  0  0  0  0  0
   -0.5346    1.9847    1.6536 C   0  0  0  0  0  0  0  0  0  0  0  0
    0.7897    1.9616    2.0981 C   0  0  0  0  0  0  0  0  0  0  0  0
    4.4859    0.6123    0.1067 C   0  0  0  0  0  0  0  0  0  0  0  0
    3.6138    2.0310   -0.8349 Br  0  0  0  0  0  0  0  0  0  0  0  0
    6.9556    0.0305   -3.4996 H   0  0  0  0  0  0  0  0  0  0  0  0
    7.8136   -0.1567   -1.9656 H   0  0  0  0  0  0  0  0  0  0  0  0
    6.7347   -1.4670   -2.5876 H   0  0  0  0  0  0  0  0  0  0  0  0
    7.0281   -1.6527   -0.2926 H   0  0  0  0  0  0  0  0  0  0  0  0
    6.5131   -2.0736    2.0595 H   0  0  0  0  0  0  0  0  0  0  0  0
    4.2545   -0.1381    3.8683 H   0  0  0  0  0  0  0  0  0  0  0  0
    1.8285   -0.8701    0.4925 H   0  0  0  0  0  0  0  0  0  0  0  0
   -0.4780   -0.8058   -0.3135 H   0  0  0  0  0  0  0  0  0  0  0  0
   -2.5671   -1.0209    0.2390 H   0  0  0  0  0  0  0  0  0  0  0  0
   -5.0122    0.4827    0.2388 H   0  0  0  0  0  0  0  0  0  0  0  0
   -4.9452   -1.9444    0.7984 H   0  0  0  0  0  0  0  0  0  0  0  0
   -4.3929   -2.3145   -0.8233 H   0  0  0  0  0  0  0  0  0  0  0  0
   -6.6150   -2.6510   -1.2121 H   0  0  0  0  0  0  0  0  0  0  0  0
   -7.1323   -1.6362    0.1253 H   0  0  0  0  0  0  0  0  0  0  0  0
   -7.1131    0.3532   -1.1505 H   0  0  0  0  0  0  0  0  0  0  0  0
   -7.6960   -0.8536   -2.2874 H   0  0  0  0  0  0  0  0  0  0  0  0
   -5.9952    0.4187   -3.3054 H   0  0  0  0  0  0  0  0  0  0  0  0
   -3.6503   -0.0090   -2.4292 H   0  0  0  0  0  0  0  0  0  0  0  0
   -4.5859    1.3708   -1.8819 H   0  0  0  0  0  0  0  0  0  0  0  0
   -1.1966    2.7863    1.9774 H   0  0  0  0  0  0  0  0  0  0  0  0
    1.1447    2.7425    2.7684 H   0  0  0  0  0  0  0  0  0  0  0  0
  1  2  1  0
  2  3  1  0
  3  4  2  0
  4  5  1  0
  5  6  2  0
  6  7  1  0
  6  8  1  0
  8  9  1  0
  9 10  2  0
  9 11  1  0
 11 12  2  0
 12 13  1  0
 13 14  2  0
 14 15  1  0
 15 16  2  0
 15 17  1  0
 17 18  1  0
 18 19  1  0
 19 20  1  0
 20 21  1  0
 21 22  1  0
 22 23  1  0
 14 24  1  0
 24 25  2  0
  8 26  2  0
 26 27  1  0
 26  3  1  0
 25 11  1  0
 23 18  1  0
  1 28  1  0
  1 29  1  0
  1 30  1  0
  4 31  1  0
  5 32  1  0
  7 33  1  0
 12 34  1  0
 13 35  1  0
 17 36  1  0
 18 37  1  1
 19 38  1  0
 19 39  1  0
 20 40  1  0
 20 41  1  0
 21 42  1  0
 21 43  1  0
 22 44  1  0
 23 45  1  0
 23 46  1  0
 24 47  1  0
 25 48  1  0
M  END
$$$$
