
     RDKit          3D

 51 53  0  0  0  0  0  0  0  0999 V2000
    7.1697    1.2186   -2.5642 C   0  0  0  0  0  0  0  0  0  0  0  0
    5.9512    1.0392   -1.8518 O   0  0  0  0  0  0  0  0  0  0  0  0
    6.0014    0.2676   -0.7234 C   0  0  0  0  0  0  0  0  0  0  0  0
    7.1352   -0.3662   -0.2136 C   0  0  0  0  0  0  0  0  0  0  0  0
    7.0498   -1.1143    0.9633 C   0  0  0  0  0  0  0  0  0  0  0  0
    5.8315   -1.2367    1.6247 C   0  0  0  0  0  0  0  0  0  0  0  0
    5.8385   -1.9617    2.7860 O   0  0  0  0  0  0  0  0  0  0  0  0
    4.6768   -0.6366    1.1066 C   0  0  0  0  0  0  0  0  0  0  0  0
    3.3854   -0.7976    1.8221 C   0  0  0  0  0  0  0  0  0  0  0  0
    3.4085   -1.0268    3.0317 O   0  0  0  0  0  0  0  0  0  0  0  0
    2.0742   -0.7138    1.1357 C   0  0  0  0  0  0  0  0  0  0  0  0
    1.8702   -1.2750   -0.1295 C   0  0  0  0  0  0  0  0  0  0  0  0
    0.6105   -1.1943   -0.7306 C   0  0  0  0  0  0  0  0  0  0  0  0
   -0.4524   -0.5613   -0.0711 C   0  0  0  0  0  0  0  0  0  0  0  0
   -1.7763   -0.5086   -0.7530 C   0  0  0  0  0  0  0  0  0  0  0  0
   -2.0597   -1.3429   -1.6040 O   0  0  0  0  0  0  0  0  0  0  0  0
   -2.6115    0.5293   -0.3920 N   0  0  0  0  0  0  0  0  0  0  0  0
   -3.8870    0.7560   -1.0794 C   0  0  2  0  0  0  0  0  0  0  0  0
   -4.4985    2.0990   -0.6362 C   0  0  0  0  0  0  0  0  0  0  0  0
   -5.4429    1.8977    0.5437 C   0  0  0  0  0  0  0  0  0  0  0  0
   -6.5937    0.9441    0.1902 C   0  0  0  0  0  0  0  0  0  0  0  0
   -6.2736    0.0217   -0.9082 N   0  0  0  0  0  0  0  0  0  0  0  0
   -7.1925   -1.1137   -0.9234 C   0  0  0  0  0  0  0  0  0  0  0  0
   -4.8744   -0.4231   -0.8467 C   0  0  0  0  0  0  0  0  0  0  0  0
   -0.2548   -0.0357    1.2124 C   0  0  0  0  0  0  0  0  0  0  0  0
    1.0054   -0.1146    1.8137 C   0  0  0  0  0  0  0  0  0  0  0  0
    4.7772    0.1356   -0.0578 C   0  0  0  0  0  0  0  0  0  0  0  0
    6.9607    1.8574   -3.4277 H   0  0  0  0  0  0  0  0  0  0  0  0
    7.9169    1.7274   -1.9462 H   0  0  0  0  0  0  0  0  0  0  0  0
    7.5505    0.2635   -2.9407 H   0  0  0  0  0  0  0  0  0  0  0  0
    8.1031   -0.2913   -0.6986 H   0  0  0  0  0  0  0  0  0  0  0  0
    7.9357   -1.5951    1.3707 H   0  0  0  0  0  0  0  0  0  0  0  0
    4.9767   -1.8098    3.2368 H   0  0  0  0  0  0  0  0  0  0  0  0
    2.6696   -1.7950   -0.6521 H   0  0  0  0  0  0  0  0  0  0  0  0
    0.4551   -1.6349   -1.7146 H   0  0  0  0  0  0  0  0  0  0  0  0
   -2.2109    1.3061    0.1151 H   0  0  0  0  0  0  0  0  0  0  0  0
   -3.6563    0.8263   -2.1504 H   0  0  0  0  0  0  0  0  0  0  0  0
   -3.7222    2.8301   -0.3824 H   0  0  0  0  0  0  0  0  0  0  0  0
   -5.0681    2.5273   -1.4714 H   0  0  0  0  0  0  0  0  0  0  0  0
   -5.8506    2.8619    0.8677 H   0  0  0  0  0  0  0  0  0  0  0  0
   -4.8766    1.4898    1.3906 H   0  0  0  0  0  0  0  0  0  0  0  0
   -7.4666    1.5377   -0.1077 H   0  0  0  0  0  0  0  0  0  0  0  0
   -6.8754    0.4021    1.1026 H   0  0  0  0  0  0  0  0  0  0  0  0
   -7.1013   -1.7316   -0.0229 H   0  0  0  0  0  0  0  0  0  0  0  0
   -8.2292   -0.7680   -1.0021 H   0  0  0  0  0  0  0  0  0  0  0  0
   -7.0056   -1.7483   -1.7967 H   0  0  0  0  0  0  0  0  0  0  0  0
   -4.6883   -1.1777   -1.6213 H   0  0  0  0  0  0  0  0  0  0  0  0
   -4.6751   -0.9104    0.1180 H   0  0  0  0  0  0  0  0  0  0  0  0
   -1.0741    0.4059    1.7729 H   0  0  0  0  0  0  0  0  0  0  0  0
    1.1497    0.2812    2.8177 H   0  0  0  0  0  0  0  0  0  0  0  0
    3.9143    0.6593   -0.4611 H   0  0  0  0  0  0  0  0  0  0  0  0
  1  2  1  0
  2  3  1  0
  3  4  2  0
  4  5  1  0
  5  6  2  0
  6  7  1  0
  6  8  1  0
  8  9  1  0
  9 10  2  0
  9 11  1  0
 11 12  2  0
 12 13  1  0
 13 14  2  0
 14 15  1  0
 15 16  2  0
 15 17  1  0
 17 18  1  0
 18 19  1  0
 19 20  1  0
 20 21  1  0
 21 22  1  0
 22 23  1  0
 22 24  1  0
 14 25  1  0
 25 26  2  0
  8 27  2  0
 27  3  1  0
 26 11  1  0
 24 18  1  0
  1 28  1  0
  1 29  1  0
  1 30  1  0
  4 31  1  0
  5 32  1  0
  7 33  1  0
 12 34  1  0
 13 35  1  0
 17 36  1  0
 18 37  1  6
 19 38  1  0
 19 39  1  0
 20 40  1  0
 20 41  1  0
 21 42  1  0
 21 43  1  0
 23 44  1  0
 23 45  1  0
 23 46  1  0
 24 47  1  0
 24 48  1  0
 25 49  1  0
 26 50  1  0
 27 51  1  0
M  END
$$$$
