REMARK SMILES COc1ccc(O)c(C(=O)c2ccc(C(=O)N[C@H]3CCN(C)[C@H](O)C3)cc2)c1F
REMARK SMILES IDX 11 1 12 2 13 3 14 4 26 5 27 6 9 7 10 8 8 9 3 10 4 11 28 12
REMARK SMILES IDX 5 13 6 14 29 15 2 16 1 17 7 18 15 20 17 21 16 22 18 24 19 25
REMARK SMILES IDX 25 26 20 27 23 28 21 29 22 30 24 31
REMARK H PARENT 7 19 17 23 24 32
ROOT
ATOM      1  C   UNL     1       2.425  -0.463  -1.084  1.00  0.00     0.023 A 
ATOM      2  C   UNL     1       2.147   0.657  -0.292  1.00  0.00     0.013 A 
ATOM      3  C   UNL     1       0.875   0.813   0.267  1.00  0.00     0.014 A 
ATOM      4  C   UNL     1      -0.131  -0.133   0.022  1.00  0.00     0.039 A 
ATOM      5  C   UNL     1       0.151  -1.251  -0.774  1.00  0.00     0.014 A 
ATOM      6  C   UNL     1       1.422  -1.408  -1.334  1.00  0.00     0.013 A 
ENDROOT
BRANCH   1   7
ATOM      7  C   UNL     1       3.745  -0.650  -1.731  1.00  0.00     0.199 C 
ATOM      8  O   UNL     1       3.782  -1.084  -2.884  1.00  0.00    -0.288 OA
BRANCH   7   9
ATOM      9  C   UNL     1       5.025  -0.289  -1.085  1.00  0.00     0.104 A 
ATOM     10  C   UNL     1       6.431  -0.047   0.893  1.00  0.00     0.155 A 
ATOM     11  C   UNL     1       7.475   0.418   0.090  1.00  0.00     0.053 A 
ATOM     12  C   UNL     1       5.214  -0.404   0.293  1.00  0.00     0.179 A 
ATOM     13  C   UNL     1       7.308   0.508  -1.294  1.00  0.00     0.051 A 
ATOM     14  C   UNL     1       6.096   0.142  -1.877  1.00  0.00     0.130 A 
ATOM     15  F   UNL     1       4.230  -0.887   1.069  1.00  0.00    -0.202 F 
BRANCH  10  16
ATOM     16  O   UNL     1       6.482  -0.195   2.252  1.00  0.00    -0.494 OA
ATOM     17  C   UNL     1       7.703   0.142   2.900  1.00  0.00     0.278 C 
ENDBRANCH  10  16
BRANCH  14  18
ATOM     18  O   UNL     1       6.026   0.228  -3.242  1.00  0.00    -0.507 OA
ATOM     19  H   UNL     1       5.224  -0.263  -3.533  1.00  0.00     0.293 HD
ENDBRANCH  14  18
ENDBRANCH   7   9
ENDBRANCH   1   7
BRANCH   4  20
ATOM     20  C   UNL     1      -1.470   0.085   0.637  1.00  0.00     0.251 C 
ATOM     21  N   UNL     1      -2.546  -0.474  -0.026  1.00  0.00    -0.349 N 
ATOM     22  O   UNL     1      -1.575   0.756   1.656  1.00  0.00    -0.269 OA
ATOM     23  H   UNL     1      -2.411  -0.764  -0.985  1.00  0.00     0.164 HD
BRANCH  21  24
ATOM     24  C   UNL     1      -3.919  -0.194   0.392  1.00  0.00     0.087 C 
ATOM     25  C   UNL     1      -4.400   1.141  -0.181  1.00  0.00     0.040 C 
ATOM     26  C   UNL     1      -4.850  -1.326  -0.048  1.00  0.00     0.073 C 
ATOM     27  C   UNL     1      -5.871   1.381   0.150  1.00  0.00     0.089 C 
ATOM     28  C   UNL     1      -6.310  -1.002   0.280  1.00  0.00     0.186 C 
ATOM     29  N   UNL     1      -6.705   0.268  -0.324  1.00  0.00    -0.281 NA
ATOM     30  C   UNL     1      -8.119   0.551  -0.079  1.00  0.00     0.108 C 
BRANCH  28  31
ATOM     31  O   UNL     1      -6.499  -0.990   1.686  1.00  0.00    -0.378 OA
ATOM     32  H   UNL     1      -6.254  -1.871   2.015  1.00  0.00     0.212 HD
ENDBRANCH  28  31
ENDBRANCH  21  24
ENDBRANCH   4  20
TORSDOF 7
