MODEL        2USER    Run = 2USERUSER    Estimated Free Energy of Binding    =  -9.17 kcal/mol  [=(1)+(2)+(3)-(4)]USERUSER    (1) Final Intermolecular Energy     = -10.36 kcal/molUSER        vdW + Hbond + desolv Energy     = -10.26 kcal/molUSER        Electrostatic Energy            =  -0.10 kcal/molUSER        Moving Ligand-Fixed Receptor    = -10.36 kcal/molUSER        Moving Ligand-Moving Receptor   =  +0.00 kcal/molUSER    (2) Final Total Internal Energy     =  -1.41 kcal/molUSER    (3) Torsional Free Energy           =  +1.19 kcal/molUSER    (4) Unbound System's Energy         =  -1.41 kcal/molUSERUSERREMARK SMILES C[C@@H](O)[C@@H]1CCc2cccc(-c3ccnc(NC(N)=O)c3)c2O1REMARK SMILES IDX 4 1 5 2 6 3 7 4 8 5 9 6 10 7 11 8 22 9 23 10 2 11 1 12 3 13REMARK SMILES IDX 12 15 13 16 21 17 14 18 16 19 15 20 17 21 18 22 19 23 20 25REMARK H PARENT 3 14 17 24 19 26 19 27USER                              x       y       z     vdW  Elec       q    TypeUSER                           _______ _______ _______ _____ _____    ______ ____ROOTATOM      1  C   UNL     1      36.030  45.762  17.233 -0.27 -0.11    +0.202 C  ATOM      2  C   UNL     1      34.641  45.865  16.608 -0.33 -0.05    +0.053 C  ATOM      3  C   UNL     1      34.665  45.569  15.120 -0.37 -0.04    +0.043 C  ATOM      4  C   UNL     1      35.824  46.257  14.461 -0.42 +0.00    -0.005 A  ATOM      5  C   UNL     1      35.816  46.420  13.069 -0.56 -0.00    +0.007 A  ATOM      6  C   UNL     1      36.873  47.056  12.426 -0.67 -0.00    +0.001 A  ATOM      7  C   UNL     1      37.954  47.527  13.170 -0.44 -0.00    +0.012 A  ATOM      8  C   UNL     1      38.003  47.365  14.566 -0.46 -0.01    +0.024 A  ATOM      9  C   UNL     1      36.921  46.714  15.205 -0.31 -0.08    +0.130 A  ATOM     10  O   UNL     1      36.992  46.600  16.570 -0.11 +0.30    -0.487 OA ENDROOTBRANCH   1  11ATOM     11  C   UNL     1      36.615  44.340  17.427 -0.28 -0.05    +0.152 C  ATOM     12  C   UNL     1      35.699  43.255  16.874 -0.43 -0.01    +0.042 C  BRANCH  11  13ATOM     13  O   UNL     1      37.892  44.190  16.809 -0.13 +0.09    -0.390 OA ATOM     14  H   UNL     1      38.162  45.063  16.474 +0.14 -0.06    +0.211 HD ENDBRANCH  11  13ENDBRANCH   1  11BRANCH   8  15ATOM     15  C   UNL     1      39.176  47.862  15.309 -0.51 +0.00    -0.009 A  ATOM     16  C   UNL     1      39.514  47.335  16.558 -0.46 -0.01    +0.029 A  ATOM     17  C   UNL     1      39.999  48.867  14.776 -0.49 -0.02    +0.056 A  ATOM     18  C   UNL     1      40.630  47.827  17.208 -0.41 -0.02    +0.114 A  ATOM     19  C   UNL     1      41.102  49.301  15.498 -0.53 -0.02    +0.134 A  ATOM     20  N   UNL     1      41.430  48.791  16.706 -0.91 -0.00    -0.239 NA BRANCH  19  21ATOM     21  N   UNL     1      41.988  50.284  15.058 -0.42 +0.03    -0.293 N  ATOM     22  C   UNL     1      42.630  50.375  13.863 -0.42 -0.07    +0.317 C  ATOM     23  N   UNL     1      43.447  51.466  13.800 -0.17 +0.12    -0.351 N  ATOM     24  H   UNL     1      42.057  51.059  15.697 -0.32 -0.03    +0.173 HD ATOM     25  O   UNL     1      42.549  49.626  12.901 -0.56 +0.05    -0.249 OA ATOM     26  H   UNL     1      44.006  51.478  12.955 -0.14 -0.08    +0.161 HD ATOM     27  H   UNL     1      43.960  51.698  14.637 -0.26 -0.03    +0.161 HD ENDBRANCH  19  21ENDBRANCH   8  15TORSDOF 4TERENDMDL