MODEL        2USER    Run = 2USERUSER    Estimated Free Energy of Binding    =  -9.67 kcal/mol  [=(1)+(2)+(3)-(4)]USERUSER    (1) Final Intermolecular Energy     = -10.86 kcal/molUSER        vdW + Hbond + desolv Energy     = -10.80 kcal/molUSER        Electrostatic Energy            =  -0.06 kcal/molUSER        Moving Ligand-Fixed Receptor    = -10.86 kcal/molUSER        Moving Ligand-Moving Receptor   =  +0.00 kcal/molUSER    (2) Final Total Internal Energy     =  -0.64 kcal/molUSER    (3) Torsional Free Energy           =  +1.19 kcal/molUSER    (4) Unbound System's Energy         =  -0.64 kcal/molUSERUSERREMARK SMILES O=c1[nH]c2cc(Cl)ccc2nc1-c1ccc(CCN2CCNCC2)cc1REMARK SMILES IDX 17 1 16 2 13 3 14 4 26 5 15 6 25 7 12 8 2 9 3 10 4 11 11 12REMARK SMILES IDX 5 13 10 14 6 15 9 16 8 17 1 18 7 20 18 21 19 22 20 23 24 24REMARK SMILES IDX 21 25 23 26 22 27REMARK H PARENT 3 19 22 28USER                              x       y       z     vdW  Elec       q    TypeUSER                           _______ _______ _______ _____ _____    ______ ____ROOTATOM      1  C   UNL     1      43.678  46.279  21.759 -0.29 +0.03    +0.051 C  ENDROOTBRANCH   1   2ATOM      2  C   UNL     1      42.852  46.521  20.517 -0.31 -0.02    -0.047 A  ATOM      3  C   UNL     1      41.321  46.976  18.191 -0.52 -0.00    +0.006 A  ATOM      4  C   UNL     1      42.564  47.594  18.351 -0.41 +0.00    +0.011 A  ATOM      5  C   UNL     1      40.837  46.147  19.212 -0.44 +0.00    +0.011 A  ATOM      6  C   UNL     1      43.324  47.365  19.503 -0.44 +0.00    +0.004 A  ATOM      7  C   UNL     1      41.598  45.920  20.362 -0.38 +0.00    +0.004 A  BRANCH   3   8ATOM      8  C   UNL     1      40.464  47.201  16.990 -0.41 -0.02    +0.136 A  ATOM      9  C   UNL     1      40.591  48.514  16.192 -0.34 -0.06    +0.274 A  ATOM     10  N   UNL     1      39.730  48.655  15.130 -0.29 +0.12    -0.319 N  ATOM     11  C   UNL     1      38.835  47.649  14.767 -0.45 -0.03    +0.069 A  ATOM     12  N   UNL     1      39.629  46.263  16.633 -0.25 +0.04    -0.240 NA ATOM     13  C   UNL     1      37.996  47.827  13.666 -0.47 -0.02    +0.049 A  ATOM     14  C   UNL     1      38.803  46.467  15.519 -0.36 -0.03    +0.088 A  ATOM     15  C   UNL     1      37.114  46.807  13.316 -0.51 -0.02    +0.043 A  ATOM     16  C   UNL     1      37.911  45.457  15.152 -0.34 -0.01    +0.032 A  ATOM     17  C   UNL     1      37.066  45.623  14.051 -0.41 -0.01    +0.023 A  ATOM     18  O   UNL     1      41.413  49.376  16.465 -1.09 -0.00    -0.267 OA ATOM     19  H   UNL     1      39.804  49.510  14.598 -0.13 -0.10    +0.170 HD ATOM     20  Cl  UNL     1      36.073  47.011  11.961 -0.87 +0.04    -0.084 Cl ENDBRANCH   3   8ENDBRANCH   1   2BRANCH   1  21ATOM     21  C   UNL     1      43.986  47.559  22.563 -0.31 +0.03    +0.089 C  BRANCH  21  22ATOM     22  N   UNL     1      43.609  47.503  23.987 -0.10 -0.06    -0.300 NA ATOM     23  C   UNL     1      44.228  48.593  24.772 -0.25 +0.02    +0.100 C  ATOM     24  C   UNL     1      42.141  47.481  24.167 -0.22 +0.01    +0.100 C  ATOM     25  C   UNL     1      43.411  48.993  26.019 -0.22 +0.01    +0.096 C  ATOM     26  C   UNL     1      41.522  48.857  24.491 -0.37 +0.02    +0.096 C  ATOM     27  N   UNL     1      42.061  49.489  25.709 -0.17 -0.04    -0.314 NA ATOM     28  H   UNL     1      42.089  50.497  25.564 -0.45 +0.02    +0.122 HD ENDBRANCH  21  22ENDBRANCH   1  21TORSDOF 4TERENDMDL