REMARK SMILES C[C@@H](O)[C@@H]1CCc2cccc(-c3ccnc(NC(N)=O)c3)c2O1
REMARK SMILES IDX 4 1 5 2 6 3 7 4 8 5 9 6 10 7 11 8 22 9 23 10 2 11 1 12 3 13
REMARK SMILES IDX 12 15 13 16 21 17 14 18 16 19 15 20 17 21 18 22 19 23 20 25
REMARK H PARENT 3 14 17 24 19 26 19 27
ROOT
ATOM      1  C   UNL     1      -2.339  -0.967   0.948  1.00  0.00     0.202 C 
ATOM      2  C   UNL     1      -3.141   0.148   1.615  1.00  0.00     0.053 C 
ATOM      3  C   UNL     1      -3.261   1.370   0.725  1.00  0.00     0.043 C 
ATOM      4  C   UNL     1      -1.944   1.692   0.084  1.00  0.00    -0.005 A 
ATOM      5  C   UNL     1      -1.747   2.967  -0.464  1.00  0.00     0.007 A 
ATOM      6  C   UNL     1      -0.536   3.299  -1.063  1.00  0.00     0.001 A 
ATOM      7  C   UNL     1       0.487   2.354  -1.129  1.00  0.00     0.012 A 
ATOM      8  C   UNL     1       0.317   1.060  -0.605  1.00  0.00     0.024 A 
ATOM      9  C   UNL     1      -0.920   0.737  -0.001  1.00  0.00     0.130 A 
ATOM     10  O   UNL     1      -1.038  -0.526   0.523  1.00  0.00    -0.487 OA
ENDROOT
BRANCH   1  11
ATOM     11  C   UNL     1      -3.030  -1.749  -0.198  1.00  0.00     0.152 C 
ATOM     12  C   UNL     1      -4.221  -2.564   0.292  1.00  0.00     0.042 C 
BRANCH  11  13
ATOM     13  O   UNL     1      -3.487  -0.891  -1.242  1.00  0.00    -0.390 OA
ATOM     14  H   UNL     1      -3.733  -1.452  -1.998  1.00  0.00     0.211 HD
ENDBRANCH  11  13
ENDBRANCH   1  11
BRANCH   8  15
ATOM     15  C   UNL     1       1.421   0.087  -0.715  1.00  0.00    -0.009 A 
ATOM     16  C   UNL     1       1.255  -1.115  -1.407  1.00  0.00     0.029 A 
ATOM     17  C   UNL     1       2.676   0.348  -0.143  1.00  0.00     0.056 A 
ATOM     18  C   UNL     1       2.324  -1.987  -1.491  1.00  0.00     0.114 A 
ATOM     19  C   UNL     1       3.695  -0.585  -0.278  1.00  0.00     0.134 A 
ATOM     20  N   UNL     1       3.536  -1.748  -0.948  1.00  0.00    -0.239 NA
BRANCH  19  21
ATOM     21  N   UNL     1       4.979  -0.422   0.241  1.00  0.00    -0.293 N 
ATOM     22  C   UNL     1       5.462   0.591   1.009  1.00  0.00     0.317 C 
ATOM     23  N   UNL     1       6.784   0.426   1.306  1.00  0.00    -0.351 N 
ATOM     24  H   UNL     1       5.565  -1.227   0.089  1.00  0.00     0.173 HD
ATOM     25  O   UNL     1       4.866   1.569   1.435  1.00  0.00    -0.249 OA
ATOM     26  H   UNL     1       7.172   1.229   1.786  1.00  0.00     0.161 HD
ATOM     27  H   UNL     1       7.372   0.060   0.572  1.00  0.00     0.161 HD
ENDBRANCH  19  21
ENDBRANCH   8  15
TORSDOF 4
