MODEL        10USER    Run = 10USERUSER    Estimated Free Energy of Binding    =  -9.25 kcal/mol  [=(1)+(2)+(3)-(4)]USERUSER    (1) Final Intermolecular Energy     = -11.33 kcal/molUSER        vdW + Hbond + desolv Energy     = -10.83 kcal/molUSER        Electrostatic Energy            =  -0.50 kcal/molUSER        Moving Ligand-Fixed Receptor    = -11.33 kcal/molUSER        Moving Ligand-Moving Receptor   =  +0.00 kcal/molUSER    (2) Final Total Internal Energy     =  -1.27 kcal/molUSER    (3) Torsional Free Energy           =  +2.09 kcal/molUSER    (4) Unbound System's Energy         =  -1.27 kcal/molUSERUSERREMARK SMILES COc1ccc(O)c(C(=O)c2ccc(C(=O)N[C@H]3CCN(C)[C@H](O)C3)cc2)c1FREMARK SMILES IDX 11 1 12 2 13 3 14 4 26 5 27 6 9 7 10 8 8 9 3 10 4 11 28 12REMARK SMILES IDX 5 13 6 14 29 15 2 16 1 17 7 18 15 20 17 21 16 22 18 24 19 25REMARK SMILES IDX 25 26 20 27 23 28 21 29 22 30 24 31REMARK H PARENT 7 19 17 23 24 32USER                              x       y       z     vdW  Elec       q    TypeUSER                           _______ _______ _______ _____ _____    ______ ____ROOTATOM      1  C   UNL     1      38.340  29.135  20.590 -0.27 +0.00    +0.023 A  ATOM      2  C   UNL     1      38.073  30.426  21.060 -0.35 +0.00    +0.013 A  ATOM      3  C   UNL     1      36.875  30.685  21.733 -0.41 -0.00    +0.014 A  ATOM      4  C   UNL     1      35.930  29.667  21.922 -0.37 -0.01    +0.039 A  ATOM      5  C   UNL     1      36.200  28.377  21.447 -0.33 -0.00    +0.014 A  ATOM      6  C   UNL     1      37.397  28.116  20.773 -0.21 -0.00    +0.013 A  ENDROOTBRANCH   1   7ATOM      7  C   UNL     1      39.576  28.822  19.836 -0.20 +0.08    +0.199 C  ATOM      8  O   UNL     1      40.569  28.441  20.459 -0.17 -0.30    -0.288 OA BRANCH   7   9ATOM      9  C   UNL     1      39.667  28.888  18.362 -0.23 +0.04    +0.104 A  ATOM     10  C   UNL     1      38.686  28.638  16.143 -0.22 +0.01    +0.155 A  ATOM     11  C   UNL     1      39.898  29.024  15.567 -0.29 +0.00    +0.053 A  ATOM     12  C   UNL     1      38.581  28.581  17.541 -0.16 +0.02    +0.179 A  ATOM     13  C   UNL     1      40.984  29.363  16.378 -0.23 +0.01    +0.051 A  ATOM     14  C   UNL     1      40.862  29.310  17.766 -0.27 +0.08    +0.130 A  ATOM     15  F   UNL     1      37.400  28.247  18.086 -0.06 +0.02    -0.202 F  BRANCH  10  16ATOM     16  O   UNL     1      37.553  28.301  15.454 -0.47 +0.02    -0.494 OA ATOM     17  C   UNL     1      37.489  26.991  14.904 -0.26 -0.09    +0.278 C  ENDBRANCH  10  16BRANCH  14  18ATOM     18  O   UNL     1      41.961  29.691  18.489 -0.67 -0.76    -0.507 OA ATOM     19  H   UNL     1      41.651  29.984  19.375 -0.45 +0.44    +0.293 HD ENDBRANCH  14  18ENDBRANCH   7   9ENDBRANCH   1   7BRANCH   4  20ATOM     20  C   UNL     1      34.668  29.999  22.640 -0.31 -0.02    +0.251 C  ATOM     21  N   UNL     1      33.492  29.746  21.960 -0.28 +0.03    -0.349 N  ATOM     22  O   UNL     1      34.711  30.499  23.757 -0.30 -0.02    -0.269 OA ATOM     23  H   UNL     1      33.546  29.602  20.960 -0.49 -0.03    +0.164 HD BRANCH  21  24ATOM     24  C   UNL     1      32.201  30.177  22.495 -0.61 +0.00    +0.087 C  ATOM     25  C   UNL     1      31.242  30.554  21.364 -0.53 -0.00    +0.040 C  ATOM     26  C   UNL     1      31.591  29.075  23.364 -0.41 +0.01    +0.073 C  ATOM     27  C   UNL     1      29.856  30.888  21.911 -0.53 -0.02    +0.089 C  ATOM     28  C   UNL     1      30.189  29.460  23.844 -0.33 +0.03    +0.186 C  ATOM     29  N   UNL     1      29.324  29.776  22.711 -0.23 +0.09    -0.281 NA ATOM     30  C   UNL     1      27.962  30.073  23.154 -0.51 -0.02    +0.108 C  BRANCH  28  31ATOM     31  O   UNL     1      30.271  30.545  24.754 -0.82 -0.24    -0.378 OA ATOM     32  H   UNL     1      31.212  30.683  24.952 +0.15 +0.13    +0.212 HD ENDBRANCH  28  31ENDBRANCH  21  24ENDBRANCH   4  20TORSDOF 7TERENDMDL