REMARK SMILES O=c1[nH]c2cc(Cl)ccc2nc1-c1ccc(CCN2CCNCC2)cc1
REMARK SMILES IDX 17 1 16 2 13 3 14 4 26 5 15 6 25 7 12 8 2 9 3 10 4 11 11 12
REMARK SMILES IDX 5 13 10 14 6 15 9 16 8 17 1 18 7 20 18 21 19 22 20 23 24 24
REMARK SMILES IDX 21 25 23 26 22 27
REMARK H PARENT 3 19 22 28
ROOT
ATOM      1  C   UNL     1      -2.470   2.189  -0.012  1.00  0.00     0.051 C 
ENDROOT
BRANCH   1   2
ATOM      2  C   UNL     1      -1.006   1.814  -0.020  1.00  0.00    -0.047 A 
ATOM      3  C   UNL     1       1.730   1.125  -0.039  1.00  0.00     0.006 A 
ATOM      4  C   UNL     1       1.254   2.153  -0.858  1.00  0.00     0.011 A 
ATOM      5  C   UNL     1       0.825   0.428   0.772  1.00  0.00     0.011 A 
ATOM      6  C   UNL     1      -0.102   2.496  -0.845  1.00  0.00     0.004 A 
ATOM      7  C   UNL     1      -0.529   0.772   0.784  1.00  0.00     0.004 A 
BRANCH   3   8
ATOM      8  C   UNL     1       3.163   0.709  -0.029  1.00  0.00     0.136 A 
ATOM      9  C   UNL     1       4.267   1.752  -0.294  1.00  0.00     0.274 A 
ATOM     10  N   UNL     1       5.554   1.270  -0.312  1.00  0.00    -0.319 N 
ATOM     11  C   UNL     1       5.845  -0.069  -0.054  1.00  0.00     0.069 A 
ATOM     12  N   UNL     1       3.449  -0.540   0.222  1.00  0.00    -0.240 NA
ATOM     13  C   UNL     1       7.169  -0.508  -0.060  1.00  0.00     0.049 A 
ATOM     14  C   UNL     1       4.790  -0.951   0.215  1.00  0.00     0.088 A 
ATOM     15  C   UNL     1       7.439  -1.849   0.207  1.00  0.00     0.043 A 
ATOM     16  C   UNL     1       5.081  -2.291   0.480  1.00  0.00     0.032 A 
ATOM     17  C   UNL     1       6.404  -2.743   0.477  1.00  0.00     0.023 A 
ATOM     18  O   UNL     1       4.028   2.939  -0.461  1.00  0.00    -0.267 OA
ATOM     19  H   UNL     1       6.287   1.944  -0.483  1.00  0.00     0.170 HD
ATOM     20  Cl  UNL     1       9.067  -2.406   0.204  1.00  0.00    -0.084 Cl
ENDBRANCH   3   8
ENDBRANCH   1   2
BRANCH   1  21
ATOM     21  C   UNL     1      -3.365   1.228  -0.821  1.00  0.00     0.089 C 
BRANCH  21  22
ATOM     22  N   UNL     1      -3.643  -0.062  -0.164  1.00  0.00    -0.300 NA
ATOM     23  C   UNL     1      -4.432   0.102   1.076  1.00  0.00     0.100 C 
ATOM     24  C   UNL     1      -4.289  -1.021  -1.087  1.00  0.00     0.100 C 
ATOM     25  C   UNL     1      -5.290  -1.133   1.426  1.00  0.00     0.096 C 
ATOM     26  C   UNL     1      -5.824  -1.097  -0.948  1.00  0.00     0.096 C 
ATOM     27  N   UNL     1      -6.290  -1.470   0.400  1.00  0.00    -0.314 NA
ATOM     28  H   UNL     1      -7.159  -0.974   0.590  1.00  0.00     0.122 HD
ENDBRANCH  21  22
ENDBRANCH   1  21
TORSDOF 4
