REMARK SMILES CNC(=O)[C@H]1CN(CC2=C(c3ccccc3)c3ccccc3C2=O)CCN1CCO
REMARK SMILES IDX 5 1 6 2 7 3 25 4 26 5 27 6 3 7 2 8 1 9 4 11 28 12 29 13
REMARK SMILES IDX 30 14 8 16 9 17 10 18 23 19 17 20 22 21 18 22 21 23 19 24
REMARK SMILES IDX 20 25 24 26 11 27 12 28 16 29 13 30 15 31 14 32
REMARK H PARENT 2 10 30 15
ROOT
ATOM      1  C   UNL     1       2.713  -1.278  -0.892  1.00  0.00     0.161 C 
ATOM      2  C   UNL     1       1.223  -1.748  -0.854  1.00  0.00     0.114 C 
ATOM      3  N   UNL     1       0.179  -0.701  -0.958  1.00  0.00    -0.296 NA
ATOM      4  C   UNL     1       0.659   0.344  -1.876  1.00  0.00     0.100 C 
ATOM      5  C   UNL     1       2.013   0.994  -1.496  1.00  0.00     0.101 C 
ATOM      6  N   UNL     1       2.907   0.185  -0.632  1.00  0.00    -0.287 NA
ENDROOT
BRANCH   1   7
ATOM      7  C   UNL     1       3.454  -2.115   0.169  1.00  0.00     0.238 C 
ATOM      8  N   UNL     1       3.346  -1.607   1.451  1.00  0.00    -0.358 N 
ATOM      9  C   UNL     1       4.077  -2.192   2.541  1.00  0.00     0.142 C 
ATOM     10  H   UNL     1       3.107  -0.617   1.481  1.00  0.00     0.163 HD
ATOM     11  O   UNL     1       4.036  -3.161  -0.103  1.00  0.00    -0.273 OA
ENDBRANCH   1   7
BRANCH   6  12
ATOM     12  C   UNL     1       4.319   0.592  -0.823  1.00  0.00     0.113 C 
BRANCH  12  13
ATOM     13  C   UNL     1       4.605   2.037  -0.387  1.00  0.00     0.171 C 
BRANCH  13  14
ATOM     14  O   UNL     1       6.001   2.301  -0.498  1.00  0.00    -0.395 OA
ATOM     15  H   UNL     1       6.139   3.209  -0.178  1.00  0.00     0.210 HD
ENDBRANCH  13  14
ENDBRANCH  12  13
ENDBRANCH   6  12
BRANCH   3  16
ATOM     16  C   UNL     1      -0.167  -0.174   0.376  1.00  0.00     0.125 C 
BRANCH  16  17
ATOM     17  C   UNL     1      -1.400   0.668   0.376  1.00  0.00     0.023 C 
ATOM     18  C   UNL     1      -2.706   0.323   0.314  1.00  0.00    -0.002 C 
ATOM     19  C   UNL     1      -1.314   2.142   0.512  1.00  0.00     0.191 C 
ATOM     20  C   UNL     1      -3.513   1.542   0.366  1.00  0.00    -0.006 A 
ATOM     21  C   UNL     1      -2.681   2.644   0.491  1.00  0.00     0.030 A 
ATOM     22  C   UNL     1      -4.886   1.719   0.318  1.00  0.00     0.009 A 
ATOM     23  C   UNL     1      -3.147   3.943   0.581  1.00  0.00     0.013 A 
ATOM     24  C   UNL     1      -5.392   3.023   0.401  1.00  0.00     0.001 A 
ATOM     25  C   UNL     1      -4.529   4.127   0.534  1.00  0.00     0.001 A 
ATOM     26  O   UNL     1      -0.307   2.813   0.624  1.00  0.00    -0.289 OA
BRANCH  18  27
ATOM     27  C   UNL     1      -3.172  -1.057   0.183  1.00  0.00    -0.017 A 
ATOM     28  C   UNL     1      -3.265  -1.888   1.306  1.00  0.00     0.009 A 
ATOM     29  C   UNL     1      -3.532  -1.556  -1.075  1.00  0.00     0.009 A 
ATOM     30  C   UNL     1      -3.711  -3.203   1.171  1.00  0.00     0.001 A 
ATOM     31  C   UNL     1      -3.979  -2.870  -1.208  1.00  0.00     0.001 A 
ATOM     32  C   UNL     1      -4.068  -3.693  -0.085  1.00  0.00     0.000 A 
ENDBRANCH  18  27
ENDBRANCH  16  17
ENDBRANCH   3  16
TORSDOF 7
