MODEL        9USER    Run = 9USERUSER    Estimated Free Energy of Binding    =  -8.23 kcal/mol  [=(1)+(2)+(3)-(4)]USERUSER    (1) Final Intermolecular Energy     = -10.32 kcal/molUSER        vdW + Hbond + desolv Energy     = -10.40 kcal/molUSER        Electrostatic Energy            =  +0.08 kcal/molUSER        Moving Ligand-Fixed Receptor    = -10.32 kcal/molUSER        Moving Ligand-Moving Receptor   =  +0.00 kcal/molUSER    (2) Final Total Internal Energy     =  -5.47 kcal/molUSER    (3) Torsional Free Energy           =  +2.09 kcal/molUSER    (4) Unbound System's Energy         =  -5.47 kcal/molUSERUSERREMARK SMILES CNC(=O)[C@H]1CN(CC2=C(c3ccccc3)c3ccccc3C2=O)CCN1CCOREMARK SMILES IDX 5 1 6 2 7 3 25 4 26 5 27 6 3 7 2 8 1 9 4 11 28 12 29 13REMARK SMILES IDX 30 14 8 16 9 17 10 18 23 19 17 20 22 21 18 22 21 23 19 24REMARK SMILES IDX 20 25 24 26 11 27 12 28 16 29 13 30 15 31 14 32REMARK H PARENT 2 10 30 15USER                              x       y       z     vdW  Elec       q    TypeUSER                           _______ _______ _______ _____ _____    ______ ____ROOTATOM      1  C   UNL     1      33.750  42.471  16.996 -0.33 -0.07    +0.161 C  ATOM      2  C   UNL     1      34.340  42.283  18.431 -0.39 -0.02    +0.114 C  ATOM      3  N   UNL     1      33.526  42.774  19.568 -0.53 -0.01    -0.296 NA ATOM      4  C   UNL     1      32.106  42.546  19.256 -0.32 -0.00    +0.100 C  ATOM      5  C   UNL     1      31.602  43.186  17.939 -0.29 -0.02    +0.101 C  ATOM      6  N   UNL     1      32.634  43.468  16.912 -0.12 +0.11    -0.287 NA ENDROOTBRANCH   1   7ATOM      7  C   UNL     1      34.928  42.907  16.103 -0.29 -0.10    +0.238 C  ATOM      8  N   UNL     1      34.886  44.242  15.742 -0.10 +0.18    -0.358 N  ATOM      9  C   UNL     1      35.837  44.785  14.812 -0.26 -0.07    +0.142 C  ATOM     10  H   UNL     1      33.958  44.657  15.811 +0.11 -0.10    +0.163 HD ATOM     11  O   UNL     1      35.839  42.145  15.792 -0.30 +0.11    -0.273 OA ENDBRANCH   1   7BRANCH   6  12ATOM     12  C   UNL     1      32.026  43.495  15.561 -0.33 -0.06    +0.113 C  BRANCH  12  13ATOM     13  C   UNL     1      31.691  44.910  15.067 -0.34 -0.10    +0.171 C  BRANCH  13  14ATOM     14  O   UNL     1      32.020  45.858  16.079 -0.51 +0.29    -0.395 OA ATOM     15  H   UNL     1      32.874  45.582  16.453 +0.06 -0.18    +0.210 HD ENDBRANCH  13  14ENDBRANCH  12  13ENDBRANCH   6  12BRANCH   3  16ATOM     16  C   UNL     1      33.827  44.191  19.853 -0.27 -0.02    +0.125 C  BRANCH  16  17ATOM     17  C   UNL     1      35.167  44.620  19.354 -0.42 -0.01    +0.023 C  ATOM     18  C   UNL     1      36.411  44.291  19.768 -0.44 +0.00    -0.002 C  ATOM     19  C   UNL     1      35.289  45.520  18.182 -0.30 -0.09    +0.191 C  ATOM     20  C   UNL     1      37.383  44.982  18.920 -0.29 +0.00    -0.006 A  ATOM     21  C   UNL     1      36.714  45.722  17.957 -0.26 -0.01    +0.030 A  ATOM     22  C   UNL     1      38.767  44.985  18.951 -0.39 -0.00    +0.009 A  ATOM     23  C   UNL     1      37.358  46.477  16.994 -0.30 -0.01    +0.013 A  ATOM     24  C   UNL     1      39.452  45.744  17.993 -0.44 -0.00    +0.001 A  ATOM     25  C   UNL     1      38.753  46.483  17.020 -0.41 -0.00    +0.001 A  ATOM     26  O   UNL     1      34.386  45.999  17.525 -0.28 +0.25    -0.289 OA BRANCH  18  27ATOM     27  C   UNL     1      36.678  43.409  20.903 -0.42 -0.00    -0.017 A  ATOM     28  C   UNL     1      36.533  42.022  20.779 -0.49 -0.00    +0.009 A  ATOM     29  C   UNL     1      37.086  43.952  22.128 -0.37 +0.00    +0.009 A  ATOM     30  C   UNL     1      36.790  41.189  21.868 -0.57 +0.00    +0.001 A  ATOM     31  C   UNL     1      37.344  43.118  23.215 -0.38 +0.00    +0.001 A  ATOM     32  C   UNL     1      37.196  41.737  23.085 -0.44 +0.00    +0.000 A  ENDBRANCH  18  27ENDBRANCH  16  17ENDBRANCH   3  16TORSDOF 7TERENDMDL