MODEL        2USER    Run = 2USERUSER    Estimated Free Energy of Binding    =  -9.40 kcal/mol  [=(1)+(2)+(3)-(4)]USERUSER    (1) Final Intermolecular Energy     = -10.89 kcal/molUSER        vdW + Hbond + desolv Energy     = -10.75 kcal/molUSER        Electrostatic Energy            =  -0.14 kcal/molUSER        Moving Ligand-Fixed Receptor    = -10.89 kcal/molUSER        Moving Ligand-Moving Receptor   =  +0.00 kcal/molUSER    (2) Final Total Internal Energy     =  -1.33 kcal/molUSER    (3) Torsional Free Energy           =  +1.49 kcal/molUSER    (4) Unbound System's Energy         =  -1.33 kcal/molUSERUSERREMARK SMILES CNC(=O)c1cc(/C=C/c2n[nH]c3cc(Cl)ccc23)ccc1OCREMARK SMILES IDX 8 1 7 2 5 3 6 4 22 5 21 6 20 7 3 8 2 9 1 10 4 12 23 13 24 14REMARK SMILES IDX 9 15 10 16 11 17 19 18 12 19 18 20 13 21 17 22 14 23 15 24REMARK SMILES IDX 16 26REMARK H PARENT 2 11 12 25USER                              x       y       z     vdW  Elec       q    TypeUSER                           _______ _______ _______ _____ _____    ______ ____ROOTATOM      1  C   UNL     1      37.120  45.616  14.990 -0.43 -0.00    +0.010 C  ENDROOTBRANCH   1   2ATOM      2  C   UNL     1      38.205  46.574  15.243 -0.39 +0.01    -0.025 A  ATOM      3  C   UNL     1      40.030  47.320  16.701 -0.44 -0.02    +0.082 A  ATOM      4  C   UNL     1      38.960  46.448  16.414 -0.41 -0.01    +0.025 A  ATOM      5  C   UNL     1      40.361  48.335  15.779 -0.47 -0.03    +0.131 A  ATOM      6  C   UNL     1      39.610  48.448  14.601 -0.50 -0.02    +0.048 A  ATOM      7  C   UNL     1      38.549  47.575  14.335 -0.49 -0.00    +0.012 A  BRANCH   3   8ATOM      8  C   UNL     1      40.742  47.072  18.000 -0.37 -0.03    +0.254 C  ATOM      9  N   UNL     1      42.057  47.463  18.094 -0.27 +0.02    -0.355 N  ATOM     10  C   UNL     1      42.857  47.170  19.253 -0.48 +0.03    +0.143 C  ATOM     11  H   UNL     1      42.518  47.772  17.243 -0.47 -0.02    +0.163 HD ATOM     12  O   UNL     1      40.149  46.541  18.936 -0.31 +0.02    -0.269 OA ENDBRANCH   3   8BRANCH   5  13ATOM     13  O   UNL     1      41.416  49.160  16.080 -0.82 +0.01    -0.496 OA ATOM     14  C   UNL     1      41.557  50.365  15.334 -0.47 -0.06    +0.278 C  ENDBRANCH   5  13ENDBRANCH   1   2BRANCH   1  15ATOM     15  C   UNL     1      36.082  45.419  15.820 -0.39 -0.02    +0.031 C  BRANCH  15  16ATOM     16  C   UNL     1      35.822  44.243  16.597 -0.27 -0.04    +0.093 A  ATOM     17  N   UNL     1      35.203  43.183  16.055 -0.33 +0.07    -0.175 NA ATOM     18  C   UNL     1      36.118  44.021  17.980 -0.31 -0.01    +0.027 A  ATOM     19  N   UNL     1      35.150  42.287  17.049 -0.27 +0.11    -0.277 N  ATOM     20  C   UNL     1      36.686  44.753  19.044 -0.32 -0.00    +0.014 A  ATOM     21  C   UNL     1      35.674  42.725  18.233 -0.24 -0.02    +0.067 A  ATOM     22  C   UNL     1      36.806  44.152  20.306 -0.38 -0.00    +0.021 A  ATOM     23  C   UNL     1      35.784  42.103  19.483 -0.33 -0.00    +0.048 A  ATOM     24  C   UNL     1      36.364  42.848  20.512 -0.42 -0.00    +0.043 A  ATOM     25  H   UNL     1      34.728  41.385  16.858 -0.45 -0.13    +0.190 HD ATOM     26  Cl  UNL     1      36.524  42.136  22.074 -0.72 -0.01    -0.084 Cl ENDBRANCH  15  16ENDBRANCH   1  15TORSDOF 5TERENDMDL