MODEL        2USER    Run = 2USERUSER    Estimated Free Energy of Binding    =  -8.84 kcal/mol  [=(1)+(2)+(3)-(4)]USERUSER    (1) Final Intermolecular Energy     = -10.63 kcal/molUSER        vdW + Hbond + desolv Energy     = -10.33 kcal/molUSER        Electrostatic Energy            =  -0.29 kcal/molUSER        Moving Ligand-Fixed Receptor    = -10.63 kcal/molUSER        Moving Ligand-Moving Receptor   =  +0.00 kcal/molUSER    (2) Final Total Internal Energy     =  -1.46 kcal/molUSER    (3) Torsional Free Energy           =  +1.79 kcal/molUSER    (4) Unbound System's Energy         =  -1.46 kcal/molUSERUSERREMARK SMILES Cc1cc(CS(=O)(=O)N[C@@]2(c3ccc(O)c(F)c3)c3cnc(C)n32)ccn1REMARK SMILES IDX 9 1 6 3 7 4 8 5 5 6 4 7 2 8 3 9 27 10 26 11 25 12 1 13 10 14REMARK SMILES IDX 19 15 24 16 20 17 22 18 21 19 23 20 11 21 12 22 18 23 13 24REMARK SMILES IDX 16 25 14 26 17 27 15 28REMARK H PARENT 9 2 15 29USER                              x       y       z     vdW  Elec       q    TypeUSER                           _______ _______ _______ _____ _____    ______ ____ROOTATOM      1  N   UNL     1      37.446  43.908  16.881 -0.20 +0.05    -0.180 NA ATOM      2  H   UNL     1      37.281  43.223  17.622 +0.12 -0.03    +0.144 HD ENDROOTBRANCH   1   3ATOM      3  S   UNL     1      38.436  45.138  17.485 -0.39 -0.04    +0.218 S  ATOM      4  O   UNL     1      39.377  44.440  18.336 -0.31 +0.02    -0.212 OA ATOM      5  O   UNL     1      37.608  46.209  17.996 -0.27 +0.06    -0.212 OA BRANCH   3   6ATOM      6  C   UNL     1      39.273  45.665  15.982 -0.04 -0.04    +0.189 C  BRANCH   6   7ATOM      7  C   UNL     1      40.139  46.856  16.292 -0.47 +0.00    -0.028 A  ATOM      8  C   UNL     1      41.156  48.946  15.653 -0.56 -0.00    +0.038 A  ATOM      9  C   UNL     1      40.352  47.854  15.334 -0.52 -0.01    +0.028 A  ATOM     10  N   UNL     1      41.748  49.086  16.862 -0.82 -0.04    -0.262 NA ATOM     11  C   UNL     1      41.524  48.119  17.777 -0.33 -0.01    +0.111 A  ATOM     12  C   UNL     1      40.739  47.002  17.545 -0.50 -0.00    +0.025 A  ATOM     13  C   UNL     1      41.388  50.029  14.643 -0.68 -0.02    +0.067 C  ENDBRANCH   6   7ENDBRANCH   3   6ENDBRANCH   1   3BRANCH   1  14ATOM     14  C   UNL     1      36.226  44.320  16.159 -0.29 -0.07    +0.178 C  ATOM     15  C   UNL     1      35.026  43.324  16.058 -0.33 -0.04    +0.087 A  ATOM     16  N   UNL     1      35.022  44.413  16.920 -0.10 +0.14    -0.299 N  ATOM     17  C   UNL     1      34.328  42.440  16.854 -0.32 -0.06    +0.139 A  ATOM     18  C   UNL     1      34.780  44.000  18.195 -0.25 -0.03    +0.108 A  ATOM     19  N   UNL     1      34.335  42.766  18.183 -0.19 +0.06    -0.241 NA ATOM     20  C   UNL     1      34.933  44.894  19.362 -0.31 -0.02    +0.088 C  BRANCH  14  21ATOM     21  C   UNL     1      36.379  45.323  15.034 -0.37 -0.00    +0.003 A  ATOM     22  C   UNL     1      36.360  46.713  15.288 -0.38 -0.01    +0.012 A  ATOM     23  C   UNL     1      36.575  44.916  13.699 -0.35 -0.02    +0.051 A  ATOM     24  C   UNL     1      36.514  47.653  14.264 -0.42 -0.04    +0.050 A  ATOM     25  C   UNL     1      36.729  45.853  12.683 -0.44 -0.06    +0.165 A  ATOM     26  C   UNL     1      36.698  47.213  12.962 -0.50 -0.07    +0.151 A  ATOM     27  F   UNL     1      36.910  45.444  11.419 -0.18 +0.06    -0.203 F  BRANCH  26  28ATOM     28  O   UNL     1      36.849  48.141  11.972 -0.79 +0.11    -0.505 OA ATOM     29  H   UNL     1      35.962  48.293  11.591 -0.16 -0.18    +0.293 HD ENDBRANCH  26  28ENDBRANCH  14  21ENDBRANCH   1  14TORSDOF 6TERENDMDL