REMARK SMILES COc1cc(O)ccc1[C@]1(NS(=O)(=O)Cc2ccnc(C)c2)c2cnc(C)n21
REMARK SMILES IDX 11 1 10 3 23 4 28 5 24 6 26 7 25 8 27 9 9 10 3 11 4 12 5 13
REMARK SMILES IDX 8 14 7 15 2 16 1 17 6 18 12 20 13 21 14 22 15 23 16 24 17 25
REMARK SMILES IDX 22 26 18 27 20 28 19 29 21 30
REMARK H PARENT 11 2 6 19
ROOT
ATOM      1  N   UNL     1       0.598   0.555  -0.373  1.00  0.00    -0.180 NA
ATOM      2  H   UNL     1       1.031   0.109   0.440  1.00  0.00     0.144 HD
ENDROOT
BRANCH   1   3
ATOM      3  C   UNL     1      -0.805   0.942  -0.060  1.00  0.00     0.182 C 
ATOM      4  C   UNL     1      -0.927   2.477   0.260  1.00  0.00     0.087 A 
ATOM      5  N   UNL     1      -1.449   1.896  -0.893  1.00  0.00    -0.299 N 
ATOM      6  C   UNL     1      -1.889   3.450   0.439  1.00  0.00     0.139 A 
ATOM      7  C   UNL     1      -2.760   2.226  -1.037  1.00  0.00     0.108 A 
ATOM      8  N   UNL     1      -3.058   3.216  -0.230  1.00  0.00    -0.241 NA
ATOM      9  C   UNL     1      -3.631   1.618  -2.066  1.00  0.00     0.088 C 
BRANCH   3  10
ATOM     10  C   UNL     1      -1.593   0.025   0.866  1.00  0.00     0.042 A 
ATOM     11  C   UNL     1      -2.415  -1.015   0.376  1.00  0.00     0.129 A 
ATOM     12  C   UNL     1      -3.122  -1.855   1.246  1.00  0.00     0.093 A 
ATOM     13  C   UNL     1      -2.987  -1.688   2.620  1.00  0.00     0.119 A 
ATOM     14  C   UNL     1      -1.476   0.146   2.268  1.00  0.00     0.016 A 
ATOM     15  C   UNL     1      -2.165  -0.701   3.137  1.00  0.00     0.047 A 
BRANCH  11  16
ATOM     16  O   UNL     1      -2.501  -1.116  -0.991  1.00  0.00    -0.496 OA
ATOM     17  C   UNL     1      -2.688  -2.430  -1.506  1.00  0.00     0.278 C 
ENDBRANCH  11  16
BRANCH  13  18
ATOM     18  O   UNL     1      -3.653  -2.484   3.504  1.00  0.00    -0.508 OA
ATOM     19  H   UNL     1      -4.219  -3.100   3.010  1.00  0.00     0.293 HD
ENDBRANCH  13  18
ENDBRANCH   3  10
ENDBRANCH   1   3
BRANCH   1  20
ATOM     20  S   UNL     1       0.750  -0.453  -1.724  1.00  0.00     0.218 S 
ATOM     21  O   UNL     1      -0.099   0.061  -2.778  1.00  0.00    -0.212 OA
ATOM     22  O   UNL     1       0.621  -1.817  -1.256  1.00  0.00    -0.212 OA
BRANCH  20  23
ATOM     23  C   UNL     1       2.457  -0.168  -2.219  1.00  0.00     0.189 C 
BRANCH  23  24
ATOM     24  C   UNL     1       3.388  -0.327  -1.046  1.00  0.00    -0.028 A 
ATOM     25  C   UNL     1       3.751  -1.593  -0.579  1.00  0.00     0.025 A 
ATOM     26  C   UNL     1       3.904   0.796  -0.389  1.00  0.00     0.028 A 
ATOM     27  C   UNL     1       4.591  -1.678   0.518  1.00  0.00     0.111 A 
ATOM     28  C   UNL     1       4.746   0.619   0.707  1.00  0.00     0.038 A 
ATOM     29  N   UNL     1       5.088  -0.605   1.168  1.00  0.00    -0.262 NA
ATOM     30  C   UNL     1       5.305   1.808   1.428  1.00  0.00     0.067 C 
ENDBRANCH  23  24
ENDBRANCH  20  23
ENDBRANCH   1  20
TORSDOF 7
