MODEL        6USER    Run = 6USERUSER    Estimated Free Energy of Binding    =  -8.05 kcal/mol  [=(1)+(2)+(3)-(4)]USERUSER    (1) Final Intermolecular Energy     = -10.14 kcal/molUSER        vdW + Hbond + desolv Energy     =  -9.96 kcal/molUSER        Electrostatic Energy            =  -0.18 kcal/molUSER        Moving Ligand-Fixed Receptor    = -10.14 kcal/molUSER        Moving Ligand-Moving Receptor   =  +0.00 kcal/molUSER    (2) Final Total Internal Energy     =  -1.66 kcal/molUSER    (3) Torsional Free Energy           =  +2.09 kcal/molUSER    (4) Unbound System's Energy         =  -1.66 kcal/molUSERUSERREMARK SMILES COc1cc(O)ccc1[C@]1(NS(=O)(=O)Cc2ccnc(C)c2)c2cnc(C)n21REMARK SMILES IDX 11 1 10 3 23 4 28 5 24 6 26 7 25 8 27 9 9 10 3 11 4 12 5 13REMARK SMILES IDX 8 14 7 15 2 16 1 17 6 18 12 20 13 21 14 22 15 23 16 24 17 25REMARK SMILES IDX 22 26 18 27 20 28 19 29 21 30REMARK H PARENT 11 2 6 19USER                              x       y       z     vdW  Elec       q    TypeUSER                           _______ _______ _______ _____ _____    ______ ____ROOTATOM      1  N   UNL     1      35.770  44.903  17.610 -0.20 +0.07    -0.180 NA ATOM      2  H   UNL     1      36.692  45.182  17.955 +0.09 -0.04    +0.144 HD ENDROOTBRANCH   1   3ATOM      3  C   UNL     1      35.081  44.050  18.617 -0.28 -0.05    +0.182 C  ATOM      4  C   UNL     1      33.721  44.686  19.085 -0.36 -0.03    +0.087 A  ATOM      5  N   UNL     1      33.795  43.534  18.305 -0.11 +0.07    -0.299 N  ATOM      6  C   UNL     1      32.590  44.361  19.805 -0.23 -0.01    +0.139 A  ATOM      7  C   UNL     1      33.065  42.535  18.868 -0.31 -0.01    +0.108 A  ATOM      8  N   UNL     1      32.281  43.029  19.797 -0.60 -0.02    -0.241 NA ATOM      9  C   UNL     1      33.093  41.143  18.369 -0.35 -0.01    +0.088 C  BRANCH   3  10ATOM     10  C   UNL     1      35.934  43.458  19.732 -0.38 -0.00    +0.042 A  ATOM     11  C   UNL     1      37.165  44.030  20.123 -0.30 -0.01    +0.129 A  ATOM     12  C   UNL     1      37.928  43.476  21.160 -0.25 +0.00    +0.093 A  ATOM     13  C   UNL     1      37.450  42.363  21.842 -0.33 +0.01    +0.119 A  ATOM     14  C   UNL     1      35.483  42.338  20.463 -0.44 +0.00    +0.016 A  ATOM     15  C   UNL     1      36.233  41.795  21.508 -0.51 +0.00    +0.047 A  BRANCH  11  16ATOM     16  O   UNL     1      37.573  45.125  19.402 -0.08 +0.05    -0.496 OA ATOM     17  C   UNL     1      38.926  45.109  18.959 -0.28 -0.02    +0.278 C  ENDBRANCH  11  16BRANCH  13  18ATOM     18  O   UNL     1      38.157  41.792  22.859 -0.05 -0.07    -0.508 OA ATOM     19  H   UNL     1      37.548  41.577  23.585 +0.19 +0.03    +0.293 HD ENDBRANCH  13  18ENDBRANCH   3  10ENDBRANCH   1   3BRANCH   1  20ATOM     20  S   UNL     1      35.926  44.181  16.087 -0.38 -0.09    +0.218 S  ATOM     21  O   UNL     1      35.223  42.916  16.104 -0.40 +0.08    -0.212 OA ATOM     22  O   UNL     1      37.325  44.256  15.720 -0.28 +0.07    -0.212 OA BRANCH  20  23ATOM     23  C   UNL     1      34.990  45.305  15.038 -0.24 -0.13    +0.189 C  BRANCH  23  24ATOM     24  C   UNL     1      35.914  46.170  14.222 -0.42 +0.02    -0.028 A  ATOM     25  C   UNL     1      35.794  46.244  12.832 -0.55 -0.01    +0.025 A  ATOM     26  C   UNL     1      36.925  46.915  14.842 -0.40 -0.02    +0.028 A  ATOM     27  C   UNL     1      36.687  47.038  12.132 -0.59 -0.04    +0.111 A  ATOM     28  C   UNL     1      37.779  47.690  14.060 -0.50 -0.02    +0.038 A  ATOM     29  N   UNL     1      37.672  47.753  12.714 -0.90 +0.03    -0.262 NA ATOM     30  C   UNL     1      38.870  48.490  14.703 -0.54 -0.03    +0.067 C  ENDBRANCH  23  24ENDBRANCH  20  23ENDBRANCH   1  20TORSDOF 7TERENDMDL