REMARK SMILES Cc1cc(CS(=O)(=O)N[C@@]2(c3ccc(O)c(F)c3)c3cnc(C)n32)ccn1
REMARK SMILES IDX 9 1 6 3 7 4 8 5 5 6 4 7 2 8 3 9 27 10 26 11 25 12 1 13 10 14
REMARK SMILES IDX 19 15 24 16 20 17 22 18 21 19 23 20 11 21 12 22 18 23 13 24
REMARK SMILES IDX 16 25 14 26 17 27 15 28
REMARK H PARENT 9 2 15 29
ROOT
ATOM      1  N   UNL     1      -0.683  -1.457  -0.186  1.00  0.00    -0.180 NA
ATOM      2  H   UNL     1      -0.855  -2.391   0.192  1.00  0.00     0.144 HD
ENDROOT
BRANCH   1   3
ATOM      3  S   UNL     1       0.841  -0.933   0.324  1.00  0.00     0.218 S 
ATOM      4  O   UNL     1       1.390  -2.082   1.014  1.00  0.00    -0.212 OA
ATOM      5  O   UNL     1       0.709   0.349   0.982  1.00  0.00    -0.212 OA
BRANCH   3   6
ATOM      6  C   UNL     1       1.676  -0.735  -1.257  1.00  0.00     0.189 C 
BRANCH   6   7
ATOM      7  C   UNL     1       3.103  -0.324  -1.013  1.00  0.00    -0.028 A 
ATOM      8  C   UNL     1       4.774   1.373  -0.641  1.00  0.00     0.038 A 
ATOM      9  C   UNL     1       3.444   1.026  -0.869  1.00  0.00     0.028 A 
ATOM     10  N   UNL     1       5.762   0.453  -0.552  1.00  0.00    -0.262 NA
ATOM     11  C   UNL     1       5.414  -0.845  -0.683  1.00  0.00     0.111 A 
ATOM     12  C   UNL     1       4.118  -1.278  -0.911  1.00  0.00     0.025 A 
ATOM     13  C   UNL     1       5.157   2.813  -0.475  1.00  0.00     0.067 C 
ENDBRANCH   6   7
ENDBRANCH   3   6
ENDBRANCH   1   3
BRANCH   1  14
ATOM     14  C   UNL     1      -1.810  -0.519  -0.011  1.00  0.00     0.178 C 
ATOM     15  C   UNL     1      -1.792   0.845  -0.773  1.00  0.00     0.087 A 
ATOM     16  N   UNL     1      -2.591  -0.220  -1.168  1.00  0.00    -0.299 N 
ATOM     17  C   UNL     1      -1.494   1.343  -2.024  1.00  0.00     0.139 A 
ATOM     18  C   UNL     1      -2.345  -0.531  -2.471  1.00  0.00     0.108 A 
ATOM     19  N   UNL     1      -1.665   0.438  -3.036  1.00  0.00    -0.241 NA
ATOM     20  C   UNL     1      -2.876  -1.754  -3.109  1.00  0.00     0.088 C 
BRANCH  14  21
ATOM     21  C   UNL     1      -2.561  -0.558   1.304  1.00  0.00     0.003 A 
ATOM     22  C   UNL     1      -3.561  -1.528   1.544  1.00  0.00     0.012 A 
ATOM     23  C   UNL     1      -2.277   0.344   2.348  1.00  0.00     0.051 A 
ATOM     24  C   UNL     1      -4.254  -1.588   2.758  1.00  0.00     0.050 A 
ATOM     25  C   UNL     1      -2.967   0.281   3.554  1.00  0.00     0.165 A 
ATOM     26  C   UNL     1      -3.950  -0.678   3.758  1.00  0.00     0.151 A 
ATOM     27  F   UNL     1      -2.684   1.153   4.532  1.00  0.00    -0.203 F 
BRANCH  26  28
ATOM     28  O   UNL     1      -4.633  -0.749   4.938  1.00  0.00    -0.505 OA
ATOM     29  H   UNL     1      -4.271  -0.049   5.516  1.00  0.00     0.293 HD
ENDBRANCH  26  28
ENDBRANCH  14  21
ENDBRANCH   1  14
TORSDOF 6
