REMARK SMILES CC(C)c1cc(-c2nc(N3CC[C@H](N)C3)ccc2N2Cc3nccn3C2)on1
REMARK SMILES IDX 7 1 8 2 9 3 16 4 17 5 18 6 6 7 4 8 5 9 28 10 27 11 2 12 1 13
REMARK SMILES IDX 3 14 19 15 20 16 26 17 21 18 25 19 22 20 24 21 23 22 10 23
REMARK SMILES IDX 11 24 15 25 12 26 13 27 14 28
REMARK H PARENT 14 29 14 30
ROOT
ATOM      1  C   UNL     1      -0.205  -0.238   0.163  1.00  0.00     0.134 A 
ATOM      2  N   UNL     1       1.124   0.076   0.158  1.00  0.00    -0.225 NA
ATOM      3  C   UNL     1       2.037  -0.857   0.487  1.00  0.00     0.129 A 
ATOM      4  C   UNL     1       1.629  -2.147   0.794  1.00  0.00     0.049 A 
ATOM      5  C   UNL     1       0.271  -2.474   0.800  1.00  0.00     0.032 A 
ATOM      6  C   UNL     1      -0.700  -1.512   0.500  1.00  0.00     0.069 A 
ENDROOT
BRANCH   1   7
ATOM      7  C   UNL     1      -1.025   0.909  -0.221  1.00  0.00     0.187 A 
ATOM      8  C   UNL     1      -1.980   2.816  -0.811  1.00  0.00     0.087 A 
ATOM      9  C   UNL     1      -0.753   2.247  -0.405  1.00  0.00     0.080 A 
ATOM     10  N   UNL     1      -2.942   1.886  -0.881  1.00  0.00    -0.084 NA
ATOM     11  O   UNL     1      -2.341   0.698  -0.505  1.00  0.00    -0.354 OA
BRANCH   8  12
ATOM     12  C   UNL     1      -2.260   4.250  -1.146  1.00  0.00     0.035 C 
ATOM     13  C   UNL     1      -3.312   4.859  -0.217  1.00  0.00     0.014 C 
ATOM     14  C   UNL     1      -2.670   4.423  -2.610  1.00  0.00     0.014 C 
ENDBRANCH   8  12
ENDBRANCH   1   7
BRANCH   6  15
ATOM     15  N   UNL     1      -2.070  -1.825   0.486  1.00  0.00    -0.344 N 
ATOM     16  C   UNL     1      -2.593  -2.751   1.550  1.00  0.00     0.194 C 
ATOM     17  C   UNL     1      -2.495  -2.400  -0.835  1.00  0.00     0.244 C 
ATOM     18  C   UNL     1      -3.135  -3.916   0.813  1.00  0.00     0.129 A 
ATOM     19  N   UNL     1      -3.084  -3.682  -0.524  1.00  0.00    -0.315 N 
ATOM     20  N   UNL     1      -3.619  -5.103   1.077  1.00  0.00    -0.240 NA
ATOM     21  C   UNL     1      -3.549  -4.754  -1.189  1.00  0.00     0.109 A 
ATOM     22  C   UNL     1      -3.890  -5.633  -0.173  1.00  0.00     0.131 A 
ENDBRANCH   6  15
BRANCH   3  23
ATOM     23  N   UNL     1       3.368  -0.508   0.455  1.00  0.00    -0.355 N 
ATOM     24  C   UNL     1       4.382  -1.170   1.272  1.00  0.00     0.120 C 
ATOM     25  C   UNL     1       3.728   0.887   0.205  1.00  0.00     0.136 C 
ATOM     26  C   UNL     1       5.424  -0.083   1.557  1.00  0.00     0.042 C 
ATOM     27  C   UNL     1       5.259   0.880   0.385  1.00  0.00     0.072 C 
BRANCH  27  28
ATOM     28  N   UNL     1       5.870   2.180   0.646  1.00  0.00    -0.326 NA
ATOM     29  H   UNL     1       6.878   2.069   0.754  1.00  0.00     0.119 HD
ATOM     30  H   UNL     1       5.733   2.789  -0.160  1.00  0.00     0.119 HD
ENDBRANCH  27  28
ENDBRANCH   3  23
TORSDOF 5
