MODEL        5USER    Run = 5USERUSER    Estimated Free Energy of Binding    =  -9.12 kcal/mol  [=(1)+(2)+(3)-(4)]USERUSER    (1) Final Intermolecular Energy     = -10.61 kcal/molUSER        vdW + Hbond + desolv Energy     = -10.54 kcal/molUSER        Electrostatic Energy            =  -0.07 kcal/molUSER        Moving Ligand-Fixed Receptor    = -10.61 kcal/molUSER        Moving Ligand-Moving Receptor   =  +0.00 kcal/molUSER    (2) Final Total Internal Energy     =  -1.67 kcal/molUSER    (3) Torsional Free Energy           =  +1.49 kcal/molUSER    (4) Unbound System's Energy         =  -1.67 kcal/molUSERUSERREMARK SMILES CC(C)c1cc(-c2nc(N3CC[C@H](N)C3)ccc2N2Cc3nccn3C2)on1REMARK SMILES IDX 7 1 8 2 9 3 16 4 17 5 18 6 6 7 4 8 5 9 28 10 27 11 2 12 1 13REMARK SMILES IDX 3 14 19 15 20 16 26 17 21 18 25 19 22 20 24 21 23 22 10 23REMARK SMILES IDX 11 24 15 25 12 26 13 27 14 28REMARK H PARENT 14 29 14 30USER                              x       y       z     vdW  Elec       q    TypeUSER                           _______ _______ _______ _____ _____    ______ ____ROOTATOM      1  C   UNL     1      39.166  46.853  16.516 -0.35 -0.04    +0.134 A  ATOM      2  N   UNL     1      39.957  46.430  17.545 -0.31 +0.03    -0.225 NA ATOM      3  C   UNL     1      41.069  47.118  17.866 -0.43 -0.01    +0.129 A  ATOM      4  C   UNL     1      41.389  48.278  17.176 -0.43 -0.00    +0.049 A  ATOM      5  C   UNL     1      40.583  48.716  16.122 -0.56 -0.01    +0.032 A  ATOM      6  C   UNL     1      39.444  47.997  15.743 -0.47 -0.02    +0.069 A  ENDROOTBRANCH   1   7ATOM      7  C   UNL     1      38.016  45.971  16.330 -0.25 -0.07    +0.187 A  ATOM      8  C   UNL     1      36.126  44.821  16.285 -0.28 -0.04    +0.087 A  ATOM      9  C   UNL     1      36.810  45.839  16.985 -0.30 -0.04    +0.080 A  ATOM     10  N   UNL     1      36.859  44.364  15.261 -0.34 +0.03    -0.084 NA ATOM     11  O   UNL     1      38.041  45.082  15.299 -0.16 +0.10    -0.354 OA BRANCH   8  12ATOM     12  C   UNL     1      34.762  44.269  16.571 -0.35 -0.02    +0.035 C  ATOM     13  C   UNL     1      34.717  42.747  16.417 -0.48 -0.01    +0.014 C  ATOM     14  C   UNL     1      33.687  44.929  15.705 -0.38 -0.01    +0.014 C  ENDBRANCH   8  12ENDBRANCH   1   7BRANCH   6  15ATOM     15  N   UNL     1      38.612  48.429  14.696 -0.26 +0.17    -0.344 N  ATOM     16  C   UNL     1      37.132  48.502  14.956 -0.40 -0.17    +0.194 C  ATOM     17  C   UNL     1      38.794  47.594  13.461 -0.01 -0.05    +0.244 C  ATOM     18  C   UNL     1      36.525  47.564  13.983 -0.40 -0.08    +0.129 A  ATOM     19  N   UNL     1      37.480  47.085  13.145 -0.29 +0.10    -0.315 N  ATOM     20  N   UNL     1      35.350  47.051  13.720 -0.28 +0.19    -0.240 NA ATOM     21  C   UNL     1      36.929  46.211  12.284 -0.53 -0.04    +0.109 A  ATOM     22  C   UNL     1      35.592  46.207  12.650 -0.37 -0.07    +0.131 A  ENDBRANCH   6  15BRANCH   3  23ATOM     23  N   UNL     1      41.833  46.670  18.920 -0.27 -0.02    -0.355 N  ATOM     24  C   UNL     1      41.254  46.098  20.133 -0.35 +0.01    +0.120 C  ATOM     25  C   UNL     1      43.099  47.341  19.212 -0.48 +0.03    +0.136 C  ATOM     26  C   UNL     1      42.236  46.473  21.248 -0.36 +0.01    +0.042 C  ATOM     27  C   UNL     1      43.559  46.647  20.509 -0.13 +0.04    +0.072 C  BRANCH  27  28ATOM     28  N   UNL     1      44.543  47.379  21.302 -0.53 -0.23    -0.326 NA ATOM     29  H   UNL     1      45.246  47.785  20.684 -0.28 +0.12    +0.119 HD ATOM     30  H   UNL     1      44.089  48.160  21.773 -0.52 +0.02    +0.119 HD ENDBRANCH  27  28ENDBRANCH   3  23TORSDOF 5TERENDMDL