MODEL        1USER    Run = 1USERUSER    Estimated Free Energy of Binding    =  -8.65 kcal/mol  [=(1)+(2)+(3)-(4)]USERUSER    (1) Final Intermolecular Energy     = -11.33 kcal/molUSER        vdW + Hbond + desolv Energy     = -11.19 kcal/molUSER        Electrostatic Energy            =  -0.14 kcal/molUSER        Moving Ligand-Fixed Receptor    = -11.33 kcal/molUSER        Moving Ligand-Moving Receptor   =  +0.00 kcal/molUSER    (2) Final Total Internal Energy     =  -2.33 kcal/molUSER    (3) Torsional Free Energy           =  +2.68 kcal/molUSER    (4) Unbound System's Energy         =  -2.33 kcal/molUSERUSERREMARK SMILES O=S(=O)(NC=Cc1ccnc(NC2CC2)c1O)Nc1ccc(Cl)c(Cl)c1REMARK SMILES IDX 4 1 2 3 1 4 3 5 18 6 19 8 20 9 26 10 21 11 24 12 22 13 25 14REMARK SMILES IDX 23 15 5 16 6 17 7 18 8 19 16 20 9 21 11 22 10 23 17 24 12 26REMARK SMILES IDX 13 28 14 29 15 30REMARK H PARENT 4 2 18 7 17 25 12 27USER                              x       y       z     vdW  Elec       q    TypeUSER                           _______ _______ _______ _____ _____    ______ ____ROOTATOM      1  N   UNL     1      34.785  45.870  16.473 -0.16 +0.26    -0.274 N  ATOM      2  H   UNL     1      35.541  46.549  16.432 +0.10 -0.19    +0.181 HD ENDROOTBRANCH   1   3ATOM      3  S   UNL     1      33.931  45.837  17.907 -0.41 -0.23    +0.321 S  ATOM      4  O   UNL     1      32.568  45.487  17.580 -0.34 +0.07    -0.183 OA ATOM      5  O   UNL     1      34.260  46.986  18.714 -1.16 +0.12    -0.183 OA BRANCH   3   6ATOM      6  N   UNL     1      34.609  44.455  18.601 -0.18 +0.08    -0.267 N  ATOM      7  H   UNL     1      34.431  43.650  18.005 +0.14 -0.05    +0.181 HD BRANCH   6   8ATOM      8  C   UNL     1      35.924  44.559  19.147 -0.32 -0.01    +0.052 A  ATOM      9  C   UNL     1      36.147  44.102  20.449 -0.37 -0.00    +0.028 A  ATOM     10  C   UNL     1      36.986  45.053  18.390 -0.30 -0.01    +0.048 A  ATOM     11  C   UNL     1      37.435  44.118  20.986 -0.37 +0.00    +0.024 A  ATOM     12  C   UNL     1      38.278  45.071  18.927 -0.34 -0.01    +0.061 A  ATOM     13  C   UNL     1      38.504  44.596  20.225 -0.33 -0.00    +0.059 A  ATOM     14  Cl  UNL     1      39.555  45.678  17.933 -0.60 +0.01    -0.083 Cl ATOM     15  Cl  UNL     1      40.077  44.543  20.935 -0.45 -0.00    -0.083 Cl ENDBRANCH   6   8ENDBRANCH   3   6ENDBRANCH   1   3BRANCH   1  16ATOM     16  C   UNL     1      34.985  44.642  15.793 -0.32 -0.05    +0.097 C  BRANCH  16  17ATOM     17  C   UNL     1      36.019  44.580  14.944 -0.37 -0.01    +0.030 C  BRANCH  17  18ATOM     18  C   UNL     1      36.525  45.703  14.144 -0.41 -0.01    +0.023 A  ATOM     19  C   UNL     1      36.407  45.680  12.756 -0.51 -0.01    +0.032 A  ATOM     20  C   UNL     1      37.200  46.771  14.739 -0.30 -0.09    +0.165 A  ATOM     21  C   UNL     1      36.992  46.708  12.034 -0.56 -0.04    +0.114 A  ATOM     22  C   UNL     1      37.750  47.780  13.937 -0.40 -0.07    +0.169 A  ATOM     23  N   UNL     1      37.672  47.736  12.590 -0.93 +0.02    -0.236 NA BRANCH  20  24ATOM     24  O   UNL     1      37.361  46.809  16.102 -0.09 +0.30    -0.504 OA ATOM     25  H   UNL     1      37.374  47.753  16.346 +0.21 -0.24    +0.293 HD ENDBRANCH  20  24BRANCH  22  26ATOM     26  N   UNL     1      38.429  48.847  14.596 -0.19 +0.22    -0.364 N  ATOM     27  H   UNL     1      38.053  49.712  14.208 -0.43 -0.15    +0.162 HD BRANCH  26  28ATOM     28  C   UNL     1      39.898  48.806  14.615 -0.51 -0.03    +0.081 C  ATOM     29  C   UNL     1      40.618  48.093  15.725 -0.61 -0.00    +0.027 C  ATOM     30  C   UNL     1      40.687  49.590  15.625 -0.70 -0.01    +0.027 C  ENDBRANCH  26  28ENDBRANCH  22  26ENDBRANCH  17  18ENDBRANCH  16  17ENDBRANCH   1  16TORSDOF 9TERENDMDL