REMARK SMILES O=S(=O)(NC=Cc1ccnc(NC2CC2)c1O)Nc1ccc(Cl)c(Cl)c1
REMARK SMILES IDX 4 1 2 3 1 4 3 5 18 6 19 8 20 9 26 10 21 11 24 12 22 13 25 14
REMARK SMILES IDX 23 15 5 16 6 17 7 18 8 19 16 20 9 21 11 22 10 23 17 24 12 26
REMARK SMILES IDX 13 28 14 29 15 30
REMARK H PARENT 4 2 18 7 17 25 12 27
ROOT
ATOM      1  N   UNL     1      -2.166   1.551   1.284  1.00  0.00    -0.274 N 
ATOM      2  H   UNL     1      -1.472   2.197   0.916  1.00  0.00     0.181 HD
ENDROOT
BRANCH   1   3
ATOM      3  S   UNL     1      -3.737   1.833   0.793  1.00  0.00     0.321 S 
ATOM      4  O   UNL     1      -3.950   3.260   0.853  1.00  0.00    -0.183 OA
ATOM      5  O   UNL     1      -4.634   0.892   1.418  1.00  0.00    -0.183 OA
BRANCH   3   6
ATOM      6  N   UNL     1      -3.587   1.456  -0.846  1.00  0.00    -0.267 N 
ATOM      7  H   UNL     1      -3.289   2.282  -1.361  1.00  0.00     0.181 HD
BRANCH   6   8
ATOM      8  C   UNL     1      -2.945   0.229  -1.193  1.00  0.00     0.052 A 
ATOM      9  C   UNL     1      -1.719   0.281  -1.863  1.00  0.00     0.028 A 
ATOM     10  C   UNL     1      -3.490  -1.002  -0.830  1.00  0.00     0.048 A 
ATOM     11  C   UNL     1      -1.028  -0.897  -2.150  1.00  0.00     0.024 A 
ATOM     12  C   UNL     1      -2.799  -2.184  -1.117  1.00  0.00     0.061 A 
ATOM     13  C   UNL     1      -1.562  -2.131  -1.772  1.00  0.00     0.059 A 
ATOM     14  Cl  UNL     1      -3.517  -3.677  -0.625  1.00  0.00    -0.083 Cl
ATOM     15  Cl  UNL     1      -0.630  -3.544  -2.116  1.00  0.00    -0.083 Cl
ENDBRANCH   6   8
ENDBRANCH   3   6
ENDBRANCH   1   3
BRANCH   1  16
ATOM     16  C   UNL     1      -1.962   1.067   2.601  1.00  0.00     0.097 C 
BRANCH  16  17
ATOM     17  C   UNL     1      -0.696   0.830   2.970  1.00  0.00     0.030 C 
BRANCH  17  18
ATOM     18  C   UNL     1       0.478   0.962   2.097  1.00  0.00     0.023 A 
ATOM     19  C   UNL     1       1.163   2.172   2.026  1.00  0.00     0.032 A 
ATOM     20  C   UNL     1       0.883  -0.084   1.265  1.00  0.00     0.165 A 
ATOM     21  C   UNL     1       2.197   2.285   1.110  1.00  0.00     0.114 A 
ATOM     22  C   UNL     1       1.951   0.106   0.377  1.00  0.00     0.169 A 
ATOM     23  N   UNL     1       2.587   1.292   0.279  1.00  0.00    -0.236 NA
BRANCH  20  24
ATOM     24  O   UNL     1       0.210  -1.281   1.288  1.00  0.00    -0.504 OA
ATOM     25  H   UNL     1       0.431  -1.731   0.451  1.00  0.00     0.293 HD
ENDBRANCH  20  24
BRANCH  22  26
ATOM     26  N   UNL     1       2.323  -0.995  -0.449  1.00  0.00    -0.364 N 
ATOM     27  H   UNL     1       2.549  -1.765   0.181  1.00  0.00     0.162 HD
BRANCH  26  28
ATOM     28  C   UNL     1       3.351  -0.758  -1.472  1.00  0.00     0.081 C 
ATOM     29  C   UNL     1       4.010  -1.920  -2.161  1.00  0.00     0.027 C 
ATOM     30  C   UNL     1       4.798  -1.065  -1.210  1.00  0.00     0.027 C 
ENDBRANCH  26  28
ENDBRANCH  22  26
ENDBRANCH  17  18
ENDBRANCH  16  17
ENDBRANCH   1  16
TORSDOF 9
