
     RDKit          3D

 50 52  0  0  0  0  0  0  0  0999 V2000
   -8.1269   -0.6172   -1.5633 N   0  0  0  0  0  0  0  0  0  0  0  0
   -7.4788   -1.7188   -0.8636 C   0  0  0  0  0  0  0  0  0  0  0  0
   -6.6795   -1.2632    0.3595 C   0  0  0  0  0  0  0  0  0  0  0  0
   -5.4882   -0.3662    0.0040 C   0  0  0  0  0  0  0  0  0  0  0  0
   -4.6133   -0.0579    1.2218 C   0  0  0  0  0  0  0  0  0  0  0  0
   -5.3276    0.7260    2.1571 O   0  0  0  0  0  0  0  0  0  0  0  0
   -3.4883    0.7553    0.8843 N   0  0  0  0  0  0  0  0  0  0  0  0
   -2.3708    0.2288    0.2858 C   0  0  0  0  0  0  0  0  0  0  0  0
   -2.2743   -0.9447   -0.0564 O   0  0  0  0  0  0  0  0  0  0  0  0
   -1.2247    1.1549    0.0822 C   0  0  0  0  0  0  0  0  0  0  0  0
   -1.3996    2.5333   -0.0752 C   0  0  0  0  0  0  0  0  0  0  0  0
   -0.2896    3.3536   -0.2726 C   0  0  0  0  0  0  0  0  0  0  0  0
    0.9912    2.7980   -0.3304 C   0  0  0  0  0  0  0  0  0  0  0  0
    1.1904    1.4121   -0.2046 C   0  0  0  0  0  0  0  0  0  0  0  0
    2.5418    0.8443   -0.2818 C   0  0  0  0  0  0  0  0  0  0  0  0
    3.4305    1.3457    0.6035 N   0  0  0  0  0  0  0  0  0  0  0  0
    4.7080    0.8767    0.5935 N   0  0  0  0  0  0  0  0  0  0  0  0
    5.0632   -0.0734   -0.3011 C   0  0  0  0  0  0  0  0  0  0  0  0
    6.4554   -0.5649   -0.2821 C   0  0  0  0  0  0  0  0  0  0  0  0
    6.8973   -1.5487   -1.1926 C   0  0  0  0  0  0  0  0  0  0  0  0
    8.2148   -2.0183   -1.1798 C   0  0  0  0  0  0  0  0  0  0  0  0
    9.1129   -1.5095   -0.2532 C   0  0  0  0  0  0  0  0  0  0  0  0
   10.3748   -1.9575   -0.2390 F   0  0  0  0  0  0  0  0  0  0  0  0
    8.7187   -0.5417    0.6593 C   0  0  0  0  0  0  0  0  0  0  0  0
    7.4002   -0.0738    0.6441 C   0  0  0  0  0  0  0  0  0  0  0  0
    4.2173   -0.5925   -1.2114 N   0  0  0  0  0  0  0  0  0  0  0  0
    2.9571   -0.1249   -1.2034 C   0  0  0  0  0  0  0  0  0  0  0  0
    2.1081   -0.6647   -2.1853 N   0  0  0  0  0  0  0  0  0  0  0  0
    0.0637    0.6029    0.0149 C   0  0  0  0  0  0  0  0  0  0  0  0
   -7.4260    0.0068   -1.9601 H   0  0  0  0  0  0  0  0  0  0  0  0
   -8.6696   -0.0572   -0.9074 H   0  0  0  0  0  0  0  0  0  0  0  0
   -8.2521   -2.4242   -0.5402 H   0  0  0  0  0  0  0  0  0  0  0  0
   -6.8291   -2.2574   -1.5619 H   0  0  0  0  0  0  0  0  0  0  0  0
   -6.3128   -2.1565    0.8802 H   0  0  0  0  0  0  0  0  0  0  0  0
   -7.3466   -0.7431    1.0578 H   0  0  0  0  0  0  0  0  0  0  0  0
   -5.8590    0.5761   -0.4182 H   0  0  0  0  0  0  0  0  0  0  0  0
   -4.8886   -0.8535   -0.7740 H   0  0  0  0  0  0  0  0  0  0  0  0
   -4.2599   -0.9744    1.7079 H   0  0  0  0  0  0  0  0  0  0  0  0
   -5.9353    0.1229    2.6170 H   0  0  0  0  0  0  0  0  0  0  0  0
   -3.4635    1.6536    1.3419 H   0  0  0  0  0  0  0  0  0  0  0  0
   -2.3890    2.9819   -0.0648 H   0  0  0  0  0  0  0  0  0  0  0  0
   -0.4187    4.4278   -0.3869 H   0  0  0  0  0  0  0  0  0  0  0  0
    1.8457    3.4583   -0.4801 H   0  0  0  0  0  0  0  0  0  0  0  0
    6.2056   -1.9603   -1.9280 H   0  0  0  0  0  0  0  0  0  0  0  0
    8.5390   -2.7753   -1.8867 H   0  0  0  0  0  0  0  0  0  0  0  0
    9.4350   -0.1553    1.3774 H   0  0  0  0  0  0  0  0  0  0  0  0
    7.1137    0.6860    1.3706 H   0  0  0  0  0  0  0  0  0  0  0  0
    1.7114    0.0828   -2.7494 H   0  0  0  0  0  0  0  0  0  0  0  0
    1.3338   -1.1622   -1.7543 H   0  0  0  0  0  0  0  0  0  0  0  0
    0.1821   -0.4707    0.1590 H   0  0  0  0  0  0  0  0  0  0  0  0
  1  2  1  0
  2  3  1  0
  3  4  1  0
  4  5  1  0
  5  6  1  0
  5  7  1  0
  7  8  1  0
  8  9  2  0
  8 10  1  0
 10 11  2  0
 11 12  1  0
 12 13  2  0
 13 14  1  0
 14 15  1  0
 15 16  2  0
 16 17  1  0
 17 18  2  0
 18 19  1  0
 19 20  2  0
 20 21  1  0
 21 22  2  0
 22 23  1  0
 22 24  1  0
 24 25  2  0
 18 26  1  0
 26 27  2  0
 27 28  1  0
 14 29  2  0
 29 10  1  0
 27 15  1  0
 25 19  1  0
  1 30  1  0
  1 31  1  0
  2 32  1  0
  2 33  1  0
  3 34  1  0
  3 35  1  0
  4 36  1  0
  4 37  1  0
  5 38  1  0
  6 39  1  0
  7 40  1  0
 11 41  1  0
 12 42  1  0
 13 43  1  0
 20 44  1  0
 21 45  1  0
 24 46  1  0
 25 47  1  0
 28 48  1  0
 28 49  1  0
 29 50  1  0
M  END
$$$$
