
     RDKit          3D

 60 63  0  0  0  0  0  0  0  0999 V2000
    0.5918    0.8900   -2.0062 O   0  0  0  0  0  0  0  0  0  0  0  0
    0.6645    0.1149   -1.0595 C   0  0  0  0  0  0  0  0  0  0  0  0
   -0.4342   -0.4989   -0.4909 N   0  0  0  0  0  0  0  0  0  0  0  0
   -1.7944   -0.2477   -0.9777 C   0  0  2  0  0  0  0  0  0  0  0  0
   -2.2344    1.1703   -0.5585 C   0  0  0  0  0  0  0  0  0  0  0  0
   -3.7315    1.4428   -0.4041 C   0  0  0  0  0  0  0  0  0  0  0  0
   -4.2722    0.8631    0.9046 C   0  0  0  0  0  0  0  0  0  0  0  0
   -5.4050    1.5636    1.3729 O   0  0  0  0  0  0  0  0  0  0  0  0
   -4.5319   -0.5665    0.8156 N   0  0  0  0  0  0  0  0  0  0  0  0
   -5.6744   -1.1673    0.2678 C   0  0  0  0  0  0  0  0  0  0  0  0
   -5.7145   -2.3428   -0.0945 O   0  0  0  0  0  0  0  0  0  0  0  0
   -6.9074   -0.3956    0.0674 C   0  0  0  0  0  0  0  0  0  0  0  0
   -7.7338   -0.1066    1.1493 C   0  0  0  0  0  0  0  0  0  0  0  0
   -8.8861    0.6082    0.8904 C   0  0  0  0  0  0  0  0  0  0  0  0
   -9.2536    1.0154   -0.3462 N   0  0  0  0  0  0  0  0  0  0  0  0
   -8.4502    0.6716   -1.3773 C   0  0  0  0  0  0  0  0  0  0  0  0
   -7.2715   -0.0315   -1.2260 C   0  0  0  0  0  0  0  0  0  0  0  0
   -3.3262   -1.3929    0.7811 C   0  0  0  0  0  0  0  0  0  0  0  0
   -2.7085   -1.4282   -0.6186 C   0  0  0  0  0  0  0  0  0  0  0  0
    1.9940   -0.2253   -0.4813 C   0  0  0  0  0  0  0  0  0  0  0  0
    3.1186   -0.1402   -1.3142 C   0  0  0  0  0  0  0  0  0  0  0  0
    4.3919   -0.4355   -0.8191 C   0  0  0  0  0  0  0  0  0  0  0  0
    4.5474   -0.7955    0.5233 C   0  0  0  0  0  0  0  0  0  0  0  0
    5.8749   -1.1312    1.0879 C   0  0  0  0  0  0  0  0  0  0  0  0
    5.9700   -2.0976    1.8441 O   0  0  0  0  0  0  0  0  0  0  0  0
    7.1015   -0.3586    0.7657 C   0  0  0  0  0  0  0  0  0  0  0  0
    7.0333    0.9930    0.4011 C   0  0  0  0  0  0  0  0  0  0  0  0
    8.2015    1.6905    0.1001 C   0  0  0  0  0  0  0  0  0  0  0  0
    8.0760    3.0002   -0.2563 O   0  0  0  0  0  0  0  0  0  0  0  0
    9.4435    1.0730    0.1658 C   0  0  0  0  0  0  0  0  0  0  0  0
    9.5105   -0.2610    0.5544 C   0  0  0  0  0  0  0  0  0  0  0  0
   10.7150   -0.8462    0.6325 F   0  0  0  0  0  0  0  0  0  0  0  0
    8.3557   -0.9794    0.8666 C   0  0  0  0  0  0  0  0  0  0  0  0
    8.5027   -2.2830    1.2651 O   0  0  0  0  0  0  0  0  0  0  0  0
    3.4266   -0.8909    1.3568 C   0  0  0  0  0  0  0  0  0  0  0  0
    2.1531   -0.5952    0.8602 C   0  0  0  0  0  0  0  0  0  0  0  0
   -0.2916   -1.2234    0.2005 H   0  0  0  0  0  0  0  0  0  0  0  0
   -1.7204   -0.2473   -2.0742 H   0  0  0  0  0  0  0  0  0  0  0  0
   -1.8447    1.8736   -1.3071 H   0  0  0  0  0  0  0  0  0  0  0  0
   -1.7313    1.4529    0.3768 H   0  0  0  0  0  0  0  0  0  0  0  0
   -4.2860    1.0713   -1.2733 H   0  0  0  0  0  0  0  0  0  0  0  0
   -3.8764    2.5308   -0.3921 H   0  0  0  0  0  0  0  0  0  0  0  0
   -3.5290    0.9991    1.6985 H   0  0  0  0  0  0  0  0  0  0  0  0
   -5.8569    1.9611    0.6102 H   0  0  0  0  0  0  0  0  0  0  0  0
   -7.4737   -0.4094    2.1568 H   0  0  0  0  0  0  0  0  0  0  0  0
   -9.5666    0.8849    1.6910 H   0  0  0  0  0  0  0  0  0  0  0  0
   -8.7964    0.9860   -2.3580 H   0  0  0  0  0  0  0  0  0  0  0  0
   -6.6645   -0.2996   -2.0829 H   0  0  0  0  0  0  0  0  0  0  0  0
   -3.6030   -2.4143    1.0699 H   0  0  0  0  0  0  0  0  0  0  0  0
   -2.6120   -1.0421    1.5347 H   0  0  0  0  0  0  0  0  0  0  0  0
   -3.5026   -1.4870   -1.3731 H   0  0  0  0  0  0  0  0  0  0  0  0
   -2.1357   -2.3599   -0.7185 H   0  0  0  0  0  0  0  0  0  0  0  0
    3.0013    0.1502   -2.3574 H   0  0  0  0  0  0  0  0  0  0  0  0
    5.2428   -0.3911   -1.4944 H   0  0  0  0  0  0  0  0  0  0  0  0
    6.0869    1.5262    0.3597 H   0  0  0  0  0  0  0  0  0  0  0  0
    8.9577    3.3707   -0.4339 H   0  0  0  0  0  0  0  0  0  0  0  0
   10.3631    1.5986   -0.0647 H   0  0  0  0  0  0  0  0  0  0  0  0
    7.6431   -2.5896    1.6325 H   0  0  0  0  0  0  0  0  0  0  0  0
    3.5452   -1.1860    2.3980 H   0  0  0  0  0  0  0  0  0  0  0  0
    1.3076   -0.6348    1.5403 H   0  0  0  0  0  0  0  0  0  0  0  0
  1  2  2  0
  2  3  1  0
  3  4  1  0
  4  5  1  0
  5  6  1  0
  6  7  1  0
  7  8  1  0
  7  9  1  0
  9 10  1  0
 10 11  2  0
 10 12  1  0
 12 13  2  0
 13 14  1  0
 14 15  2  0
 15 16  1  0
 16 17  2  0
  9 18  1  0
 18 19  1  0
  2 20  1  0
 20 21  2  0
 21 22  1  0
 22 23  2  0
 23 24  1  0
 24 25  2  0
 24 26  1  0
 26 27  2  0
 27 28  1  0
 28 29  1  0
 28 30  2  0
 30 31  1  0
 31 32  1  0
 31 33  2  0
 33 34  1  0
 23 35  1  0
 35 36  2  0
 19  4  1  0
 36 20  1  0
 17 12  1  0
 33 26  1  0
  3 37  1  0
  4 38  1  6
  5 39  1  0
  5 40  1  0
  6 41  1  0
  6 42  1  0
  7 43  1  0
  8 44  1  0
 13 45  1  0
 14 46  1  0
 16 47  1  0
 17 48  1  0
 18 49  1  0
 18 50  1  0
 19 51  1  0
 19 52  1  0
 21 53  1  0
 22 54  1  0
 27 55  1  0
 29 56  1  0
 30 57  1  0
 34 58  1  0
 35 59  1  0
 36 60  1  0
M  END
$$$$
