
     RDKit          3D

 64 67  0  0  0  0  0  0  0  0999 V2000
    8.0821    0.0490    0.2306 C   0  0  0  0  0  0  0  0  0  0  0  0
    7.4495    1.1469   -0.5019 N   0  0  0  0  0  0  0  0  0  0  0  0
    8.3816    2.1610   -0.9962 C   0  0  0  0  0  0  0  0  0  0  0  0
    6.3260    1.6958    0.1449 C   0  0  0  0  0  0  0  0  0  0  0  0
    5.2828    0.8725    0.5583 C   0  0  0  0  0  0  0  0  0  0  0  0
    4.1603    1.4410    1.1641 C   0  0  0  0  0  0  0  0  0  0  0  0
    3.0426    0.5960    1.6410 C   0  0  0  0  0  0  0  0  0  0  0  0
    2.5818    0.8344    2.7551 O   0  0  0  0  0  0  0  0  0  0  0  0
    2.5712   -0.4409    0.8186 N   0  0  0  0  0  0  0  0  0  0  0  0
    1.5598   -1.3048    1.4228 C   0  0  0  0  0  0  0  0  0  0  0  0
    1.4347   -2.6368    0.6976 C   0  0  0  0  0  0  0  0  0  0  0  0
    1.1925   -2.4422   -0.8025 C   0  0  0  0  0  0  0  0  0  0  0  0
   -0.1407   -1.9069   -1.0758 N   0  0  0  0  0  0  0  0  0  0  0  0
   -1.2670   -2.6998   -0.9664 C   0  0  0  0  0  0  0  0  0  0  0  0
   -1.2319   -3.9001   -0.7292 O   0  0  0  0  0  0  0  0  0  0  0  0
   -2.5755   -1.9952   -1.0750 C   0  0  0  0  0  0  0  0  0  0  0  0
   -3.6824   -2.5392   -0.4051 C   0  0  0  0  0  0  0  0  0  0  0  0
   -4.9178   -1.8884   -0.4411 C   0  0  0  0  0  0  0  0  0  0  0  0
   -5.0438   -0.6907   -1.1505 C   0  0  0  0  0  0  0  0  0  0  0  0
   -6.3254    0.0386   -1.1868 C   0  0  0  0  0  0  0  0  0  0  0  0
   -6.8390    0.2582   -2.2836 O   0  0  0  0  0  0  0  0  0  0  0  0
   -6.9943    0.5239    0.0531 C   0  0  0  0  0  0  0  0  0  0  0  0
   -6.3187    0.5501    1.2852 C   0  0  0  0  0  0  0  0  0  0  0  0
   -6.9721    1.0246    2.4233 C   0  0  0  0  0  0  0  0  0  0  0  0
   -6.3515    1.0617    3.6364 O   0  0  0  0  0  0  0  0  0  0  0  0
   -8.2806    1.4821    2.3598 C   0  0  0  0  0  0  0  0  0  0  0  0
   -8.9421    1.4755    1.1384 C   0  0  0  0  0  0  0  0  0  0  0  0
  -10.2009    1.9341    1.0848 F   0  0  0  0  0  0  0  0  0  0  0  0
   -8.3112    1.0083   -0.0160 C   0  0  0  0  0  0  0  0  0  0  0  0
   -9.0214    1.0589   -1.1872 O   0  0  0  0  0  0  0  0  0  0  0  0
   -3.9599   -0.1678   -1.8647 C   0  0  0  0  0  0  0  0  0  0  0  0
   -2.7244   -0.8193   -1.8253 C   0  0  0  0  0  0  0  0  0  0  0  0
    2.2845   -1.5447   -1.3940 C   0  0  0  0  0  0  0  0  0  0  0  0
    2.4390   -0.2349   -0.6269 C   0  0  0  0  0  0  0  0  0  0  0  0
    4.1091    2.8090    1.3945 C   0  0  0  0  0  0  0  0  0  0  0  0
    5.1726    3.5587    0.9488 C   0  0  0  0  0  0  0  0  0  0  0  0
    6.2491    3.0348    0.3223 N   0  0  0  0  0  0  0  0  0  0  0  0
    9.0263   -0.2376   -0.2457 H   0  0  0  0  0  0  0  0  0  0  0  0
    7.4547   -0.8478    0.2278 H   0  0  0  0  0  0  0  0  0  0  0  0
    8.3029    0.3307    1.2661 H   0  0  0  0  0  0  0  0  0  0  0  0
    9.1785    1.6822   -1.5780 H   0  0  0  0  0  0  0  0  0  0  0  0
    7.8842    2.8643   -1.6752 H   0  0  0  0  0  0  0  0  0  0  0  0
    8.8534    2.7152   -0.1767 H   0  0  0  0  0  0  0  0  0  0  0  0
    5.3259   -0.1986    0.4003 H   0  0  0  0  0  0  0  0  0  0  0  0
    0.6059   -0.7632    1.4152 H   0  0  0  0  0  0  0  0  0  0  0  0
    1.8205   -1.4886    2.4708 H   0  0  0  0  0  0  0  0  0  0  0  0
    2.3648   -3.2036    0.8308 H   0  0  0  0  0  0  0  0  0  0  0  0
    0.6327   -3.2257    1.1567 H   0  0  0  0  0  0  0  0  0  0  0  0
    1.2441   -3.4247   -1.2900 H   0  0  0  0  0  0  0  0  0  0  0  0
   -0.2659   -0.9066   -1.0108 H   0  0  0  0  0  0  0  0  0  0  0  0
   -3.5813   -3.4776    0.1423 H   0  0  0  0  0  0  0  0  0  0  0  0
   -5.7724   -2.3352    0.0649 H   0  0  0  0  0  0  0  0  0  0  0  0
   -5.2870    0.2231    1.3657 H   0  0  0  0  0  0  0  0  0  0  0  0
   -5.4497    0.7090    3.5609 H   0  0  0  0  0  0  0  0  0  0  0  0
   -8.7869    1.8537    3.2455 H   0  0  0  0  0  0  0  0  0  0  0  0
   -8.4294    0.7785   -1.9219 H   0  0  0  0  0  0  0  0  0  0  0  0
   -4.0795    0.7406   -2.4536 H   0  0  0  0  0  0  0  0  0  0  0  0
   -1.8975   -0.4119   -2.4027 H   0  0  0  0  0  0  0  0  0  0  0  0
    3.2409   -2.0820   -1.3583 H   0  0  0  0  0  0  0  0  0  0  0  0
    2.0744   -1.3297   -2.4478 H   0  0  0  0  0  0  0  0  0  0  0  0
    3.2916    0.3167   -1.0301 H   0  0  0  0  0  0  0  0  0  0  0  0
    1.5616    0.4074   -0.7770 H   0  0  0  0  0  0  0  0  0  0  0  0
    3.2706    3.2723    1.9023 H   0  0  0  0  0  0  0  0  0  0  0  0
    5.1979    4.6360    1.0853 H   0  0  0  0  0  0  0  0  0  0  0  0
  1  2  1  0
  2  3  1  0
  2  4  1  0
  4  5  2  0
  5  6  1  0
  6  7  1  0
  7  8  2  0
  7  9  1  0
  9 10  1  0
 10 11  1  0
 11 12  1  0
 12 13  1  0
 13 14  1  0
 14 15  2  0
 14 16  1  0
 16 17  2  0
 17 18  1  0
 18 19  2  0
 19 20  1  0
 20 21  2  0
 20 22  1  0
 22 23  2  0
 23 24  1  0
 24 25  1  0
 24 26  2  0
 26 27  1  0
 27 28  1  0
 27 29  2  0
 29 30  1  0
 19 31  1  0
 31 32  2  0
 12 33  1  0
 33 34  1  0
  6 35  2  0
 35 36  1  0
 36 37  2  0
 37  4  1  0
 34  9  1  0
 32 16  1  0
 29 22  1  0
  1 38  1  0
  1 39  1  0
  1 40  1  0
  3 41  1  0
  3 42  1  0
  3 43  1  0
  5 44  1  0
 10 45  1  0
 10 46  1  0
 11 47  1  0
 11 48  1  0
 12 49  1  0
 13 50  1  0
 17 51  1  0
 18 52  1  0
 23 53  1  0
 25 54  1  0
 26 55  1  0
 30 56  1  0
 31 57  1  0
 32 58  1  0
 33 59  1  0
 33 60  1  0
 34 61  1  0
 34 62  1  0
 35 63  1  0
 36 64  1  0
M  END
$$$$
