
     RDKit          3D

 56 59  0  0  0  0  0  0  0  0999 V2000
    8.0470    0.0391    1.0825 C   0  0  0  0  0  0  0  0  0  0  0  0
    7.3118   -0.9534   -0.1896 S   0  0  0  0  0  0  0  0  0  0  0  0
    7.8294   -0.5673   -1.4883 O   0  0  0  0  0  0  0  0  0  0  0  0
    7.2663   -2.3412    0.2246 O   0  0  0  0  0  0  0  0  0  0  0  0
    5.6214   -0.4423   -0.2152 C   0  0  0  0  0  0  0  0  0  0  0  0
    5.0382    0.4214    0.6074 N   0  0  0  0  0  0  0  0  0  0  0  0
    3.7259    0.4451    0.2089 C   0  0  0  0  0  0  0  0  0  0  0  0
    3.5132   -0.3727   -0.8730 C   0  0  0  0  0  0  0  0  0  0  0  0
    4.7263   -0.9414   -1.1363 N   0  0  0  0  0  0  0  0  0  0  0  0
    2.2425   -0.5857   -1.5983 C   0  0  0  0  0  0  0  0  0  0  0  0
    1.1467    0.0469   -0.8411 N   0  0  0  0  0  0  0  0  0  0  0  0
   -0.1332   -0.4213   -1.1151 C   0  0  0  0  0  0  0  0  0  0  0  0
   -0.3193   -1.3450   -1.9199 O   0  0  0  0  0  0  0  0  0  0  0  0
   -1.3518    0.2516   -0.4469 C   0  0  1  0  0  0  0  0  0  0  0  0
   -1.7862    1.4522   -1.3022 C   0  0  0  0  0  0  0  0  0  0  0  0
   -2.8904    2.2694   -0.6702 C   0  0  0  0  0  0  0  0  0  0  0  0
   -4.1905    2.2328   -1.1971 C   0  0  0  0  0  0  0  0  0  0  0  0
   -5.2105    2.9848   -0.6115 C   0  0  0  0  0  0  0  0  0  0  0  0
   -4.9323    3.7713    0.4995 C   0  0  0  0  0  0  0  0  0  0  0  0
   -5.9124    4.4928    1.0597 F   0  0  0  0  0  0  0  0  0  0  0  0
   -3.6518    3.8222    1.0363 C   0  0  0  0  0  0  0  0  0  0  0  0
   -2.6293    3.0728    0.4519 C   0  0  0  0  0  0  0  0  0  0  0  0
   -2.4037   -0.7746   -0.3881 N   0  0  0  0  0  0  0  0  0  0  0  0
   -2.6562   -1.4423    0.7943 C   0  0  0  0  0  0  0  0  0  0  0  0
   -2.1741   -1.1060    1.8719 O   0  0  0  0  0  0  0  0  0  0  0  0
   -3.5293   -2.6457    0.7125 C   0  0  0  0  0  0  0  0  0  0  0  0
   -4.3790   -2.8835   -0.3697 C   0  0  0  0  0  0  0  0  0  0  0  0
   -5.1448   -4.0372   -0.3497 C   0  0  0  0  0  0  0  0  0  0  0  0
   -5.1234   -4.9385    0.6571 N   0  0  0  0  0  0  0  0  0  0  0  0
   -4.3093   -4.6725    1.7010 C   0  0  0  0  0  0  0  0  0  0  0  0
   -3.5038   -3.5517    1.7762 C   0  0  0  0  0  0  0  0  0  0  0  0
    1.4460    1.3260   -0.1406 C   0  0  0  0  0  0  0  0  0  0  0  0
    2.6429    1.2440    0.8438 C   0  0  0  0  0  0  0  0  0  0  0  0
    3.0873    2.5581    1.1740 O   0  0  0  0  0  0  0  0  0  0  0  0
    7.9707    1.0915    0.8004 H   0  0  0  0  0  0  0  0  0  0  0  0
    9.0970   -0.2480    1.1735 H   0  0  0  0  0  0  0  0  0  0  0  0
    7.5270   -0.1539    2.0217 H   0  0  0  0  0  0  0  0  0  0  0  0
    4.9557   -1.6194   -1.8517 H   0  0  0  0  0  0  0  0  0  0  0  0
    2.0472   -1.6561   -1.7267 H   0  0  0  0  0  0  0  0  0  0  0  0
    2.2773   -0.1136   -2.5868 H   0  0  0  0  0  0  0  0  0  0  0  0
   -1.0979    0.5498    0.5737 H   0  0  0  0  0  0  0  0  0  0  0  0
   -2.1042    1.1072   -2.2962 H   0  0  0  0  0  0  0  0  0  0  0  0
   -0.9377    2.1221   -1.4906 H   0  0  0  0  0  0  0  0  0  0  0  0
   -4.4187    1.6171   -2.0639 H   0  0  0  0  0  0  0  0  0  0  0  0
   -6.2185    2.9619   -1.0125 H   0  0  0  0  0  0  0  0  0  0  0  0
   -3.4583    4.4412    1.9070 H   0  0  0  0  0  0  0  0  0  0  0  0
   -1.6308    3.1192    0.8825 H   0  0  0  0  0  0  0  0  0  0  0  0
   -2.4913   -1.3155   -1.2425 H   0  0  0  0  0  0  0  0  0  0  0  0
   -4.4751   -2.1944   -1.1998 H   0  0  0  0  0  0  0  0  0  0  0  0
   -5.8230   -4.2737   -1.1654 H   0  0  0  0  0  0  0  0  0  0  0  0
   -4.3203   -5.4099    2.5008 H   0  0  0  0  0  0  0  0  0  0  0  0
   -2.8693   -3.3902    2.6420 H   0  0  0  0  0  0  0  0  0  0  0  0
    0.5787    1.7074    0.4019 H   0  0  0  0  0  0  0  0  0  0  0  0
    1.6507    2.0692   -0.9236 H   0  0  0  0  0  0  0  0  0  0  0  0
    2.3269    0.7434    1.7663 H   0  0  0  0  0  0  0  0  0  0  0  0
    4.0004    2.4368    1.5008 H   0  0  0  0  0  0  0  0  0  0  0  0
  1  2  1  0
  2  3  2  0
  2  4  2  0
  2  5  1  0
  5  6  2  0
  6  7  1  0
  7  8  2  0
  8  9  1  0
  8 10  1  0
 10 11  1  0
 11 12  1  0
 12 13  2  0
 12 14  1  0
 14 15  1  0
 15 16  1  0
 16 17  2  0
 17 18  1  0
 18 19  2  0
 19 20  1  0
 19 21  1  0
 21 22  2  0
 14 23  1  0
 23 24  1  0
 24 25  2  0
 24 26  1  0
 26 27  2  0
 27 28  1  0
 28 29  2  0
 29 30  1  0
 30 31  2  0
 11 32  1  0
 32 33  1  0
 33 34  1  0
  9  5  1  0
 22 16  1  0
 31 26  1  0
 33  7  1  0
  1 35  1  0
  1 36  1  0
  1 37  1  0
  9 38  1  0
 10 39  1  0
 10 40  1  0
 14 41  1  1
 15 42  1  0
 15 43  1  0
 17 44  1  0
 18 45  1  0
 21 46  1  0
 22 47  1  0
 23 48  1  0
 27 49  1  0
 28 50  1  0
 30 51  1  0
 31 52  1  0
 32 53  1  0
 32 54  1  0
 33 55  1  0
 34 56  1  0
M  END
$$$$
