MODEL        7USER    Run = 7USERUSER    Estimated Free Energy of Binding    = -10.26 kcal/mol  [=(1)+(2)+(3)-(4)]USERUSER    (1) Final Intermolecular Energy     = -12.64 kcal/molUSER        vdW + Hbond + desolv Energy     = -12.60 kcal/molUSER        Electrostatic Energy            =  -0.05 kcal/molUSER        Moving Ligand-Fixed Receptor    = -12.64 kcal/molUSER        Moving Ligand-Moving Receptor   =  +0.00 kcal/molUSER    (2) Final Total Internal Energy     =  -1.68 kcal/molUSER    (3) Torsional Free Energy           =  +2.39 kcal/molUSER    (4) Unbound System's Energy         =  -1.68 kcal/molUSERUSERREMARK SMILES CC(=O)Sc1[nH]nccc(N2CCC(C(F)(F)F)CC2)ccc1C=CS(N)(=O)=OREMARK SMILES IDX 24 1 23 2 5 3 6 4 7 5 22 6 8 7 21 8 9 9 10 10 4 12 2 13 1 14REMARK SMILES IDX 3 15 11 16 12 17 20 18 13 19 19 20 14 21 15 22 16 23 17 24REMARK SMILES IDX 18 25 25 26 26 27 28 28 29 29 27 30REMARK H PARENT 6 11 27 31 27 32USER                              x       y       z     vdW  Elec       q    TypeUSER                           _______ _______ _______ _____ _____    ______ ____ROOTATOM      1  C   UNL     1      38.637  46.189  14.146 -0.43 -0.01    +0.024 C  ENDROOTBRANCH   1   2ATOM      2  C   UNL     1      38.973  46.479  15.554 -0.42 -0.00    +0.007 A  ATOM      3  C   UNL     1      39.670  47.605  15.862 -0.43 -0.03    +0.104 A  ATOM      4  N   UNL     1      40.149  47.901  17.117 -0.28 +0.06    -0.271 N  ATOM      5  N   UNL     1      41.382  47.228  17.498 -0.37 +0.02    -0.183 NA ATOM      6  C   UNL     1      38.488  45.554  16.411 -0.34 -0.00    +0.013 A  ATOM      7  C   UNL     1      41.182  46.652  18.687 -0.40 -0.00    +0.135 A  ATOM      8  C   UNL     1      38.475  45.210  17.705 -0.37 -0.00    +0.026 A  ATOM      9  C   UNL     1      40.199  45.971  19.293 -0.37 -0.00    +0.048 A  ATOM     10  C   UNL     1      39.044  45.385  18.916 -0.39 -0.00    +0.038 A  ATOM     11  H   UNL     1      40.349  48.895  17.181 +0.13 -0.05    +0.191 HD BRANCH   3  12ATOM     12  S   UNL     1      39.908  48.874  14.626 -0.67 +0.01    -0.032 SA BRANCH  12  13ATOM     13  C   UNL     1      41.389  49.597  15.245 -0.56 -0.03    +0.192 C  ATOM     14  C   UNL     1      42.418  49.988  14.221 -0.60 -0.01    +0.101 C  ATOM     15  O   UNL     1      41.550  49.785  16.447 -1.05 -0.01    -0.287 OA ENDBRANCH  12  13ENDBRANCH   3  12BRANCH  10  16ATOM     16  N   UNL     1      38.385  44.717  20.015 -0.14 +0.01    -0.371 N  ATOM     17  C   UNL     1      37.296  43.773  19.752 -0.32 -0.01    +0.117 C  ATOM     18  C   UNL     1      39.133  44.490  21.257 -0.31 +0.00    +0.117 C  ATOM     19  C   UNL     1      36.300  43.825  20.908 -0.43 +0.00    +0.034 C  ATOM     20  C   UNL     1      38.170  44.551  22.441 -0.38 +0.00    +0.034 C  ATOM     21  C   UNL     1      36.965  43.613  22.277 -0.37 +0.01    +0.098 C  BRANCH  21  22ATOM     22  C   UNL     1      37.342  42.157  22.506 -0.25 +0.03    +0.391 C  ATOM     23  F   UNL     1      36.890  41.727  23.708 -0.18 -0.00    -0.171 F  ATOM     24  F   UNL     1      38.669  41.932  22.472 -0.09 -0.02    -0.171 F  ATOM     25  F   UNL     1      36.773  41.365  21.565 -0.23 -0.00    -0.171 F  ENDBRANCH  21  22ENDBRANCH  10  16ENDBRANCH   1   2BRANCH   1  26ATOM     26  C   UNL     1      37.358  46.118  13.743 -0.43 -0.05    +0.123 C  BRANCH  26  27ATOM     27  S   UNL     1      36.626  47.461  12.962 -0.68 -0.10    +0.231 S  ATOM     28  O   UNL     1      35.186  47.367  13.059 -0.44 +0.15    -0.208 OA ATOM     29  O   UNL     1      37.285  47.724  11.701 -1.11 +0.03    -0.208 OA BRANCH  27  30ATOM     30  N   UNL     1      37.041  48.770  13.945 -0.46 +0.14    -0.225 NA ATOM     31  H   UNL     1      37.803  49.312  13.542 -0.30 -0.06    +0.137 HD ATOM     32  H   UNL     1      37.177  48.478  14.911 +0.09 -0.12    +0.137 HD ENDBRANCH  27  30ENDBRANCH  26  27ENDBRANCH   1  26TORSDOF 8TERENDMDL