MODEL        10USER    Run = 10USERUSER    Estimated Free Energy of Binding    =  -9.76 kcal/mol  [=(1)+(2)+(3)-(4)]USERUSER    (1) Final Intermolecular Energy     = -12.75 kcal/molUSER        vdW + Hbond + desolv Energy     = -12.73 kcal/molUSER        Electrostatic Energy            =  -0.02 kcal/molUSER        Moving Ligand-Fixed Receptor    = -12.75 kcal/molUSER        Moving Ligand-Moving Receptor   =  +0.00 kcal/molUSER    (2) Final Total Internal Energy     =  -2.22 kcal/molUSER    (3) Torsional Free Energy           =  +2.98 kcal/molUSER    (4) Unbound System's Energy         =  -2.22 kcal/molUSERUSERREMARK SMILES C[C@H](O)C(=O)Sc1[nH]nccc(N2CCC(C(F)(F)F)CC2)ccc1C=CS(N)(=O)=OREMARK SMILES IDX 7 1 8 2 9 3 10 4 11 5 12 6 23 7 24 8 25 9 6 11 4 12 5 13REMARK SMILES IDX 2 14 1 15 3 16 26 18 27 19 28 20 30 21 31 22 29 23 13 26REMARK SMILES IDX 14 27 22 28 15 29 21 30 16 31 17 32 18 33 19 34 20 35REMARK H PARENT 8 10 3 17 29 24 29 25USER                              x       y       z     vdW  Elec       q    TypeUSER                           _______ _______ _______ _____ _____    ______ ____ROOTATOM      1  C   UNL     1      39.856  46.362  16.093 -0.36 -0.02    +0.104 A  ATOM      2  N   UNL     1      40.769  46.510  17.118 -0.28 +0.03    -0.271 N  ATOM      3  N   UNL     1      41.501  45.321  17.522 -0.26 -0.00    -0.183 NA ATOM      4  C   UNL     1      41.420  45.266  18.853 -0.30 +0.01    +0.135 A  ATOM      5  C   UNL     1      40.415  45.162  19.732 -0.38 +0.00    +0.048 A  ATOM      6  C   UNL     1      39.093  44.929  19.609 -0.36 -0.00    +0.038 A  ATOM      7  C   UNL     1      38.312  44.780  18.518 -0.37 -0.00    +0.026 A  ATOM      8  C   UNL     1      38.192  44.950  17.195 -0.34 -0.00    +0.013 A  ATOM      9  C   UNL     1      38.753  45.563  16.127 -0.28 -0.00    +0.007 A  ATOM     10  H   UNL     1      41.495  47.167  16.841 -0.24 -0.03    +0.191 HD ENDROOTBRANCH   1  11ATOM     11  S   UNL     1      40.089  47.440  14.691 -0.61 +0.00    -0.029 SA BRANCH  11  12ATOM     12  C   UNL     1      39.737  49.034  15.365 -0.39 -0.10    +0.223 C  ATOM     13  O   UNL     1      38.569  49.315  15.643 -0.33 +0.21    -0.284 OA BRANCH  12  14ATOM     14  C   UNL     1      40.900  50.015  15.695 -0.55 -0.06    +0.189 C  ATOM     15  C   UNL     1      41.769  50.200  14.452 -0.72 -0.01    +0.048 C  BRANCH  14  16ATOM     16  O   UNL     1      41.768  49.844  16.798 -0.86 -0.06    -0.385 OA ATOM     17  H   UNL     1      41.897  50.748  17.189 -0.43 -0.01    +0.211 HD ENDBRANCH  14  16ENDBRANCH  12  14ENDBRANCH  11  12ENDBRANCH   1  11BRANCH   9  18ATOM     18  C   UNL     1      37.947  45.416  14.894 -0.41 -0.01    +0.024 C  BRANCH  18  19ATOM     19  C   UNL     1      36.787  46.060  14.688 -0.37 -0.06    +0.123 C  BRANCH  19  20ATOM     20  S   UNL     1      36.424  46.695  13.135 -0.61 -0.11    +0.231 S  ATOM     21  O   UNL     1      35.048  47.132  13.057 -0.45 +0.16    -0.208 OA ATOM     22  O   UNL     1      36.989  45.840  12.112 -0.49 +0.07    -0.208 OA BRANCH  20  23ATOM     23  N   UNL     1      37.312  48.124  13.005 -0.90 +0.06    -0.225 NA ATOM     24  H   UNL     1      37.593  48.408  13.946 +0.07 -0.07    +0.137 HD ATOM     25  H   UNL     1      36.728  48.823  12.548 +0.05 -0.03    +0.137 HD ENDBRANCH  20  23ENDBRANCH  19  20ENDBRANCH  18  19ENDBRANCH   9  18BRANCH   6  26ATOM     26  N   UNL     1      38.381  44.707  20.844 -0.15 -0.00    -0.371 N  ATOM     27  C   UNL     1      38.756  45.405  22.080 -0.32 +0.01    +0.117 C  ATOM     28  C   UNL     1      37.011  44.198  20.791 -0.36 -0.00    +0.117 C  ATOM     29  C   UNL     1      37.981  44.856  23.281 -0.34 +0.00    +0.034 C  ATOM     30  C   UNL     1      36.843  43.106  21.849 -0.46 +0.00    +0.034 C  ATOM     31  C   UNL     1      37.687  43.361  23.113 -0.35 +0.01    +0.098 C  BRANCH  31  32ATOM     32  C   UNL     1      37.005  42.792  24.339 -0.18 +0.02    +0.391 C  ATOM     33  F   UNL     1      36.251  43.726  24.960 -0.11 -0.02    -0.171 F  ATOM     34  F   UNL     1      37.900  42.326  25.239 -0.09 +0.00    -0.171 F  ATOM     35  F   UNL     1      36.186  41.767  24.012 -0.19 +0.00    -0.171 F  ENDBRANCH  31  32ENDBRANCH   6  26TORSDOF 10TERENDMDL