MODEL        2USER    Run = 2USERUSER    Estimated Free Energy of Binding    = -10.71 kcal/mol  [=(1)+(2)+(3)-(4)]USERUSER    (1) Final Intermolecular Energy     = -13.39 kcal/molUSER        vdW + Hbond + desolv Energy     = -13.07 kcal/molUSER        Electrostatic Energy            =  -0.32 kcal/molUSER        Moving Ligand-Fixed Receptor    = -13.39 kcal/molUSER        Moving Ligand-Moving Receptor   =  +0.00 kcal/molUSER    (2) Final Total Internal Energy     =  -1.27 kcal/molUSER    (3) Torsional Free Energy           =  +2.68 kcal/molUSER    (4) Unbound System's Energy         =  -1.27 kcal/molUSERUSERREMARK SMILES CC(C)C(=O)Sc1[nH]nccc(N2CCC(C(F)(F)F)CC2)ccc1C=CS(N)(=O)=OREMARK SMILES IDX 7 1 8 2 9 3 10 4 11 5 12 6 23 7 24 8 25 9 6 11 4 12 5 13REMARK SMILES IDX 2 14 1 15 3 16 26 17 27 18 28 19 30 20 31 21 29 22 13 25REMARK SMILES IDX 14 26 22 27 15 28 21 29 16 30 17 31 18 32 19 33 20 34REMARK H PARENT 8 10 29 23 29 24USER                              x       y       z     vdW  Elec       q    TypeUSER                           _______ _______ _______ _____ _____    ______ ____ROOTATOM      1  C   UNL     1      37.981  47.649  15.125 -0.40 -0.06    +0.104 A  ATOM      2  N   UNL     1      39.334  47.623  14.847 -0.28 +0.08    -0.271 N  ATOM      3  N   UNL     1      40.044  48.858  15.028 -0.42 +0.06    -0.183 NA ATOM      4  C   UNL     1      40.788  48.840  16.141 -0.47 -0.02    +0.135 A  ATOM      5  C   UNL     1      41.017  48.067  17.216 -0.48 -0.01    +0.048 A  ATOM      6  C   UNL     1      40.514  46.983  17.847 -0.47 -0.00    +0.038 A  ATOM      7  C   UNL     1      39.307  46.374  17.764 -0.41 -0.00    +0.026 A  ATOM      8  C   UNL     1      38.099  46.400  17.184 -0.36 -0.00    +0.013 A  ATOM      9  C   UNL     1      37.429  46.994  16.178 -0.38 -0.00    +0.007 A  ATOM     10  H   UNL     1      39.808  46.882  15.358 +0.14 -0.04    +0.191 HD ENDROOTBRANCH   1  11ATOM     11  S   UNL     1      36.911  48.474  13.954 -0.79 +0.02    -0.032 SA BRANCH  11  12ATOM     12  C   UNL     1      37.035  47.311  12.640 -0.54 -0.07    +0.197 C  ATOM     13  O   UNL     1      37.964  47.374  11.831 -0.81 +0.00    -0.286 OA BRANCH  12  14ATOM     14  C   UNL     1      36.053  46.151  12.688 -0.60 -0.03    +0.062 C  ATOM     15  C   UNL     1      34.797  46.607  13.426 -0.40 -0.01    +0.016 C  ATOM     16  C   UNL     1      36.689  44.951  13.388 -0.47 -0.01    +0.016 C  ENDBRANCH  12  14ENDBRANCH  11  12ENDBRANCH   1  11BRANCH   9  17ATOM     17  C   UNL     1      35.965  46.832  16.241 -0.34 -0.02    +0.024 C  BRANCH  17  18ATOM     18  C   UNL     1      35.368  45.706  16.660 -0.32 -0.09    +0.123 C  BRANCH  18  19ATOM     19  S   UNL     1      34.121  45.797  17.840 -0.46 -0.16    +0.231 S  ATOM     20  O   UNL     1      32.816  45.730  17.211 -0.36 +0.14    -0.208 OA ATOM     21  O   UNL     1      34.430  44.926  18.956 -0.33 +0.07    -0.208 OA BRANCH  19  22ATOM     22  N   UNL     1      34.203  47.356  18.471 -0.96 +0.21    -0.225 NA ATOM     23  H   UNL     1      33.899  47.335  19.441 -0.40 -0.04    +0.137 HD ATOM     24  H   UNL     1      33.607  47.977  17.919 -0.49 -0.28    +0.137 HD ENDBRANCH  19  22ENDBRANCH  18  19ENDBRANCH  17  18ENDBRANCH   9  17BRANCH   6  25ATOM     25  N   UNL     1      41.428  46.436  18.841 -0.23 -0.01    -0.371 N  ATOM     26  C   UNL     1      41.133  45.248  19.653 -0.39 +0.01    +0.117 C  ATOM     27  C   UNL     1      42.809  46.929  18.914 -0.43 +0.02    +0.117 C  ATOM     28  C   UNL     1      42.149  45.054  20.777 -0.26 +0.01    +0.034 C  ATOM     29  C   UNL     1      43.110  47.368  20.343 -0.38 +0.01    +0.034 C  ATOM     30  C   UNL     1      42.581  46.384  21.405 -0.32 +0.02    +0.098 C  BRANCH  30  31ATOM     31  C   UNL     1      43.623  46.154  22.482 -0.10 +0.14    +0.391 C  ATOM     32  F   UNL     1      43.725  47.218  23.310 -0.05 -0.04    -0.171 F  ATOM     33  F   UNL     1      43.320  45.074  23.239 -0.02 -0.03    -0.171 F  ATOM     34  F   UNL     1      44.846  45.939  21.944 -0.06 -0.17    -0.171 F  ENDBRANCH  30  31ENDBRANCH   6  25TORSDOF 9TERENDMDL