REMARK SMILES CC(C)C(=O)Sc1[nH]nccc(N2CCC(C(F)(F)F)CC2)ccc1C=CS(N)(=O)=O
REMARK SMILES IDX 7 1 8 2 9 3 10 4 11 5 12 6 23 7 24 8 25 9 6 11 4 12 5 13
REMARK SMILES IDX 2 14 1 15 3 16 26 17 27 18 28 19 30 20 31 21 29 22 13 25
REMARK SMILES IDX 14 26 22 27 15 28 21 29 16 30 17 31 18 32 19 33 20 34
REMARK H PARENT 8 10 29 23 29 24
ROOT
ATOM      1  C   UNL     1      -2.086  -0.529   0.359  1.00  0.00     0.104 A 
ATOM      2  N   UNL     1      -1.633   0.774   0.417  1.00  0.00    -0.271 N 
ATOM      3  N   UNL     1      -1.148   1.223   1.692  1.00  0.00    -0.183 NA
ATOM      4  C   UNL     1       0.189   1.293   1.714  1.00  0.00     0.135 A 
ATOM      5  C   UNL     1       1.250   0.982   0.950  1.00  0.00     0.048 A 
ATOM      6  C   UNL     1       1.565   0.288  -0.166  1.00  0.00     0.038 A 
ATOM      7  C   UNL     1       0.893  -0.671  -0.847  1.00  0.00     0.026 A 
ATOM      8  C   UNL     1      -0.223  -1.412  -0.891  1.00  0.00     0.013 A 
ATOM      9  C   UNL     1      -1.445  -1.505  -0.334  1.00  0.00     0.007 A 
ATOM     10  H   UNL     1      -0.932   0.961  -0.296  1.00  0.00     0.191 HD
ENDROOT
BRANCH   1  11
ATOM     11  S   UNL     1      -3.660  -0.894   1.124  1.00  0.00    -0.032 SA
BRANCH  11  12
ATOM     12  C   UNL     1      -4.594   0.414   0.409  1.00  0.00     0.197 C 
ATOM     13  O   UNL     1      -5.199   0.247  -0.653  1.00  0.00    -0.286 OA
BRANCH  12  14
ATOM     14  C   UNL     1      -4.750   1.661   1.265  1.00  0.00     0.062 C 
ATOM     15  C   UNL     1      -6.159   1.674   1.854  1.00  0.00     0.016 C 
ATOM     16  C   UNL     1      -4.502   2.912   0.424  1.00  0.00     0.016 C 
ENDBRANCH  12  14
ENDBRANCH  11  12
ENDBRANCH   1  11
BRANCH   9  17
ATOM     17  C   UNL     1      -2.134  -2.784  -0.585  1.00  0.00     0.024 C 
BRANCH  17  18
ATOM     18  C   UNL     1      -1.775  -3.938  -0.003  1.00  0.00     0.123 C 
BRANCH  18  19
ATOM     19  S   UNL     1      -2.683  -5.364  -0.317  1.00  0.00     0.231 S 
ATOM     20  O   UNL     1      -3.129  -5.393  -1.696  1.00  0.00    -0.208 OA
ATOM     21  O   UNL     1      -2.009  -6.515   0.249  1.00  0.00    -0.208 OA
BRANCH  19  22
ATOM     22  N   UNL     1      -4.100  -5.208   0.579  1.00  0.00    -0.225 NA
ATOM     23  H   UNL     1      -4.435  -6.135   0.830  1.00  0.00     0.137 HD
ATOM     24  H   UNL     1      -4.799  -4.709   0.024  1.00  0.00     0.137 HD
ENDBRANCH  19  22
ENDBRANCH  18  19
ENDBRANCH  17  18
ENDBRANCH   9  17
BRANCH   6  25
ATOM     25  N   UNL     1       2.900   0.594  -0.661  1.00  0.00    -0.371 N 
ATOM     26  C   UNL     1       3.867  -0.429  -1.082  1.00  0.00     0.117 C 
ATOM     27  C   UNL     1       3.262   1.980  -0.980  1.00  0.00     0.117 C 
ATOM     28  C   UNL     1       5.259   0.157  -1.312  1.00  0.00     0.034 C 
ATOM     29  C   UNL     1       4.543   2.348  -0.239  1.00  0.00     0.034 C 
ATOM     30  C   UNL     1       5.611   1.238  -0.284  1.00  0.00     0.098 C 
BRANCH  30  31
ATOM     31  C   UNL     1       6.977   1.828  -0.574  1.00  0.00     0.391 C 
ATOM     32  F   UNL     1       7.003   2.456  -1.771  1.00  0.00    -0.171 F 
ATOM     33  F   UNL     1       7.334   2.731   0.369  1.00  0.00    -0.171 F 
ATOM     34  F   UNL     1       7.932   0.870  -0.596  1.00  0.00    -0.171 F 
ENDBRANCH  30  31
ENDBRANCH   6  25
TORSDOF 9
