REMARK SMILES C[C@H](O)C(=O)Sc1[nH]nccc(N2CCC(C(F)(F)F)CC2)ccc1C=CS(N)(=O)=O
REMARK SMILES IDX 7 1 8 2 9 3 10 4 11 5 12 6 23 7 24 8 25 9 6 11 4 12 5 13
REMARK SMILES IDX 2 14 1 15 3 16 26 18 27 19 28 20 30 21 31 22 29 23 13 26
REMARK SMILES IDX 14 27 22 28 15 29 21 30 16 31 17 32 18 33 19 34 20 35
REMARK H PARENT 8 10 3 17 29 24 29 25
ROOT
ATOM      1  C   UNL     1      -2.632  -0.336   1.332  1.00  0.00     0.104 A 
ATOM      2  N   UNL     1      -2.316  -1.621   0.937  1.00  0.00    -0.271 N 
ATOM      3  N   UNL     1      -1.550  -2.426   1.874  1.00  0.00    -0.183 NA
ATOM      4  C   UNL     1      -0.548  -2.962   1.175  1.00  0.00     0.135 A 
ATOM      5  C   UNL     1       0.486  -2.469   0.480  1.00  0.00     0.048 A 
ATOM      6  C   UNL     1       1.001  -1.232   0.333  1.00  0.00     0.038 A 
ATOM      7  C   UNL     1       0.592  -0.035   0.804  1.00  0.00     0.026 A 
ATOM      8  C   UNL     1      -0.406   0.673   1.348  1.00  0.00     0.013 A 
ATOM      9  C   UNL     1      -1.733   0.648   1.611  1.00  0.00     0.007 A 
ATOM     10  H   UNL     1      -3.169  -2.156   0.788  1.00  0.00     0.191 HD
ENDROOT
BRANCH   1  11
ATOM     11  S   UNL     1      -4.369   0.071   1.311  1.00  0.00    -0.029 SA
BRANCH  11  12
ATOM     12  C   UNL     1      -4.909  -0.616  -0.223  1.00  0.00     0.223 C 
ATOM     13  O   UNL     1      -6.027  -1.135  -0.280  1.00  0.00    -0.284 OA
BRANCH  12  14
ATOM     14  C   UNL     1      -4.027  -0.469  -1.497  1.00  0.00     0.189 C 
ATOM     15  C   UNL     1      -3.968  -1.812  -2.225  1.00  0.00     0.048 C 
BRANCH  14  16
ATOM     16  O   UNL     1      -2.715   0.059  -1.475  1.00  0.00    -0.385 OA
ATOM     17  H   UNL     1      -2.180  -0.557  -0.910  1.00  0.00     0.211 HD
ENDBRANCH  14  16
ENDBRANCH  12  14
ENDBRANCH  11  12
ENDBRANCH   1  11
BRANCH   9  18
ATOM     18  C   UNL     1      -2.234   1.933   2.150  1.00  0.00     0.024 C 
BRANCH  18  19
ATOM     19  C   UNL     1      -2.398   3.035   1.400  1.00  0.00     0.123 C 
BRANCH  19  20
ATOM     20  S   UNL     1      -2.957   4.487   2.125  1.00  0.00     0.231 S 
ATOM     21  O   UNL     1      -4.214   4.280   2.809  1.00  0.00    -0.208 OA
ATOM     22  O   UNL     1      -2.789   5.592   1.204  1.00  0.00    -0.208 OA
BRANCH  20  23
ATOM     23  N   UNL     1      -1.869   4.827   3.369  1.00  0.00    -0.225 NA
ATOM     24  H   UNL     1      -2.338   4.644   4.258  1.00  0.00     0.137 HD
ATOM     25  H   UNL     1      -1.575   5.799   3.280  1.00  0.00     0.137 HD
ENDBRANCH  20  23
ENDBRANCH  19  20
ENDBRANCH  18  19
ENDBRANCH   9  18
BRANCH   6  26
ATOM     26  N   UNL     1       2.257  -1.160  -0.373  1.00  0.00    -0.371 N 
ATOM     27  C   UNL     1       3.404  -1.988   0.018  1.00  0.00     0.117 C 
ATOM     28  C   UNL     1       2.268  -0.666  -1.750  1.00  0.00     0.117 C 
ATOM     29  C   UNL     1       4.663  -1.587  -0.756  1.00  0.00     0.034 C 
ATOM     30  C   UNL     1       3.443   0.297  -1.925  1.00  0.00     0.034 C 
ATOM     31  C   UNL     1       4.666  -0.087  -1.069  1.00  0.00     0.098 C 
BRANCH  31  32
ATOM     32  C   UNL     1       5.952   0.331  -1.750  1.00  0.00     0.391 C 
ATOM     33  F   UNL     1       5.967   1.659  -2.001  1.00  0.00    -0.171 F 
ATOM     34  F   UNL     1       6.126  -0.309  -2.928  1.00  0.00    -0.171 F 
ATOM     35  F   UNL     1       7.027   0.056  -0.976  1.00  0.00    -0.171 F 
ENDBRANCH  31  32
ENDBRANCH   6  26
TORSDOF 10
