REMARK SMILES COc1ccc(O)c(C(=O)c2ccc(C(=O)Nc3ccccc3NC(=O)c3ccnc(N4CCN(C)CC4)c3)cc2)c1F
REMARK SMILES IDX 15 1 16 2 17 3 14 5 11 6 12 7 41 8 13 9 40 10 9 11 10 12
REMARK SMILES IDX 8 13 3 14 4 15 42 16 5 17 6 18 43 19 2 20 1 21 7 22 18 24
REMARK SMILES IDX 19 25 23 26 20 27 22 28 21 29 24 30 25 31 26 33 27 34 28 35
REMARK SMILES IDX 39 36 29 37 31 38 30 39 32 40 33 41 38 42 34 43 37 44 35 45
REMARK SMILES IDX 36 46
REMARK H PARENT 17 4 7 23 24 32
ROOT
ATOM      1  C   UNL     1      -1.243   1.388  -0.264  1.00  0.00     0.255 C 
ATOM      2  O   UNL     1      -0.296   0.704   0.095  1.00  0.00    -0.269 OA
ATOM      3  N   UNL     1      -1.431   2.737  -0.075  1.00  0.00    -0.320 N 
ATOM      4  H   UNL     1      -2.359   3.067  -0.315  1.00  0.00     0.170 HD
ENDROOT
BRANCH   1   5
ATOM      5  C   UNL     1      -2.352   0.724  -0.990  1.00  0.00     0.040 A 
ATOM      6  C   UNL     1      -4.420  -0.553  -2.357  1.00  0.00     0.023 A 
ATOM      7  C   UNL     1      -3.803   0.574  -2.917  1.00  0.00     0.013 A 
ATOM      8  C   UNL     1      -3.979  -1.062  -1.127  1.00  0.00     0.013 A 
ATOM      9  C   UNL     1      -2.774   1.220  -2.232  1.00  0.00     0.014 A 
ATOM     10  C   UNL     1      -2.938  -0.423  -0.447  1.00  0.00     0.014 A 
BRANCH   6  11
ATOM     11  C   UNL     1      -5.495  -1.213  -3.130  1.00  0.00     0.199 C 
ATOM     12  O   UNL     1      -5.322  -1.394  -4.335  1.00  0.00    -0.288 OA
BRANCH  11  13
ATOM     13  C   UNL     1      -6.765  -1.678  -2.524  1.00  0.00     0.104 A 
ATOM     14  C   UNL     1      -8.521  -1.513  -0.836  1.00  0.00     0.155 A 
ATOM     15  C   UNL     1      -9.206  -2.566  -1.446  1.00  0.00     0.053 A 
ATOM     16  C   UNL     1      -7.303  -1.079  -1.383  1.00  0.00     0.179 A 
ATOM     17  C   UNL     1      -8.692  -3.156  -2.603  1.00  0.00     0.051 A 
ATOM     18  C   UNL     1      -7.490  -2.704  -3.144  1.00  0.00     0.130 A 
ATOM     19  F   UNL     1      -6.676  -0.042  -0.804  1.00  0.00    -0.202 F 
BRANCH  14  20
ATOM     20  O   UNL     1      -8.940  -0.836   0.278  1.00  0.00    -0.494 OA
ATOM     21  C   UNL     1     -10.234  -1.148   0.780  1.00  0.00     0.278 C 
ENDBRANCH  14  20
BRANCH  18  22
ATOM     22  O   UNL     1      -7.085  -3.309  -4.303  1.00  0.00    -0.507 OA
ATOM     23  H   UNL     1      -6.336  -2.788  -4.674  1.00  0.00     0.293 HD
ENDBRANCH  18  22
ENDBRANCH  11  13
ENDBRANCH   6  11
ENDBRANCH   1   5
BRANCH   3  24
ATOM     24  C   UNL     1      -0.593   3.728   0.504  1.00  0.00     0.065 A 
ATOM     25  C   UNL     1      -1.255   4.962   0.699  1.00  0.00     0.028 A 
ATOM     26  C   UNL     1       0.776   3.630   0.853  1.00  0.00     0.065 A 
ATOM     27  C   UNL     1      -0.609   6.071   1.240  1.00  0.00     0.002 A 
ATOM     28  C   UNL     1       1.404   4.767   1.396  1.00  0.00     0.028 A 
ATOM     29  C   UNL     1       0.724   5.970   1.593  1.00  0.00     0.002 A 
BRANCH  26  30
ATOM     30  N   UNL     1       1.510   2.434   0.652  1.00  0.00    -0.320 N 
ATOM     31  C   UNL     1       2.868   2.223   0.821  1.00  0.00     0.255 C 
ATOM     32  H   UNL     1       0.944   1.624   0.403  1.00  0.00     0.170 HD
ATOM     33  O   UNL     1       3.702   3.053   1.168  1.00  0.00    -0.269 OA
BRANCH  31  34
ATOM     34  C   UNL     1       3.369   0.848   0.544  1.00  0.00     0.045 A 
ATOM     35  C   UNL     1       2.807   0.020  -0.418  1.00  0.00     0.034 A 
ATOM     36  C   UNL     1       4.494   0.411   1.253  1.00  0.00     0.060 A 
ATOM     37  C   UNL     1       3.385  -1.219  -0.600  1.00  0.00     0.114 A 
ATOM     38  C   UNL     1       5.050  -0.837   0.988  1.00  0.00     0.129 A 
ATOM     39  N   UNL     1       4.472  -1.653   0.076  1.00  0.00    -0.239 NA
BRANCH  38  40
ATOM     40  N   UNL     1       6.188  -1.273   1.690  1.00  0.00    -0.354 N 
ATOM     41  C   UNL     1       6.590  -2.654   1.348  1.00  0.00     0.133 C 
ATOM     42  C   UNL     1       7.319  -0.319   1.678  1.00  0.00     0.133 C 
ATOM     43  C   UNL     1       7.773  -3.113   2.233  1.00  0.00     0.105 C 
ATOM     44  C   UNL     1       8.491  -0.841   2.543  1.00  0.00     0.105 C 
ATOM     45  N   UNL     1       8.950  -2.214   2.240  1.00  0.00    -0.303 NA
ATOM     46  C   UNL     1       9.682  -2.271   0.979  1.00  0.00     0.105 C 
ENDBRANCH  38  40
ENDBRANCH  31  34
ENDBRANCH  26  30
ENDBRANCH   3  24
TORSDOF 9
