REMARK SMILES CC(C)c1cccc(C=c2cc3c(cn2)=C(NCC2CC2)NN=C3)c1CN1CCN(C)CC1
REMARK SMILES IDX 9 1 8 2 4 3 5 4 25 5 6 6 7 7 2 8 1 9 3 10 26 11 27 12 28 13
REMARK SMILES IDX 33 14 29 15 32 16 30 17 31 18 10 19 11 20 15 21 12 22 14 23
REMARK SMILES IDX 13 24 24 25 16 26 23 27 22 28 17 30 18 32 19 33 20 34 21 35
REMARK H PARENT 22 29 17 31
ROOT
ATOM      1  C   UNL     1      -0.138  -0.251  -1.567  1.00  0.00     0.036 C 
ENDROOT
BRANCH   1   2
ATOM      2  C   UNL     1      -0.990  -1.448  -1.514  1.00  0.00    -0.019 A 
ATOM      3  C   UNL     1      -2.778  -2.821  -0.560  1.00  0.00    -0.040 A 
ATOM      4  C   UNL     1      -2.522  -3.778  -1.565  1.00  0.00     0.004 A 
ATOM      5  C   UNL     1      -2.004  -1.626  -0.536  1.00  0.00    -0.023 A 
ATOM      6  C   UNL     1      -1.525  -3.587  -2.517  1.00  0.00     0.001 A 
ATOM      7  C   UNL     1      -0.763  -2.427  -2.491  1.00  0.00     0.008 A 
BRANCH   3   8
ATOM      8  C   UNL     1      -3.900  -3.096   0.440  1.00  0.00     0.013 C 
ATOM      9  C   UNL     1      -5.271  -3.035  -0.241  1.00  0.00     0.012 C 
ATOM     10  C   UNL     1      -3.713  -4.433   1.169  1.00  0.00     0.012 C 
ENDBRANCH   3   8
BRANCH   5  11
ATOM     11  C   UNL     1      -2.250  -0.543   0.510  1.00  0.00     0.121 C 
BRANCH  11  12
ATOM     12  N   UNL     1      -3.554   0.129   0.372  1.00  0.00    -0.297 NA
ATOM     13  C   UNL     1      -3.816   0.986   1.544  1.00  0.00     0.100 C 
ATOM     14  C   UNL     1      -3.640   0.929  -0.865  1.00  0.00     0.100 C 
ATOM     15  C   UNL     1      -5.146   1.766   1.424  1.00  0.00     0.099 C 
ATOM     16  C   UNL     1      -4.973   1.709  -0.971  1.00  0.00     0.099 C 
ATOM     17  N   UNL     1      -5.291   2.564   0.191  1.00  0.00    -0.304 NA
ATOM     18  C   UNL     1      -4.454   3.762   0.221  1.00  0.00     0.105 C 
ENDBRANCH  11  12
ENDBRANCH   5  11
ENDBRANCH   1   2
BRANCH   1  19
ATOM     19  C   UNL     1       1.091  -0.117  -1.036  1.00  0.00     0.064 A 
ATOM     20  C   UNL     1       1.761  -1.184  -0.298  1.00  0.00     0.039 A 
ATOM     21  N   UNL     1       1.730   1.099  -1.187  1.00  0.00    -0.256 NA
ATOM     22  C   UNL     1       3.003  -1.031   0.176  1.00  0.00     0.009 A 
ATOM     23  C   UNL     1       2.934   1.245  -0.722  1.00  0.00     0.124 A 
ATOM     24  C   UNL     1       3.720   0.202  -0.024  1.00  0.00     0.044 A 
ATOM     25  C   UNL     1       3.704  -2.093   0.925  1.00  0.00     0.142 C 
ATOM     26  C   UNL     1       4.990   0.322   0.433  1.00  0.00     0.129 C 
ATOM     27  N   UNL     1       4.913  -1.971   1.381  1.00  0.00    -0.182 NA
ATOM     28  N   UNL     1       5.528  -0.779   1.103  1.00  0.00    -0.263 N 
ATOM     29  H   UNL     1       6.414  -0.607   1.567  1.00  0.00     0.192 HD
BRANCH  26  30
ATOM     30  N   UNL     1       5.752   1.470   0.264  1.00  0.00    -0.370 N 
ATOM     31  H   UNL     1       5.392   2.116  -0.428  1.00  0.00     0.162 HD
BRANCH  30  32
ATOM     32  C   UNL     1       7.193   1.555   0.413  1.00  0.00     0.118 C 
BRANCH  32  33
ATOM     33  C   UNL     1       7.639   2.938   0.045  1.00  0.00     0.008 C 
ATOM     34  C   UNL     1       7.380   4.100   0.971  1.00  0.00     0.006 C 
ATOM     35  C   UNL     1       8.784   3.596   0.773  1.00  0.00     0.006 C 
ENDBRANCH  32  33
ENDBRANCH  30  32
ENDBRANCH  26  30
ENDBRANCH   1  19
TORSDOF 8
