MODEL        9USER    Run = 9USERUSER    Estimated Free Energy of Binding    = -11.80 kcal/mol  [=(1)+(2)+(3)-(4)]USERUSER    (1) Final Intermolecular Energy     = -13.89 kcal/molUSER        vdW + Hbond + desolv Energy     = -13.68 kcal/molUSER        Electrostatic Energy            =  -0.21 kcal/molUSER        Moving Ligand-Fixed Receptor    = -13.89 kcal/molUSER        Moving Ligand-Moving Receptor   =  +0.00 kcal/molUSER    (2) Final Total Internal Energy     =  -1.52 kcal/molUSER    (3) Torsional Free Energy           =  +2.09 kcal/molUSER    (4) Unbound System's Energy         =  -1.52 kcal/molUSERUSERREMARK SMILES Cc1cc(CN2CCN(C(=O)C3CC3)CC2)ccc1S(=O)(=O)Nc1ccc(N2CCCCC2)cc1REMARK SMILES IDX 1 1 2 2 3 3 4 4 17 5 18 6 19 7 20 8 21 9 22 10 23 11 24 13REMARK SMILES IDX 25 14 35 15 26 16 34 17 27 18 28 19 29 20 33 21 30 22 32 23REMARK SMILES IDX 31 24 5 25 6 26 7 27 16 28 8 29 15 30 9 31 10 32 11 33 12 34REMARK SMILES IDX 13 35 14 36REMARK H PARENT 23 12USER                              x       y       z     vdW  Elec       q    TypeUSER                           _______ _______ _______ _____ _____    ______ ____ROOTATOM      1  C   UNL     1      35.024  42.641  17.337 -0.44 -0.02    +0.046 C  ATOM      2  C   UNL     1      34.766  43.760  16.367 -0.34 +0.01    -0.030 A  ATOM      3  C   UNL     1      35.848  44.248  15.612 -0.36 -0.00    +0.010 A  ATOM      4  C   UNL     1      35.700  45.319  14.712 -0.33 +0.02    -0.034 A  ATOM      5  C   UNL     1      34.439  45.900  14.556 -0.29 -0.01    +0.006 A  ATOM      6  C   UNL     1      33.350  45.430  15.294 -0.29 -0.02    +0.023 A  ATOM      7  C   UNL     1      33.509  44.366  16.195 -0.26 -0.05    +0.090 A  ENDROOTBRANCH   7   8ATOM      8  S   UNL     1      32.069  43.843  17.109 -0.28 -0.08    +0.262 S  ATOM      9  O   UNL     1      32.479  43.591  18.474 -0.27 +0.03    -0.201 OA ATOM     10  O   UNL     1      30.977  44.753  16.833 -0.71 +0.03    -0.201 OA BRANCH   8  11ATOM     11  N   UNL     1      31.710  42.335  16.434 -0.12 +0.14    -0.280 N  ATOM     12  H   UNL     1      32.390  42.095  15.713 -0.47 -0.15    +0.180 HD BRANCH  11  13ATOM     13  C   UNL     1      31.283  41.294  17.299 -0.29 -0.01    +0.049 A  ATOM     14  C   UNL     1      32.189  40.687  18.157 -0.40 -0.00    +0.029 A  ATOM     15  C   UNL     1      29.966  40.857  17.263 -0.30 -0.00    +0.029 A  ATOM     16  C   UNL     1      31.760  39.661  19.012 -0.38 +0.00    +0.028 A  ATOM     17  C   UNL     1      29.551  39.829  18.119 -0.29 +0.00    +0.028 A  ATOM     18  C   UNL     1      30.428  39.213  19.029 -0.34 +0.00    +0.037 A  BRANCH  18  19ATOM     19  N   UNL     1      29.997  38.210  19.889 -0.13 -0.06    -0.372 N  ATOM     20  C   UNL     1      28.740  37.498  19.625 -0.30 +0.02    +0.116 C  ATOM     21  C   UNL     1      30.691  37.942  21.152 -0.43 +0.01    +0.116 C  ATOM     22  C   UNL     1      28.067  37.084  20.931 -0.35 -0.00    +0.021 C  ATOM     23  C   UNL     1      30.448  36.501  21.597 -0.40 +0.00    +0.021 C  ATOM     24  C   UNL     1      28.965  36.191  21.783 -0.41 -0.00    +0.004 C  ENDBRANCH  18  19ENDBRANCH  11  13ENDBRANCH   8  11ENDBRANCH   7   8BRANCH   4  25ATOM     25  C   UNL     1      36.880  45.811  13.896 -0.41 -0.05    +0.120 C  BRANCH  25  26ATOM     26  N   UNL     1      37.409  47.108  14.344 -0.22 +0.15    -0.296 NA ATOM     27  C   UNL     1      37.280  47.282  15.802 -0.39 -0.07    +0.106 C  ATOM     28  C   UNL     1      38.800  47.324  13.885 -0.40 -0.03    +0.106 C  ATOM     29  C   UNL     1      38.555  47.006  16.628 -0.37 -0.05    +0.135 C  ATOM     30  C   UNL     1      39.603  48.278  14.786 -0.50 -0.04    +0.135 C  ATOM     31  N   UNL     1      39.717  47.752  16.152 -0.24 +0.10    -0.340 N  ATOM     32  C   UNL     1      40.861  48.078  16.873 -0.42 -0.03    +0.225 C  ATOM     33  O   UNL     1      41.681  48.879  16.426 -0.94 -0.03    -0.275 OA BRANCH  32  34ATOM     34  C   UNL     1      41.204  47.473  18.196 -0.48 -0.01    +0.079 C  ATOM     35  C   UNL     1      41.472  45.990  18.302 -0.53 +0.00    +0.014 C  ATOM     36  C   UNL     1      42.508  46.982  18.752 -0.58 +0.00    +0.014 C  ENDBRANCH  32  34ENDBRANCH  25  26ENDBRANCH   4  25TORSDOF 7TERENDMDL