MODEL        6USER    Run = 6USERUSER    Estimated Free Energy of Binding    = -10.75 kcal/mol  [=(1)+(2)+(3)-(4)]USERUSER    (1) Final Intermolecular Energy     = -13.14 kcal/molUSER        vdW + Hbond + desolv Energy     = -13.03 kcal/molUSER        Electrostatic Energy            =  -0.11 kcal/molUSER        Moving Ligand-Fixed Receptor    = -13.14 kcal/molUSER        Moving Ligand-Moving Receptor   =  +0.00 kcal/molUSER    (2) Final Total Internal Energy     =  -1.93 kcal/molUSER    (3) Torsional Free Energy           =  +2.39 kcal/molUSER    (4) Unbound System's Energy         =  -1.93 kcal/molUSERUSERREMARK SMILES CC(C)c1cccc(C=c2cc3c(cn2)=C(NCC2CC2)NN=C3)c1CN1CCN(C)CC1REMARK SMILES IDX 9 1 8 2 4 3 5 4 25 5 6 6 7 7 2 8 1 9 3 10 26 11 27 12 28 13REMARK SMILES IDX 33 14 29 15 32 16 30 17 31 18 10 19 11 20 15 21 12 22 14 23REMARK SMILES IDX 13 24 24 25 16 26 23 27 22 28 17 30 18 32 19 33 20 34 21 35REMARK H PARENT 22 29 17 31USER                              x       y       z     vdW  Elec       q    TypeUSER                           _______ _______ _______ _____ _____    ______ ____ROOTATOM      1  C   UNL     1      39.740  44.398  20.089 -0.36 +0.00    +0.036 C  ENDROOTBRANCH   1   2ATOM      2  C   UNL     1      40.162  45.479  19.186 -0.43 +0.00    -0.019 A  ATOM      3  C   UNL     1      39.971  46.834  17.156 -0.46 +0.01    -0.040 A  ATOM      4  C   UNL     1      41.090  47.573  17.594 -0.53 -0.00    +0.004 A  ATOM      5  C   UNL     1      39.489  45.770  17.970 -0.42 +0.00    -0.023 A  ATOM      6  C   UNL     1      41.738  47.275  18.790 -0.48 +0.00    +0.001 A  ATOM      7  C   UNL     1      41.275  46.233  19.581 -0.43 +0.00    +0.008 A  BRANCH   3   8ATOM      8  C   UNL     1      39.305  47.231  15.839 -0.53 -0.00    +0.013 C  ATOM      9  C   UNL     1      39.647  48.677  15.464 -0.62 -0.00    +0.012 C  ATOM     10  C   UNL     1      39.663  46.273  14.695 -0.46 -0.00    +0.012 C  ENDBRANCH   3   8BRANCH   5  11ATOM     11  C   UNL     1      38.268  44.950  17.562 -0.34 -0.02    +0.121 C  BRANCH  11  12ATOM     12  N   UNL     1      37.058  45.260  18.343 -0.16 +0.07    -0.297 NA ATOM     13  C   UNL     1      36.018  45.839  17.471 -0.35 -0.05    +0.100 C  ATOM     14  C   UNL     1      36.526  44.073  19.040 -0.35 -0.02    +0.100 C  ATOM     15  C   UNL     1      34.701  46.126  18.228 -0.44 -0.06    +0.099 C  ATOM     16  C   UNL     1      35.205  44.372  19.789 -0.37 -0.02    +0.099 C  ATOM     17  N   UNL     1      34.140  44.975  18.962 -0.21 +0.11    -0.304 NA ATOM     18  C   UNL     1      33.544  43.995  18.056 -0.31 -0.03    +0.105 C  ENDBRANCH  11  12ENDBRANCH   5  11ENDBRANCH   1   2BRANCH   1  19ATOM     19  C   UNL     1      39.098  44.538  21.262 -0.29 +0.00    +0.064 A  ATOM     20  C   UNL     1      39.121  45.773  22.042 -0.29 +0.00    +0.039 A  ATOM     21  N   UNL     1      38.402  43.449  21.751 -0.16 -0.01    -0.256 NA ATOM     22  C   UNL     1      38.432  45.892  23.182 -0.31 +0.00    +0.009 A  ATOM     23  C   UNL     1      37.737  43.567  22.861 -0.28 +0.01    +0.124 A  ATOM     24  C   UNL     1      37.643  44.795  23.682 -0.28 +0.01    +0.044 A  ATOM     25  C   UNL     1      38.437  47.128  23.989 -0.28 +0.02    +0.142 C  ATOM     26  C   UNL     1      36.924  44.950  24.820 -0.18 +0.02    +0.129 C  ATOM     27  N   UNL     1      37.765  47.270  25.090 -0.66 -0.02    -0.182 NA ATOM     28  N   UNL     1      37.011  46.187  25.461 -0.19 -0.02    -0.263 N  ATOM     29  H   UNL     1      36.592  46.222  26.385 -0.21 -0.04    +0.192 HD BRANCH  26  30ATOM     30  N   UNL     1      36.127  43.947  25.356 -0.08 -0.01    -0.370 N  ATOM     31  H   UNL     1      35.303  44.280  25.844 -0.19 -0.02    +0.162 HD BRANCH  30  32ATOM     32  C   UNL     1      36.601  42.673  25.863 -0.38 -0.01    +0.118 C  BRANCH  32  33ATOM     33  C   UNL     1      35.771  42.282  27.048 -0.60 -0.00    +0.008 C  ATOM     34  C   UNL     1      34.746  41.181  26.938 -0.70 -0.00    +0.006 C  ATOM     35  C   UNL     1      35.998  40.964  27.745 -0.68 -0.00    +0.006 C  ENDBRANCH  32  33ENDBRANCH  30  32ENDBRANCH  26  30ENDBRANCH   1  19TORSDOF 8TERENDMDL