MODEL        9USER    Run = 9USERUSER    Estimated Free Energy of Binding    = -11.39 kcal/mol  [=(1)+(2)+(3)-(4)]USERUSER    (1) Final Intermolecular Energy     = -14.07 kcal/molUSER        vdW + Hbond + desolv Energy     = -13.85 kcal/molUSER        Electrostatic Energy            =  -0.22 kcal/molUSER        Moving Ligand-Fixed Receptor    = -14.07 kcal/molUSER        Moving Ligand-Moving Receptor   =  +0.00 kcal/molUSER    (2) Final Total Internal Energy     =  -3.45 kcal/molUSER    (3) Torsional Free Energy           =  +2.68 kcal/molUSER    (4) Unbound System's Energy         =  -3.45 kcal/molUSERUSERREMARK SMILES COc1ccc(O)c(C(=O)c2ccc(C(=O)Nc3ccccc3NC(=O)c3ccnc(N4CCN(C)CC4)c3)cc2)c1FREMARK SMILES IDX 15 1 16 2 17 3 14 5 11 6 12 7 41 8 13 9 40 10 9 11 10 12REMARK SMILES IDX 8 13 3 14 4 15 42 16 5 17 6 18 43 19 2 20 1 21 7 22 18 24REMARK SMILES IDX 19 25 23 26 20 27 22 28 21 29 24 30 25 31 26 33 27 34 28 35REMARK SMILES IDX 39 36 29 37 31 38 30 39 32 40 33 41 38 42 34 43 37 44 35 45REMARK SMILES IDX 36 46REMARK H PARENT 17 4 7 23 24 32USER                              x       y       z     vdW  Elec       q    TypeUSER                           _______ _______ _______ _____ _____    ______ ____ROOTATOM      1  C   UNL     1      37.425  45.768  17.207 -0.25 -0.09    +0.255 C  ATOM      2  O   UNL     1      38.213  45.240  17.977 -0.26 +0.05    -0.269 OA ATOM      3  N   UNL     1      37.663  46.801  16.330 -0.18 +0.17    -0.320 N  ATOM      4  H   UNL     1      36.828  47.186  15.902 +0.12 -0.14    +0.170 HD ENDROOTBRANCH   1   5ATOM      5  C   UNL     1      36.028  45.272  17.183 -0.31 -0.02    +0.040 A  ATOM      6  C   UNL     1      33.395  44.355  17.111 -0.30 -0.01    +0.023 A  ATOM      7  C   UNL     1      33.832  45.144  18.184 -0.39 -0.01    +0.013 A  ATOM      8  C   UNL     1      34.268  44.053  16.056 -0.32 -0.01    +0.013 A  ATOM      9  C   UNL     1      35.150  45.597  18.228 -0.38 -0.01    +0.014 A  ATOM     10  C   UNL     1      35.585  44.519  16.092 -0.33 -0.01    +0.014 A  BRANCH   6  11ATOM     11  C   UNL     1      31.983  43.913  17.102 -0.22 -0.06    +0.199 C  ATOM     12  O   UNL     1      31.112  44.744  16.848 -0.65 +0.05    -0.288 OA BRANCH  11  13ATOM     13  C   UNL     1      31.566  42.517  17.372 -0.23 -0.03    +0.104 A  ATOM     14  C   UNL     1      31.621  40.487  18.728 -0.28 -0.00    +0.155 A  ATOM     15  C   UNL     1      30.701  39.887  17.867 -0.34 -0.00    +0.053 A  ATOM     16  C   UNL     1      32.046  41.800  18.471 -0.23 -0.02    +0.179 A  ATOM     17  C   UNL     1      30.193  40.602  16.779 -0.35 -0.01    +0.051 A  ATOM     18  C   UNL     1      30.612  41.910  16.545 -0.24 -0.05    +0.130 A  ATOM     19  F   UNL     1      32.904  42.374  19.330 -0.10 -0.00    -0.202 F  BRANCH  14  20ATOM     20  O   UNL     1      32.162  39.902  19.842 -0.77 -0.17    -0.494 OA ATOM     21  C   UNL     1      31.546  38.709  20.313 -0.32 +0.06    +0.278 C  ENDBRANCH  14  20BRANCH  18  22ATOM     22  O   UNL     1      30.029  42.549  15.485 -0.08 +0.30    -0.507 OA ATOM     23  H   UNL     1      30.248  43.507  15.547 +0.18 -0.17    +0.293 HD ENDBRANCH  18  22ENDBRANCH  11  13ENDBRANCH   6  11ENDBRANCH   1   5BRANCH   3  24ATOM     24  C   UNL     1      38.857  47.498  16.006 -0.41 -0.03    +0.065 A  ATOM     25  C   UNL     1      38.795  48.140  14.748 -0.51 -0.01    +0.028 A  ATOM     26  C   UNL     1      40.058  47.583  16.752 -0.46 -0.02    +0.065 A  ATOM     27  C   UNL     1      39.867  48.866  14.233 -0.35 -0.00    +0.002 A  ATOM     28  C   UNL     1      41.126  48.322  16.207 -0.48 -0.00    +0.028 A  ATOM     29  C   UNL     1      41.034  48.959  14.969 -0.62 -0.00    +0.002 A  BRANCH  26  30ATOM     30  N   UNL     1      40.202  46.935  18.005 -0.26 +0.04    -0.320 N  ATOM     31  C   UNL     1      41.331  46.850  18.802 -0.35 -0.00    +0.255 C  ATOM     32  H   UNL     1      39.343  46.532  18.376 +0.09 -0.03    +0.170 HD ATOM     33  O   UNL     1      42.439  47.316  18.556 -0.46 -0.01    -0.269 OA BRANCH  31  34ATOM     34  C   UNL     1      41.188  46.108  20.085 -0.35 +0.00    +0.045 A  ATOM     35  C   UNL     1      42.196  46.046  21.037 -0.32 +0.01    +0.034 A  ATOM     36  C   UNL     1      39.954  45.501  20.351 -0.33 +0.00    +0.060 A  ATOM     37  C   UNL     1      41.925  45.353  22.199 -0.18 +0.02    +0.114 A  ATOM     38  C   UNL     1      39.738  44.853  21.563 -0.23 +0.01    +0.129 A  ATOM     39  N   UNL     1      40.739  44.765  22.469 -0.10 -0.01    -0.239 NA BRANCH  38  40ATOM     40  N   UNL     1      38.495  44.254  21.838 -0.13 -0.01    -0.354 N  ATOM     41  C   UNL     1      37.729  43.917  20.619 -0.33 -0.00    +0.133 C  ATOM     42  C   UNL     1      38.552  43.144  22.815 -0.28 +0.01    +0.133 C  ATOM     43  C   UNL     1      36.330  43.369  20.989 -0.41 +0.00    +0.105 C  ATOM     44  C   UNL     1      37.134  42.605  23.120 -0.41 +0.01    +0.105 C  ATOM     45  N   UNL     1      36.320  42.235  21.942 -0.27 -0.02    -0.303 NA ATOM     46  C   UNL     1      36.799  41.004  21.322 -0.47 -0.00    +0.105 C  ENDBRANCH  38  40ENDBRANCH  31  34ENDBRANCH  26  30ENDBRANCH   3  24TORSDOF 9TERENDMDL