REMARK SMILES Cc1cc(CN2CCN(C(=O)C3CC3)CC2)ccc1S(=O)(=O)Nc1ccc(N2CCCCC2)cc1
REMARK SMILES IDX 1 1 2 2 3 3 4 4 17 5 18 6 19 7 20 8 21 9 22 10 23 11 24 13
REMARK SMILES IDX 25 14 35 15 26 16 34 17 27 18 28 19 29 20 33 21 30 22 32 23
REMARK SMILES IDX 31 24 5 25 6 26 7 27 16 28 8 29 15 30 9 31 10 32 11 33 12 34
REMARK SMILES IDX 13 35 14 36
REMARK H PARENT 23 12
ROOT
ATOM      1  C   UNL     1      -0.501   3.946  -1.406  1.00  0.00     0.046 C 
ATOM      2  C   UNL     1      -0.573   2.709  -0.555  1.00  0.00    -0.030 A 
ATOM      3  C   UNL     1      -1.495   1.708  -0.912  1.00  0.00     0.010 A 
ATOM      4  C   UNL     1      -1.653   0.539  -0.147  1.00  0.00    -0.034 A 
ATOM      5  C   UNL     1      -0.859   0.364   0.990  1.00  0.00     0.006 A 
ATOM      6  C   UNL     1       0.064   1.343   1.363  1.00  0.00     0.023 A 
ATOM      7  C   UNL     1       0.209   2.510   0.597  1.00  0.00     0.090 A 
ENDROOT
BRANCH   7   8
ATOM      8  S   UNL     1       1.399   3.716   1.157  1.00  0.00     0.262 S 
ATOM      9  O   UNL     1       0.779   5.022   1.073  1.00  0.00    -0.201 OA
ATOM     10  O   UNL     1       1.979   3.265   2.405  1.00  0.00    -0.201 OA
BRANCH   8  11
ATOM     11  N   UNL     1       2.586   3.675  -0.046  1.00  0.00    -0.280 N 
ATOM     12  H   UNL     1       2.929   4.615  -0.242  1.00  0.00     0.180 HD
BRANCH  11  13
ATOM     13  C   UNL     1       3.542   2.627  -0.014  1.00  0.00     0.049 A 
ATOM     14  C   UNL     1       3.276   1.422  -0.650  1.00  0.00     0.029 A 
ATOM     15  C   UNL     1       4.732   2.792   0.683  1.00  0.00     0.029 A 
ATOM     16  C   UNL     1       4.227   0.392  -0.618  1.00  0.00     0.028 A 
ATOM     17  C   UNL     1       5.671   1.754   0.711  1.00  0.00     0.028 A 
ATOM     18  C   UNL     1       5.456   0.532   0.050  1.00  0.00     0.037 A 
BRANCH  18  19
ATOM     19  N   UNL     1       6.407  -0.481   0.066  1.00  0.00    -0.372 N 
ATOM     20  C   UNL     1       7.827  -0.160   0.262  1.00  0.00     0.116 C 
ATOM     21  C   UNL     1       6.050  -1.864  -0.263  1.00  0.00     0.116 C 
ATOM     22  C   UNL     1       8.714  -1.144  -0.496  1.00  0.00     0.021 C 
ATOM     23  C   UNL     1       7.036  -2.836   0.383  1.00  0.00     0.021 C 
ATOM     24  C   UNL     1       8.475  -2.587  -0.061  1.00  0.00     0.004 C 
ENDBRANCH  18  19
ENDBRANCH  11  13
ENDBRANCH   8  11
ENDBRANCH   7   8
BRANCH   4  25
ATOM     25  C   UNL     1      -2.640  -0.533  -0.568  1.00  0.00     0.120 C 
BRANCH  25  26
ATOM     26  N   UNL     1      -3.986  -0.016  -0.858  1.00  0.00    -0.296 NA
ATOM     27  C   UNL     1      -4.841  -1.032  -1.499  1.00  0.00     0.106 C 
ATOM     28  C   UNL     1      -4.625   0.561   0.346  1.00  0.00     0.106 C 
ATOM     29  C   UNL     1      -5.832  -1.762  -0.567  1.00  0.00     0.135 C 
ATOM     30  C   UNL     1      -6.163   0.529   0.300  1.00  0.00     0.135 C 
ATOM     31  N   UNL     1      -6.665  -0.848   0.210  1.00  0.00    -0.340 N 
ATOM     32  C   UNL     1      -7.899  -1.121   0.791  1.00  0.00     0.225 C 
ATOM     33  O   UNL     1      -8.595  -0.216   1.248  1.00  0.00    -0.275 OA
BRANCH  32  34
ATOM     34  C   UNL     1      -8.454  -2.501   0.941  1.00  0.00     0.079 C 
ATOM     35  C   UNL     1      -8.953  -3.251  -0.273  1.00  0.00     0.014 C 
ATOM     36  C   UNL     1      -7.878  -3.843   0.596  1.00  0.00     0.014 C 
ENDBRANCH  32  34
ENDBRANCH  25  26
ENDBRANCH   4  25
TORSDOF 7
