MODEL        1USER    Run = 1USERUSER    Estimated Free Energy of Binding    =  -8.40 kcal/mol  [=(1)+(2)+(3)-(4)]USERUSER    (1) Final Intermolecular Energy     = -10.79 kcal/molUSER        vdW + Hbond + desolv Energy     = -10.70 kcal/molUSER        Electrostatic Energy            =  -0.09 kcal/molUSER        Moving Ligand-Fixed Receptor    = -10.79 kcal/molUSER        Moving Ligand-Moving Receptor   =  +0.00 kcal/molUSER    (2) Final Total Internal Energy     =  -2.84 kcal/molUSER    (3) Torsional Free Energy           =  +2.39 kcal/molUSER    (4) Unbound System's Energy         =  -2.84 kcal/molUSERUSERREMARK SMILES COc1ccc(O)c(C(=O)c2ccc(C(=O)N[C@@H]3CCNC[C@@H]3NC(=O)c3ccncc3)cc2)c1FREMARK SMILES IDX 11 1 12 2 13 3 14 4 33 5 34 6 9 7 10 8 8 9 3 10 4 11 35 12REMARK SMILES IDX 5 13 6 14 36 15 2 16 1 17 7 18 15 20 17 21 16 22 18 24 19 25REMARK SMILES IDX 23 26 20 27 22 28 21 29 24 31 25 32 26 34 27 35 28 36 32 37REMARK SMILES IDX 29 38 31 39 30 40REMARK H PARENT 7 19 17 23 21 30 24 33USER                              x       y       z     vdW  Elec       q    TypeUSER                           _______ _______ _______ _____ _____    ______ ____ROOTATOM      1  C   UNL     1      16.871 -15.430  -9.082 -0.36 -0.00    +0.023 A  ATOM      2  C   UNL     1      15.476 -15.362  -8.998 -0.20 -0.00    +0.013 A  ATOM      3  C   UNL     1      14.738 -14.864 -10.077 -0.32 -0.01    +0.014 A  ATOM      4  C   UNL     1      15.389 -14.428 -11.239 -0.32 -0.01    +0.039 A  ATOM      5  C   UNL     1      16.787 -14.459 -11.305 -0.45 -0.00    +0.014 A  ATOM      6  C   UNL     1      17.525 -14.956 -10.227 -0.30 -0.00    +0.013 A  ENDROOTBRANCH   1   7ATOM      7  C   UNL     1      17.696 -15.918  -7.952 -0.33 +0.00    +0.199 C  ATOM      8  O   UNL     1      18.138 -17.068  -7.994 -0.26 -0.03    -0.288 OA BRANCH   7   9ATOM      9  C   UNL     1      18.060 -15.076  -6.792 -0.36 +0.01    +0.104 A  ATOM     10  C   UNL     1      18.044 -12.948  -5.601 -0.35 +0.01    +0.155 A  ATOM     11  C   UNL     1      18.788 -13.522  -4.568 -0.50 +0.01    +0.053 A  ATOM     12  C   UNL     1      17.682 -13.736  -6.704 -0.29 -0.01    +0.179 A  ATOM     13  C   UNL     1      19.145 -14.872  -4.630 -0.51 +0.02    +0.051 A  ATOM     14  C   UNL     1      18.770 -15.644  -5.727 -0.36 +0.04    +0.130 A  ATOM     15  F   UNL     1      16.933 -13.182  -7.671 -0.08 +0.04    -0.202 F  BRANCH  10  16ATOM     16  O   UNL     1      17.621 -11.646  -5.643 -0.09 +0.00    -0.494 OA ATOM     17  C   UNL     1      16.348 -11.355  -5.081 -0.36 -0.05    +0.278 C  ENDBRANCH  10  16BRANCH  14  18ATOM     18  O   UNL     1      19.134 -16.964  -5.692 -0.14 -0.18    -0.507 OA ATOM     19  H   UNL     1      18.867 -17.373  -6.547 +0.18 +0.07    +0.293 HD ENDBRANCH  14  18ENDBRANCH   7   9ENDBRANCH   1   7BRANCH   4  20ATOM     20  C   UNL     1      14.556 -13.899 -12.351 -0.21 -0.10    +0.251 C  ATOM     21  N   UNL     1      13.562 -13.010 -12.015 -0.07 +0.15    -0.347 N  ATOM     22  O   UNL     1      14.759 -14.273 -13.503 -0.20 +0.15    -0.269 OA ATOM     23  H   UNL     1      13.342 -12.845 -11.041 +0.10 -0.10    +0.164 HD BRANCH  21  24ATOM     24  C   UNL     1      12.568 -12.514 -12.978 -0.33 -0.05    +0.107 C  ATOM     25  C   UNL     1      11.717 -11.406 -12.332 -0.46 -0.02    +0.042 C  ATOM     26  C   UNL     1      11.646 -13.642 -13.504 -0.26 -0.05    +0.118 C  ATOM     27  C   UNL     1      10.403 -11.927 -11.737 -0.49 -0.03    +0.083 C  ATOM     28  C   UNL     1      10.830 -14.237 -12.325 -0.15 -0.01    +0.108 C  ATOM     29  N   UNL     1      10.558 -13.285 -11.226 -0.33 +0.10    -0.315 NA ATOM     30  H   UNL     1       9.703 -13.579 -10.752 -0.02 +0.02    +0.122 HD BRANCH  26  31ATOM     31  N   UNL     1      12.385 -14.661 -14.244 -0.06 +0.13    -0.346 N  ATOM     32  C   UNL     1      11.794 -15.823 -14.677 -0.11 -0.04    +0.251 C  ATOM     33  H   UNL     1      13.301 -14.386 -14.598 -0.25 -0.10    +0.164 HD ATOM     34  O   UNL     1      10.626 -16.106 -14.435 -0.14 +0.02    -0.269 OA BRANCH  32  35ATOM     35  C   UNL     1      12.634 -16.745 -15.491 -0.24 -0.00    +0.042 A  ATOM     36  C   UNL     1      12.537 -18.134 -15.395 -0.27 -0.00    +0.034 A  ATOM     37  C   UNL     1      13.531 -16.182 -16.401 -0.38 -0.00    +0.034 A  ATOM     38  C   UNL     1      13.362 -18.898 -16.201 -0.33 +0.00    +0.112 A  ATOM     39  C   UNL     1      14.309 -17.034 -17.163 -0.27 +0.03    +0.112 A  ATOM     40  N   UNL     1      14.247 -18.379 -17.080 -0.82 -0.11    -0.265 NA ENDBRANCH  32  35ENDBRANCH  26  31ENDBRANCH  21  24ENDBRANCH   4  20TORSDOF 8TERENDMDL