MODEL        5USER    Run = 5USERUSER    Estimated Free Energy of Binding    =  -7.83 kcal/mol  [=(1)+(2)+(3)-(4)]USERUSER    (1) Final Intermolecular Energy     = -10.22 kcal/molUSER        vdW + Hbond + desolv Energy     =  -9.72 kcal/molUSER        Electrostatic Energy            =  -0.50 kcal/molUSER        Moving Ligand-Fixed Receptor    = -10.22 kcal/molUSER        Moving Ligand-Moving Receptor   =  +0.00 kcal/molUSER    (2) Final Total Internal Energy     =  -2.63 kcal/molUSER    (3) Torsional Free Energy           =  +2.39 kcal/molUSER    (4) Unbound System's Energy         =  -2.63 kcal/molUSERUSERREMARK SMILES COc1ccc(O)c(C(=O)c2ccc(C(=O)N[C@@H]3CCN[C@H]3NC(=O)c3ccncc3)cc2)c1FREMARK SMILES IDX 11 1 12 2 13 3 14 4 32 5 33 6 9 7 10 8 8 9 3 10 4 11 34 12REMARK SMILES IDX 5 13 6 14 35 15 2 16 1 17 7 18 15 20 17 21 16 22 18 24 19 25REMARK SMILES IDX 22 26 20 27 21 28 23 30 24 31 25 33 26 34 27 35 31 36 28 37REMARK SMILES IDX 30 38 29 39REMARK H PARENT 7 19 17 23 21 29 23 32USER                              x       y       z     vdW  Elec       q    TypeUSER                           _______ _______ _______ _____ _____    ______ ____ROOTATOM      1  C   UNL     1      11.993 -12.397 -11.309 -0.36 -0.02    +0.023 A  ATOM      2  C   UNL     1      10.976 -13.108 -11.959 -0.36 -0.00    +0.013 A  ATOM      3  C   UNL     1       9.899 -12.418 -12.520 -0.37 -0.00    +0.014 A  ATOM      4  C   UNL     1       9.840 -11.016 -12.440 -0.44 -0.02    +0.039 A  ATOM      5  C   UNL     1      10.866 -10.309 -11.800 -0.55 -0.01    +0.014 A  ATOM      6  C   UNL     1      11.951 -10.999 -11.250 -0.24 -0.01    +0.013 A  ENDROOTBRANCH   1   7ATOM      7  C   UNL     1      13.153 -13.103 -10.720 -0.21 -0.15    +0.199 C  ATOM      8  O   UNL     1      13.872 -12.499  -9.922 -0.27 +0.21    -0.288 OA BRANCH   7   9ATOM      9  C   UNL     1      13.517 -14.493 -11.089 -0.23 -0.05    +0.104 A  ATOM     10  C   UNL     1      14.576 -16.107 -12.589 -0.21 -0.04    +0.155 A  ATOM     11  C   UNL     1      14.194 -17.150 -11.740 -0.32 -0.01    +0.053 A  ATOM     12  C   UNL     1      14.225 -14.787 -12.258 -0.19 -0.06    +0.179 A  ATOM     13  C   UNL     1      13.457 -16.871 -10.584 -0.35 -0.01    +0.051 A  ATOM     14  C   UNL     1      13.115 -15.555 -10.268 -0.34 -0.06    +0.130 A  ATOM     15  F   UNL     1      14.567 -13.801 -13.107 -0.11 +0.10    -0.202 F  BRANCH  10  16ATOM     16  O   UNL     1      15.292 -16.252 -13.748 -0.13 +0.19    -0.494 OA ATOM     17  C   UNL     1      14.581 -16.154 -14.983 -0.27 -0.09    +0.278 C  ENDBRANCH  10  16BRANCH  14  18ATOM     18  O   UNL     1      12.380 -15.379  -9.124 -0.55 +0.43    -0.507 OA ATOM     19  H   UNL     1      12.254 -14.411  -8.990 -0.17 -0.62    +0.293 HD ENDBRANCH  14  18ENDBRANCH   7   9ENDBRANCH   1   7BRANCH   4  20ATOM     20  C   UNL     1       8.684 -10.259 -12.995 -0.04 -0.11    +0.251 C  ATOM     21  N   UNL     1       7.930 -10.926 -13.937 +0.01 +0.17    -0.346 N  ATOM     22  O   UNL     1       8.462  -9.107 -12.638 -0.36 +0.08    -0.269 OA ATOM     23  H   UNL     1       8.432 -11.623 -14.492 -0.21 -0.18    +0.164 HD BRANCH  21  24ATOM     24  C   UNL     1       6.850 -10.256 -14.637 -0.22 -0.01    +0.120 C  ATOM     25  C   UNL     1       6.293 -11.053 -15.804 -0.25 +0.00    +0.044 C  ATOM     26  C   UNL     1       7.292  -8.958 -15.350 -0.18 -0.00    +0.173 C  ATOM     27  C   UNL     1       5.597  -9.979 -16.625 -0.18 +0.05    +0.085 C  ATOM     28  N   UNL     1       6.371  -8.736 -16.461 -0.46 -0.36    -0.296 NA ATOM     29  H   UNL     1       5.731  -7.966 -16.279 +0.04 +0.16    +0.124 HD BRANCH  26  30ATOM     30  N   UNL     1       7.254  -7.803 -14.501 -0.11 +0.00    -0.335 N  ATOM     31  C   UNL     1       6.042  -7.250 -14.138 -0.13 +0.03    +0.252 C  ATOM     32  H   UNL     1       8.110  -7.485 -14.065 -0.46 -0.08    +0.165 HD ATOM     33  O   UNL     1       4.958  -7.724 -14.470 -0.05 -0.10    -0.269 OA BRANCH  31  34ATOM     34  C   UNL     1       6.090  -6.025 -13.296 -0.20 -0.01    +0.042 A  ATOM     35  C   UNL     1       5.611  -4.827 -13.834 -0.22 -0.01    +0.034 A  ATOM     36  C   UNL     1       6.650  -6.037 -12.016 -0.29 -0.01    +0.034 A  ATOM     37  C   UNL     1       5.689  -3.690 -13.051 -0.21 -0.06    +0.112 A  ATOM     38  C   UNL     1       6.686  -4.844 -11.317 -0.32 -0.07    +0.112 A  ATOM     39  N   UNL     1       6.208  -3.676 -11.803 -0.18 +0.23    -0.265 NA ENDBRANCH  31  34ENDBRANCH  26  30ENDBRANCH  21  24ENDBRANCH   4  20TORSDOF 8TERENDMDL