REMARK SMILES COc1ccc(O)c(C(=O)c2ccc(C(=O)N[C@@H]3CCN[C@H]3NC(=O)c3ccncc3)cc2)c1F
REMARK SMILES IDX 11 1 12 2 13 3 14 4 32 5 33 6 9 7 10 8 8 9 3 10 4 11 34 12
REMARK SMILES IDX 5 13 6 14 35 15 2 16 1 17 7 18 15 20 17 21 16 22 18 24 19 25
REMARK SMILES IDX 22 26 20 27 21 28 23 30 24 31 25 33 26 34 27 35 31 36 28 37
REMARK SMILES IDX 30 38 29 39
REMARK H PARENT 7 19 17 23 21 29 23 32
ROOT
ATOM      1  C   UNL     1       2.394   1.669   0.762  1.00  0.00     0.023 A 
ATOM      2  C   UNL     1       1.969   0.652  -0.101  1.00  0.00     0.013 A 
ATOM      3  C   UNL     1       0.862  -0.129   0.241  1.00  0.00     0.014 A 
ATOM      4  C   UNL     1       0.173   0.111   1.442  1.00  0.00     0.039 A 
ATOM      5  C   UNL     1       0.595   1.139   2.296  1.00  0.00     0.014 A 
ATOM      6  C   UNL     1       1.695   1.929   1.947  1.00  0.00     0.013 A 
ENDROOT
BRANCH   1   7
ATOM      7  C   UNL     1       3.554   2.521   0.416  1.00  0.00     0.199 C 
ATOM      8  O   UNL     1       3.441   3.744   0.511  1.00  0.00    -0.288 OA
BRANCH   7   9
ATOM      9  C   UNL     1       4.833   1.965  -0.089  1.00  0.00     0.104 A 
ATOM     10  C   UNL     1       6.475   0.160  -0.246  1.00  0.00     0.155 A 
ATOM     11  C   UNL     1       7.266   0.950  -1.085  1.00  0.00     0.053 A 
ATOM     12  C   UNL     1       5.268   0.681   0.251  1.00  0.00     0.179 A 
ATOM     13  C   UNL     1       6.857   2.248  -1.408  1.00  0.00     0.051 A 
ATOM     14  C   UNL     1       5.656   2.752  -0.906  1.00  0.00     0.130 A 
ATOM     15  F   UNL     1       4.540  -0.079   1.090  1.00  0.00    -0.202 F 
BRANCH  10  16
ATOM     16  O   UNL     1       6.769  -1.119   0.146  1.00  0.00    -0.494 OA
ATOM     17  C   UNL     1       8.002  -1.683  -0.301  1.00  0.00     0.278 C 
ENDBRANCH  10  16
BRANCH  14  18
ATOM     18  O   UNL     1       5.344   4.039  -1.263  1.00  0.00    -0.507 OA
ATOM     19  H   UNL     1       4.585   4.333  -0.707  1.00  0.00     0.293 HD
ENDBRANCH  14  18
ENDBRANCH   7   9
ENDBRANCH   1   7
BRANCH   4  20
ATOM     20  C   UNL     1      -0.986  -0.731   1.849  1.00  0.00     0.251 C 
ATOM     21  N   UNL     1      -1.722  -1.272   0.817  1.00  0.00    -0.346 N 
ATOM     22  O   UNL     1      -1.258  -0.889   3.034  1.00  0.00    -0.269 OA
ATOM     23  H   UNL     1      -1.730  -0.732  -0.051  1.00  0.00     0.164 HD
BRANCH  21  24
ATOM     24  C   UNL     1      -2.942  -2.013   1.081  1.00  0.00     0.120 C 
ATOM     25  C   UNL     1      -2.703  -3.383   1.692  1.00  0.00     0.044 C 
ATOM     26  C   UNL     1      -3.720  -2.392  -0.199  1.00  0.00     0.173 C 
ATOM     27  C   UNL     1      -4.009  -4.101   1.393  1.00  0.00     0.085 C 
ATOM     28  N   UNL     1      -4.505  -3.584   0.105  1.00  0.00    -0.296 NA
ATOM     29  H   UNL     1      -5.498  -3.377   0.189  1.00  0.00     0.124 HD
BRANCH  26  30
ATOM     30  N   UNL     1      -4.619  -1.366  -0.642  1.00  0.00    -0.335 N 
ATOM     31  C   UNL     1      -4.122  -0.203  -1.197  1.00  0.00     0.252 C 
ATOM     32  H   UNL     1      -5.611  -1.560  -0.670  1.00  0.00     0.165 HD
ATOM     33  O   UNL     1      -2.924  -0.002  -1.381  1.00  0.00    -0.269 OA
BRANCH  31  34
ATOM     34  C   UNL     1      -5.117   0.832  -1.586  1.00  0.00     0.042 A 
ATOM     35  C   UNL     1      -4.808   1.689  -2.646  1.00  0.00     0.034 A 
ATOM     36  C   UNL     1      -6.313   0.998  -0.884  1.00  0.00     0.034 A 
ATOM     37  C   UNL     1      -5.729   2.665  -2.978  1.00  0.00     0.112 A 
ATOM     38  C   UNL     1      -7.164   2.010  -1.292  1.00  0.00     0.112 A 
ATOM     39  N   UNL     1      -6.902   2.837  -2.329  1.00  0.00    -0.265 NA
ENDBRANCH  31  34
ENDBRANCH  26  30
ENDBRANCH  21  24
ENDBRANCH   4  20
TORSDOF 8
