MODEL        9USER    Run = 9USERUSER    Estimated Free Energy of Binding    =  -7.15 kcal/mol  [=(1)+(2)+(3)-(4)]USERUSER    (1) Final Intermolecular Energy     =  -9.53 kcal/molUSER        vdW + Hbond + desolv Energy     =  -9.29 kcal/molUSER        Electrostatic Energy            =  -0.25 kcal/molUSER        Moving Ligand-Fixed Receptor    =  -9.53 kcal/molUSER        Moving Ligand-Moving Receptor   =  +0.00 kcal/molUSER    (2) Final Total Internal Energy     =  -3.07 kcal/molUSER    (3) Torsional Free Energy           =  +2.39 kcal/molUSER    (4) Unbound System's Energy         =  -3.07 kcal/molUSERUSERREMARK SMILES COc1ccc(O)c(C(=O)c2ccc(C(=O)N[C@@H]3CCNC[C@H]3NC(=O)c3ccncn3)cc2)c1FREMARK SMILES IDX 11 1 12 2 13 3 14 4 33 5 34 6 9 7 10 8 8 9 3 10 4 11 35 12REMARK SMILES IDX 5 13 6 14 36 15 2 16 1 17 7 18 15 20 17 21 16 22 18 24 19 25REMARK SMILES IDX 23 26 20 27 22 28 21 29 24 31 25 32 26 34 27 35 28 36 32 37REMARK SMILES IDX 29 38 31 39 30 40REMARK H PARENT 7 19 17 23 21 30 24 33USER                              x       y       z     vdW  Elec       q    TypeUSER                           _______ _______ _______ _____ _____    ______ ____ROOTATOM      1  C   UNL     1       2.197  -2.661 -10.776 -0.17 -0.00    +0.023 A  ATOM      2  C   UNL     1       2.846  -1.745 -11.612 -0.16 -0.01    +0.013 A  ATOM      3  C   UNL     1       2.929  -0.395 -11.254 -0.20 -0.01    +0.014 A  ATOM      4  C   UNL     1       2.356   0.050 -10.055 -0.19 -0.01    +0.039 A  ATOM      5  C   UNL     1       1.678  -0.865  -9.236 -0.22 +0.00    +0.014 A  ATOM      6  C   UNL     1       1.593  -2.215  -9.595 -0.23 +0.00    +0.013 A  ENDROOTBRANCH   1   7ATOM      7  C   UNL     1       2.108  -4.074 -11.214 -0.15 -0.01    +0.199 C  ATOM      8  O   UNL     1       1.030  -4.504 -11.630 -0.10 +0.01    -0.288 OA BRANCH   7   9ATOM      9  C   UNL     1       3.238  -5.024 -11.125 -0.17 -0.01    +0.104 A  ATOM     10  C   UNL     1       5.553  -5.551 -10.569 -0.22 -0.04    +0.155 A  ATOM     11  C   UNL     1       5.342  -6.876 -10.955 -0.27 -0.00    +0.053 A  ATOM     12  C   UNL     1       4.498  -4.632 -10.668 -0.16 -0.05    +0.179 A  ATOM     13  C   UNL     1       4.095  -7.271 -11.448 -0.25 +0.01    +0.051 A  ATOM     14  C   UNL     1       3.057  -6.347 -11.544 -0.16 +0.00    +0.130 A  ATOM     15  F   UNL     1       4.725  -3.351 -10.335 -0.05 +0.15    -0.202 F  BRANCH  10  16ATOM     16  O   UNL     1       6.732  -5.043 -10.091 -0.07 +0.22    -0.494 OA ATOM     17  C   UNL     1       7.398  -4.075 -10.891 -0.30 -0.26    +0.278 C  ENDBRANCH  10  16BRANCH  14  18ATOM     18  O   UNL     1       1.879  -6.808 -12.068 -0.02 -0.05    -0.507 OA ATOM     19  H   UNL     1       1.162  -6.195 -11.784 -0.38 -0.08    +0.293 HD ENDBRANCH  14  18ENDBRANCH   7   9ENDBRANCH   1   7BRANCH   4  20ATOM     20  C   UNL     1       2.413   1.478  -9.619 -0.14 -0.06    +0.251 C  ATOM     21  N   UNL     1       3.628   2.115  -9.762 -0.09 +0.17    -0.347 N  ATOM     22  O   UNL     1       1.420   2.009  -9.136 -0.07 -0.00    -0.269 OA ATOM     23  H   UNL     1       4.444   1.501  -9.791 -0.34 -0.19    +0.164 HD BRANCH  21  24ATOM     24  C   UNL     1       3.893   3.423  -9.152 -0.31 -0.02    +0.107 C  ATOM     25  C   UNL     1       4.873   4.279  -9.960 -0.23 -0.00    +0.042 C  ATOM     26  C   UNL     1       4.437   3.244  -7.701 -0.41 -0.03    +0.118 C  ATOM     27  C   UNL     1       5.007   5.669  -9.326 -0.48 +0.00    +0.083 C  ATOM     28  C   UNL     1       5.355   4.415  -7.281 -0.42 -0.01    +0.108 C  ATOM     29  N   UNL     1       4.905   5.680  -7.860 -0.34 +0.02    -0.315 NA ATOM     30  H   UNL     1       5.454   6.456  -7.490 +0.04 +0.01    +0.122 HD BRANCH  26  31ATOM     31  N   UNL     1       3.338   3.062  -6.756 -0.14 +0.09    -0.345 N  ATOM     32  C   UNL     1       2.848   1.817  -6.420 -0.28 -0.02    +0.270 C  ATOM     33  H   UNL     1       2.726   3.853  -6.562 -0.39 -0.07    +0.164 HD ATOM     34  O   UNL     1       3.374   0.767  -6.777 -0.61 -0.02    -0.268 OA BRANCH  32  35ATOM     35  C   UNL     1       1.594   1.834  -5.604 -0.30 +0.01    +0.131 A  ATOM     36  C   UNL     1       1.219   0.702  -4.913 -0.38 +0.01    +0.054 A  ATOM     37  N   UNL     1       0.891   2.995  -5.611 -0.27 +0.01    -0.231 NA ATOM     38  C   UNL     1       0.053   0.817  -4.200 -0.25 +0.03    +0.115 A  ATOM     39  C   UNL     1      -0.225   2.980  -4.874 -0.19 -0.01    +0.222 A  ATOM     40  N   UNL     1      -0.685   1.942  -4.159 -0.25 -0.03    -0.245 NA ENDBRANCH  32  35ENDBRANCH  26  31ENDBRANCH  21  24ENDBRANCH   4  20TORSDOF 8TERENDMDL