REMARK SMILES COCCNCc1ccccc1C=Cc1cncc(-c2cccc(O)c2C(N)=O)n1
REMARK SMILES IDX 7 1 8 2 9 3 10 4 11 5 12 6 6 7 5 8 4 10 3 11 2 12 1 13 13 14
REMARK SMILES IDX 14 15 15 16 16 17 30 18 17 19 19 20 18 21 20 22 21 23 26 24
REMARK SMILES IDX 22 25 24 26 23 27 27 28 28 29 29 30 25 33
REMARK H PARENT 5 9 28 31 28 32 25 34
ROOT
ATOM      1  C   UNL     1       3.123  -2.531  -0.704  1.00  0.00    -0.027 A 
ATOM      2  C   UNL     1       4.162  -2.417  -1.649  1.00  0.00     0.005 A 
ATOM      3  C   UNL     1       3.950  -2.716  -2.996  1.00  0.00     0.000 A 
ATOM      4  C   UNL     1       2.698  -3.147  -3.424  1.00  0.00     0.001 A 
ATOM      5  C   UNL     1       1.658  -3.278  -2.503  1.00  0.00     0.008 A 
ATOM      6  C   UNL     1       1.859  -2.974  -1.146  1.00  0.00    -0.021 A 
ENDROOT
BRANCH   1   7
ATOM      7  C   UNL     1       3.421  -2.220   0.750  1.00  0.00     0.117 C 
BRANCH   7   8
ATOM      8  N   UNL     1       4.053  -0.914   0.970  1.00  0.00    -0.310 NA
ATOM      9  H   UNL     1       4.300  -0.831   1.960  1.00  0.00     0.123 HD
BRANCH   8  10
ATOM     10  C   UNL     1       3.149   0.206   0.656  1.00  0.00     0.109 C 
BRANCH  10  11
ATOM     11  C   UNL     1       3.667   1.510   1.286  1.00  0.00     0.175 C 
BRANCH  11  12
ATOM     12  O   UNL     1       3.746   1.416   2.716  1.00  0.00    -0.383 OA
ATOM     13  C   UNL     1       2.490   1.611   3.352  1.00  0.00     0.194 C 
ENDBRANCH  11  12
ENDBRANCH  10  11
ENDBRANCH   8  10
ENDBRANCH   7   8
ENDBRANCH   1   7
BRANCH   6  14
ATOM     14  C   UNL     1       0.725  -3.144  -0.235  1.00  0.00     0.011 C 
BRANCH  14  15
ATOM     15  C   UNL     1      -0.303  -2.305  -0.025  1.00  0.00     0.030 C 
BRANCH  15  16
ATOM     16  C   UNL     1      -0.643  -0.991  -0.592  1.00  0.00     0.082 A 
ATOM     17  C   UNL     1       0.162  -0.217  -1.422  1.00  0.00     0.139 A 
ATOM     18  N   UNL     1      -1.867  -0.542  -0.207  1.00  0.00    -0.245 NA
ATOM     19  N   UNL     1      -0.203   1.005  -1.889  1.00  0.00    -0.260 NA
ATOM     20  C   UNL     1      -2.243   0.689  -0.645  1.00  0.00     0.090 A 
ATOM     21  C   UNL     1      -1.416   1.439  -1.475  1.00  0.00     0.140 A 
BRANCH  20  22
ATOM     22  C   UNL     1      -3.611   1.091  -0.294  1.00  0.00     0.018 A 
ATOM     23  C   UNL     1      -4.670   0.400  -0.926  1.00  0.00     0.011 A 
ATOM     24  C   UNL     1      -3.934   2.080   0.665  1.00  0.00     0.090 A 
ATOM     25  C   UNL     1      -6.005   0.681  -0.638  1.00  0.00     0.005 A 
ATOM     26  C   UNL     1      -5.290   2.354   0.943  1.00  0.00     0.129 A 
ATOM     27  C   UNL     1      -6.317   1.662   0.296  1.00  0.00     0.047 A 
BRANCH  24  28
ATOM     28  C   UNL     1      -2.849   2.824   1.374  1.00  0.00     0.253 C 
ATOM     29  N   UNL     1      -3.067   3.153   2.685  1.00  0.00    -0.365 N 
ATOM     30  O   UNL     1      -1.809   3.156   0.821  1.00  0.00    -0.269 OA
ATOM     31  H   UNL     1      -4.026   3.176   3.019  1.00  0.00     0.159 HD
ATOM     32  H   UNL     1      -2.424   3.823   3.080  1.00  0.00     0.159 HD
ENDBRANCH  24  28
BRANCH  26  33
ATOM     33  O   UNL     1      -5.635   3.315   1.861  1.00  0.00    -0.507 OA
ATOM     34  H   UNL     1      -6.599   3.451   1.829  1.00  0.00     0.293 HD
ENDBRANCH  26  33
ENDBRANCH  20  22
ENDBRANCH  15  16
ENDBRANCH  14  15
ENDBRANCH   6  14
TORSDOF 11
