MODEL        10USER    Run = 10USERUSER    Estimated Free Energy of Binding    =  -7.43 kcal/mol  [=(1)+(2)+(3)-(4)]USERUSER    (1) Final Intermolecular Energy     =  -9.82 kcal/molUSER        vdW + Hbond + desolv Energy     =  -9.67 kcal/molUSER        Electrostatic Energy            =  -0.15 kcal/molUSER        Moving Ligand-Fixed Receptor    =  -9.82 kcal/molUSER        Moving Ligand-Moving Receptor   =  +0.00 kcal/molUSER    (2) Final Total Internal Energy     =  -2.80 kcal/molUSER    (3) Torsional Free Energy           =  +2.39 kcal/molUSER    (4) Unbound System's Energy         =  -2.80 kcal/molUSERUSERREMARK SMILES COc1ccc(O)c(C(=O)c2ccc(C(=O)N[C@@H]3CCN[C@H]3NC(=O)c3ccncn3)cc2)c1FREMARK SMILES IDX 11 1 12 2 13 3 14 4 32 5 33 6 9 7 10 8 8 9 3 10 4 11 34 12REMARK SMILES IDX 5 13 6 14 35 15 2 16 1 17 7 18 15 20 17 21 16 22 18 24 19 25REMARK SMILES IDX 22 26 20 27 21 28 23 30 24 31 25 33 26 34 27 35 31 36 28 37REMARK SMILES IDX 30 38 29 39REMARK H PARENT 7 19 17 23 21 29 23 32USER                              x       y       z     vdW  Elec       q    TypeUSER                           _______ _______ _______ _____ _____    ______ ____ROOTATOM      1  C   UNL     1       2.654   2.187  -6.384 -0.38 -0.00    +0.023 A  ATOM      2  C   UNL     1       1.734   3.235  -6.233 -0.35 -0.00    +0.013 A  ATOM      3  C   UNL     1       0.638   3.094  -5.364 -0.29 -0.00    +0.014 A  ATOM      4  C   UNL     1       0.438   1.892  -4.673 -0.37 +0.00    +0.039 A  ATOM      5  C   UNL     1       1.339   0.832  -4.842 -0.38 +0.00    +0.014 A  ATOM      6  C   UNL     1       2.440   0.982  -5.693 -0.39 +0.00    +0.013 A  ENDROOTBRANCH   1   7ATOM      7  C   UNL     1       3.866   2.290  -7.246 -0.33 -0.05    +0.199 C  ATOM      8  O   UNL     1       4.794   1.500  -7.108 -0.67 +0.08    -0.288 OA BRANCH   7   9ATOM      9  C   UNL     1       4.000   3.344  -8.267 -0.30 -0.02    +0.104 A  ATOM     10  C   UNL     1       3.152   4.360 -10.304 -0.27 -0.02    +0.155 A  ATOM     11  C   UNL     1       4.229   5.249 -10.297 -0.41 -0.00    +0.053 A  ATOM     12  C   UNL     1       3.047   3.412  -9.279 -0.19 -0.03    +0.179 A  ATOM     13  C   UNL     1       5.195   5.182  -9.284 -0.53 +0.00    +0.051 A  ATOM     14  C   UNL     1       5.083   4.225  -8.276 -0.38 -0.01    +0.130 A  ATOM     15  F   UNL     1       1.997   2.573  -9.269 -0.01 +0.02    -0.202 F  BRANCH  10  16ATOM     16  O   UNL     1       2.159   4.331 -11.244 -0.07 +0.05    -0.494 OA ATOM     17  C   UNL     1       1.383   5.505 -11.422 -0.20 -0.02    +0.278 C  ENDBRANCH  10  16BRANCH  14  18ATOM     18  O   UNL     1       6.036   4.151  -7.299 -0.46 -0.04    -0.507 OA ATOM     19  H   UNL     1       6.036   3.269  -6.893 +0.25 -0.02    +0.293 HD ENDBRANCH  14  18ENDBRANCH   7   9ENDBRANCH   1   7BRANCH   4  20ATOM     20  C   UNL     1      -0.694   1.783  -3.712 -0.30 +0.03    +0.251 C  ATOM     21  N   UNL     1      -1.585   2.835  -3.732 -0.13 +0.03    -0.346 N  ATOM     22  O   UNL     1      -0.790   0.809  -2.971 -0.31 -0.04    -0.269 OA ATOM     23  H   UNL     1      -1.162   3.743  -3.930 -0.52 -0.07    +0.164 HD BRANCH  21  24ATOM     24  C   UNL     1      -2.705   2.883  -2.791 -0.21 -0.01    +0.120 C  ATOM     25  C   UNL     1      -3.452   1.548  -2.646 -0.26 +0.00    +0.044 C  ATOM     26  C   UNL     1      -3.809   3.859  -3.268 -0.14 -0.02    +0.173 C  ATOM     27  C   UNL     1      -4.871   1.840  -3.136 -0.14 +0.00    +0.085 C  ATOM     28  N   UNL     1      -5.066   3.263  -2.850 -0.02 +0.01    -0.296 NA ATOM     29  H   UNL     1      -5.827   3.639  -3.411 +0.02 -0.00    +0.124 HD BRANCH  26  30ATOM     30  N   UNL     1      -3.762   5.140  -2.660 -0.12 +0.06    -0.333 N  ATOM     31  C   UNL     1      -4.830   6.010  -2.736 -0.11 -0.01    +0.271 C  ATOM     32  H   UNL     1      -2.862   5.514  -2.383 -0.21 -0.07    +0.165 HD ATOM     33  O   UNL     1      -5.919   5.703  -3.219 -0.06 +0.00    -0.267 OA BRANCH  31  34ATOM     34  C   UNL     1      -4.552   7.383  -2.201 -0.11 +0.00    +0.131 A  ATOM     35  C   UNL     1      -5.452   8.403  -2.437 -0.14 +0.00    +0.054 A  ATOM     36  N   UNL     1      -3.395   7.528  -1.504 -0.74 +0.05    -0.231 NA ATOM     37  C   UNL     1      -5.105   9.620  -1.902 -0.17 -0.00    +0.115 A  ATOM     38  C   UNL     1      -3.170   8.762  -1.031 -0.10 -0.08    +0.222 A  ATOM     39  N   UNL     1      -3.974   9.826  -1.195 -0.19 +0.04    -0.245 NA ENDBRANCH  31  34ENDBRANCH  26  30ENDBRANCH  21  24ENDBRANCH   4  20TORSDOF 8TERENDMDL