REMARK SMILES Cc1cccc(-c2n[nH]c3cc(NCC[C@@H](N)C(N)=O)ccc23)c1C
REMARK SMILES IDX 14 1 13 2 12 4 7 5 8 6 23 7 9 8 22 9 10 10 21 11 11 12 6 14
REMARK SMILES IDX 2 15 3 16 24 17 4 18 5 19 1 20 25 21 15 22 16 23 17 24 18 27
REMARK SMILES IDX 19 28 20 29
REMARK H PARENT 13 3 9 13 17 25 17 26 19 30 19 31
ROOT
ATOM      1  C   UNL     1       3.913  -1.480   1.290  1.00  0.00     0.115 C 
ENDROOT
BRANCH   1   2
ATOM      2  N   UNL     1       2.908  -0.490   1.661  1.00  0.00    -0.385 N 
ATOM      3  H   UNL     1       2.982  -0.192   2.632  1.00  0.00     0.160 HD
BRANCH   2   4
ATOM      4  C   UNL     1       1.568  -0.611   1.277  1.00  0.00     0.036 A 
ATOM      5  C   UNL     1      -2.406  -0.904  -0.119  1.00  0.00     0.100 A 
ATOM      6  N   UNL     1      -2.257  -1.853  -1.058  1.00  0.00    -0.174 NA
ATOM      7  C   UNL     1      -1.163  -0.606   0.517  1.00  0.00     0.028 A 
ATOM      8  N   UNL     1      -0.947  -2.144  -1.022  1.00  0.00    -0.277 N 
ATOM      9  C   UNL     1      -0.718   0.276   1.515  1.00  0.00     0.015 A 
ATOM     10  C   UNL     1      -0.236  -1.440  -0.091  1.00  0.00     0.068 A 
ATOM     11  C   UNL     1       0.641   0.266   1.867  1.00  0.00     0.026 A 
ATOM     12  C   UNL     1       1.124  -1.460   0.253  1.00  0.00     0.054 A 
ATOM     13  H   UNL     1      -0.596  -2.843  -1.666  1.00  0.00     0.190 HD
BRANCH   5  14
ATOM     14  C   UNL     1      -3.714  -0.312   0.167  1.00  0.00     0.006 A 
ATOM     15  C   UNL     1      -5.716   0.931  -0.464  1.00  0.00    -0.048 A 
ATOM     16  C   UNL     1      -6.221   0.735   0.832  1.00  0.00     0.004 A 
ATOM     17  C   UNL     1      -4.435   0.429  -0.801  1.00  0.00    -0.039 A 
ATOM     18  C   UNL     1      -5.494   0.026   1.783  1.00  0.00     0.001 A 
ATOM     19  C   UNL     1      -4.250  -0.500   1.451  1.00  0.00     0.011 A 
ATOM     20  C   UNL     1      -6.556   1.694  -1.454  1.00  0.00     0.044 C 
ATOM     21  C   UNL     1      -3.869   0.632  -2.186  1.00  0.00     0.045 C 
ENDBRANCH   5  14
ENDBRANCH   2   4
ENDBRANCH   1   2
BRANCH   1  22
ATOM     22  C   UNL     1       4.562  -1.165  -0.058  1.00  0.00     0.050 C 
BRANCH  22  23
ATOM     23  C   UNL     1       5.195   0.229  -0.166  1.00  0.00     0.142 C 
BRANCH  23  24
ATOM     24  N   UNL     1       6.314   0.443   0.789  1.00  0.00    -0.320 NA
ATOM     25  H   UNL     1       6.958  -0.346   0.719  1.00  0.00     0.119 HD
ATOM     26  H   UNL     1       5.936   0.425   1.735  1.00  0.00     0.119 HD
ENDBRANCH  23  24
BRANCH  23  27
ATOM     27  C   UNL     1       5.733   0.463  -1.596  1.00  0.00     0.234 C 
ATOM     28  N   UNL     1       6.491   1.598  -1.717  1.00  0.00    -0.368 N 
ATOM     29  O   UNL     1       5.512  -0.259  -2.561  1.00  0.00    -0.274 OA
ATOM     30  H   UNL     1       6.917   1.937  -0.860  1.00  0.00     0.159 HD
ATOM     31  H   UNL     1       6.990   1.721  -2.586  1.00  0.00     0.159 HD
ENDBRANCH  23  27
ENDBRANCH  22  23
ENDBRANCH   1  22
TORSDOF 7
