REMARK SMILES CN[C@@H]1CCN(Cc2ccc(C(=O)Nc3cc(Cl)c(F)cc3CN3CCC(c4nnn[nH]4)CC3)cc2)C1
REMARK SMILES IDX 12 1 13 2 14 3 11 5 8 6 9 7 36 8 10 9 35 10 7 11 6 12 3 13
REMARK SMILES IDX 4 14 37 15 5 16 2 17 1 18 15 20 16 21 22 22 17 23 21 24
REMARK SMILES IDX 19 25 18 26 20 27 23 28 24 29 25 30 34 31 26 32 33 33 27 34
REMARK SMILES IDX 28 35 29 36 32 37 30 38 31 39
REMARK H PARENT 14 4 2 19 32 40
ROOT
ATOM      1  C   UNL     1      -0.085   2.222  -1.096  1.00  0.00     0.255 C 
ATOM      2  O   UNL     1      -0.587   3.043  -1.853  1.00  0.00    -0.269 OA
ATOM      3  N   UNL     1       1.130   2.326  -0.449  1.00  0.00    -0.322 N 
ATOM      4  H   UNL     1       1.481   1.487   0.012  1.00  0.00     0.170 HD
ENDROOT
BRANCH   1   5
ATOM      5  C   UNL     1      -0.816   0.946  -0.847  1.00  0.00     0.040 A 
ATOM      6  C   UNL     1      -2.248  -1.444  -0.447  1.00  0.00    -0.034 A 
ATOM      7  C   UNL     1      -1.479  -0.890   0.588  1.00  0.00     0.006 A 
ATOM      8  C   UNL     1      -2.287  -0.788  -1.685  1.00  0.00     0.006 A 
ATOM      9  C   UNL     1      -0.771   0.300   0.394  1.00  0.00     0.014 A 
ATOM     10  C   UNL     1      -1.586   0.404  -1.881  1.00  0.00     0.014 A 
BRANCH   6  11
ATOM     11  C   UNL     1      -3.027  -2.725  -0.220  1.00  0.00     0.120 C 
BRANCH  11  12
ATOM     12  N   UNL     1      -4.432  -2.592   0.149  1.00  0.00    -0.297 NA
ATOM     13  C   UNL     1      -6.654  -1.985  -0.115  1.00  0.00     0.068 C 
ATOM     14  C   UNL     1      -6.210  -1.490   1.266  1.00  0.00     0.036 C 
ATOM     15  C   UNL     1      -5.327  -2.073  -0.881  1.00  0.00     0.103 C 
ATOM     16  C   UNL     1      -4.727  -1.852   1.372  1.00  0.00     0.086 C 
BRANCH  13  17
ATOM     17  N   UNL     1      -7.648  -1.141  -0.788  1.00  0.00    -0.316 NA
ATOM     18  C   UNL     1      -8.923  -1.126  -0.084  1.00  0.00     0.101 C 
ATOM     19  H   UNL     1      -7.292  -0.186  -0.866  1.00  0.00     0.122 HD
ENDBRANCH  13  17
ENDBRANCH  11  12
ENDBRANCH   6  11
ENDBRANCH   1   5
BRANCH   3  20
ATOM     20  C   UNL     1       2.061   3.387  -0.487  1.00  0.00     0.047 A 
ATOM     21  C   UNL     1       1.837   4.563  -1.217  1.00  0.00     0.050 A 
ATOM     22  C   UNL     1       3.268   3.232   0.240  1.00  0.00    -0.007 A 
ATOM     23  C   UNL     1       2.800   5.572  -1.246  1.00  0.00     0.078 A 
ATOM     24  C   UNL     1       4.223   4.265   0.201  1.00  0.00     0.048 A 
ATOM     25  C   UNL     1       3.987   5.418  -0.541  1.00  0.00     0.142 A 
ATOM     26  Cl  UNL     1       2.506   7.005  -2.156  1.00  0.00    -0.081 Cl
ATOM     27  F   UNL     1       4.923   6.377  -0.550  1.00  0.00    -0.205 F 
BRANCH  22  28
ATOM     28  C   UNL     1       3.553   2.037   1.140  1.00  0.00     0.122 C 
BRANCH  28  29
ATOM     29  N   UNL     1       3.219   0.726   0.538  1.00  0.00    -0.299 NA
ATOM     30  C   UNL     1       3.212  -0.347   1.544  1.00  0.00     0.085 C 
ATOM     31  C   UNL     1       4.090   0.385  -0.599  1.00  0.00     0.085 C 
ATOM     32  C   UNL     1       4.599  -0.759   2.037  1.00  0.00     0.027 C 
ATOM     33  C   UNL     1       5.516  -0.014  -0.213  1.00  0.00     0.027 C 
ATOM     34  C   UNL     1       5.576  -1.069   0.897  1.00  0.00     0.062 C 
BRANCH  34  35
ATOM     35  C   UNL     1       5.443  -2.472   0.393  1.00  0.00     0.151 A 
ATOM     36  N   UNL     1       6.321  -3.444   0.545  1.00  0.00    -0.114 NA
ATOM     37  N   UNL     1       4.381  -2.987  -0.297  1.00  0.00    -0.243 N 
ATOM     38  N   UNL     1       5.781  -4.553  -0.059  1.00  0.00    -0.024 NA
ATOM     39  N   UNL     1       4.593  -4.279  -0.574  1.00  0.00    -0.048 NA
ATOM     40  H   UNL     1       3.514  -2.557  -0.596  1.00  0.00     0.193 HD
ENDBRANCH  34  35
ENDBRANCH  28  29
ENDBRANCH  22  28
ENDBRANCH   3  20
TORSDOF 8
