MODEL        6USER    Run = 6USERUSER    Estimated Free Energy of Binding    =  -8.88 kcal/mol  [=(1)+(2)+(3)-(4)]USERUSER    (1) Final Intermolecular Energy     = -10.97 kcal/molUSER        vdW + Hbond + desolv Energy     = -10.98 kcal/molUSER        Electrostatic Energy            =  +0.01 kcal/molUSER        Moving Ligand-Fixed Receptor    = -10.97 kcal/molUSER        Moving Ligand-Moving Receptor   =  +0.00 kcal/molUSER    (2) Final Total Internal Energy     =  -1.51 kcal/molUSER    (3) Torsional Free Energy           =  +2.09 kcal/molUSER    (4) Unbound System's Energy         =  -1.51 kcal/molUSERUSERREMARK SMILES Cc1cccc(-c2n[nH]c3cc(NCC[C@@H](N)C(N)=O)ccc23)c1CREMARK SMILES IDX 14 1 13 2 12 4 7 5 8 6 23 7 9 8 22 9 10 10 21 11 11 12 6 14REMARK SMILES IDX 2 15 3 16 24 17 4 18 5 19 1 20 25 21 15 22 16 23 17 24 18 27REMARK SMILES IDX 19 28 20 29REMARK H PARENT 13 3 9 13 17 25 17 26 19 30 19 31USER                              x       y       z     vdW  Elec       q    TypeUSER                           _______ _______ _______ _____ _____    ______ ____ROOTATOM      1  C   UNL     1      32.006  40.570  18.686 -0.39 -0.00    +0.115 C  ENDROOTBRANCH   1   2ATOM      2  N   UNL     1      32.608  41.660  19.446 -0.13 -0.03    -0.385 N  ATOM      3  H   UNL     1      32.006  42.006  20.190 +0.08 +0.03    +0.160 HD BRANCH   2   4ATOM      4  C   UNL     1      33.289  42.712  18.824 -0.36 -0.00    +0.036 A  ATOM      5  C   UNL     1      35.117  46.007  16.920 -0.28 -0.09    +0.100 A  ATOM      6  N   UNL     1      34.794  46.987  17.780 -0.38 +0.20    -0.174 NA ATOM      7  C   UNL     1      34.591  44.750  17.345 -0.29 -0.01    +0.028 A  ATOM      8  N   UNL     1      34.074  46.364  18.727 -0.38 +0.17    -0.277 N  ATOM      9  C   UNL     1      34.589  43.433  16.859 -0.35 -0.01    +0.015 A  ATOM     10  C   UNL     1      33.925  45.020  18.532 -0.37 -0.03    +0.068 A  ATOM     11  C   UNL     1      33.927  42.441  17.601 -0.37 -0.01    +0.026 A  ATOM     12  C   UNL     1      33.261  44.037  19.282 -0.40 -0.01    +0.054 A  ATOM     13  H   UNL     1      33.708  46.920  19.491 -0.46 -0.10    +0.190 HD BRANCH   5  14ATOM     14  C   UNL     1      35.924  46.275  15.727 -0.37 -0.00    +0.006 A  ATOM     15  C   UNL     1      38.042  46.689  14.591 -0.40 +0.02    -0.048 A  ATOM     16  C   UNL     1      37.352  46.739  13.368 -0.52 -0.00    +0.004 A  ATOM     17  C   UNL     1      37.323  46.482  15.793 -0.36 +0.02    -0.039 A  ATOM     18  C   UNL     1      35.974  46.558  13.317 -0.55 -0.00    +0.001 A  ATOM     19  C   UNL     1      35.264  46.321  14.489 -0.38 -0.01    +0.011 A  ATOM     20  C   UNL     1      39.536  46.878  14.580 -0.49 -0.01    +0.044 C  ATOM     21  C   UNL     1      38.042  46.430  17.120 -0.39 -0.02    +0.045 C  ENDBRANCH   5  14ENDBRANCH   2   4ENDBRANCH   1   2BRANCH   1  22ATOM     22  C   UNL     1      31.037  39.744  19.532 -0.36 +0.01    +0.050 C  BRANCH  22  23ATOM     23  C   UNL     1      31.689  38.648  20.385 -0.42 +0.03    +0.142 C  BRANCH  23  24ATOM     24  N   UNL     1      31.352  38.748  21.830 -0.64 -0.03    -0.320 NA ATOM     25  H   UNL     1      31.260  39.734  22.076 +0.05 +0.01    +0.119 HD ATOM     26  H   UNL     1      32.139  38.388  22.368 -0.36 -0.01    +0.119 HD ENDBRANCH  23  24BRANCH  23  27ATOM     27  C   UNL     1      31.254  37.251  19.886 -0.39 +0.06    +0.234 C  ATOM     28  N   UNL     1      30.753  36.447  20.876 -0.14 -0.04    -0.368 N  ATOM     29  O   UNL     1      31.348  36.853  18.731 -0.97 -0.14    -0.274 OA ATOM     30  H   UNL     1      30.382  36.929  21.689 +0.10 +0.01    +0.159 HD ATOM     31  H   UNL     1      30.316  35.585  20.584 -0.33 -0.00    +0.159 HD ENDBRANCH  23  27ENDBRANCH  22  23ENDBRANCH   1  22TORSDOF 7TERENDMDL