MODEL        7USER    Run = 7USERUSER    Estimated Free Energy of Binding    = -13.62 kcal/mol  [=(1)+(2)+(3)-(4)]USERUSER    (1) Final Intermolecular Energy     = -16.01 kcal/molUSER        vdW + Hbond + desolv Energy     = -15.78 kcal/molUSER        Electrostatic Energy            =  -0.23 kcal/molUSER        Moving Ligand-Fixed Receptor    = -16.01 kcal/molUSER        Moving Ligand-Moving Receptor   =  +0.00 kcal/molUSER    (2) Final Total Internal Energy     =  -1.93 kcal/molUSER    (3) Torsional Free Energy           =  +2.39 kcal/molUSER    (4) Unbound System's Energy         =  -1.93 kcal/molUSERUSERREMARK SMILES CN[C@@H]1CCN(Cc2ccc(C(=O)Nc3cc(Cl)c(F)cc3CN3CCC(c4nnn[nH]4)CC3)cc2)C1REMARK SMILES IDX 12 1 13 2 14 3 11 5 8 6 9 7 36 8 10 9 35 10 7 11 6 12 3 13REMARK SMILES IDX 4 14 37 15 5 16 2 17 1 18 15 20 16 21 22 22 17 23 21 24REMARK SMILES IDX 19 25 18 26 20 27 23 28 24 29 25 30 34 31 26 32 33 33 27 34REMARK SMILES IDX 28 35 29 36 32 37 30 38 31 39REMARK H PARENT 14 4 2 19 32 40USER                              x       y       z     vdW  Elec       q    TypeUSER                           _______ _______ _______ _____ _____    ______ ____ROOTATOM      1  C   UNL     1      33.760  42.639  18.528 -0.26 -0.05    +0.255 C  ATOM      2  O   UNL     1      33.369  42.853  19.668 -0.68 -0.02    -0.269 OA ATOM      3  N   UNL     1      33.276  41.688  17.651 -0.20 +0.11    -0.322 N  ATOM      4  H   UNL     1      33.818  41.524  16.803 -0.18 -0.11    +0.170 HD ENDROOTBRANCH   1   5ATOM      5  C   UNL     1      34.899  43.446  18.004 -0.30 -0.01    +0.040 A  ATOM      6  C   UNL     1      37.051  44.918  16.944 -0.32 +0.01    -0.034 A  ATOM      7  C   UNL     1      36.754  44.974  18.314 -0.34 -0.00    +0.006 A  ATOM      8  C   UNL     1      36.255  44.119  16.112 -0.37 -0.00    +0.006 A  ATOM      9  C   UNL     1      35.689  44.240  18.845 -0.35 -0.00    +0.014 A  ATOM     10  C   UNL     1      35.194  43.380  16.639 -0.38 -0.01    +0.014 A  BRANCH   6  11ATOM     11  C   UNL     1      38.220  45.704  16.382 -0.34 -0.04    +0.120 C  BRANCH  11  12ATOM     12  N   UNL     1      37.909  46.795  15.466 -0.18 +0.14    -0.297 NA ATOM     13  C   UNL     1      37.249  47.779  13.473 -0.59 -0.03    +0.068 C  ATOM     14  C   UNL     1      38.540  48.475  13.916 -0.47 -0.01    +0.036 C  ATOM     15  C   UNL     1      37.346  46.416  14.173 -0.42 -0.04    +0.103 C  ATOM     16  C   UNL     1      38.974  47.755  15.194 -0.51 -0.03    +0.086 C  BRANCH  13  17ATOM     17  N   UNL     1      37.071  47.664  12.021 -0.95 +0.07    -0.316 NA ATOM     18  C   UNL     1      36.473  46.392  11.639 -0.61 -0.04    +0.101 C  ATOM     19  H   UNL     1      36.483  48.430  11.685 -0.30 -0.05    +0.122 HD ENDBRANCH  13  17ENDBRANCH  11  12ENDBRANCH   6  11ENDBRANCH   1   5BRANCH   3  20ATOM     20  C   UNL     1      32.227  40.763  17.845 -0.36 -0.01    +0.047 A  ATOM     21  C   UNL     1      32.453  39.432  18.222 -0.28 -0.00    +0.050 A  ATOM     22  C   UNL     1      30.901  41.217  17.633 -0.31 +0.00    -0.007 A  ATOM     23  C   UNL     1      31.384  38.548  18.374 -0.40 +0.01    +0.078 A  ATOM     24  C   UNL     1      29.837  40.310  17.797 -0.28 +0.00    +0.048 A  ATOM     25  C   UNL     1      30.084  38.989  18.159 -0.28 +0.03    +0.142 A  ATOM     26  Cl  UNL     1      31.686  36.915  18.831 -0.52 -0.03    -0.081 Cl ATOM     27  F   UNL     1      29.042  38.159  18.304 -0.08 -0.11    -0.205 F  BRANCH  22  28ATOM     28  C   UNL     1      30.554  42.667  17.322 -0.24 -0.03    +0.122 C  BRANCH  28  29ATOM     29  N   UNL     1      30.138  42.907  15.921 -0.14 +0.15    -0.299 NA ATOM     30  C   UNL     1      31.270  43.338  15.086 -0.35 -0.05    +0.085 C  ATOM     31  C   UNL     1      29.011  43.848  15.817 -0.26 -0.05    +0.085 C  ATOM     32  C   UNL     1      31.740  44.769  15.349 -0.44 -0.02    +0.027 C  ATOM     33  C   UNL     1      29.371  45.309  16.094 -0.28 -0.00    +0.027 C  ATOM     34  C   UNL     1      30.600  45.793  15.316 -0.48 -0.03    +0.062 C  BRANCH  34  35ATOM     35  C   UNL     1      30.283  46.254  13.928 -0.42 -0.09    +0.151 A  ATOM     36  N   UNL     1      29.080  46.421  13.415 -0.31 +0.09    -0.114 NA ATOM     37  N   UNL     1      31.188  46.596  12.962 -0.36 +0.13    -0.243 N  ATOM     38  N   UNL     1      29.264  46.867  12.129 -0.84 +0.01    -0.024 NA ATOM     39  N   UNL     1      30.552  46.978  11.848 -1.01 +0.02    -0.048 NA ATOM     40  H   UNL     1      32.201  46.609  12.978 -0.39 -0.14    +0.193 HD ENDBRANCH  34  35ENDBRANCH  28  29ENDBRANCH  22  28ENDBRANCH   3  20TORSDOF 8TERENDMDL