MODEL        6USER    Run = 6USERUSER    Estimated Free Energy of Binding    =  -8.86 kcal/mol  [=(1)+(2)+(3)-(4)]USERUSER    (1) Final Intermolecular Energy     = -11.54 kcal/molUSER        vdW + Hbond + desolv Energy     = -11.12 kcal/molUSER        Electrostatic Energy            =  -0.43 kcal/molUSER        Moving Ligand-Fixed Receptor    = -11.54 kcal/molUSER        Moving Ligand-Moving Receptor   =  +0.00 kcal/molUSER    (2) Final Total Internal Energy     =  -1.24 kcal/molUSER    (3) Torsional Free Energy           =  +2.68 kcal/molUSER    (4) Unbound System's Energy         =  -1.24 kcal/molUSERUSERREMARK SMILES C[C@H](O)Cn1cnc2c(NCc3ccccc3)nc(Nc3cccc(O)c3)nc21REMARK SMILES IDX 5 1 6 2 7 3 8 4 9 5 18 6 19 7 28 8 29 9 4 10 2 11 1 12 3 13REMARK SMILES IDX 20 15 21 17 22 18 27 19 23 20 25 21 24 22 26 23 10 25 11 27REMARK SMILES IDX 12 28 13 29 17 30 14 31 16 32 15 33REMARK H PARENT 3 14 20 16 26 24 10 26USER                              x       y       z     vdW  Elec       q    TypeUSER                           _______ _______ _______ _____ _____    ______ ____ROOTATOM      1  N   UNL     1      37.783  47.817  14.559 -0.25 +0.16    -0.312 N  ATOM      2  C   UNL     1      38.915  48.522  14.250 -0.28 -0.08    +0.202 A  ATOM      3  N   UNL     1      39.892  48.272  15.097 -0.35 +0.07    -0.231 NA ATOM      4  C   UNL     1      39.353  47.383  16.006 -0.37 -0.05    +0.150 A  ATOM      5  C   UNL     1      39.877  46.748  17.141 -0.36 -0.03    +0.160 A  ATOM      6  N   UNL     1      39.063  45.889  17.810 -0.30 +0.03    -0.193 NA ATOM      7  C   UNL     1      37.795  45.673  17.400 -0.22 -0.07    +0.231 A  ATOM      8  N   UNL     1      37.217  46.249  16.326 -0.24 +0.10    -0.193 NA ATOM      9  C   UNL     1      38.043  47.083  15.682 -0.30 -0.08    +0.167 A  ENDROOTBRANCH   1  10ATOM     10  C   UNL     1      36.532  47.859  13.840 -0.46 -0.10    +0.156 C  BRANCH  10  11ATOM     11  C   UNL     1      36.478  46.929  12.622 -0.62 -0.06    +0.131 C  ATOM     12  C   UNL     1      36.977  45.522  12.929 -0.56 -0.01    +0.040 C  BRANCH  11  13ATOM     13  O   UNL     1      37.309  47.487  11.600 -0.93 +0.07    -0.392 OA ATOM     14  H   UNL     1      36.827  48.239  11.209 -0.23 -0.09    +0.211 HD ENDBRANCH  11  13ENDBRANCH  10  11ENDBRANCH   1  10BRANCH   7  15ATOM     15  N   UNL     1      36.953  44.801  18.092 -0.14 +0.08    -0.324 N  ATOM     16  H   UNL     1      37.518  44.123  18.582 +0.11 -0.03    +0.170 HD BRANCH  15  17ATOM     17  C   UNL     1      35.570  44.733  18.292 -0.32 -0.01    +0.045 A  ATOM     18  C   UNL     1      35.092  44.071  19.437 -0.38 -0.00    +0.026 A  ATOM     19  C   UNL     1      34.623  45.259  17.408 -0.30 -0.04    +0.072 A  ATOM     20  C   UNL     1      33.723  43.953  19.697 -0.41 -0.00    +0.006 A  ATOM     21  C   UNL     1      33.257  45.143  17.671 -0.27 -0.06    +0.117 A  ATOM     22  C   UNL     1      32.798  44.495  18.809 -0.33 -0.01    +0.046 A  BRANCH  21  23ATOM     23  O   UNL     1      32.390  45.691  16.770 -0.27 +0.32    -0.508 OA ATOM     24  H   UNL     1      32.740  46.551  16.486 -0.30 -0.55    +0.293 HD ENDBRANCH  21  23ENDBRANCH  15  17ENDBRANCH   7  15BRANCH   5  25ATOM     25  N   UNL     1      41.182  46.990  17.577 -0.25 +0.04    -0.364 N  ATOM     26  H   UNL     1      41.742  47.396  16.831 -0.39 -0.03    +0.162 HD BRANCH  25  27ATOM     27  C   UNL     1      41.806  45.899  18.299 -0.36 +0.01    +0.150 C  BRANCH  27  28ATOM     28  C   UNL     1      41.865  46.249  19.769 -0.42 -0.00    -0.029 A  ATOM     29  C   UNL     1      42.919  47.028  20.269 -0.44 +0.00    +0.005 A  ATOM     30  C   UNL     1      40.886  45.781  20.658 -0.34 +0.00    +0.005 A  ATOM     31  C   UNL     1      42.987  47.343  21.627 -0.35 +0.00    +0.000 A  ATOM     32  C   UNL     1      40.955  46.098  22.016 -0.25 +0.00    +0.000 A  ATOM     33  C   UNL     1      42.004  46.879  22.499 -0.26 +0.00    +0.000 A  ENDBRANCH  27  28ENDBRANCH  25  27ENDBRANCH   5  25TORSDOF 9TERENDMDL