REMARK SMILES Oc1cc(CN2CCC(n3c(O)nc4ccccc43)CC2)ccc1-c1nc2cc(F)ccc2nc1-c1ccc(F)cc1
REMARK SMILES IDX 5 1 4 2 2 3 3 4 24 5 23 6 22 7 1 8 25 10 26 11 35 12 27 13
REMARK SMILES IDX 34 14 28 15 33 16 29 17 32 18 31 19 30 20 36 21 37 22 42 23
REMARK SMILES IDX 38 24 41 25 39 26 40 27 6 28 7 29 21 30 8 31 20 32 9 33
REMARK SMILES IDX 10 34 11 35 19 36 13 37 18 38 14 39 17 40 15 41 16 42 12 43
REMARK H PARENT 1 9 12 44
ROOT
ATOM      1  C   UNL     1       0.909   0.872   2.339  1.00  0.00     0.120 C 
ENDROOT
BRANCH   1   2
ATOM      2  C   UNL     1      -0.355   0.608   1.547  1.00  0.00    -0.030 A 
ATOM      3  C   UNL     1      -1.791  -0.927   0.335  1.00  0.00     0.125 A 
ATOM      4  C   UNL     1      -0.623  -0.679   1.058  1.00  0.00     0.052 A 
ATOM      5  C   UNL     1      -2.719   0.092   0.077  1.00  0.00     0.044 A 
ATOM      6  C   UNL     1      -2.439   1.379   0.568  1.00  0.00     0.014 A 
ATOM      7  C   UNL     1      -1.275   1.634   1.298  1.00  0.00     0.006 A 
BRANCH   3   8
ATOM      8  O   UNL     1      -2.047  -2.196  -0.112  1.00  0.00    -0.507 OA
ATOM      9  H   UNL     1      -1.228  -2.715  -0.046  1.00  0.00     0.293 HD
ENDBRANCH   3   8
BRANCH   5  10
ATOM     10  C   UNL     1      -3.942  -0.152  -0.695  1.00  0.00     0.101 A 
ATOM     11  N   UNL     1      -3.787  -0.045  -2.045  1.00  0.00    -0.244 NA
ATOM     12  C   UNL     1      -5.195  -0.409  -0.122  1.00  0.00     0.097 A 
ATOM     13  C   UNL     1      -4.878  -0.229  -2.805  1.00  0.00     0.092 A 
ATOM     14  N   UNL     1      -6.306  -0.566  -0.896  1.00  0.00    -0.244 NA
ATOM     15  C   UNL     1      -4.760  -0.155  -4.184  1.00  0.00     0.069 A 
ATOM     16  C   UNL     1      -6.144  -0.491  -2.228  1.00  0.00     0.090 A 
ATOM     17  C   UNL     1      -5.872  -0.337  -4.995  1.00  0.00     0.125 A 
ATOM     18  C   UNL     1      -7.244  -0.671  -3.059  1.00  0.00     0.033 A 
ATOM     19  C   UNL     1      -7.118  -0.596  -4.446  1.00  0.00     0.041 A 
ATOM     20  F   UNL     1      -5.739  -0.263  -6.325  1.00  0.00    -0.207 F 
BRANCH  12  21
ATOM     21  C   UNL     1      -5.452  -0.476   1.326  1.00  0.00     0.003 A 
ATOM     22  C   UNL     1      -6.344   0.431   1.929  1.00  0.00     0.013 A 
ATOM     23  C   UNL     1      -4.835  -1.440   2.144  1.00  0.00     0.013 A 
ATOM     24  C   UNL     1      -6.588   0.395   3.304  1.00  0.00     0.040 A 
ATOM     25  C   UNL     1      -5.078  -1.477   3.520  1.00  0.00     0.040 A 
ATOM     26  C   UNL     1      -5.948  -0.556   4.088  1.00  0.00     0.123 A 
ATOM     27  F   UNL     1      -6.177  -0.588   5.407  1.00  0.00    -0.207 F 
ENDBRANCH  12  21
ENDBRANCH   5  10
ENDBRANCH   1   2
BRANCH   1  28
ATOM     28  N   UNL     1       2.137   0.608   1.563  1.00  0.00    -0.299 NA
ATOM     29  C   UNL     1       3.295   0.546   2.467  1.00  0.00     0.087 C 
ATOM     30  C   UNL     1       2.338   1.630   0.522  1.00  0.00     0.087 C 
ATOM     31  C   UNL     1       4.565   0.177   1.704  1.00  0.00     0.041 C 
ATOM     32  C   UNL     1       3.568   1.310  -0.328  1.00  0.00     0.041 C 
ATOM     33  C   UNL     1       4.811   1.158   0.554  1.00  0.00     0.095 C 
BRANCH  33  34
ATOM     34  N   UNL     1       6.014   0.841  -0.203  1.00  0.00    -0.291 N 
ATOM     35  C   UNL     1       7.130   1.631  -0.263  1.00  0.00     0.295 A 
ATOM     36  C   UNL     1       6.275  -0.274  -0.973  1.00  0.00     0.072 A 
ATOM     37  N   UNL     1       8.081   1.131  -1.000  1.00  0.00    -0.195 NA
ATOM     38  C   UNL     1       5.542  -1.424  -1.299  1.00  0.00     0.029 A 
ATOM     39  C   UNL     1       7.569  -0.059  -1.454  1.00  0.00     0.092 A 
ATOM     40  C   UNL     1       6.154  -2.364  -2.138  1.00  0.00     0.002 A 
ATOM     41  C   UNL     1       8.166  -1.015  -2.291  1.00  0.00     0.031 A 
ATOM     42  C   UNL     1       7.445  -2.166  -2.627  1.00  0.00     0.002 A 
BRANCH  35  43
ATOM     43  O   UNL     1       7.264   2.788   0.351  1.00  0.00    -0.480 OA
ATOM     44  H   UNL     1       8.159   3.052   0.069  1.00  0.00     0.296 HD
ENDBRANCH  35  43
ENDBRANCH  33  34
ENDBRANCH   1  28
TORSDOF 7
