MODEL        7USER    Run = 7USERUSER    Estimated Free Energy of Binding    = -12.78 kcal/mol  [=(1)+(2)+(3)-(4)]USERUSER    (1) Final Intermolecular Energy     = -14.87 kcal/molUSER        vdW + Hbond + desolv Energy     = -14.49 kcal/molUSER        Electrostatic Energy            =  -0.38 kcal/molUSER        Moving Ligand-Fixed Receptor    = -14.87 kcal/molUSER        Moving Ligand-Moving Receptor   =  +0.00 kcal/molUSER    (2) Final Total Internal Energy     =  -1.18 kcal/molUSER    (3) Torsional Free Energy           =  +2.09 kcal/molUSER    (4) Unbound System's Energy         =  -1.18 kcal/molUSERUSERREMARK SMILES Oc1cc(CN2CCC(n3c(O)nc4ccccc43)CC2)ccc1-c1nc2cc(F)ccc2nc1-c1ccc(F)cc1REMARK SMILES IDX 5 1 4 2 2 3 3 4 24 5 23 6 22 7 1 8 25 10 26 11 35 12 27 13REMARK SMILES IDX 34 14 28 15 33 16 29 17 32 18 31 19 30 20 36 21 37 22 42 23REMARK SMILES IDX 38 24 41 25 39 26 40 27 6 28 7 29 21 30 8 31 20 32 9 33REMARK SMILES IDX 10 34 11 35 19 36 13 37 18 38 14 39 17 40 15 41 16 42 12 43REMARK H PARENT 1 9 12 44USER                              x       y       z     vdW  Elec       q    TypeUSER                           _______ _______ _______ _____ _____    ______ ____ROOTATOM      1  C   UNL     1      31.559  42.666  16.453 -0.29 -0.05    +0.120 C  ENDROOTBRANCH   1   2ATOM      2  C   UNL     1      32.897  43.320  16.727 -0.31 +0.01    -0.030 A  ATOM      3  C   UNL     1      34.184  45.182  17.602 -0.27 -0.07    +0.125 A  ATOM      4  C   UNL     1      32.952  44.580  17.341 -0.28 -0.02    +0.052 A  ATOM      5  C   UNL     1      35.390  44.553  17.260 -0.28 -0.02    +0.044 A  ATOM      6  C   UNL     1      35.324  43.293  16.641 -0.40 -0.01    +0.014 A  ATOM      7  C   UNL     1      34.095  42.681  16.382 -0.36 -0.00    +0.006 A  BRANCH   3   8ATOM      8  O   UNL     1      34.217  46.401  18.226 -0.31 +0.40    -0.507 OA ATOM      9  H   UNL     1      33.932  47.078  17.590 -0.30 -0.50    +0.293 HD ENDBRANCH   3   8BRANCH   5  10ATOM     10  C   UNL     1      36.690  45.182  17.514 -0.27 -0.04    +0.101 A  ATOM     11  N   UNL     1      37.132  45.989  16.508 -0.20 +0.12    -0.244 NA ATOM     12  C   UNL     1      37.470  44.942  18.654 -0.28 -0.02    +0.097 A  ATOM     13  C   UNL     1      38.331  46.571  16.670 -0.34 -0.03    +0.092 A  ATOM     14  N   UNL     1      38.699  45.512  18.800 -0.25 +0.03    -0.244 NA ATOM     15  C   UNL     1      38.807  47.420  15.683 -0.42 -0.03    +0.069 A  ATOM     16  C   UNL     1      39.119  46.332  17.821 -0.35 -0.02    +0.090 A  ATOM     17  C   UNL     1      40.045  48.033  15.821 -0.45 -0.03    +0.125 A  ATOM     18  C   UNL     1      40.355  46.956  17.939 -0.46 -0.00    +0.033 A  ATOM     19  C   UNL     1      40.828  47.810  16.943 -0.50 -0.01    +0.041 A  ATOM     20  F   UNL     1      40.488  48.851  14.858 -0.16 +0.06    -0.207 F  BRANCH  12  21ATOM     21  C   UNL     1      37.088  44.036  19.749 -0.38 -0.00    +0.003 A  ATOM     22  C   UNL     1      37.496  44.310  21.069 -0.37 +0.00    +0.013 A  ATOM     23  C   UNL     1      36.306  42.889  19.524 -0.33 -0.00    +0.013 A  ATOM     24  C   UNL     1      37.159  43.454  22.119 -0.37 +0.00    +0.040 A  ATOM     25  C   UNL     1      35.968  42.031  20.574 -0.45 -0.00    +0.040 A  ATOM     26  C   UNL     1      36.403  42.318  21.861 -0.39 +0.01    +0.123 A  ATOM     27  F   UNL     1      36.084  41.493  22.867 -0.19 -0.01    -0.207 F  ENDBRANCH  12  21ENDBRANCH   5  10ENDBRANCH   1   2BRANCH   1  28ATOM     28  N   UNL     1      31.115  41.787  17.554 -0.11 +0.07    -0.299 NA ATOM     29  C   UNL     1      32.284  41.216  18.239 -0.39 -0.01    +0.087 C  ATOM     30  C   UNL     1      30.225  40.723  17.059 -0.35 -0.01    +0.087 C  ATOM     31  C   UNL     1      31.857  40.381  19.444 -0.36 +0.01    +0.041 C  ATOM     32  C   UNL     1      29.707  39.864  18.212 -0.33 +0.00    +0.041 C  ATOM     33  C   UNL     1      30.871  39.287  19.023 -0.39 +0.01    +0.095 C  BRANCH  33  34ATOM     34  N   UNL     1      30.436  38.466  20.145 -0.19 -0.04    -0.291 N  ATOM     35  C   UNL     1      31.169  38.240  21.278 -0.27 +0.03    +0.295 A  ATOM     36  C   UNL     1      29.246  37.784  20.299 -0.29 +0.01    +0.072 A  ATOM     37  N   UNL     1      30.564  37.477  22.144 -0.32 -0.00    -0.195 NA ATOM     38  C   UNL     1      28.104  37.629  19.500 -0.25 +0.00    +0.029 A  ATOM     39  C   UNL     1      29.361  37.180  21.553 -0.28 -0.00    +0.092 A  ATOM     40  C   UNL     1      27.067  36.834  20.004 -0.29 -0.00    +0.002 A  ATOM     41  C   UNL     1      28.309  36.390  22.042 -0.33 -0.01    +0.031 A  ATOM     42  C   UNL     1      27.164  36.223  21.254 -0.30 -0.00    +0.002 A  BRANCH  35  43ATOM     43  O   UNL     1      32.369  38.731  21.506 -0.80 -0.19    -0.480 OA ATOM     44  H   UNL     1      32.408  38.700  22.479 -0.30 -0.01    +0.296 HD ENDBRANCH  35  43ENDBRANCH  33  34ENDBRANCH   1  28TORSDOF 7TERENDMDL