MODEL        6USER    Run = 6USERUSER    Estimated Free Energy of Binding    =  -8.89 kcal/mol  [=(1)+(2)+(3)-(4)]USERUSER    (1) Final Intermolecular Energy     = -13.06 kcal/molUSER        vdW + Hbond + desolv Energy     = -13.20 kcal/molUSER        Electrostatic Energy            =  -0.27 kcal/molUSER        Moving Ligand-Fixed Receptor    = -13.46 kcal/molUSER        Moving Ligand-Moving Receptor   =  +0.40 kcal/molUSER    (2) Final Total Internal Energy     =  -2.04 kcal/molUSER    (3) Torsional Free Energy           =  +4.18 kcal/molUSER    (4) Unbound System's Energy         =  -2.04 kcal/molUSERUSERREMARK SMILES N#Cc1ccc(C(=O)c2ccc(C(=O)N[C@@H]3CCCNC[C@H]3NC(=O)c3ccncc3)cc2)c(O)c1REMARK SMILES IDX 13 1 14 2 15 3 12 5 9 6 10 7 33 8 11 9 32 10 7 11 8 12 6 13REMARK SMILES IDX 3 14 4 15 36 16 5 17 34 18 2 19 1 20 35 21 16 23 17 24 18 25REMARK SMILES IDX 22 27 21 28 20 29 19 31 23 33 24 34 25 36 26 37 27 38 31 39REMARK SMILES IDX 28 40 30 41 29 42REMARK H PARENT 15 4 35 22 20 30 23 35REMARK Flexibility Score:   88.900USER                              x       y       z     vdW  Elec       q    TypeUSER                           _______ _______ _______ _____ _____    ______ ____ROOTATOM      1  C   UNL     1      38.239  44.626  23.573 -0.21 +0.02    +0.251 C  ATOM      2  O   UNL     1      37.215  43.954  23.530 -0.25 -0.03    -0.269 OA ATOM      3  N   UNL     1      38.842  45.040  24.735 -0.05 -0.02    -0.347 N  ATOM      4  H   UNL     1      39.742  45.498  24.684 +0.07 +0.01    +0.164 HD ENDROOTBRANCH   1   5ATOM      5  C   UNL     1      38.928  44.991  22.317 -0.30 +0.00    +0.039 A  ATOM      6  C   UNL     1      40.243  45.791  19.984 -0.35 +0.00    +0.023 A  ATOM      7  C   UNL     1      40.881  45.918  21.226 -0.28 +0.00    +0.013 A  ATOM      8  C   UNL     1      38.956  45.237  19.915 -0.36 -0.00    +0.013 A  ATOM      9  C   UNL     1      40.214  45.535  22.393 -0.26 +0.00    +0.014 A  ATOM     10  C   UNL     1      38.294  44.840  21.080 -0.33 +0.00    +0.014 A  BRANCH   6  11ATOM     11  C   UNL     1      40.912  46.177  18.714 -0.41 -0.00    +0.196 C  ATOM     12  O   UNL     1      42.143  46.215  18.677 -0.34 -0.03    -0.288 OA BRANCH  11  13ATOM     13  C   UNL     1      40.163  46.555  17.487 -0.44 -0.01    +0.064 A  ATOM     14  C   UNL     1      38.776  47.346  15.173 -0.43 -0.02    +0.056 A  ATOM     15  C   UNL     1      38.357  46.224  15.899 -0.38 -0.01    +0.020 A  ATOM     16  C   UNL     1      39.905  48.058  15.589 -0.50 -0.02    +0.066 A  ATOM     17  C   UNL     1      39.051  45.824  17.048 -0.39 -0.00    +0.017 A  ATOM     18  C   UNL     1      40.599  47.654  16.728 -0.43 -0.02    +0.128 A  BRANCH  14  19ATOM     19  C   UNL     1      38.056  47.756  14.004 -0.51 -0.04    +0.099 C  ATOM     20  N   UNL     1      37.474  48.102  13.060 -0.89 +0.05    -0.192 NA ENDBRANCH  14  19BRANCH  18  21ATOM     21  O   UNL     1      41.715  48.382  17.051 -0.58 -0.01    -0.507 OA ATOM     22  H   UNL     1      42.450  47.746  17.211 -0.36 -0.05    +0.293 HD ENDBRANCH  18  21ENDBRANCH  11  13ENDBRANCH   6  11ENDBRANCH   1   5BRANCH   3  23ATOM     23  C   UNL     1      38.329  44.671  26.069 -0.21 -0.00    +0.106 C  BRANCH  23  24ATOM     24  C   UNL     1      38.732  43.213  26.334 -0.24 -0.00    +0.028 C  BRANCH  24  25ATOM     25  C   UNL     1      37.962  42.102  25.627 -0.34 -0.00    +0.017 CG0ATOM     26  G   UNL     1      36.444  42.233  25.639 +0.00 +0.00    +0.000 G0 ENDBRANCH  24  25ENDBRANCH  23  24BRANCH  23  27ATOM     27  C   UNL     1      36.803  44.945  26.216 -0.30 -0.01    +0.118 C  BRANCH  27  28ATOM     28  C   UNL     1      36.162  44.033  27.291 -0.43 -0.02    +0.108 C  BRANCH  28  29ATOM     29  N   UNL     1      35.941  42.631  26.946 -0.22 +0.07    -0.315 NA ATOM     30  H   UNL     1      34.948  42.408  27.036 +0.10 -0.03    +0.122 HD BRANCH  29  31ATOM     31  C   UNL     1      36.444  42.233  25.639 -0.43 -0.01    +0.081 CG0ATOM     32  G   UNL     1      37.962  42.104  25.620 +0.00 +0.00    +0.000 G0 ENDBRANCH  29  31ENDBRANCH  28  29ENDBRANCH  27  28BRANCH  27  33ATOM     33  N   UNL     1      36.549  46.347  26.580 +0.04 +0.09    -0.346 N  ATOM     34  C   UNL     1      36.982  47.401  25.806 -0.26 -0.00    +0.251 C  ATOM     35  H   UNL     1      35.866  46.486  27.319 -0.44 -0.08    +0.164 HD ATOM     36  O   UNL     1      37.659  47.241  24.794 -0.68 -0.05    -0.269 OA BRANCH  34  37ATOM     37  C   UNL     1      36.595  48.777  26.236 -0.42 -0.00    +0.042 A  ATOM     38  C   UNL     1      36.355  48.990  27.598 -0.31 -0.00    +0.034 A  ATOM     39  C   UNL     1      36.444  49.843  25.347 -0.41 -0.00    +0.034 A  ATOM     40  C   UNL     1      35.987  50.259  28.014 -0.19 +0.01    +0.112 A  ATOM     41  C   UNL     1      36.073  51.074  25.866 -0.32 +0.01    +0.112 A  ATOM     42  N   UNL     1      35.841  51.306  27.176 -0.14 -0.04    -0.265 NA ENDBRANCH  34  37ENDBRANCH  27  33ENDBRANCH  23  27ENDBRANCH   3  23TORSDOF 8TERENDMDL