MODEL        10USER    Run = 10USERUSER    Estimated Free Energy of Binding    =  -7.49 kcal/mol  [=(1)+(2)+(3)-(4)]USERUSER    (1) Final Intermolecular Energy     = -11.67 kcal/molUSER        vdW + Hbond + desolv Energy     = -12.22 kcal/molUSER        Electrostatic Energy            =  -0.28 kcal/molUSER        Moving Ligand-Fixed Receptor    = -12.50 kcal/molUSER        Moving Ligand-Moving Receptor   =  +0.83 kcal/molUSER    (2) Final Total Internal Energy     =  -2.82 kcal/molUSER    (3) Torsional Free Energy           =  +4.18 kcal/molUSER    (4) Unbound System's Energy         =  -2.82 kcal/molUSERUSERREMARK SMILES COc1ccc(O)c(C(=O)c2ccc(C(=O)N[C@@H]3CCCNC[C@@H]3NC(=O)c3cnn(C)c3)cc2)c1FREMARK SMILES IDX 15 1 16 2 17 3 14 5 11 6 12 7 35 8 13 9 34 10 9 11 10 12REMARK SMILES IDX 8 13 3 14 4 15 36 16 5 17 6 18 37 19 2 20 1 21 7 22 18 24REMARK SMILES IDX 19 25 24 27 23 28 22 29 21 31 20 32 25 34 26 35 27 37 28 38REMARK SMILES IDX 29 39 33 40 30 41 31 42 32 43REMARK H PARENT 17 4 7 23 22 30 25 36REMARK Flexibility Score:   72.900USER                              x       y       z     vdW  Elec       q    TypeUSER                           _______ _______ _______ _____ _____    ______ ____ROOTATOM      1  C   UNL     1      38.856  43.359  23.211 -0.18 +0.01    +0.251 C  ATOM      2  O   UNL     1      39.046  42.155  23.340 -0.06 -0.04    -0.269 OA ATOM      3  N   UNL     1      38.083  44.102  24.084 -0.10 -0.02    -0.347 N  ATOM      4  H   UNL     1      38.317  45.096  24.129 +0.08 +0.01    +0.164 HD ENDROOTBRANCH   1   5ATOM      5  C   UNL     1      39.502  44.109  22.092 -0.25 +0.00    +0.039 A  ATOM      6  C   UNL     1      40.628  45.556  19.968 -0.39 +0.00    +0.023 A  ATOM      7  C   UNL     1      41.372  44.559  20.611 -0.34 +0.00    +0.013 A  ATOM      8  C   UNL     1      39.320  45.822  20.380 -0.23 +0.00    +0.013 A  ATOM      9  C   UNL     1      40.814  43.847  21.677 -0.29 +0.00    +0.014 A  ATOM     10  C   UNL     1      38.762  45.109  21.446 -0.34 +0.00    +0.014 A  BRANCH   6  11ATOM     11  C   UNL     1      41.172  46.290  18.798 -0.41 +0.00    +0.199 C  ATOM     12  O   UNL     1      42.342  46.677  18.816 -0.38 -0.03    -0.288 OA BRANCH  11  13ATOM     13  C   UNL     1      40.339  46.671  17.639 -0.42 -0.01    +0.104 A  ATOM     14  C   UNL     1      38.418  46.315  16.182 -0.29 -0.05    +0.155 A  ATOM     15  C   UNL     1      38.731  47.489  15.492 -0.44 -0.02    +0.053 A  ATOM     16  C   UNL     1      39.236  45.911  17.245 -0.30 -0.03    +0.179 A  ATOM     17  C   UNL     1      39.861  48.232  15.846 -0.51 -0.02    +0.051 A  ATOM     18  C   UNL     1      40.666  47.815  16.904 -0.43 -0.02    +0.130 A  ATOM     19  F   UNL     1      38.952  44.764  17.882 -0.09 +0.03    -0.202 F  BRANCH  14  20ATOM     20  O   UNL     1      37.356  45.492  15.909 -0.05 +0.20    -0.494 OA ATOM     21  C   UNL     1      36.053  46.013  16.131 -0.22 -0.20    +0.278 C  ENDBRANCH  14  20BRANCH  18  22ATOM     22  O   UNL     1      41.768  48.581  17.174 -0.63 -0.04    -0.507 OA ATOM     23  H   UNL     1      42.544  47.980  17.243 -0.32 -0.01    +0.293 HD ENDBRANCH  18  22ENDBRANCH  11  13ENDBRANCH   6  11ENDBRANCH   1   5BRANCH   3  24ATOM     24  C   UNL     1      37.630  43.536  25.355 -0.28 -0.00    +0.106 C  BRANCH  24  25ATOM     25  C   UNL     1      36.189  42.996  25.212 -0.32 +0.00    +0.028 CG0ATOM     26  G   UNL     1      35.702  41.949  26.218 +0.00 +0.00    +0.000 G0 ENDBRANCH  24  25BRANCH  24  27ATOM     27  C   UNL     1      37.882  44.520  26.534 -0.25 -0.01    +0.118 C  BRANCH  27  28ATOM     28  C   UNL     1      37.436  43.870  27.869 -0.34 -0.02    +0.108 C  BRANCH  28  29ATOM     29  N   UNL     1      36.001  43.682  28.089 -0.24 +0.10    -0.315 NA ATOM     30  H   UNL     1      35.769  43.854  29.069 -0.47 -0.06    +0.122 HD BRANCH  29  31ATOM     31  C   UNL     1      35.449  42.410  27.661 -0.55 -0.03    +0.081 C  BRANCH  31  32ATOM     32  C   UNL     1      35.701  41.957  26.217 -0.53 -0.00    +0.017 CG0ATOM     33  G   UNL     1      36.187  43.001  25.207 +0.00 +0.00    +0.000 G0 ENDBRANCH  31  32ENDBRANCH  29  31ENDBRANCH  28  29ENDBRANCH  27  28BRANCH  27  34ATOM     34  N   UNL     1      37.286  45.858  26.379 -0.15 +0.03    -0.346 N  ATOM     35  C   UNL     1      37.877  46.911  25.720 -0.24 +0.01    +0.254 C  ATOM     36  H   UNL     1      36.459  46.055  26.926 -0.22 -0.05    +0.164 HD ATOM     37  O   UNL     1      38.937  46.819  25.110 -0.17 -0.02    -0.269 OA BRANCH  35  38ATOM     38  C   UNL     1      37.137  48.160  25.770 -0.38 +0.00    +0.077 A  ATOM     39  C   UNL     1      36.116  48.495  26.690 -0.30 -0.02    +0.149 A  ATOM     40  C   UNL     1      37.263  49.299  24.992 -0.35 +0.01    +0.122 A  ATOM     41  N   UNL     1      35.629  49.724  26.502 -0.25 +0.00    -0.181 NA ATOM     42  N   UNL     1      36.342  50.191  25.464 -0.29 +0.00    -0.275 N  ATOM     43  C   UNL     1      36.103  51.526  24.972 -0.29 +0.00    +0.173 C  ENDBRANCH  35  38ENDBRANCH  27  34ENDBRANCH  24  27ENDBRANCH   3  24TORSDOF 8TERENDMDL