MODEL        7USER    Run = 7USERUSER    Estimated Free Energy of Binding    =  -6.86 kcal/mol  [=(1)+(2)+(3)-(4)]USERUSER    (1) Final Intermolecular Energy     = -11.34 kcal/molUSER        vdW + Hbond + desolv Energy     = -11.67 kcal/molUSER        Electrostatic Energy            =  -0.18 kcal/molUSER        Moving Ligand-Fixed Receptor    = -11.85 kcal/molUSER        Moving Ligand-Moving Receptor   =  +0.51 kcal/molUSER    (2) Final Total Internal Energy     =  -3.03 kcal/molUSER    (3) Torsional Free Energy           =  +4.47 kcal/molUSER    (4) Unbound System's Energy         =  -3.03 kcal/molUSERUSERREMARK SMILES COc1ccc(O)c(C(=O)c2ccc(CN[C@@H]3CCCNC[C@H]3NC(=O)c3ccncc3)cc2)c1FREMARK SMILES IDX 16 1 15 3 14 4 11 5 12 6 34 7 13 8 33 9 9 10 10 11 8 12 3 13REMARK SMILES IDX 4 14 35 15 5 16 6 17 36 18 2 19 1 20 7 21 17 23 18 24 23 26REMARK SMILES IDX 22 27 21 28 20 30 19 31 24 33 25 34 26 36 27 37 28 38 32 39REMARK SMILES IDX 29 40 31 41 30 42REMARK H PARENT 16 2 7 22 21 29 24 35REMARK Flexibility Score:   99.900USER                              x       y       z     vdW  Elec       q    TypeUSER                           _______ _______ _______ _____ _____    ______ ____ROOTATOM      1  N   UNL     1      35.488  46.446  16.530 -0.16 +0.32    -0.308 NA ATOM      2  H   UNL     1      34.644  46.946  16.818 -0.25 -0.23    +0.123 HD ENDROOTBRANCH   1   3ATOM      3  C   UNL     1      35.183  45.016  16.451 -0.29 -0.07    +0.117 C  BRANCH   3   4ATOM      4  C   UNL     1      35.476  44.263  17.726 -0.29 +0.01    -0.034 A  ATOM      5  C   UNL     1      36.027  42.841  20.089 -0.43 -0.00    +0.023 A  ATOM      6  C   UNL     1      35.744  42.150  18.906 -0.23 -0.00    +0.012 A  ATOM      7  C   UNL     1      36.009  44.240  20.095 -0.37 -0.00    +0.012 A  ATOM      8  C   UNL     1      35.479  42.859  17.732 -0.36 -0.00    +0.006 A  ATOM      9  C   UNL     1      35.742  44.946  18.920 -0.29 -0.00    +0.006 A  BRANCH   5  10ATOM     10  C   UNL     1      36.274  42.135  21.369 -0.43 +0.01    +0.199 C  ATOM     11  O   UNL     1      35.649  41.101  21.612 -0.34 -0.00    -0.288 OA BRANCH  10  12ATOM     12  C   UNL     1      37.284  42.573  22.356 -0.37 +0.01    +0.104 A  ATOM     13  C   UNL     1      39.361  43.714  22.933 -0.17 +0.01    +0.155 A  ATOM     14  C   UNL     1      39.175  43.369  24.273 -0.20 +0.00    +0.053 A  ATOM     15  C   UNL     1      38.406  43.316  21.985 -0.19 +0.01    +0.179 A  ATOM     16  C   UNL     1      38.037  42.656  24.662 -0.27 +0.00    +0.051 A  ATOM     17  C   UNL     1      37.093  42.277  23.711 -0.34 +0.01    +0.130 A  ATOM     18  F   UNL     1      38.576  43.687  20.705 -0.04 -0.00    -0.202 F  BRANCH  13  19ATOM     19  O   UNL     1      40.421  44.427  22.438 -0.01 -0.02    -0.494 OA ATOM     20  C   UNL     1      41.638  43.723  22.228 -0.21 +0.02    +0.278 C  ENDBRANCH  13  19BRANCH  17  21ATOM     21  O   UNL     1      35.990  41.613  24.180 -0.10 +0.03    -0.507 OA ATOM     22  H   UNL     1      35.948  40.741  23.722 +0.04 -0.05    +0.293 HD ENDBRANCH  17  21ENDBRANCH  10  12ENDBRANCH   5  10ENDBRANCH   3   4ENDBRANCH   1   3BRANCH   1  23ATOM     23  C   UNL     1      35.960  47.030  15.244 -0.23 -0.08    +0.077 C  BRANCH  23  24ATOM     24  C   UNL     1      34.930  46.657  14.171 -0.33 -0.02    +0.022 CG0ATOM     25  G   UNL     1      35.514  46.206  12.833 +0.00 +0.00    +0.000 G0 ENDBRANCH  23  24BRANCH  23  26ATOM     26  C   UNL     1      37.401  46.521  14.927 -0.38 -0.06    +0.113 C  BRANCH  26  27ATOM     27  C   UNL     1      38.119  47.427  13.897 -0.49 -0.04    +0.107 C  BRANCH  27  28ATOM     28  N   UNL     1      37.763  47.306  12.487 -0.80 +0.05    -0.315 NA ATOM     29  H   UNL     1      38.197  46.462  12.105 +0.12 -0.02    +0.122 HD BRANCH  28  30ATOM     30  C   UNL     1      36.348  47.287  12.148 -0.68 -0.04    +0.081 C  BRANCH  30  31ATOM     31  C   UNL     1      35.517  46.204  12.831 -0.52 -0.01    +0.017 CG0ATOM     32  G   UNL     1      34.935  46.656  14.169 +0.00 +0.00    +0.000 G0 ENDBRANCH  30  31ENDBRANCH  28  30ENDBRANCH  27  28ENDBRANCH  26  27BRANCH  26  33ATOM     33  N   UNL     1      38.191  46.468  16.173 -0.15 +0.13    -0.346 N  ATOM     34  C   UNL     1      39.562  46.333  16.151 -0.32 -0.05    +0.251 C  ATOM     35  H   UNL     1      37.702  46.623  17.042 +0.10 -0.07    +0.164 HD ATOM     36  O   UNL     1      40.204  46.154  15.123 -0.34 +0.02    -0.269 OA BRANCH  34  37ATOM     37  C   UNL     1      40.261  46.383  17.461 -0.46 -0.01    +0.042 A  ATOM     38  C   UNL     1      41.272  47.330  17.630 -0.46 -0.00    +0.034 A  ATOM     39  C   UNL     1      39.917  45.544  18.521 -0.43 -0.00    +0.034 A  ATOM     40  C   UNL     1      41.922  47.378  18.848 -0.40 +0.00    +0.112 A  ATOM     41  C   UNL     1      40.627  45.674  19.702 -0.34 +0.00    +0.112 A  ATOM     42  N   UNL     1      41.626  46.563  19.884 -0.25 -0.03    -0.265 NA ENDBRANCH  34  37ENDBRANCH  26  33ENDBRANCH  23  26ENDBRANCH   1  23TORSDOF 9TERENDMDL