MODEL        8USER    Run = 8USERUSER    Estimated Free Energy of Binding    =  -6.83 kcal/mol  [=(1)+(2)+(3)-(4)]USERUSER    (1) Final Intermolecular Energy     = -11.31 kcal/molUSER        vdW + Hbond + desolv Energy     = -11.60 kcal/molUSER        Electrostatic Energy            =  -0.15 kcal/molUSER        Moving Ligand-Fixed Receptor    = -11.75 kcal/molUSER        Moving Ligand-Moving Receptor   =  +0.44 kcal/molUSER    (2) Final Total Internal Energy     =  -2.53 kcal/molUSER    (3) Torsional Free Energy           =  +4.47 kcal/molUSER    (4) Unbound System's Energy         =  -2.53 kcal/molUSERUSERREMARK SMILES COc1ccc(O)c(C(=O)c2ccc(/C=C/[C@@H]3CCCNC[C@H]3NC(=O)c3ccncc3)cc2)c1FREMARK SMILES IDX 16 1 15 2 14 3 11 4 12 5 34 6 13 7 33 8 9 9 10 10 8 11 3 12REMARK SMILES IDX 4 13 35 14 5 15 6 16 36 17 2 18 1 19 7 20 17 22 18 23 23 25REMARK SMILES IDX 22 26 21 27 20 29 19 30 24 32 25 33 26 35 27 36 28 37 32 38REMARK SMILES IDX 29 39 31 40 30 41REMARK H PARENT 7 21 21 28 24 34REMARK Flexibility Score:   99.900USER                              x       y       z     vdW  Elec       q    TypeUSER                           _______ _______ _______ _____ _____    ______ ____ROOTATOM      1  C   UNL     1      38.787  42.514  25.266 -0.26 -0.00    -0.021 C  ENDROOTBRANCH   1   2ATOM      2  C   UNL     1      38.475  42.770  23.986 -0.31 +0.00    +0.004 C  BRANCH   2   3ATOM      3  C   UNL     1      39.259  43.664  23.125 -0.24 -0.00    -0.026 A  ATOM      4  C   UNL     1      40.771  45.310  21.427 -0.29 +0.00    +0.023 A  ATOM      5  C   UNL     1      41.098  43.958  21.560 -0.31 +0.00    +0.013 A  ATOM      6  C   UNL     1      39.668  45.833  22.108 -0.28 +0.00    +0.013 A  ATOM      7  C   UNL     1      40.339  43.139  22.404 -0.26 +0.00    +0.009 A  ATOM      8  C   UNL     1      38.922  45.015  22.959 -0.29 +0.00    +0.009 A  BRANCH   4   9ATOM      9  C   UNL     1      41.529  46.199  20.521 -0.28 +0.02    +0.199 C  ATOM     10  O   UNL     1      42.637  46.603  20.876 -0.26 -0.07    -0.288 OA BRANCH   9  11ATOM     11  C   UNL     1      40.996  46.668  19.222 -0.27 +0.00    +0.104 A  ATOM     12  C   UNL     1      39.253  46.704  17.516 -0.31 -0.04    +0.155 A  ATOM     13  C   UNL     1      40.023  47.585  16.754 -0.46 -0.01    +0.053 A  ATOM     14  C   UNL     1      39.751  46.250  18.747 -0.28 -0.02    +0.179 A  ATOM     15  C   UNL     1      41.282  47.987  17.208 -0.45 -0.00    +0.051 A  ATOM     16  C   UNL     1      41.768  47.521  18.425 -0.40 -0.00    +0.130 A  ATOM     17  F   UNL     1      39.019  45.373  19.452 -0.11 +0.01    -0.202 F  BRANCH  12  18ATOM     18  O   UNL     1      38.018  46.226  17.168 -0.12 +0.17    -0.494 OA ATOM     19  C   UNL     1      37.908  44.833  16.907 -0.21 -0.07    +0.278 C  ENDBRANCH  12  18BRANCH  16  20ATOM     20  O   UNL     1      43.023  47.940  18.779 -0.28 -0.02    -0.507 OA ATOM     21  H   UNL     1      42.960  48.358  19.669 -0.33 -0.04    +0.293 HD ENDBRANCH  16  20ENDBRANCH   9  11ENDBRANCH   4   9ENDBRANCH   2   3ENDBRANCH   1   2BRANCH   1  22ATOM     22  C   UNL     1      37.940  42.867  26.486 -0.32 -0.00    +0.035 C  BRANCH  22  23ATOM     23  C   UNL     1      36.936  41.713  26.681 -0.51 -0.00    +0.011 CG0ATOM     24  G   UNL     1      35.884  41.845  27.777 +0.00 +0.00    +0.000 G0 ENDBRANCH  22  23BRANCH  22  25ATOM     25  C   UNL     1      37.294  44.286  26.501 -0.31 -0.01    +0.103 C  BRANCH  25  26ATOM     26  C   UNL     1      36.392  44.482  27.753 -0.43 -0.02    +0.106 C  BRANCH  26  27ATOM     27  N   UNL     1      34.978  44.140  27.643 -0.28 +0.08    -0.315 NA ATOM     28  H   UNL     1      34.552  44.702  26.905 -0.16 -0.06    +0.122 HD BRANCH  27  29ATOM     29  C   UNL     1      34.696  42.729  27.435 -0.59 -0.02    +0.081 C  BRANCH  29  30ATOM     30  C   UNL     1      35.886  41.845  27.776 -0.53 -0.01    +0.016 CG0ATOM     31  G   UNL     1      36.942  41.713  26.684 +0.00 +0.00    +0.000 G0 ENDBRANCH  29  30ENDBRANCH  27  29ENDBRANCH  26  27ENDBRANCH  25  26BRANCH  25  32ATOM     32  N   UNL     1      38.319  45.339  26.497 -0.08 +0.01    -0.347 N  ATOM     33  C   UNL     1      38.137  46.529  25.827 -0.21 +0.01    +0.251 C  ATOM     34  H   UNL     1      39.084  45.253  27.153 +0.05 -0.00    +0.164 HD ATOM     35  O   UNL     1      37.127  46.800  25.189 -0.83 -0.05    -0.269 OA BRANCH  33  36ATOM     36  C   UNL     1      39.238  47.518  25.940 -0.23 +0.00    +0.042 A  ATOM     37  C   UNL     1      39.557  48.124  27.155 -0.21 +0.00    +0.034 A  ATOM     38  C   UNL     1      39.985  47.811  24.801 -0.27 +0.00    +0.034 A  ATOM     39  C   UNL     1      40.603  49.027  27.168 -0.23 +0.01    +0.112 A  ATOM     40  C   UNL     1      41.010  48.731  24.919 -0.27 +0.02    +0.112 A  ATOM     41  N   UNL     1      41.328  49.352  26.075 -0.20 -0.03    -0.265 NA ENDBRANCH  33  36ENDBRANCH  25  32ENDBRANCH  22  25ENDBRANCH   1  22TORSDOF 9TERENDMDL