MODEL        10USER    Run = 10USERUSER    Estimated Free Energy of Binding    =  -5.69 kcal/mol  [=(1)+(2)+(3)-(4)]USERUSER    (1) Final Intermolecular Energy     = -10.17 kcal/molUSER        vdW + Hbond + desolv Energy     = -10.50 kcal/molUSER        Electrostatic Energy            =  -0.08 kcal/molUSER        Moving Ligand-Fixed Receptor    = -10.58 kcal/molUSER        Moving Ligand-Moving Receptor   =  +0.42 kcal/molUSER    (2) Final Total Internal Energy     =  -3.33 kcal/molUSER    (3) Torsional Free Energy           =  +4.47 kcal/molUSER    (4) Unbound System's Energy         =  -3.33 kcal/molUSERUSERREMARK SMILES COc1ccc(O)c(C(=O)c2ccc(CO[C@@H]3CCCNC[C@@H]3NC(=O)c3ccncc3)cc2)c1FREMARK SMILES IDX 16 1 15 2 14 3 11 4 12 5 34 6 13 7 33 8 9 9 10 10 8 11 3 12REMARK SMILES IDX 4 13 35 14 5 15 6 16 36 17 2 18 1 19 7 20 17 22 18 23 23 25REMARK SMILES IDX 22 26 21 27 20 29 19 30 24 32 25 33 26 35 27 36 28 37 32 38REMARK SMILES IDX 29 39 31 40 30 41REMARK H PARENT 7 21 21 28 24 34REMARK Flexibility Score:   99.900USER                              x       y       z     vdW  Elec       q    TypeUSER                           _______ _______ _______ _____ _____    ______ ____ROOTATOM      1  O   UNL     1      39.391  47.212  16.309 -0.23 +0.11    -0.371 OA ENDROOTBRANCH   1   2ATOM      2  C   UNL     1      40.674  46.679  16.633 -0.36 -0.02    +0.196 C  BRANCH   2   3ATOM      3  C   UNL     1      40.564  45.951  17.947 -0.47 +0.00    -0.022 A  ATOM      4  C   UNL     1      40.325  44.594  20.396 -0.34 +0.00    +0.023 A  ATOM      5  C   UNL     1      39.725  44.072  19.246 -0.18 -0.00    +0.012 A  ATOM      6  C   UNL     1      41.070  45.775  20.315 -0.37 +0.00    +0.012 A  ATOM      7  C   UNL     1      39.840  44.752  18.032 -0.29 -0.00    +0.007 A  ATOM      8  C   UNL     1      41.184  46.453  19.100 -0.46 +0.00    +0.007 A  BRANCH   4   9ATOM      9  C   UNL     1      40.259  43.890  21.699 -0.20 +0.01    +0.199 C  ATOM     10  O   UNL     1      41.085  43.008  21.946 -0.24 -0.01    -0.288 OA BRANCH   9  11ATOM     11  C   UNL     1      39.208  44.145  22.707 -0.21 +0.00    +0.104 A  ATOM     12  C   UNL     1      38.042  45.621  24.258 -0.19 +0.02    +0.155 A  ATOM     13  C   UNL     1      37.182  44.576  24.604 -0.27 +0.01    +0.053 A  ATOM     14  C   UNL     1      39.054  45.392  23.315 -0.19 +0.01    +0.179 A  ATOM     15  C   UNL     1      37.348  43.314  24.026 -0.33 +0.00    +0.051 A  ATOM     16  C   UNL     1      38.363  43.099  23.096 -0.24 +0.01    +0.130 A  ATOM     17  F   UNL     1      39.896  46.395  23.017 -0.07 -0.02    -0.202 F  BRANCH  12  18ATOM     18  O   UNL     1      37.988  46.891  24.767 -0.50 -0.08    -0.494 OA ATOM     19  C   UNL     1      37.240  47.086  25.960 -0.25 -0.00    +0.278 C  ENDBRANCH  12  18BRANCH  16  20ATOM     20  O   UNL     1      38.475  41.827  22.602 -0.02 -0.07    -0.507 OA ATOM     21  H   UNL     1      39.417  41.684  22.350 +0.19 +0.05    +0.293 HD ENDBRANCH  16  20ENDBRANCH   9  11ENDBRANCH   4   9ENDBRANCH   2   3ENDBRANCH   1   2BRANCH   1  22ATOM     22  C   UNL     1      39.077  47.139  14.901 -0.42 -0.04    +0.142 C  BRANCH  22  23ATOM     23  C   UNL     1      38.422  48.490  14.580 -0.57 -0.02    +0.035 CG0ATOM     24  G   UNL     1      36.913  48.556  14.371 +0.00 +0.00    +0.000 G0 ENDBRANCH  22  23BRANCH  22  25ATOM     25  C   UNL     1      38.211  45.885  14.634 -0.38 -0.04    +0.125 C  BRANCH  25  26ATOM     26  C   UNL     1      37.638  45.903  13.195 -0.38 -0.03    +0.108 C  BRANCH  26  27ATOM     27  N   UNL     1      36.347  46.563  13.009 -0.31 +0.15    -0.315 NA ATOM     28  H   UNL     1      35.700  46.210  13.716 +0.09 -0.08    +0.122 HD BRANCH  27  29ATOM     29  C   UNL     1      36.401  48.018  13.043 -0.60 -0.04    +0.081 C  BRANCH  29  30ATOM     30  C   UNL     1      36.914  48.555  14.370 -0.56 -0.01    +0.018 CG0ATOM     31  G   UNL     1      38.421  48.486  14.586 +0.00 +0.00    +0.000 G0 ENDBRANCH  29  30ENDBRANCH  27  29ENDBRANCH  26  27ENDBRANCH  25  26BRANCH  25  32ATOM     32  N   UNL     1      37.199  45.704  15.684 -0.11 +0.15    -0.345 N  ATOM     33  C   UNL     1      37.052  44.498  16.338 -0.23 -0.08    +0.251 C  ATOM     34  H   UNL     1      37.019  46.531  16.241 +0.11 -0.10    +0.164 HD ATOM     35  O   UNL     1      37.658  43.480  16.031 -0.10 +0.07    -0.269 OA BRANCH  33  36ATOM     36  C   UNL     1      36.122  44.489  17.500 -0.29 -0.01    +0.042 A  ATOM     37  C   UNL     1      35.218  45.543  17.631 -0.35 -0.02    +0.034 A  ATOM     38  C   UNL     1      36.156  43.485  18.467 -0.28 -0.01    +0.034 A  ATOM     39  C   UNL     1      34.368  45.538  18.723 -0.37 -0.05    +0.112 A  ATOM     40  C   UNL     1      35.266  43.574  19.523 -0.33 -0.01    +0.112 A  ATOM     41  N   UNL     1      34.371  44.574  19.667 -0.19 +0.06    -0.265 NA ENDBRANCH  33  36ENDBRANCH  25  32ENDBRANCH  22  25ENDBRANCH   1  22TORSDOF 9TERENDMDL