MODEL        8USER    Run = 8USERUSER    Estimated Free Energy of Binding    = -11.97 kcal/mol  [=(1)+(2)+(3)-(4)]USERUSER    (1) Final Intermolecular Energy     = -13.76 kcal/molUSER        vdW + Hbond + desolv Energy     = -13.58 kcal/molUSER        Electrostatic Energy            =  -0.19 kcal/molUSER        Moving Ligand-Fixed Receptor    = -13.76 kcal/molUSER        Moving Ligand-Moving Receptor   =  +0.00 kcal/molUSER    (2) Final Total Internal Energy     =  -2.09 kcal/molUSER    (3) Torsional Free Energy           =  +1.79 kcal/molUSER    (4) Unbound System's Energy         =  -2.09 kcal/molUSERUSERREMARK SMILES Oc1nc2ccccc2n1C1CCN(Cc2ccc(-c3cc4ccccc4nc3-c3ccccc3)cc2)CC1REMARK SMILES IDX 11 1 12 2 13 3 14 4 38 5 39 6 10 7 2 8 3 9 4 10 9 11 5 12REMARK SMILES IDX 8 13 6 14 7 15 1 16 15 18 16 19 17 20 37 21 18 22 36 23REMARK SMILES IDX 19 24 20 25 21 26 29 27 22 28 28 29 23 30 27 31 24 32 26 33REMARK SMILES IDX 25 34 30 35 31 36 35 37 32 38 34 39 33 40REMARK H PARENT 1 17USER                              x       y       z     vdW  Elec       q    TypeUSER                           _______ _______ _______ _____ _____    ______ ____ROOTATOM      1  C   UNL     1      40.552  47.752  18.057 -0.05 -0.01    +0.095 C  ATOM      2  C   UNL     1      42.037  48.034  18.328 -0.42 -0.00    +0.041 C  ATOM      3  C   UNL     1      42.907  46.788  18.456 +0.09 +0.01    +0.087 C  ATOM      4  N   UNL     1      42.332  45.739  19.301 +0.07 -0.07    -0.299 NA ATOM      5  C   UNL     1      41.023  45.322  18.790 -0.45 +0.00    +0.087 C  ATOM      6  C   UNL     1      40.004  46.453  18.668 -0.41 -0.00    +0.041 C  ENDROOTBRANCH   1   7ATOM      7  N   UNL     1      40.141  47.989  16.675 -0.30 +0.07    -0.291 N  ATOM      8  C   UNL     1      40.669  48.986  15.890 -0.35 -0.07    +0.295 A  ATOM      9  N   UNL     1      40.148  49.048  14.698 -0.38 +0.07    -0.195 NA ATOM     10  C   UNL     1      39.227  48.035  14.682 -0.45 -0.03    +0.092 A  ATOM     11  C   UNL     1      39.200  47.341  15.900 -0.42 -0.02    +0.072 A  ATOM     12  C   UNL     1      38.371  47.653  13.635 -0.44 -0.01    +0.031 A  ATOM     13  C   UNL     1      38.336  46.256  16.093 -0.37 -0.01    +0.029 A  ATOM     14  C   UNL     1      37.504  46.575  13.827 -0.47 -0.00    +0.002 A  ATOM     15  C   UNL     1      37.491  45.889  15.037 -0.38 -0.00    +0.002 A  BRANCH   8  16ATOM     16  O   UNL     1      41.614  49.823  16.266 -0.85 -0.02    -0.480 OA ATOM     17  H   UNL     1      41.107  50.651  16.354 -0.10 -0.10    +0.296 HD ENDBRANCH   8  16ENDBRANCH   1   7BRANCH   4  18ATOM     18  C   UNL     1      42.325  46.112  20.725 -0.32 +0.03    +0.120 C  BRANCH  18  19ATOM     19  C   UNL     1      41.300  45.349  21.537 -0.27 -0.00    -0.034 A  ATOM     20  C   UNL     1      41.403  43.963  21.708 -0.31 +0.00    +0.006 A  ATOM     21  C   UNL     1      40.226  46.024  22.133 -0.23 +0.00    +0.006 A  ATOM     22  C   UNL     1      40.451  43.267  22.457 -0.28 +0.00    +0.009 A  ATOM     23  C   UNL     1      39.270  45.325  22.874 -0.28 +0.00    +0.009 A  ATOM     24  C   UNL     1      39.365  43.937  23.043 -0.24 -0.00    -0.016 A  BRANCH  24  25ATOM     25  C   UNL     1      38.363  43.204  23.831 -0.28 +0.00    +0.009 A  ATOM     26  C   UNL     1      38.623  42.930  25.182 -0.23 +0.00    +0.021 A  ATOM     27  C   UNL     1      37.123  42.783  23.324 -0.35 +0.01    +0.079 A  ATOM     28  C   UNL     1      37.676  42.276  25.979 -0.34 -0.00    +0.001 A  ATOM     29  N   UNL     1      36.186  42.158  24.093 -0.21 -0.01    -0.247 NA ATOM     30  C   UNL     1      37.915  41.994  27.336 -0.40 -0.00    +0.010 A  ATOM     31  C   UNL     1      36.457  41.909  25.383 -0.34 -0.01    +0.071 A  ATOM     32  C   UNL     1      36.948  41.347  28.103 -0.35 -0.00    +0.001 A  ATOM     33  C   UNL     1      35.509  41.266  26.169 -0.36 -0.01    +0.029 A  ATOM     34  C   UNL     1      35.740  40.983  27.518 -0.64 -0.00    +0.002 A  BRANCH  27  35ATOM     35  C   UNL     1      36.701  42.964  21.922 -0.42 +0.00    +0.001 A  ATOM     36  C   UNL     1      36.186  41.881  21.187 -0.53 +0.00    +0.010 A  ATOM     37  C   UNL     1      36.818  44.204  21.269 -0.35 +0.00    +0.010 A  ATOM     38  C   UNL     1      35.779  42.038  19.859 -0.39 -0.00    +0.001 A  ATOM     39  C   UNL     1      36.412  44.362  19.941 -0.37 -0.00    +0.001 A  ATOM     40  C   UNL     1      35.889  43.279  19.238 -0.39 -0.00    +0.000 A  ENDBRANCH  27  35ENDBRANCH  24  25ENDBRANCH  18  19ENDBRANCH   4  18TORSDOF 6TERENDMDL