MODEL        3USER    Run = 3USERUSER    Estimated Free Energy of Binding    =  -6.92 kcal/mol  [=(1)+(2)+(3)-(4)]USERUSER    (1) Final Intermolecular Energy     = -11.39 kcal/molUSER        vdW + Hbond + desolv Energy     = -12.08 kcal/molUSER        Electrostatic Energy            =  -0.27 kcal/molUSER        Moving Ligand-Fixed Receptor    = -12.35 kcal/molUSER        Moving Ligand-Moving Receptor   =  +0.96 kcal/molUSER    (2) Final Total Internal Energy     =  -2.79 kcal/molUSER    (3) Torsional Free Energy           =  +4.47 kcal/molUSER    (4) Unbound System's Energy         =  -2.79 kcal/molUSERUSERREMARK SMILES COc1ccc(O)c(C(=O)c2ccc(C(=O)O[C@@H]3CCCNC[C@H]3NC(=O)c3ccncc3)cc2)c1FREMARK SMILES IDX 17 1 15 2 16 3 14 4 11 5 12 6 35 7 13 8 34 9 9 10 10 11 8 12REMARK SMILES IDX 3 13 4 14 36 15 5 16 6 17 37 18 2 19 1 20 7 21 18 23 24 25REMARK SMILES IDX 23 26 22 27 21 29 20 30 19 31 25 33 26 34 27 36 28 37 29 38REMARK SMILES IDX 33 39 30 40 32 41 31 42REMARK H PARENT 7 22 22 28 25 35REMARK Flexibility Score:   99.900USER                              x       y       z     vdW  Elec       q    TypeUSER                           _______ _______ _______ _____ _____    ______ ____ROOTATOM      1  O   UNL     1      37.970  45.177  19.398 -0.12 +0.04    -0.457 OA ENDROOTBRANCH   1   2ATOM      2  C   UNL     1      36.997  44.251  19.594 -0.19 -0.03    +0.338 C  ATOM      3  O   UNL     1      36.947  43.418  20.488 -0.28 +0.01    -0.246 OA BRANCH   2   4ATOM      4  C   UNL     1      35.937  44.417  18.569 -0.30 -0.01    +0.060 A  ATOM      5  C   UNL     1      33.927  44.809  16.648 -0.30 -0.01    +0.023 A  ATOM      6  C   UNL     1      34.299  43.511  17.023 -0.33 -0.01    +0.013 A  ATOM      7  C   UNL     1      34.563  45.908  17.244 -0.36 -0.01    +0.013 A  ATOM      8  C   UNL     1      35.300  43.316  17.981 -0.33 -0.00    +0.016 A  ATOM      9  C   UNL     1      35.557  45.714  18.207 -0.29 -0.01    +0.016 A  BRANCH   5  10ATOM     10  C   UNL     1      32.887  45.072  15.616 -0.26 -0.14    +0.199 C  ATOM     11  O   UNL     1      33.169  45.643  14.568 -0.24 +0.25    -0.288 OA BRANCH  10  12ATOM     12  C   UNL     1      31.496  44.656  15.833 -0.29 -0.05    +0.104 A  ATOM     13  C   UNL     1      29.909  42.867  16.231 -0.19 -0.07    +0.155 A  ATOM     14  C   UNL     1      28.867  43.803  16.192 -0.24 -0.02    +0.053 A  ATOM     15  C   UNL     1      31.224  43.307  16.043 -0.22 -0.08    +0.179 A  ATOM     16  C   UNL     1      29.143  45.162  15.996 -0.20 -0.01    +0.051 A  ATOM     17  C   UNL     1      30.459  45.588  15.826 -0.27 -0.04    +0.130 A  ATOM     18  F   UNL     1      32.234  42.423  16.111 -0.01 +0.12    -0.202 F  BRANCH  13  19ATOM     19  O   UNL     1      29.762  41.526  16.466 -0.08 +0.14    -0.494 OA ATOM     20  C   UNL     1      29.461  40.695  15.352 -0.23 -0.08    +0.278 C  ENDBRANCH  13  19BRANCH  17  21ATOM     21  O   UNL     1      30.736  46.914  15.657 -0.62 +0.13    -0.507 OA ATOM     22  H   UNL     1      31.669  47.032  15.417 -0.36 -0.37    +0.293 HD ENDBRANCH  17  21ENDBRANCH  10  12ENDBRANCH   5  10ENDBRANCH   2   4ENDBRANCH   1   2BRANCH   1  23ATOM     23  C   UNL     1      39.158  44.733  18.692 -0.32 -0.02    +0.200 CG0ATOM     24  G   UNL     1      40.182  44.322  19.750 +0.00 +0.00    +0.000 G0 BRANCH  23  25ATOM     25  C   UNL     1      39.610  45.898  17.788 -0.41 -0.02    +0.137 C  BRANCH  25  26ATOM     26  C   UNL     1      41.064  45.792  17.285 -0.35 -0.00    +0.109 C  BRANCH  26  27ATOM     27  N   UNL     1      42.076  46.128  18.289 -0.20 -0.01    -0.315 NA ATOM     28  H   UNL     1      42.653  46.884  17.918 -0.48 -0.02    +0.122 HD BRANCH  27  29ATOM     29  C   UNL     1      41.567  46.532  19.603 -0.43 +0.01    +0.081 C  BRANCH  29  30ATOM     30  C   UNL     1      40.896  45.465  20.478 -0.41 +0.00    +0.019 C  BRANCH  30  31ATOM     31  C   UNL     1      40.188  44.321  19.742 -0.34 +0.00    +0.049 CG0ATOM     32  G   UNL     1      39.161  44.727  18.686 +0.00 +0.00    +0.000 G0 ENDBRANCH  30  31ENDBRANCH  29  30ENDBRANCH  27  29ENDBRANCH  26  27ENDBRANCH  25  26BRANCH  25  33ATOM     33  N   UNL     1      38.688  46.010  16.650 -0.16 +0.09    -0.344 N  ATOM     34  C   UNL     1      38.670  47.108  15.825 -0.32 -0.10    +0.251 C  ATOM     35  H   UNL     1      38.296  45.140  16.314 +0.11 -0.04    +0.164 HD ATOM     36  O   UNL     1      39.373  48.096  15.988 -0.34 +0.10    -0.269 OA BRANCH  34  37ATOM     37  C   UNL     1      37.736  47.039  14.677 -0.41 -0.02    +0.042 A  ATOM     38  C   UNL     1      37.450  48.209  13.978 -0.53 -0.02    +0.034 A  ATOM     39  C   UNL     1      37.118  45.843  14.317 -0.39 -0.01    +0.034 A  ATOM     40  C   UNL     1      36.567  48.128  12.918 -0.51 -0.05    +0.112 A  ATOM     41  C   UNL     1      36.244  45.870  13.246 -0.42 -0.05    +0.112 A  ATOM     42  N   UNL     1      35.961  46.984  12.535 -0.44 +0.15    -0.265 NA ENDBRANCH  34  37ENDBRANCH  25  33ENDBRANCH  23  25ENDBRANCH   1  23TORSDOF 9TERENDMDL