MODEL        1USER    Run = 1USERUSER    Estimated Free Energy of Binding    =  -6.29 kcal/mol  [=(1)+(2)+(3)-(4)]USERUSER    (1) Final Intermolecular Energy     = -10.47 kcal/molUSER        vdW + Hbond + desolv Energy     = -10.35 kcal/molUSER        Electrostatic Energy            =  -0.32 kcal/molUSER        Moving Ligand-Fixed Receptor    = -10.67 kcal/molUSER        Moving Ligand-Moving Receptor   =  +0.20 kcal/molUSER    (2) Final Total Internal Energy     =  -2.50 kcal/molUSER    (3) Torsional Free Energy           =  +4.18 kcal/molUSER    (4) Unbound System's Energy         =  -2.50 kcal/molUSERUSERREMARK SMILES COc1ccc(O)c(C(=O)c2ccc(C(=O)N[C@@H]3CCCNC[C@H]3NC(=O)c3ccncc3)cc2)c1FREMARK SMILES IDX 15 1 16 2 17 3 14 5 11 6 12 7 35 8 13 9 34 10 9 11 10 12REMARK SMILES IDX 8 13 3 14 4 15 36 16 5 17 6 18 37 19 2 20 1 21 7 22 18 24REMARK SMILES IDX 19 25 24 27 23 28 22 29 21 31 20 32 25 34 26 35 27 37 28 38REMARK SMILES IDX 29 39 33 40 30 41 32 42 31 43REMARK H PARENT 17 4 7 23 22 30 25 36REMARK Flexibility Score:   88.900USER                              x       y       z     vdW  Elec       q    TypeUSER                           _______ _______ _______ _____ _____    ______ ____ROOTATOM      1  C   UNL     1      20.255  37.164  -3.811 -0.25 -0.08    +0.251 C  ATOM      2  O   UNL     1      20.904  37.629  -4.742 -0.27 +0.09    -0.269 OA ATOM      3  N   UNL     1      19.884  37.901  -2.704 -0.16 +0.15    -0.347 N  ATOM      4  H   UNL     1      19.537  37.401  -1.897 +0.06 -0.07    +0.164 HD ENDROOTBRANCH   1   5ATOM      5  C   UNL     1      19.889  35.720  -3.796 -0.36 -0.01    +0.039 A  ATOM      6  C   UNL     1      19.255  32.994  -3.639 -0.26 -0.01    +0.023 A  ATOM      7  C   UNL     1      20.445  33.470  -3.080 -0.29 -0.01    +0.013 A  ATOM      8  C   UNL     1      18.381  33.881  -4.278 -0.21 -0.00    +0.013 A  ATOM      9  C   UNL     1      20.767  34.827  -3.169 -0.41 -0.00    +0.014 A  ATOM     10  C   UNL     1      18.703  35.243  -4.367 -0.23 -0.00    +0.014 A  BRANCH   6  11ATOM     11  C   UNL     1      18.921  31.566  -3.449 -0.25 -0.08    +0.199 C  ATOM     12  O   UNL     1      17.735  31.260  -3.319 -0.18 +0.13    -0.288 OA BRANCH  11  13ATOM     13  C   UNL     1      19.921  30.472  -3.453 -0.25 -0.05    +0.104 A  ATOM     14  C   UNL     1      21.873  29.348  -4.394 -0.19 -0.09    +0.155 A  ATOM     15  C   UNL     1      21.794  28.373  -3.396 -0.23 -0.04    +0.053 A  ATOM     16  C   UNL     1      20.933  30.393  -4.410 -0.15 -0.09    +0.179 A  ATOM     17  C   UNL     1      20.802  28.456  -2.415 -0.33 -0.05    +0.051 A  ATOM     18  C   UNL     1      19.885  29.504  -2.438 -0.31 -0.08    +0.130 A  ATOM     19  F   UNL     1      21.046  31.342  -5.354 -0.02 +0.08    -0.202 F  BRANCH  14  20ATOM     20  O   UNL     1      22.807  29.382  -5.395 -0.06 +0.21    -0.494 OA ATOM     21  C   UNL     1      23.880  28.449  -5.314 -0.24 -0.14    +0.278 C  ENDBRANCH  14  20BRANCH  18  22ATOM     22  O   UNL     1      18.968  29.521  -1.420 -0.66 +0.30    -0.507 OA ATOM     23  H   UNL     1      18.388  30.306  -1.559 -0.42 -0.21    +0.293 HD ENDBRANCH  18  22ENDBRANCH  11  13ENDBRANCH   6  11ENDBRANCH   1   5BRANCH   3  24ATOM     24  C   UNL     1      20.425  39.247  -2.480 -0.22 -0.06    +0.106 C  BRANCH  24  25ATOM     25  C   UNL     1      20.252  40.094  -3.748 -0.13 -0.01    +0.028 CG0ATOM     26  G   UNL     1      21.320  41.176  -3.978 +0.00 +0.00    +0.000 G0 ENDBRANCH  24  25BRANCH  24  27ATOM     27  C   UNL     1      21.893  39.164  -1.972 -0.22 -0.11    +0.118 C  BRANCH  27  28ATOM     28  C   UNL     1      22.942  38.835  -3.060 -0.39 -0.10    +0.108 C  BRANCH  28  29ATOM     29  N   UNL     1      23.531  39.965  -3.785 -0.23 +0.37    -0.315 NA ATOM     30  H   UNL     1      24.001  40.588  -3.132 -0.48 -0.24    +0.122 HD BRANCH  29  31ATOM     31  C   UNL     1      22.624  40.731  -4.632 -0.28 -0.06    +0.081 C  BRANCH  31  32ATOM     32  C   UNL     1      21.318  41.176  -3.978 -0.17 -0.01    +0.017 CG0ATOM     33  G   UNL     1      20.250  40.093  -3.749 +0.00 +0.00    +0.000 G0 ENDBRANCH  31  32ENDBRANCH  29  31ENDBRANCH  28  29ENDBRANCH  27  28BRANCH  27  34ATOM     34  N   UNL     1      22.249  40.393  -1.251 -0.14 +0.44    -0.346 N  ATOM     35  C   UNL     1      21.753  40.661   0.004 -0.20 -0.25    +0.251 C  ATOM     36  H   UNL     1      23.065  40.891  -1.568 -0.43 -0.33    +0.164 HD ATOM     37  O   UNL     1      20.924  39.961   0.571 -0.12 +0.23    -0.269 OA BRANCH  35  38ATOM     38  C   UNL     1      22.301  41.859   0.686 -0.31 -0.04    +0.042 A  ATOM     39  C   UNL     1      23.687  42.003   0.759 -0.41 -0.05    +0.034 A  ATOM     40  C   UNL     1      21.474  42.818   1.274 -0.19 -0.02    +0.034 A  ATOM     41  C   UNL     1      24.190  43.118   1.399 -0.38 -0.11    +0.112 A  ATOM     42  C   UNL     1      22.078  43.898   1.893 -0.15 -0.08    +0.112 A  ATOM     43  N   UNL     1      23.417  44.071   1.963 -0.25 +0.19    -0.265 NA ENDBRANCH  35  38ENDBRANCH  27  34ENDBRANCH  24  27ENDBRANCH   3  24TORSDOF 8TERENDMDL