MODEL        6USER    Run = 6USERUSER    Estimated Free Energy of Binding    =  -7.43 kcal/mol  [=(1)+(2)+(3)-(4)]USERUSER    (1) Final Intermolecular Energy     = -11.90 kcal/molUSER        vdW + Hbond + desolv Energy     = -11.77 kcal/molUSER        Electrostatic Energy            =  -0.33 kcal/molUSER        Moving Ligand-Fixed Receptor    = -12.10 kcal/molUSER        Moving Ligand-Moving Receptor   =  +0.20 kcal/molUSER    (2) Final Total Internal Energy     =  -3.18 kcal/molUSER    (3) Torsional Free Energy           =  +4.47 kcal/molUSER    (4) Unbound System's Energy         =  -3.18 kcal/molUSERUSERREMARK SMILES COc1ccc(O)c(C(=O)c2ccc(NC[C@@H]3CCCNC[C@@H]3NC(=O)c3ccncc3)cc2)c1FREMARK SMILES IDX 16 1 15 2 14 4 11 5 12 6 34 7 13 8 33 9 9 10 10 11 8 12 3 13REMARK SMILES IDX 4 14 35 15 5 16 6 17 36 18 2 19 1 20 7 21 17 23 18 24 23 26REMARK SMILES IDX 22 27 21 28 20 30 19 31 24 33 25 34 26 36 27 37 28 38 32 39REMARK SMILES IDX 29 40 31 41 30 42REMARK H PARENT 15 3 7 22 21 29 24 35REMARK Flexibility Score:   99.900USER                              x       y       z     vdW  Elec       q    TypeUSER                           _______ _______ _______ _____ _____    ______ ____ROOTATOM      1  C   UNL     1      39.273  47.431  15.324 -0.47 -0.04    +0.118 C  ENDROOTBRANCH   1   2ATOM      2  N   UNL     1      39.922  46.313  16.014 -0.16 +0.06    -0.385 N  ATOM      3  H   UNL     1      39.408  45.441  15.937 +0.11 -0.03    +0.160 HD BRANCH   2   4ATOM      4  C   UNL     1      40.588  46.465  17.227 -0.46 -0.00    +0.034 A  ATOM      5  C   UNL     1      41.996  46.606  19.678 -0.44 +0.00    +0.023 A  ATOM      6  C   UNL     1      42.051  47.664  18.769 -0.40 +0.00    +0.014 A  ATOM      7  C   UNL     1      41.286  45.452  19.343 -0.42 +0.00    +0.014 A  ATOM      8  C   UNL     1      41.359  47.587  17.553 -0.47 -0.00    +0.026 A  ATOM      9  C   UNL     1      40.596  45.389  18.125 -0.44 -0.00    +0.026 A  BRANCH   5  10ATOM     10  C   UNL     1      42.770  46.715  20.938 -0.31 +0.05    +0.199 C  ATOM     11  O   UNL     1      43.999  46.633  20.895 -0.45 -0.23    -0.288 OA BRANCH  10  12ATOM     12  C   UNL     1      42.140  46.864  22.268 -0.22 +0.02    +0.104 A  ATOM     13  C   UNL     1      40.545  46.162  23.975 -0.12 +0.01    +0.155 A  ATOM     14  C   UNL     1      40.991  47.189  24.809 -0.17 +0.00    +0.053 A  ATOM     15  C   UNL     1      41.122  46.015  22.703 -0.14 +0.02    +0.179 A  ATOM     16  C   UNL     1      41.986  48.065  24.371 -0.27 +0.01    +0.051 A  ATOM     17  C   UNL     1      42.543  47.912  23.104 -0.27 +0.02    +0.130 A  ATOM     18  F   UNL     1      40.655  45.050  21.894 -0.04 -0.01    -0.202 F  BRANCH  13  19ATOM     19  O   UNL     1      39.567  45.255  24.287 +0.01 -0.02    -0.494 OA ATOM     20  C   UNL     1      38.351  45.330  23.553 -0.20 +0.03    +0.278 C  ENDBRANCH  13  19BRANCH  17  21ATOM     21  O   UNL     1      43.488  48.833  22.740 -0.58 -0.14    -0.507 OA ATOM     22  H   UNL     1      43.862  48.556  21.872 -0.45 -0.00    +0.293 HD ENDBRANCH  17  21ENDBRANCH  10  12ENDBRANCH   5  10ENDBRANCH   2   4ENDBRANCH   1   2BRANCH   1  23ATOM     23  C   UNL     1      38.576  46.980  14.015 -0.49 -0.01    +0.032 C  BRANCH  23  24ATOM     24  C   UNL     1      37.673  48.109  13.480 -0.57 -0.00    +0.009 CG0ATOM     25  G   UNL     1      36.192  47.812  13.238 +0.00 +0.00    +0.000 G0 ENDBRANCH  23  24BRANCH  23  26ATOM     26  C   UNL     1      37.880  45.614  14.221 -0.40 -0.03    +0.101 C  BRANCH  26  27ATOM     27  C   UNL     1      37.339  45.045  12.888 -0.38 -0.03    +0.106 C  BRANCH  27  28ATOM     28  N   UNL     1      35.967  45.445  12.551 -0.15 +0.14    -0.315 NA ATOM     29  H   UNL     1      35.656  44.849  11.780 +0.10 -0.05    +0.122 HD BRANCH  28  30ATOM     30  C   UNL     1      35.869  46.837  12.111 -0.63 -0.05    +0.081 C  BRANCH  30  31ATOM     31  C   UNL     1      36.193  47.812  13.236 -0.61 -0.01    +0.016 CG0ATOM     32  G   UNL     1      37.672  48.109  13.482 +0.00 +0.00    +0.000 G0 ENDBRANCH  30  31ENDBRANCH  28  30ENDBRANCH  27  28ENDBRANCH  26  27BRANCH  26  33ATOM     33  N   UNL     1      36.801  45.662  15.205 -0.12 +0.17    -0.348 N  ATOM     34  C   UNL     1      36.935  45.207  16.494 -0.24 -0.10    +0.251 C  ATOM     35  H   UNL     1      35.902  45.946  14.835 +0.12 -0.11    +0.164 HD ATOM     36  O   UNL     1      37.973  44.717  16.925 -0.23 +0.07    -0.269 OA BRANCH  34  37ATOM     37  C   UNL     1      35.739  45.310  17.371 -0.31 -0.02    +0.042 A  ATOM     38  C   UNL     1      35.239  46.583  17.651 -0.27 -0.03    +0.034 A  ATOM     39  C   UNL     1      35.090  44.189  17.889 -0.29 -0.01    +0.034 A  ATOM     40  C   UNL     1      34.123  46.682  18.461 -0.41 -0.09    +0.112 A  ATOM     41  C   UNL     1      33.980  44.396  18.688 -0.31 -0.03    +0.112 A  ATOM     42  N   UNL     1      33.487  45.614  18.990 -0.27 +0.12    -0.265 NA ENDBRANCH  34  37ENDBRANCH  26  33ENDBRANCH  23  26ENDBRANCH   1  23TORSDOF 9TERENDMDL