MODEL        10USER    Run = 10USERUSER    Estimated Free Energy of Binding    = -12.33 kcal/mol  [=(1)+(2)+(3)-(4)]USERUSER    (1) Final Intermolecular Energy     = -14.12 kcal/molUSER        vdW + Hbond + desolv Energy     = -14.04 kcal/molUSER        Electrostatic Energy            =  -0.09 kcal/molUSER        Moving Ligand-Fixed Receptor    = -14.12 kcal/molUSER        Moving Ligand-Moving Receptor   =  +0.00 kcal/molUSER    (2) Final Total Internal Energy     =  -0.65 kcal/molUSER    (3) Torsional Free Energy           =  +1.79 kcal/molUSER    (4) Unbound System's Energy         =  -0.65 kcal/molUSERUSERREMARK SMILES Cn1ccc2ccc3c4[nH]c5c(CCCN[C@H]6CC[C@H](O)CC6)cccc5c4c4c(c3c21)C(=O)NC4=OREMARK SMILES IDX 15 1 14 2 13 3 12 4 2 5 3 6 32 7 4 8 31 9 5 10 30 11 8 12REMARK SMILES IDX 6 13 29 14 33 15 7 16 9 17 28 18 36 19 35 20 10 21 27 22REMARK SMILES IDX 11 23 26 24 25 25 24 26 1 27 34 28 37 29 16 32 17 34 23 35REMARK SMILES IDX 18 36 22 37 19 38 20 39 21 40REMARK H PARENT 35 30 10 31 16 33 21 41USER                              x       y       z     vdW  Elec       q    TypeUSER                           _______ _______ _______ _____ _____    ______ ____ROOTATOM      1  C   UNL     1      37.514  43.923  24.997 -0.31 +0.00    +0.081 C  ENDROOTBRANCH   1   2ATOM      2  C   UNL     1      38.587  44.281  23.964 -0.28 +0.00    +0.020 C  BRANCH   2   3ATOM      3  C   UNL     1      38.903  43.130  23.002 -0.31 +0.00    +0.039 C  BRANCH   3   4ATOM      4  C   UNL     1      37.909  42.976  21.877 -0.32 -0.00    -0.024 A  ATOM      5  N   UNL     1      39.185  48.262  15.121 -0.24 +0.14    -0.350 N  ATOM      6  C   UNL     1      40.278  49.007  14.744 -0.46 -0.03    +0.086 A  ATOM      7  C   UNL     1      39.506  47.429  16.186 -0.45 -0.02    +0.057 A  ATOM      8  C   UNL     1      41.250  48.832  15.692 -0.52 -0.00    +0.028 A  ATOM      9  C   UNL     1      38.820  46.352  16.864 -0.40 -0.01    +0.022 A  ATOM     10  C   UNL     1      40.749  47.906  16.643 -0.54 -0.00    +0.000 A  ATOM     11  C   UNL     1      37.711  45.609  16.429 -0.32 -0.02    +0.063 A  ATOM     12  C   UNL     1      39.353  45.989  18.140 -0.43 -0.00    +0.009 A  ATOM     13  C   UNL     1      41.280  47.436  17.855 -0.51 -0.00    +0.011 A  ATOM     14  C   UNL     1      37.060  44.678  17.247 -0.30 -0.02    +0.063 A  ATOM     15  C   UNL     1      37.082  45.468  15.104 -0.25 -0.11    +0.259 C  ATOM     16  C   UNL     1      40.558  46.524  18.619 -0.45 -0.00    +0.012 A  ATOM     17  C   UNL     1      38.660  45.037  18.952 -0.36 -0.01    +0.055 A  ATOM     18  C   UNL     1      37.493  44.380  18.541 -0.33 -0.00    +0.022 A  ATOM     19  C   UNL     1      35.969  44.085  16.475 -0.23 -0.10    +0.259 C  ATOM     20  N   UNL     1      35.977  44.697  15.266 -0.17 +0.13    -0.288 N  ATOM     21  N   UNL     1      38.937  44.568  20.218 -0.14 +0.00    -0.354 N  ATOM     22  C   UNL     1      37.073  43.523  19.614 -0.30 -0.00    +0.008 A  ATOM     23  C   UNL     1      37.996  43.665  20.650 -0.26 -0.00    +0.050 A  ATOM     24  C   UNL     1      35.994  42.637  19.809 -0.42 -0.00    +0.011 A  ATOM     25  C   UNL     1      35.876  41.935  21.013 -0.49 +0.00    +0.001 A  ATOM     26  C   UNL     1      36.816  42.103  22.023 -0.52 +0.00    +0.006 A  ATOM     27  C   UNL     1      37.870  48.573  14.600 -0.47 -0.09    +0.149 C  ATOM     28  O   UNL     1      37.513  45.857  14.039 -0.27 +0.10    -0.269 OA ATOM     29  O   UNL     1      35.231  43.180  16.805 -0.26 +0.10    -0.269 OA ATOM     30  H   UNL     1      35.450  44.338  14.485 +0.12 -0.07    +0.173 HD ATOM     31  H   UNL     1      39.721  44.865  20.777 +0.10 +0.00    +0.167 HD ENDBRANCH   3   4ENDBRANCH   2   3ENDBRANCH   1   2BRANCH   1  32ATOM     32  N   UNL     1      37.778  42.580  25.518 -0.12 +0.01    -0.314 NA ATOM     33  H   UNL     1      37.522  41.879  24.825 +0.05 -0.00    +0.122 HD BRANCH  32  34ATOM     34  C   UNL     1      37.079  42.314  26.783 -0.43 -0.01    +0.053 C  ATOM     35  C   UNL     1      37.064  43.531  27.733 -0.42 -0.00    +0.021 C  ATOM     36  C   UNL     1      35.655  41.846  26.421 -0.57 -0.01    +0.021 C  ATOM     37  C   UNL     1      35.797  44.371  27.582 -0.50 -0.01    +0.033 C  ATOM     38  C   UNL     1      34.692  42.062  27.580 -0.60 -0.01    +0.033 C  ATOM     39  C   UNL     1      34.543  43.551  27.909 -0.57 -0.02    +0.114 C  BRANCH  39  40ATOM     40  O   UNL     1      34.243  43.661  29.299 -0.35 +0.12    -0.393 OA ATOM     41  H   UNL     1      35.006  43.314  29.793 -0.42 -0.16    +0.210 HD ENDBRANCH  39  40ENDBRANCH  32  34ENDBRANCH   1  32TORSDOF 6TERENDMDL