MODEL        2USER    Run = 2USERUSER    Estimated Free Energy of Binding    = -12.29 kcal/mol  [=(1)+(2)+(3)-(4)]USERUSER    (1) Final Intermolecular Energy     = -14.68 kcal/molUSER        vdW + Hbond + desolv Energy     = -14.60 kcal/molUSER        Electrostatic Energy            =  -0.08 kcal/molUSER        Moving Ligand-Fixed Receptor    = -14.68 kcal/molUSER        Moving Ligand-Moving Receptor   =  +0.00 kcal/molUSER    (2) Final Total Internal Energy     =  -2.00 kcal/molUSER    (3) Torsional Free Energy           =  +2.39 kcal/molUSER    (4) Unbound System's Energy         =  -2.00 kcal/molUSERUSERREMARK SMILES N#Cc1cnc(-c2ccc(CNCc3ccc(-c4csnn4)cc3)cc2)c(-c2ccccc2)c1REMARK SMILES IDX 11 1 10 2 7 3 8 4 26 5 9 6 25 7 6 8 3 9 4 10 34 11 5 12REMARK SMILES IDX 27 13 2 14 1 15 28 16 29 17 33 18 30 19 32 20 31 21 12 22REMARK SMILES IDX 13 24 14 25 15 26 24 27 16 28 23 29 17 30 18 31 19 32 22 33REMARK SMILES IDX 20 34 21 35REMARK H PARENT 12 23USER                              x       y       z     vdW  Elec       q    TypeUSER                           _______ _______ _______ _____ _____    ______ ____ROOTATOM      1  C   UNL     1      35.637  43.443  18.988 -0.35 -0.02    +0.117 C  ENDROOTBRANCH   1   2ATOM      2  C   UNL     1      36.542  44.424  18.282 -0.31 +0.01    -0.034 A  ATOM      3  C   UNL     1      38.262  46.278  16.989 -0.39 -0.00    +0.001 A  ATOM      4  C   UNL     1      36.864  46.370  16.865 -0.33 -0.01    +0.011 A  ATOM      5  C   UNL     1      38.779  45.226  17.763 -0.39 -0.00    +0.011 A  ATOM      6  C   UNL     1      36.015  45.461  17.505 -0.34 -0.00    +0.006 A  ATOM      7  C   UNL     1      37.933  44.318  18.407 -0.31 -0.00    +0.006 A  BRANCH   3   8ATOM      8  C   UNL     1      39.136  47.252  16.304 -0.40 -0.03    +0.078 A  ATOM      9  C   UNL     1      40.908  49.117  15.287 -0.58 -0.01    +0.071 A  ATOM     10  C   UNL     1      41.020  48.605  16.565 -0.43 -0.01    +0.131 A  ATOM     11  C   UNL     1      39.862  48.656  14.490 -0.45 -0.01    +0.032 A  ATOM     12  N   UNL     1      40.170  47.689  17.082 -0.32 +0.06    -0.254 NA ATOM     13  C   UNL     1      38.948  47.703  14.981 -0.50 -0.00    +0.009 A  BRANCH   9  14ATOM     14  C   UNL     1      41.843  50.081  14.804 -0.65 -0.01    +0.101 C  ATOM     15  N   UNL     1      42.604  50.863  14.412 -0.50 +0.04    -0.192 NA ENDBRANCH   9  14BRANCH  13  16ATOM     16  C   UNL     1      37.886  47.212  14.085 -0.48 +0.01    -0.016 A  ATOM     17  C   UNL     1      36.954  48.101  13.522 -0.59 -0.00    +0.009 A  ATOM     18  C   UNL     1      37.785  45.851  13.755 -0.41 -0.00    +0.009 A  ATOM     19  C   UNL     1      35.948  47.643  12.667 -0.61 -0.00    +0.001 A  ATOM     20  C   UNL     1      36.779  45.391  12.902 -0.52 -0.00    +0.001 A  ATOM     21  C   UNL     1      35.861  46.287  12.359 -0.62 -0.00    +0.000 A  ENDBRANCH  13  16ENDBRANCH   3   8ENDBRANCH   1   2BRANCH   1  22ATOM     22  N   UNL     1      34.241  43.868  18.885 -0.15 +0.07    -0.309 NA ATOM     23  H   UNL     1      34.225  44.821  18.524 +0.08 -0.04    +0.123 HD BRANCH  22  24ATOM     24  C   UNL     1      33.467  43.008  17.991 -0.32 -0.03    +0.117 C  BRANCH  24  25ATOM     25  C   UNL     1      32.743  43.769  16.904 -0.29 +0.01    -0.034 A  ATOM     26  C   UNL     1      32.943  45.145  16.737 -0.32 -0.00    +0.006 A  ATOM     27  C   UNL     1      31.844  43.114  16.055 -0.33 -0.00    +0.006 A  ATOM     28  C   UNL     1      32.265  45.849  15.735 -0.13 -0.01    +0.011 A  ATOM     29  C   UNL     1      31.165  43.816  15.055 -0.36 -0.01    +0.011 A  ATOM     30  C   UNL     1      31.371  45.192  14.877 -0.45 -0.00    +0.003 A  BRANCH  30  31ATOM     31  C   UNL     1      30.648  45.896  13.822 -0.48 -0.07    +0.105 A  ATOM     32  C   UNL     1      29.289  46.162  13.840 +0.01 -0.09    +0.118 A  ATOM     33  N   UNL     1      31.312  46.382  12.697 -0.67 +0.08    -0.138 NA ATOM     34  S   UNL     1      28.911  47.015  12.400 -0.71 +0.01    -0.020 S  ATOM     35  N   UNL     1      30.492  46.993  11.860 -1.00 +0.03    -0.091 NA ENDBRANCH  30  31ENDBRANCH  24  25ENDBRANCH  22  24ENDBRANCH   1  22TORSDOF 8TERENDMDL