MODEL        7USER    Run = 7USERUSER    Estimated Free Energy of Binding    = -10.48 kcal/mol  [=(1)+(2)+(3)-(4)]USERUSER    (1) Final Intermolecular Energy     = -12.27 kcal/molUSER        vdW + Hbond + desolv Energy     = -12.22 kcal/molUSER        Electrostatic Energy            =  -0.05 kcal/molUSER        Moving Ligand-Fixed Receptor    = -12.27 kcal/molUSER        Moving Ligand-Moving Receptor   =  +0.00 kcal/molUSER    (2) Final Total Internal Energy     =  -1.38 kcal/molUSER    (3) Torsional Free Energy           =  +1.79 kcal/molUSER    (4) Unbound System's Energy         =  -1.38 kcal/molUSERUSERREMARK SMILES CC(C)Cc1nnc2ccc(-c3ccnc(NC4CCN(C(C)C)CC4)c3)cn12REMARK SMILES IDX 12 1 13 2 14 3 15 4 16 5 27 6 11 7 5 8 6 9 29 10 7 11 28 12REMARK SMILES IDX 8 13 9 14 10 15 4 16 2 17 1 18 3 19 17 20 18 22 19 23 26 24REMARK SMILES IDX 20 25 25 26 21 27 22 28 23 29 24 30REMARK H PARENT 17 21USER                              x       y       z     vdW  Elec       q    TypeUSER                           _______ _______ _______ _____ _____    ______ ____ROOTATOM      1  C   UNL     1      38.973  45.537  18.271 -0.41 +0.00    -0.012 A  ATOM      2  C   UNL     1      39.987  44.718  18.764 -0.40 -0.00    +0.029 A  ATOM      3  C   UNL     1      41.294  45.131  18.592 -0.31 +0.01    +0.114 A  ATOM      4  N   UNL     1      41.645  46.279  17.973 -0.28 +0.01    -0.240 NA ATOM      5  C   UNL     1      40.662  47.054  17.482 -0.42 -0.02    +0.126 A  ATOM      6  C   UNL     1      39.320  46.721  17.616 -0.38 -0.01    +0.055 A  ENDROOTBRANCH   1   7ATOM      7  C   UNL     1      37.559  45.168  18.436 -0.35 +0.00    -0.001 A  ATOM      8  C   UNL     1      35.298  42.854  20.250 -0.34 +0.00    +0.137 A  ATOM      9  N   UNL     1      33.990  42.911  20.078 -0.73 -0.02    -0.135 NA ATOM     10  N   UNL     1      35.901  43.813  19.461 -0.19 +0.04    -0.286 N  ATOM     11  N   UNL     1      33.712  43.911  19.177 -0.34 +0.02    -0.130 NA ATOM     12  C   UNL     1      37.240  44.163  19.280 -0.28 -0.01    +0.103 A  ATOM     13  C   UNL     1      34.853  44.448  18.811 -0.26 -0.04    +0.160 A  ATOM     14  C   UNL     1      35.175  45.505  17.919 -0.35 -0.03    +0.050 A  ATOM     15  C   UNL     1      36.465  45.853  17.739 -0.30 -0.01    +0.014 A  BRANCH   8  16ATOM     16  C   UNL     1      36.015  41.899  21.143 -0.51 +0.00    +0.081 C  BRANCH  16  17ATOM     17  C   UNL     1      36.682  42.594  22.344 -0.49 -0.00    -0.010 C  ATOM     18  C   UNL     1      36.534  41.722  23.594 -0.50 +0.00    +0.008 C  ATOM     19  C   UNL     1      38.164  42.884  22.095 -0.38 +0.00    +0.008 C  ENDBRANCH  16  17ENDBRANCH   8  16ENDBRANCH   1   7BRANCH   5  20ATOM     20  N   UNL     1      41.080  48.229  16.861 -0.27 +0.04    -0.367 N  ATOM     21  H   UNL     1      42.092  48.116  16.775 -0.34 +0.00    +0.162 HD BRANCH  20  22ATOM     22  C   UNL     1      40.467  48.529  15.557 -0.59 -0.02    +0.083 C  ATOM     23  C   UNL     1      40.627  47.308  14.639 -0.33 -0.00    +0.040 C  ATOM     24  C   UNL     1      38.996  48.933  15.721 -0.48 -0.02    +0.040 C  ATOM     25  C   UNL     1      39.414  46.382  14.704 -0.43 -0.02    +0.087 C  ATOM     26  C   UNL     1      38.171  48.506  14.510 -0.53 -0.05    +0.087 C  ATOM     27  N   UNL     1      38.150  47.048  14.374 -0.22 +0.11    -0.301 NA BRANCH  27  28ATOM     28  C   UNL     1      37.460  46.590  13.156 -0.54 -0.02    +0.050 C  ATOM     29  C   UNL     1      36.707  45.264  13.313 -0.52 -0.01    +0.024 C  ATOM     30  C   UNL     1      36.523  47.680  12.622 -0.73 -0.01    +0.024 C  ENDBRANCH  27  28ENDBRANCH  20  22ENDBRANCH   5  20TORSDOF 6TERENDMDL