MODEL        2USER    Run = 2USERUSER    Estimated Free Energy of Binding    =  -9.45 kcal/mol  [=(1)+(2)+(3)-(4)]USERUSER    (1) Final Intermolecular Energy     = -10.94 kcal/molUSER        vdW + Hbond + desolv Energy     = -10.74 kcal/molUSER        Electrostatic Energy            =  -0.20 kcal/molUSER        Moving Ligand-Fixed Receptor    = -10.94 kcal/molUSER        Moving Ligand-Moving Receptor   =  +0.00 kcal/molUSER    (2) Final Total Internal Energy     =  -1.26 kcal/molUSER    (3) Torsional Free Energy           =  +1.49 kcal/molUSER    (4) Unbound System's Energy         =  -1.26 kcal/molUSERUSERREMARK SMILES CC(C)Cc1nnc2ccc(-c3ccnc(N[C@@H]4CCN[C@@H](F)C4)c3)cn12REMARK SMILES IDX 5 1 6 2 7 3 8 4 9 5 10 6 11 7 26 8 27 9 4 10 2 11 1 12 3 13REMARK SMILES IDX 12 14 13 15 25 16 14 17 16 18 15 19 17 20 18 22 19 23 24 24REMARK SMILES IDX 20 25 22 26 21 27 23 28REMARK H PARENT 17 21 21 29USER                              x       y       z     vdW  Elec       q    TypeUSER                           _______ _______ _______ _____ _____    ______ ____ROOTATOM      1  C   UNL     1      40.928  46.688  18.066 -0.41 -0.01    +0.137 A  ATOM      2  N   UNL     1      41.946  47.441  18.440 -0.49 +0.00    -0.135 NA ATOM      3  N   UNL     1      42.035  48.514  17.585 -0.62 -0.01    -0.130 NA ATOM      4  C   UNL     1      41.060  48.411  16.711 -0.40 -0.02    +0.160 A  ATOM      5  C   UNL     1      40.661  49.221  15.616 -0.60 -0.01    +0.050 A  ATOM      6  C   UNL     1      39.587  48.865  14.885 -0.47 -0.01    +0.014 A  ATOM      7  C   UNL     1      38.809  47.660  15.186 -0.50 +0.00    -0.001 A  ATOM      8  C   UNL     1      39.199  46.896  16.227 -0.38 -0.03    +0.103 A  ATOM      9  N   UNL     1      40.316  47.271  16.974 -0.30 +0.05    -0.286 N  ENDROOTBRANCH   1  10ATOM     10  C   UNL     1      40.462  45.426  18.713 -0.46 -0.00    +0.081 C  BRANCH  10  11ATOM     11  C   UNL     1      38.997  45.483  19.188 -0.45 +0.00    -0.010 C  ATOM     12  C   UNL     1      38.119  44.619  18.279 -0.42 -0.00    +0.008 C  ATOM     13  C   UNL     1      38.852  45.014  20.639 -0.41 +0.00    +0.008 C  ENDBRANCH  10  11ENDBRANCH   1  10BRANCH   7  14ATOM     14  C   UNL     1      37.635  47.250  14.404 -0.47 +0.01    -0.012 A  ATOM     15  C   UNL     1      37.626  47.376  13.020 -0.52 -0.01    +0.029 A  ATOM     16  C   UNL     1      36.513  46.719  15.045 -0.36 -0.04    +0.055 A  ATOM     17  C   UNL     1      36.489  46.976  12.345 -0.59 -0.05    +0.114 A  ATOM     18  C   UNL     1      35.409  46.329  14.291 -0.33 -0.10    +0.126 A  ATOM     19  N   UNL     1      35.394  46.467  12.951 -0.37 +0.15    -0.240 NA BRANCH  18  20ATOM     20  N   UNL     1      34.290  45.824  14.978 -0.12 +0.36    -0.367 N  ATOM     21  H   UNL     1      33.629  46.589  15.090 -0.24 -0.31    +0.162 HD BRANCH  20  22ATOM     22  C   UNL     1      34.568  45.150  16.262 -0.32 -0.06    +0.086 C  ATOM     23  C   UNL     1      33.609  43.969  16.489 -0.36 -0.02    +0.040 C  ATOM     24  C   UNL     1      34.457  46.193  17.386 -0.34 -0.08    +0.079 C  ATOM     25  C   UNL     1      32.503  44.314  17.479 -0.30 -0.03    +0.086 C  ATOM     26  C   UNL     1      34.222  45.512  18.722 -0.35 -0.11    +0.236 C  ATOM     27  N   UNL     1      33.014  44.704  18.793 -0.20 +0.07    -0.288 NA ATOM     28  F   UNL     1      35.260  44.670  18.968 -0.06 +0.06    -0.230 F  ATOM     29  H   UNL     1      33.275  43.868  19.315 +0.07 -0.02    +0.125 HD ENDBRANCH  20  22ENDBRANCH  18  20ENDBRANCH   7  14TORSDOF 5TERENDMDL