REMARK SMILES CC(C)Cc1nnc2ccc(-c3ccnc(NC4CCN(C(C)C)CC4)c3)cn12
REMARK SMILES IDX 12 1 13 2 14 3 15 4 16 5 27 6 11 7 5 8 6 9 29 10 7 11 28 12
REMARK SMILES IDX 8 13 9 14 10 15 4 16 2 17 1 18 3 19 17 20 18 22 19 23 26 24
REMARK SMILES IDX 20 25 25 26 21 27 22 28 23 29 24 30
REMARK H PARENT 17 21
ROOT
ATOM      1  C   UNL     1       1.399   0.319  -1.604  1.00  0.00    -0.012 A 
ATOM      2  C   UNL     1       1.470   1.299  -2.592  1.00  0.00     0.029 A 
ATOM      3  C   UNL     1       0.450   2.228  -2.656  1.00  0.00     0.114 A 
ATOM      4  N   UNL     1      -0.611   2.240  -1.820  1.00  0.00    -0.240 NA
ATOM      5  C   UNL     1      -0.683   1.279  -0.883  1.00  0.00     0.126 A 
ATOM      6  C   UNL     1       0.301   0.309  -0.740  1.00  0.00     0.055 A 
ENDROOT
BRANCH   1   7
ATOM      7  C   UNL     1       2.460  -0.691  -1.466  1.00  0.00    -0.001 A 
ATOM      8  C   UNL     1       6.010  -1.136  -0.489  1.00  0.00     0.137 A 
ATOM      9  N   UNL     1       6.573  -2.330  -0.505  1.00  0.00    -0.135 NA
ATOM     10  N   UNL     1       4.696  -1.248  -0.898  1.00  0.00    -0.286 N 
ATOM     11  N   UNL     1       5.637  -3.247  -0.921  1.00  0.00    -0.130 NA
ATOM     12  C   UNL     1       3.684  -0.300  -1.051  1.00  0.00     0.103 A 
ATOM     13  C   UNL     1       4.518  -2.600  -1.153  1.00  0.00     0.160 A 
ATOM     14  C   UNL     1       3.236  -3.024  -1.593  1.00  0.00     0.050 A 
ATOM     15  C   UNL     1       2.251  -2.116  -1.742  1.00  0.00     0.014 A 
BRANCH   8  16
ATOM     16  C   UNL     1       6.686   0.136  -0.104  1.00  0.00     0.081 C 
BRANCH  16  17
ATOM     17  C   UNL     1       6.783   0.320   1.422  1.00  0.00    -0.010 C 
ATOM     18  C   UNL     1       7.731   1.478   1.745  1.00  0.00     0.008 C 
ATOM     19  C   UNL     1       5.417   0.584   2.061  1.00  0.00     0.008 C 
ENDBRANCH  16  17
ENDBRANCH   8  16
ENDBRANCH   1   7
BRANCH   5  20
ATOM     20  N   UNL     1      -1.793   1.344  -0.043  1.00  0.00    -0.367 N 
ATOM     21  H   UNL     1      -2.296   2.173  -0.364  1.00  0.00     0.162 HD
BRANCH  20  22
ATOM     22  C   UNL     1      -2.670   0.162  -0.032  1.00  0.00     0.083 C 
ATOM     23  C   UNL     1      -3.627   0.263   1.166  1.00  0.00     0.040 C 
ATOM     24  C   UNL     1      -3.428   0.027  -1.360  1.00  0.00     0.040 C 
ATOM     25  C   UNL     1      -4.952   0.920   0.784  1.00  0.00     0.087 C 
ATOM     26  C   UNL     1      -4.799  -0.609  -1.148  1.00  0.00     0.087 C 
ATOM     27  N   UNL     1      -5.650   0.240  -0.311  1.00  0.00    -0.301 NA
BRANCH  27  28
ATOM     28  C   UNL     1      -6.944  -0.382   0.016  1.00  0.00     0.050 C 
ATOM     29  C   UNL     1      -6.878  -1.443   1.121  1.00  0.00     0.024 C 
ATOM     30  C   UNL     1      -7.988   0.687   0.361  1.00  0.00     0.024 C 
ENDBRANCH  27  28
ENDBRANCH  20  22
ENDBRANCH   5  20
TORSDOF 6
