REMARK SMILES CC(C)Cc1nnc2ccc(-c3ccnc(NC4CCN(CCO)CC4)c3)cn12
REMARK SMILES IDX 17 1 16 3 12 4 13 5 27 6 14 7 15 8 11 9 5 10 6 11 29 12 7 13
REMARK SMILES IDX 28 14 8 15 9 16 10 17 4 18 2 19 1 20 3 21 18 22 19 23 26 24
REMARK SMILES IDX 20 25 25 26 21 27 22 28 23 29 24 30
REMARK H PARENT 17 2 24 31
ROOT
ATOM      1  N   UNL     1       2.535  -1.267   0.848  1.00  0.00    -0.367 N 
ATOM      2  H   UNL     1       2.430  -0.750  -0.018  1.00  0.00     0.162 HD
ENDROOT
BRANCH   1   3
ATOM      3  C   UNL     1       1.324  -1.269   1.554  1.00  0.00     0.126 A 
ATOM      4  C   UNL     1      -1.060  -1.643   1.533  1.00  0.00    -0.012 A 
ATOM      5  C   UNL     1      -1.086  -1.375   2.898  1.00  0.00     0.029 A 
ATOM      6  C   UNL     1       0.163  -1.598   0.859  1.00  0.00     0.055 A 
ATOM      7  C   UNL     1       0.111  -1.073   3.518  1.00  0.00     0.114 A 
ATOM      8  N   UNL     1       1.298  -1.017   2.877  1.00  0.00    -0.240 NA
BRANCH   4   9
ATOM      9  C   UNL     1      -2.293  -1.990   0.809  1.00  0.00    -0.001 A 
ATOM     10  C   UNL     1      -5.513  -0.605  -0.387  1.00  0.00     0.137 A 
ATOM     11  N   UNL     1      -6.370  -1.353  -1.055  1.00  0.00    -0.135 NA
ATOM     12  N   UNL     1      -4.406  -1.360  -0.064  1.00  0.00    -0.286 N 
ATOM     13  N   UNL     1      -5.834  -2.613  -1.188  1.00  0.00    -0.130 NA
ATOM     14  C   UNL     1      -3.238  -1.044   0.630  1.00  0.00     0.103 A 
ATOM     15  C   UNL     1      -4.662  -2.614  -0.595  1.00  0.00     0.160 A 
ATOM     16  C   UNL     1      -3.675  -3.618  -0.416  1.00  0.00     0.050 A 
ATOM     17  C   UNL     1      -2.543  -3.324   0.253  1.00  0.00     0.014 A 
BRANCH  10  18
ATOM     18  C   UNL     1      -5.703   0.828  -0.023  1.00  0.00     0.081 C 
BRANCH  18  19
ATOM     19  C   UNL     1      -4.981   1.791  -0.982  1.00  0.00    -0.010 C 
ATOM     20  C   UNL     1      -5.026   3.214  -0.420  1.00  0.00     0.008 C 
ATOM     21  C   UNL     1      -5.596   1.771  -2.385  1.00  0.00     0.008 C 
ENDBRANCH  18  19
ENDBRANCH  10  18
ENDBRANCH   4   9
ENDBRANCH   1   3
BRANCH   1  22
ATOM     22  C   UNL     1       3.747  -0.899   1.599  1.00  0.00     0.083 C 
ATOM     23  C   UNL     1       3.869   0.616   1.802  1.00  0.00     0.040 C 
ATOM     24  C   UNL     1       4.976  -1.436   0.854  1.00  0.00     0.040 C 
ATOM     25  C   UNL     1       4.244   1.355   0.518  1.00  0.00     0.086 C 
ATOM     26  C   UNL     1       5.305  -0.623  -0.398  1.00  0.00     0.086 C 
ATOM     27  N   UNL     1       5.464   0.796  -0.070  1.00  0.00    -0.301 NA
BRANCH  27  28
ATOM     28  C   UNL     1       5.971   1.586  -1.201  1.00  0.00     0.112 C 
BRANCH  28  29
ATOM     29  C   UNL     1       5.076   1.707  -2.446  1.00  0.00     0.171 C 
BRANCH  29  30
ATOM     30  O   UNL     1       5.714   2.501  -3.444  1.00  0.00    -0.395 OA
ATOM     31  H   UNL     1       5.868   3.383  -3.064  1.00  0.00     0.210 HD
ENDBRANCH  29  30
ENDBRANCH  28  29
ENDBRANCH  27  28
ENDBRANCH   1  22
TORSDOF 8
