MODEL        6USER    Run = 6USERUSER    Estimated Free Energy of Binding    = -10.13 kcal/mol  [=(1)+(2)+(3)-(4)]USERUSER    (1) Final Intermolecular Energy     = -11.92 kcal/molUSER        vdW + Hbond + desolv Energy     = -11.59 kcal/molUSER        Electrostatic Energy            =  -0.34 kcal/molUSER        Moving Ligand-Fixed Receptor    = -11.92 kcal/molUSER        Moving Ligand-Moving Receptor   =  +0.00 kcal/molUSER    (2) Final Total Internal Energy     =  -1.24 kcal/molUSER    (3) Torsional Free Energy           =  +1.79 kcal/molUSER    (4) Unbound System's Energy         =  -1.24 kcal/molUSERUSERREMARK SMILES CC(C)Cc1nnc2ccc(-c3ccnc(N[C@H]4CCN[C@H](O)C4)c3)cn12REMARK SMILES IDX 12 1 13 2 14 3 15 4 16 5 25 6 11 7 5 8 6 9 27 10 7 11 26 12REMARK SMILES IDX 8 13 9 14 10 15 4 16 2 17 1 18 3 19 17 20 18 22 19 23 24 24REMARK SMILES IDX 20 25 22 26 21 27 23 29REMARK H PARENT 17 21 21 28 23 30USER                              x       y       z     vdW  Elec       q    TypeUSER                           _______ _______ _______ _____ _____    ______ ____ROOTATOM      1  C   UNL     1      37.674  46.728  14.992 -0.41 +0.01    -0.012 A  ATOM      2  C   UNL     1      37.128  47.250  13.824 -0.50 -0.01    +0.029 A  ATOM      3  C   UNL     1      36.008  46.631  13.304 -0.46 -0.07    +0.114 A  ATOM      4  N   UNL     1      35.418  45.551  13.859 -0.18 +0.14    -0.240 NA ATOM      5  C   UNL     1      35.951  45.040  14.986 -0.27 -0.06    +0.126 A  ATOM      6  C   UNL     1      37.071  45.615  15.582 -0.33 -0.02    +0.055 A  ENDROOTBRANCH   1   7ATOM      7  C   UNL     1      38.855  47.348  15.617 -0.47 +0.00    -0.001 A  ATOM      8  C   UNL     1      41.339  46.910  18.332 -0.43 -0.01    +0.137 A  ATOM      9  N   UNL     1      42.308  47.788  18.511 -0.51 -0.00    -0.135 NA ATOM     10  N   UNL     1      40.559  47.311  17.267 -0.31 +0.04    -0.286 N  ATOM     11  N   UNL     1      42.162  48.794  17.585 -0.46 -0.03    -0.130 NA ATOM     12  C   UNL     1      39.443  46.730  16.664 -0.38 -0.03    +0.103 A  ATOM     13  C   UNL     1      41.117  48.507  16.844 -0.37 -0.01    +0.160 A  ATOM     14  C   UNL     1      40.504  49.170  15.748 -0.58 -0.01    +0.050 A  ATOM     15  C   UNL     1      39.423  48.620  15.162 -0.52 -0.01    +0.014 A  BRANCH   8  16ATOM     16  C   UNL     1      41.113  45.655  19.110 -0.46 +0.00    +0.081 C  BRANCH  16  17ATOM     17  C   UNL     1      39.690  45.536  19.687 -0.44 +0.00    -0.010 C  ATOM     18  C   UNL     1      38.861  44.485  18.942 -0.42 -0.00    +0.008 C  ATOM     19  C   UNL     1      39.759  45.175  21.173 -0.38 +0.00    +0.008 C  ENDBRANCH  16  17ENDBRANCH   8  16ENDBRANCH   1   7BRANCH   5  20ATOM     20  N   UNL     1      35.358  43.938  15.628 -0.12 +0.16    -0.367 N  ATOM     21  H   UNL     1      35.244  43.200  14.937 +0.12 -0.06    +0.162 HD BRANCH  20  22ATOM     22  C   UNL     1      34.103  44.204  16.356 -0.32 -0.04    +0.085 C  ATOM     23  C   UNL     1      34.075  43.334  17.626 -0.36 -0.01    +0.040 C  ATOM     24  C   UNL     1      33.962  45.694  16.694 -0.24 -0.07    +0.073 C  ATOM     25  C   UNL     1      33.304  44.025  18.743 -0.39 -0.02    +0.085 C  ATOM     26  C   UNL     1      34.539  46.020  18.068 -0.39 -0.12    +0.184 C  ATOM     27  N   UNL     1      33.965  45.255  19.156 -0.19 +0.12    -0.292 NA ATOM     28  H   UNL     1      33.312  45.871  19.638 -0.40 -0.07    +0.125 HD BRANCH  26  29ATOM     29  O   UNL     1      34.297  47.384  18.360 -1.01 +0.38    -0.379 OA ATOM     30  H   UNL     1      33.814  47.743  17.598 -0.41 -0.52    +0.212 HD ENDBRANCH  26  29ENDBRANCH  20  22ENDBRANCH   5  20TORSDOF 6TERENDMDL