MODEL        2USER    Run = 2USERUSER    Estimated Free Energy of Binding    =  -9.85 kcal/mol  [=(1)+(2)+(3)-(4)]USERUSER    (1) Final Intermolecular Energy     = -11.34 kcal/molUSER        vdW + Hbond + desolv Energy     = -11.25 kcal/molUSER        Electrostatic Energy            =  -0.09 kcal/molUSER        Moving Ligand-Fixed Receptor    = -11.34 kcal/molUSER        Moving Ligand-Moving Receptor   =  +0.00 kcal/molUSER    (2) Final Total Internal Energy     =  -1.03 kcal/molUSER    (3) Torsional Free Energy           =  +1.49 kcal/molUSER    (4) Unbound System's Energy         =  -1.03 kcal/molUSERUSERREMARK SMILES CC(C)Cc1nnc2ccc(-c3ccnc(N[C@@H]4CCN[C@@H](C)C4)c3)cn12REMARK SMILES IDX 5 1 6 2 7 3 8 4 9 5 10 6 11 7 26 8 27 9 4 10 2 11 1 12 3 13REMARK SMILES IDX 12 14 13 15 25 16 14 17 16 18 15 19 17 20 18 22 19 23 24 24REMARK SMILES IDX 20 25 22 26 21 27 23 28REMARK H PARENT 17 21 21 29USER                              x       y       z     vdW  Elec       q    TypeUSER                           _______ _______ _______ _____ _____    ______ ____ROOTATOM      1  C   UNL     1      41.097  47.186  17.816 -0.41 -0.01    +0.137 A  ATOM      2  N   UNL     1      41.928  48.191  17.604 -0.65 -0.00    -0.135 NA ATOM      3  N   UNL     1      41.416  48.971  16.595 -1.05 -0.00    -0.130 NA ATOM      4  C   UNL     1      40.284  48.431  16.206 -0.42 -0.04    +0.160 A  ATOM      5  C   UNL     1      39.333  48.799  15.219 -0.47 -0.02    +0.050 A  ATOM      6  C   UNL     1      38.237  48.036  15.036 -0.51 -0.01    +0.014 A  ATOM      7  C   UNL     1      37.994  46.828  15.828 -0.41 +0.00    -0.001 A  ATOM      8  C   UNL     1      38.906  46.486  16.761 -0.35 -0.03    +0.103 A  ATOM      9  N   UNL     1      40.034  47.285  16.945 -0.29 +0.06    -0.286 N  ENDROOTBRANCH   1  10ATOM     10  C   UNL     1      41.269  46.111  18.833 -0.49 +0.00    +0.081 C  BRANCH  10  11ATOM     11  C   UNL     1      41.820  46.635  20.170 -0.41 -0.00    -0.010 C  ATOM     12  C   UNL     1      43.292  47.045  20.064 -0.45 +0.00    +0.008 C  ATOM     13  C   UNL     1      41.661  45.567  21.255 -0.35 +0.00    +0.008 C  ENDBRANCH  10  11ENDBRANCH   1  10BRANCH   7  14ATOM     14  C   UNL     1      36.805  45.983  15.657 -0.36 +0.01    -0.012 A  ATOM     15  C   UNL     1      35.670  46.487  15.032 -0.33 -0.03    +0.029 A  ATOM     16  C   UNL     1      36.801  44.663  16.112 -0.31 -0.02    +0.055 A  ATOM     17  C   UNL     1      34.582  45.648  14.905 -0.23 -0.10    +0.114 A  ATOM     18  C   UNL     1      35.665  43.877  15.934 -0.29 -0.05    +0.126 A  ATOM     19  N   UNL     1      34.561  44.370  15.343 -0.12 +0.13    -0.240 NA BRANCH  18  20ATOM     20  N   UNL     1      35.693  42.561  16.431 -0.23 +0.14    -0.367 N  ATOM     21  H   UNL     1      35.272  41.958  15.728 -0.02 -0.07    +0.162 HD BRANCH  20  22ATOM     22  C   UNL     1      35.082  42.354  17.758 -0.41 -0.03    +0.083 C  ATOM     23  C   UNL     1      33.563  42.607  17.710 -0.40 -0.01    +0.040 C  ATOM     24  C   UNL     1      35.751  43.314  18.752 -0.38 -0.01    +0.043 C  ATOM     25  C   UNL     1      33.047  43.384  18.918 -0.39 -0.01    +0.083 C  ATOM     26  C   UNL     1      35.132  43.203  20.156 -0.44 -0.00    +0.052 C  ATOM     27  N   UNL     1      33.693  42.919  20.138 -0.61 -0.06    -0.314 NA ATOM     28  C   UNL     1      35.812  42.117  20.987 -0.54 +0.00    +0.024 C  ATOM     29  H   UNL     1      33.249  43.331  20.959 +0.09 +0.06    +0.122 HD ENDBRANCH  20  22ENDBRANCH  18  20ENDBRANCH   7  14TORSDOF 5TERENDMDL