MODEL        8USER    Run = 8USERUSER    Estimated Free Energy of Binding    = -10.15 kcal/mol  [=(1)+(2)+(3)-(4)]USERUSER    (1) Final Intermolecular Energy     = -12.23 kcal/molUSER        vdW + Hbond + desolv Energy     = -12.17 kcal/molUSER        Electrostatic Energy            =  -0.07 kcal/molUSER        Moving Ligand-Fixed Receptor    = -12.23 kcal/molUSER        Moving Ligand-Moving Receptor   =  +0.00 kcal/molUSER    (2) Final Total Internal Energy     =  -2.17 kcal/molUSER    (3) Torsional Free Energy           =  +2.09 kcal/molUSER    (4) Unbound System's Energy         =  -2.17 kcal/molUSERUSERREMARK SMILES CC(C)Cc1nnc2ccc(-c3ccnc(NC4CCN(CC5CC5)CC4)c3)cn12REMARK SMILES IDX 12 1 13 2 14 3 15 4 16 5 28 6 11 7 5 8 6 9 30 10 7 11 29 12REMARK SMILES IDX 8 13 9 14 10 15 4 16 2 17 1 18 3 19 17 20 18 22 19 23 27 24REMARK SMILES IDX 20 25 26 26 21 27 22 28 23 29 24 30 25 31REMARK H PARENT 17 21USER                              x       y       z     vdW  Elec       q    TypeUSER                           _______ _______ _______ _____ _____    ______ ____ROOTATOM      1  C   UNL     1      38.101  44.529  19.793 -0.36 +0.00    -0.012 A  ATOM      2  C   UNL     1      38.069  43.785  20.967 -0.31 +0.00    +0.029 A  ATOM      3  C   UNL     1      36.926  43.058  21.234 -0.35 +0.00    +0.114 A  ATOM      4  N   UNL     1      35.851  43.022  20.417 -0.28 +0.00    -0.240 NA ATOM      5  C   UNL     1      35.900  43.727  19.269 -0.29 -0.02    +0.126 A  ATOM      6  C   UNL     1      36.999  44.500  18.934 -0.32 -0.01    +0.055 A  ENDROOTBRANCH   1   7ATOM      7  C   UNL     1      39.284  45.333  19.455 -0.40 +0.00    -0.001 A  ATOM      8  C   UNL     1      40.486  47.993  17.178 -0.31 -0.03    +0.137 A  ATOM      9  N   UNL     1      41.728  48.436  17.246 -0.80 -0.00    -0.135 NA ATOM     10  N   UNL     1      40.301  47.010  18.127 -0.28 +0.03    -0.286 N  ATOM     11  N   UNL     1      42.378  47.753  18.247 -0.50 +0.00    -0.130 NA ATOM     12  C   UNL     1      39.189  46.238  18.459 -0.30 -0.01    +0.103 A  ATOM     13  C   UNL     1      41.525  46.901  18.770 -0.39 +0.00    +0.160 A  ATOM     14  C   UNL     1      41.636  45.948  19.817 -0.38 +0.01    +0.050 A  ATOM     15  C   UNL     1      40.568  45.196  20.146 -0.38 +0.00    +0.014 A  BRANCH   8  16ATOM     16  C   UNL     1      39.439  48.465  16.228 -0.39 -0.03    +0.081 C  BRANCH  16  17ATOM     17  C   UNL     1      39.779  48.150  14.760 -0.60 +0.00    -0.010 C  ATOM     18  C   UNL     1      41.049  48.869  14.297 -0.55 -0.00    +0.008 C  ATOM     19  C   UNL     1      39.946  46.640  14.577 -0.44 -0.00    +0.008 C  ENDBRANCH  16  17ENDBRANCH   8  16ENDBRANCH   1   7BRANCH   5  20ATOM     20  N   UNL     1      34.754  43.637  18.493 -0.08 +0.09    -0.367 N  ATOM     21  H   UNL     1      34.468  42.665  18.637 +0.11 -0.03    +0.162 HD BRANCH  20  22ATOM     22  C   UNL     1      34.787  43.939  17.051 -0.32 -0.03    +0.083 C  ATOM     23  C   UNL     1      34.822  45.444  16.776 -0.36 -0.03    +0.040 C  ATOM     24  C   UNL     1      35.814  43.138  16.235 -0.48 -0.01    +0.040 C  ATOM     25  C   UNL     1      35.162  45.694  15.309 -0.35 -0.07    +0.086 C  ATOM     26  C   UNL     1      36.946  44.018  15.711 -0.34 -0.03    +0.086 C  ATOM     27  N   UNL     1      36.489  45.188  14.965 -0.16 +0.14    -0.303 NA BRANCH  27  28ATOM     28  C   UNL     1      36.777  45.173  13.534 -0.46 -0.03    +0.088 C  BRANCH  28  29ATOM     29  C   UNL     1      36.201  46.333  12.775 -0.68 -0.00    +0.003 C  ATOM     30  C   UNL     1      36.782  47.712  12.977 -0.70 -0.00    +0.005 C  ATOM     31  C   UNL     1      36.971  47.006  11.664 -0.72 -0.00    +0.005 C  ENDBRANCH  28  29ENDBRANCH  27  28ENDBRANCH  20  22ENDBRANCH   5  20TORSDOF 7TERENDMDL