REMARK SMILES CC(C)Cc1nnc2ccc(-c3ccnc(NC4CCN(CC5CC5)CC4)c3)cn12
REMARK SMILES IDX 12 1 13 2 14 3 15 4 16 5 28 6 11 7 5 8 6 9 30 10 7 11 29 12
REMARK SMILES IDX 8 13 9 14 10 15 4 16 2 17 1 18 3 19 17 20 18 22 19 23 27 24
REMARK SMILES IDX 20 25 26 26 21 27 22 28 23 29 24 30 25 31
REMARK H PARENT 17 21
ROOT
ATOM      1  C   UNL     1       0.951   1.446  -0.259  1.00  0.00    -0.012 A 
ATOM      2  C   UNL     1       1.183   2.809  -0.399  1.00  0.00     0.029 A 
ATOM      3  C   UNL     1       0.444   3.491  -1.345  1.00  0.00     0.114 A 
ATOM      4  N   UNL     1      -0.494   2.912  -2.126  1.00  0.00    -0.240 NA
ATOM      5  C   UNL     1      -0.730   1.595  -1.967  1.00  0.00     0.126 A 
ATOM      6  C   UNL     1      -0.019   0.831  -1.056  1.00  0.00     0.055 A 
ENDROOT
BRANCH   1   7
ATOM      7  C   UNL     1       1.711   0.660   0.722  1.00  0.00    -0.001 A 
ATOM      8  C   UNL     1       4.742  -1.430   1.112  1.00  0.00     0.137 A 
ATOM      9  N   UNL     1       5.049  -1.972   2.276  1.00  0.00    -0.135 NA
ATOM     10  N   UNL     1       3.574  -0.709   1.240  1.00  0.00    -0.286 N 
ATOM     11  N   UNL     1       4.087  -1.610   3.190  1.00  0.00    -0.130 NA
ATOM     12  C   UNL     1       2.840   0.039   0.321  1.00  0.00     0.103 A 
ATOM     13  C   UNL     1       3.207  -0.858   2.569  1.00  0.00     0.160 A 
ATOM     14  C   UNL     1       2.018  -0.212   3.000  1.00  0.00     0.050 A 
ATOM     15  C   UNL     1       1.300   0.513   2.120  1.00  0.00     0.014 A 
BRANCH   8  16
ATOM     16  C   UNL     1       5.521  -1.570  -0.151  1.00  0.00     0.081 C 
BRANCH  16  17
ATOM     17  C   UNL     1       6.441  -0.366  -0.422  1.00  0.00    -0.010 C 
ATOM     18  C   UNL     1       7.585  -0.278   0.592  1.00  0.00     0.008 C 
ATOM     19  C   UNL     1       7.014  -0.457  -1.838  1.00  0.00     0.008 C 
ENDBRANCH  16  17
ENDBRANCH   8  16
ENDBRANCH   1   7
BRANCH   5  20
ATOM     20  N   UNL     1      -1.704   1.082  -2.810  1.00  0.00    -0.367 N 
ATOM     21  H   UNL     1      -1.967   1.900  -3.365  1.00  0.00     0.162 HD
BRANCH  20  22
ATOM     22  C   UNL     1      -2.914   0.436  -2.270  1.00  0.00     0.083 C 
ATOM     23  C   UNL     1      -2.751  -1.080  -2.140  1.00  0.00     0.040 C 
ATOM     24  C   UNL     1      -3.513   1.102  -1.022  1.00  0.00     0.040 C 
ATOM     25  C   UNL     1      -3.892  -1.653  -1.305  1.00  0.00     0.086 C 
ATOM     26  C   UNL     1      -3.367   0.229   0.223  1.00  0.00     0.086 C 
ATOM     27  N   UNL     1      -3.885  -1.127   0.058  1.00  0.00    -0.303 NA
BRANCH  27  28
ATOM     28  C   UNL     1      -5.082  -1.440   0.833  1.00  0.00     0.088 C 
BRANCH  28  29
ATOM     29  C   UNL     1      -6.291  -0.634   0.455  1.00  0.00     0.003 C 
ATOM     30  C   UNL     1      -7.500  -0.643   1.360  1.00  0.00     0.005 C 
ATOM     31  C   UNL     1      -6.679   0.608   1.221  1.00  0.00     0.005 C 
ENDBRANCH  28  29
ENDBRANCH  27  28
ENDBRANCH  20  22
ENDBRANCH   5  20
TORSDOF 7
