MODEL        1USER    Run = 1USERUSER    Estimated Free Energy of Binding    = -10.16 kcal/mol  [=(1)+(2)+(3)-(4)]USERUSER    (1) Final Intermolecular Energy     = -12.54 kcal/molUSER        vdW + Hbond + desolv Energy     = -12.22 kcal/molUSER        Electrostatic Energy            =  -0.33 kcal/molUSER        Moving Ligand-Fixed Receptor    = -12.54 kcal/molUSER        Moving Ligand-Moving Receptor   =  +0.00 kcal/molUSER    (2) Final Total Internal Energy     =  -2.05 kcal/molUSER    (3) Torsional Free Energy           =  +2.39 kcal/molUSER    (4) Unbound System's Energy         =  -2.05 kcal/molUSERUSERREMARK SMILES CC(C)Cc1nnc2ccc(-c3ccnc(NC4CCN(CCO)CC4)c3)cn12REMARK SMILES IDX 17 1 16 3 12 4 13 5 27 6 14 7 15 8 11 9 5 10 6 11 29 12 7 13REMARK SMILES IDX 28 14 8 15 9 16 10 17 4 18 2 19 1 20 3 21 18 22 19 23 26 24REMARK SMILES IDX 20 25 25 26 21 27 22 28 23 29 24 30REMARK H PARENT 17 2 24 31USER                              x       y       z     vdW  Elec       q    TypeUSER                           _______ _______ _______ _____ _____    ______ ____ROOTATOM      1  N   UNL     1      34.857  43.624  18.733 -0.09 +0.08    -0.367 N  ATOM      2  H   UNL     1      34.580  42.666  18.917 +0.11 -0.02    +0.162 HD ENDROOTBRANCH   1   3ATOM      3  C   UNL     1      36.136  43.861  19.255 -0.29 -0.02    +0.126 A  ATOM      4  C   UNL     1      38.246  45.017  19.063 -0.37 +0.00    -0.012 A  ATOM      5  C   UNL     1      38.640  44.440  20.266 -0.34 -0.00    +0.029 A  ATOM      6  C   UNL     1      36.975  44.729  18.560 -0.31 -0.01    +0.055 A  ATOM      7  C   UNL     1      37.744  43.604  20.903 -0.27 +0.00    +0.114 A  ATOM      8  N   UNL     1      36.516  43.309  20.423 -0.25 +0.01    -0.240 NA BRANCH   4   9ATOM      9  C   UNL     1      39.140  45.933  18.338 -0.42 +0.00    -0.001 A  ATOM     10  C   UNL     1      39.660  47.589  15.066 -0.41 -0.04    +0.137 A  ATOM     11  N   UNL     1      40.682  48.400  14.868 -0.46 +0.02    -0.135 NA ATOM     12  N   UNL     1      39.702  47.113  16.359 -0.26 +0.07    -0.286 N  ATOM     13  N   UNL     1      41.409  48.474  16.033 -0.81 +0.00    -0.130 NA ATOM     14  C   UNL     1      38.866  46.238  17.052 -0.35 -0.03    +0.103 A  ATOM     15  C   UNL     1      40.822  47.705  16.921 -0.39 -0.02    +0.160 A  ATOM     16  C   UNL     1      41.120  47.395  18.274 -0.44 -0.00    +0.050 A  ATOM     17  C   UNL     1      40.320  46.550  18.953 -0.31 -0.00    +0.014 A  BRANCH  10  18ATOM     18  C   UNL     1      38.623  47.229  14.058 -0.46 -0.02    +0.081 C  BRANCH  18  19ATOM     19  C   UNL     1      37.224  47.753  14.424 -0.58 +0.01    -0.010 C  ATOM     20  C   UNL     1      36.317  47.716  13.191 -0.66 -0.00    +0.008 C  ATOM     21  C   UNL     1      37.274  49.179  14.983 -0.52 -0.01    +0.008 C  ENDBRANCH  18  19ENDBRANCH  10  18ENDBRANCH   4   9ENDBRANCH   1   3BRANCH   1  22ATOM     22  C   UNL     1      33.808  44.604  19.062 -0.42 -0.02    +0.083 C  ATOM     23  C   UNL     1      32.398  44.018  18.920 -0.41 -0.00    +0.040 C  ATOM     24  C   UNL     1      33.968  45.829  18.153 -0.51 -0.03    +0.040 C  ATOM     25  C   UNL     1      31.985  43.822  17.462 -0.29 -0.02    +0.086 C  ATOM     26  C   UNL     1      33.502  45.562  16.722 -0.25 -0.08    +0.086 C  ATOM     27  N   UNL     1      32.122  45.071  16.707 -0.46 +0.12    -0.301 NA BRANCH  27  28ATOM     28  C   UNL     1      31.564  44.986  15.350 -0.38 -0.06    +0.112 C  BRANCH  28  29ATOM     29  C   UNL     1      30.696  46.158  14.861 -0.45 -0.08    +0.171 C  BRANCH  29  30ATOM     30  O   UNL     1      30.892  47.303  15.687 -0.78 +0.13    -0.395 OA ATOM     31  H   UNL     1      31.700  47.156  16.207 -0.38 -0.29    +0.210 HD ENDBRANCH  29  30ENDBRANCH  28  29ENDBRANCH  27  28ENDBRANCH   1  22TORSDOF 8TERENDMDL