REMARK SMILES COc1c2c(cnc1=Cc1cccc(C(C)C)c1C)=C(NCC1CC1)NN=C2
REMARK SMILES IDX 3 1 4 2 5 3 6 4 7 5 8 6 20 7 26 8 27 9 28 10 2 12 1 13 9 14
REMARK SMILES IDX 10 15 11 16 18 17 12 18 14 19 13 20 19 21 15 22 16 23 17 24
REMARK SMILES IDX 21 25 22 27 23 28 24 29 25 30
REMARK H PARENT 26 11 21 26
ROOT
ATOM      1  C   UNL     1       0.629  -2.402   1.016  1.00  0.00     0.154 A 
ATOM      2  C   UNL     1       1.924  -2.284   0.681  1.00  0.00     0.051 A 
ATOM      3  C   UNL     1       2.482  -1.001   0.331  1.00  0.00     0.047 A 
ATOM      4  C   UNL     1       1.514   0.116   0.389  1.00  0.00     0.124 A 
ATOM      5  N   UNL     1       0.256   0.010   0.686  1.00  0.00    -0.252 NA
ATOM      6  C   UNL     1      -0.282  -1.242   0.930  1.00  0.00     0.106 A 
ATOM      7  C   UNL     1       3.797  -0.900   0.015  1.00  0.00     0.129 C 
ATOM      8  N   UNL     1       4.546  -2.078   0.037  1.00  0.00    -0.263 N 
ATOM      9  N   UNL     1       4.104  -3.342   0.314  1.00  0.00    -0.182 NA
ATOM     10  C   UNL     1       2.848  -3.436   0.633  1.00  0.00     0.146 C 
ATOM     11  H   UNL     1       5.462  -2.005  -0.395  1.00  0.00     0.192 HD
ENDROOT
BRANCH   1  12
ATOM     12  O   UNL     1       0.070  -3.623   1.364  1.00  0.00    -0.494 OA
ATOM     13  C   UNL     1       0.073  -3.793   2.784  1.00  0.00     0.278 C 
ENDBRANCH   1  12
BRANCH   6  14
ATOM     14  C   UNL     1      -1.618  -1.389   1.048  1.00  0.00     0.040 C 
BRANCH  14  15
ATOM     15  C   UNL     1      -2.605  -0.299   0.958  1.00  0.00    -0.020 A 
ATOM     16  C   UNL     1      -2.632   0.645   1.994  1.00  0.00     0.008 A 
ATOM     17  C   UNL     1      -3.532  -0.207  -0.110  1.00  0.00    -0.040 A 
ATOM     18  C   UNL     1      -3.561   1.678   1.987  1.00  0.00     0.001 A 
ATOM     19  C   UNL     1      -4.497   0.837  -0.104  1.00  0.00    -0.042 A 
ATOM     20  C   UNL     1      -4.482   1.772   0.949  1.00  0.00     0.004 A 
ATOM     21  C   UNL     1      -3.496  -1.201  -1.246  1.00  0.00     0.045 C 
BRANCH  19  22
ATOM     22  C   UNL     1      -5.529   0.996  -1.219  1.00  0.00     0.013 C 
ATOM     23  C   UNL     1      -6.964   1.076  -0.683  1.00  0.00     0.012 C 
ATOM     24  C   UNL     1      -5.205   2.212  -2.091  1.00  0.00     0.012 C 
ENDBRANCH  19  22
ENDBRANCH  14  15
ENDBRANCH   6  14
BRANCH   7  25
ATOM     25  N   UNL     1       4.415   0.297  -0.322  1.00  0.00    -0.370 N 
ATOM     26  H   UNL     1       3.865   1.124  -0.118  1.00  0.00     0.162 HD
BRANCH  25  27
ATOM     27  C   UNL     1       5.840   0.560  -0.218  1.00  0.00     0.118 C 
BRANCH  27  28
ATOM     28  C   UNL     1       6.099   1.963  -0.675  1.00  0.00     0.008 C 
ATOM     29  C   UNL     1       5.815   3.135   0.232  1.00  0.00     0.006 C 
ATOM     30  C   UNL     1       7.236   2.763  -0.093  1.00  0.00     0.006 C 
ENDBRANCH  27  28
ENDBRANCH  25  27
ENDBRANCH   7  25
TORSDOF 7
