MODEL        3USER    Run = 3USERUSER    Estimated Free Energy of Binding    = -10.05 kcal/mol  [=(1)+(2)+(3)-(4)]USERUSER    (1) Final Intermolecular Energy     = -11.84 kcal/molUSER        vdW + Hbond + desolv Energy     = -11.75 kcal/molUSER        Electrostatic Energy            =  -0.09 kcal/molUSER        Moving Ligand-Fixed Receptor    = -11.84 kcal/molUSER        Moving Ligand-Moving Receptor   =  +0.00 kcal/molUSER    (2) Final Total Internal Energy     =  -0.85 kcal/molUSER    (3) Torsional Free Energy           =  +1.79 kcal/molUSER    (4) Unbound System's Energy         =  -0.85 kcal/molUSERUSERREMARK SMILES Cc1c(C=c2ncc3c(c2F)C=NNC=3NCC2CC2)cccc1C(C)CREMARK SMILES IDX 5 1 6 2 7 3 8 4 9 5 10 6 11 7 12 8 13 9 14 10 15 11 4 13REMARK SMILES IDX 3 14 2 15 24 16 21 17 23 18 22 19 1 20 25 21 26 22 27 23REMARK SMILES IDX 16 24 17 26 18 27 19 28 20 29REMARK H PARENT 14 12 16 25USER                              x       y       z     vdW  Elec       q    TypeUSER                           _______ _______ _______ _____ _____    ______ ____ROOTATOM      1  C   UNL     1      39.527  45.421  18.278 -0.37 -0.01    +0.100 A  ATOM      2  N   UNL     1      38.505  45.399  17.339 -0.22 +0.06    -0.253 NA ATOM      3  C   UNL     1      38.424  46.356  16.464 -0.31 -0.04    +0.124 A  ATOM      4  C   UNL     1      39.350  47.507  16.362 -0.44 -0.02    +0.046 A  ATOM      5  C   UNL     1      40.439  47.468  17.302 -0.47 -0.01    +0.045 A  ATOM      6  C   UNL     1      40.530  46.486  18.203 -0.38 -0.01    +0.158 A  ATOM      7  F   UNL     1      41.577  46.472  19.059 -0.15 -0.01    -0.204 F  ATOM      8  C   UNL     1      41.442  48.544  17.213 -0.32 -0.00    +0.145 C  ATOM      9  N   UNL     1      41.370  49.516  16.355 -1.03 +0.01    -0.182 NA ATOM     10  N   UNL     1      40.278  49.492  15.528 -0.38 +0.10    -0.263 N  ATOM     11  C   UNL     1      39.270  48.528  15.474 -0.50 -0.06    +0.129 C  ATOM     12  H   UNL     1      40.260  50.178  14.782 -0.15 -0.13    +0.192 HD ENDROOTBRANCH   1  13ATOM     13  C   UNL     1      39.531  44.439  19.201 -0.40 -0.00    +0.039 C  BRANCH  13  14ATOM     14  C   UNL     1      38.407  43.994  20.038 -0.27 +0.00    -0.020 A  ATOM     15  C   UNL     1      38.546  43.723  21.420 -0.26 -0.00    -0.040 A  ATOM     16  C   UNL     1      37.414  43.279  22.156 -0.37 -0.00    -0.042 A  ATOM     17  C   UNL     1      37.164  43.842  19.409 -0.33 -0.00    +0.008 A  ATOM     18  C   UNL     1      36.176  43.161  21.494 -0.30 +0.00    +0.004 A  ATOM     19  C   UNL     1      36.053  43.434  20.135 -0.43 -0.00    +0.001 A  ATOM     20  C   UNL     1      39.884  43.885  22.105 -0.29 +0.00    +0.045 C  BRANCH  16  21ATOM     21  C   UNL     1      37.490  42.964  23.649 -0.42 +0.00    +0.013 C  ATOM     22  C   UNL     1      37.227  44.224  24.480 -0.37 +0.00    +0.012 C  ATOM     23  C   UNL     1      36.546  41.830  24.071 -0.47 -0.00    +0.012 C  ENDBRANCH  16  21ENDBRANCH  13  14ENDBRANCH   1  13BRANCH  11  24ATOM     24  N   UNL     1      38.252  48.643  14.542 -0.23 +0.21    -0.370 N  ATOM     25  H   UNL     1      37.908  49.583  14.382 -0.44 -0.14    +0.162 HD BRANCH  24  26ATOM     26  C   UNL     1      37.996  47.739  13.437 -0.47 -0.03    +0.118 C  BRANCH  26  27ATOM     27  C   UNL     1      36.536  47.777  13.103 -0.70 -0.00    +0.008 C  ATOM     28  C   UNL     1      35.975  46.903  12.008 -0.71 -0.00    +0.006 C  ATOM     29  C   UNL     1      35.638  46.612  13.445 -0.59 -0.00    +0.006 C  ENDBRANCH  26  27ENDBRANCH  24  26ENDBRANCH  11  24TORSDOF 6TERENDMDL