REMARK SMILES Cc1c(C=c2ncc3c(c2F)C=NNC=3NCC2CC2)cccc1C(C)C
REMARK SMILES IDX 5 1 6 2 7 3 8 4 9 5 10 6 11 7 12 8 13 9 14 10 15 11 4 13
REMARK SMILES IDX 3 14 2 15 24 16 21 17 23 18 22 19 1 20 25 21 26 22 27 23
REMARK SMILES IDX 16 24 17 26 18 27 19 28 20 29
REMARK H PARENT 14 12 16 25
ROOT
ATOM      1  C   UNL     1       0.160   0.485   0.943  1.00  0.00     0.100 A 
ATOM      2  N   UNL     1      -0.909   0.238   1.794  1.00  0.00    -0.253 NA
ATOM      3  C   UNL     1      -2.101   0.102   1.296  1.00  0.00     0.124 A 
ATOM      4  C   UNL     1      -2.445   0.183  -0.142  1.00  0.00     0.046 A 
ATOM      5  C   UNL     1      -1.310   0.370  -1.006  1.00  0.00     0.045 A 
ATOM      6  C   UNL     1      -0.081   0.508  -0.502  1.00  0.00     0.158 A 
ATOM      7  F   UNL     1       0.964   0.664  -1.345  1.00  0.00    -0.204 F 
ATOM      8  C   UNL     1      -1.567   0.388  -2.457  1.00  0.00     0.145 C 
ATOM      9  N   UNL     1      -2.753   0.268  -2.973  1.00  0.00    -0.182 NA
ATOM     10  N   UNL     1      -3.776   0.135  -2.071  1.00  0.00    -0.263 N 
ATOM     11  C   UNL     1      -3.684   0.069  -0.680  1.00  0.00     0.129 C 
ATOM     12  H   UNL     1      -4.693  -0.069  -2.454  1.00  0.00     0.192 HD
ENDROOT
BRANCH   1  13
ATOM     13  C   UNL     1       1.365   0.679   1.514  1.00  0.00     0.039 C 
BRANCH  13  14
ATOM     14  C   UNL     1       2.638   0.970   0.839  1.00  0.00    -0.020 A 
ATOM     15  C   UNL     1       3.596  -0.031   0.553  1.00  0.00    -0.040 A 
ATOM     16  C   UNL     1       4.811   0.335  -0.087  1.00  0.00    -0.042 A 
ATOM     17  C   UNL     1       2.880   2.304   0.481  1.00  0.00     0.008 A 
ATOM     18  C   UNL     1       5.008   1.681  -0.453  1.00  0.00     0.004 A 
ATOM     19  C   UNL     1       4.056   2.656  -0.168  1.00  0.00     0.001 A 
ATOM     20  C   UNL     1       3.342  -1.471   0.936  1.00  0.00     0.045 C 
BRANCH  16  21
ATOM     21  C   UNL     1       5.892  -0.691  -0.424  1.00  0.00     0.013 C 
ATOM     22  C   UNL     1       5.878  -1.016  -1.921  1.00  0.00     0.012 C 
ATOM     23  C   UNL     1       7.293  -0.254   0.023  1.00  0.00     0.012 C 
ENDBRANCH  16  21
ENDBRANCH  13  14
ENDBRANCH   1  13
BRANCH  11  24
ATOM     24  N   UNL     1      -4.828  -0.107   0.081  1.00  0.00    -0.370 N 
ATOM     25  H   UNL     1      -4.728   0.079   1.072  1.00  0.00     0.162 HD
BRANCH  24  26
ATOM     26  C   UNL     1      -6.195  -0.003  -0.392  1.00  0.00     0.118 C 
BRANCH  26  27
ATOM     27  C   UNL     1      -7.127  -0.154   0.772  1.00  0.00     0.008 C 
ATOM     28  C   UNL     1      -8.444  -0.873   0.614  1.00  0.00     0.006 C 
ATOM     29  C   UNL     1      -7.339  -1.502   1.417  1.00  0.00     0.006 C 
ENDBRANCH  26  27
ENDBRANCH  24  26
ENDBRANCH  11  24
TORSDOF 6
