MODEL        8USER    Run = 8USERUSER    Estimated Free Energy of Binding    =  -9.52 kcal/mol  [=(1)+(2)+(3)-(4)]USERUSER    (1) Final Intermolecular Energy     = -11.60 kcal/molUSER        vdW + Hbond + desolv Energy     = -11.50 kcal/molUSER        Electrostatic Energy            =  -0.10 kcal/molUSER        Moving Ligand-Fixed Receptor    = -11.60 kcal/molUSER        Moving Ligand-Moving Receptor   =  +0.00 kcal/molUSER    (2) Final Total Internal Energy     =  -1.17 kcal/molUSER    (3) Torsional Free Energy           =  +2.09 kcal/molUSER    (4) Unbound System's Energy         =  -1.17 kcal/molUSERUSERREMARK SMILES COc1c2c(cnc1=Cc1cccc(C(C)C)c1C)=C(NCC1CC1)NN=C2REMARK SMILES IDX 3 1 4 2 5 3 6 4 7 5 8 6 20 7 26 8 27 9 28 10 2 12 1 13 9 14REMARK SMILES IDX 10 15 11 16 18 17 12 18 14 19 13 20 19 21 15 22 16 23 17 24REMARK SMILES IDX 21 25 22 27 23 28 24 29 25 30REMARK H PARENT 26 11 21 26USER                              x       y       z     vdW  Elec       q    TypeUSER                           _______ _______ _______ _____ _____    ______ ____ROOTATOM      1  C   UNL     1      40.510  46.479  17.896 -0.38 -0.01    +0.154 A  ATOM      2  C   UNL     1      40.335  47.503  17.045 -0.47 -0.01    +0.051 A  ATOM      3  C   UNL     1      39.053  47.741  16.429 -0.40 -0.02    +0.047 A  ATOM      4  C   UNL     1      38.002  46.780  16.829 -0.26 -0.06    +0.124 A  ATOM      5  N   UNL     1      38.166  45.772  17.629 -0.23 +0.06    -0.252 NA ATOM      6  C   UNL     1      39.425  45.506  18.139 -0.36 -0.01    +0.106 A  ATOM      7  C   UNL     1      38.893  48.793  15.588 -0.43 -0.07    +0.129 C  ATOM      8  N   UNL     1      40.012  49.595  15.356 -0.28 +0.13    -0.263 N  ATOM      9  N   UNL     1      41.274  49.430  15.857 -0.92 +0.02    -0.182 NA ATOM     10  C   UNL     1      41.423  48.432  16.675 -0.37 -0.00    +0.146 C  ATOM     11  H   UNL     1      39.916  50.240  14.578 -0.13 -0.18    +0.192 HD ENDROOTBRANCH   1  12ATOM     12  O   UNL     1      41.730  46.233  18.507 -0.18 -0.02    -0.494 OA ATOM     13  C   UNL     1      41.856  46.999  19.709 -0.19 +0.02    +0.278 C  ENDBRANCH   1  12BRANCH   6  14ATOM     14  C   UNL     1      39.650  44.358  18.811 -0.40 -0.00    +0.040 C  BRANCH  14  15ATOM     15  C   UNL     1      39.504  44.181  20.266 -0.19 -0.00    -0.020 A  ATOM     16  C   UNL     1      40.650  44.329  21.060 -0.32 +0.00    +0.008 A  ATOM     17  C   UNL     1      38.266  43.837  20.864 -0.27 -0.00    -0.040 A  ATOM     18  C   UNL     1      40.587  44.142  22.435 -0.24 +0.00    +0.001 A  ATOM     19  C   UNL     1      38.209  43.623  22.268 -0.31 -0.00    -0.042 A  ATOM     20  C   UNL     1      39.380  43.794  23.031 -0.25 +0.00    +0.004 A  ATOM     21  C   UNL     1      37.019  43.701  20.024 -0.41 -0.00    +0.045 C  BRANCH  19  22ATOM     22  C   UNL     1      36.911  43.246  22.981 -0.42 +0.00    +0.013 C  ATOM     23  C   UNL     1      36.553  41.765  22.801 -0.58 +0.00    +0.012 C  ATOM     24  C   UNL     1      36.978  43.614  24.465 -0.40 +0.00    +0.012 C  ENDBRANCH  19  22ENDBRANCH  14  15ENDBRANCH   6  14BRANCH   7  25ATOM     25  N   UNL     1      37.691  49.099  14.964 -0.22 +0.31    -0.370 N  ATOM     26  H   UNL     1      37.693  49.979  14.459 -0.47 -0.17    +0.162 HD BRANCH  25  27ATOM     27  C   UNL     1      36.797  48.131  14.351 -0.45 -0.09    +0.118 C  BRANCH  27  28ATOM     28  C   UNL     1      37.555  47.386  13.295 -0.62 -0.00    +0.008 C  ATOM     29  C   UNL     1      37.231  45.945  12.985 -0.58 -0.00    +0.006 C  ATOM     30  C   UNL     1      36.897  47.022  11.989 -0.77 -0.00    +0.006 C  ENDBRANCH  27  28ENDBRANCH  25  27ENDBRANCH   7  25TORSDOF 7TERENDMDL