MODEL        6USER    Run = 6USERUSER    Estimated Free Energy of Binding    = -12.50 kcal/mol  [=(1)+(2)+(3)-(4)]USERUSER    (1) Final Intermolecular Energy     = -15.48 kcal/molUSER        vdW + Hbond + desolv Energy     = -15.14 kcal/molUSER        Electrostatic Energy            =  -0.34 kcal/molUSER        Moving Ligand-Fixed Receptor    = -15.48 kcal/molUSER        Moving Ligand-Moving Receptor   =  +0.00 kcal/molUSER    (2) Final Total Internal Energy     =  -1.92 kcal/molUSER    (3) Torsional Free Energy           =  +2.98 kcal/molUSER    (4) Unbound System's Energy         =  -1.92 kcal/molUSERUSERREMARK SMILES Oc1nc2ccccc2n1C1CCN(Cc2ccc(-c3nc4cc(F)ccc4nc3-c3ccc(OCCN4CCOCC4)cc3)cc2)CC1REMARK SMILES IDX 20 1 21 2 22 3 23 4 24 5 25 6 26 7 27 8 28 9 29 10 30 11REMARK SMILES IDX 19 12 16 13 17 14 47 15 18 16 46 17 15 18 14 19 11 20 12 21REMARK SMILES IDX 49 22 13 23 48 24 10 25 2 26 3 27 4 28 9 29 5 30 8 31 6 32REMARK SMILES IDX 7 33 1 34 31 36 32 37 45 38 33 39 44 40 34 41 35 42 36 43REMARK SMILES IDX 37 44 38 45 39 46 43 47 40 48 42 49 41 50REMARK H PARENT 1 35USER                              x       y       z     vdW  Elec       q    TypeUSER                           _______ _______ _______ _____ _____    ______ ____ROOTATOM      1  C   UNL     1      38.779  45.222  19.473 -0.32 -0.01    +0.097 A  ATOM      2  N   UNL     1      37.667  45.043  18.709 -0.22 +0.04    -0.244 NA ATOM      3  C   UNL     1      37.744  45.409  17.417 -0.31 -0.03    +0.092 A  ATOM      4  C   UNL     1      36.635  45.251  16.599 -0.30 -0.03    +0.069 A  ATOM      5  C   UNL     1      36.690  45.615  15.261 -0.28 -0.06    +0.125 A  ATOM      6  F   UNL     1      35.610  45.456  14.487 -0.08 +0.12    -0.207 F  ATOM      7  C   UNL     1      37.849  46.144  14.715 -0.38 -0.02    +0.041 A  ATOM      8  C   UNL     1      38.968  46.306  15.531 -0.40 -0.01    +0.033 A  ATOM      9  C   UNL     1      38.936  45.948  16.873 -0.35 -0.02    +0.090 A  ATOM     10  N   UNL     1      40.036  46.121  17.626 -0.28 +0.03    -0.244 NA ATOM     11  C   UNL     1      39.955  45.760  18.936 -0.38 -0.00    +0.097 A  ENDROOTBRANCH   1  12ATOM     12  C   UNL     1      38.644  44.772  20.861 -0.36 +0.00    +0.002 A  ATOM     13  C   UNL     1      38.375  43.923  23.549 -0.27 -0.00    -0.034 A  ATOM     14  C   UNL     1      38.878  45.196  23.247 -0.28 +0.00    +0.006 A  ATOM     15  C   UNL     1      38.010  43.079  22.492 -0.35 +0.00    +0.006 A  ATOM     16  C   UNL     1      39.015  45.613  21.920 -0.31 +0.00    +0.011 A  ATOM     17  C   UNL     1      38.152  43.495  21.165 -0.24 +0.00    +0.011 A  BRANCH  13  18ATOM     18  C   UNL     1      38.228  43.475  24.988 -0.23 +0.00    +0.120 C  BRANCH  18  19ATOM     19  N   UNL     1      37.342  44.275  25.849 -0.14 +0.01    -0.299 NA ATOM     20  C   UNL     1      36.217  45.697  28.104 -0.36 -0.02    +0.095 C  ATOM     21  C   UNL     1      35.699  44.319  27.676 -0.51 -0.01    +0.041 C  ATOM     22  C   UNL     1      36.884  46.434  26.937 -0.31 -0.01    +0.041 C  ATOM     23  C   UNL     1      36.803  43.521  26.983 -0.38 -0.01    +0.087 C  ATOM     24  C   UNL     1      37.936  45.548  26.268 -0.28 -0.00    +0.087 C  BRANCH  20  25ATOM     25  N   UNL     1      35.198  46.495  28.772 -0.27 +0.07    -0.291 N  ATOM     26  C   UNL     1      33.993  46.015  29.209 -0.17 -0.05    +0.295 A  ATOM     27  N   UNL     1      33.238  46.927  29.755 -0.64 +0.02    -0.195 NA ATOM     28  C   UNL     1      33.987  48.075  29.680 -0.32 -0.01    +0.092 A  ATOM     29  C   UNL     1      35.221  47.842  29.069 -0.36 -0.01    +0.072 A  ATOM     30  C   UNL     1      33.664  49.369  30.119 -0.23 +0.00    +0.031 A  ATOM     31  C   UNL     1      36.160  48.865  28.875 -0.26 -0.00    +0.029 A  ATOM     32  C   UNL     1      34.590  50.400  29.931 -0.16 +0.00    +0.002 A  ATOM     33  C   UNL     1      35.818  50.148  29.319 -0.19 +0.00    +0.002 A  BRANCH  26  34ATOM     34  O   UNL     1      33.598  44.763  29.097 -0.54 +0.04    -0.480 OA ATOM     35  H   UNL     1      33.161  44.626  29.958 -0.04 -0.06    +0.296 HD ENDBRANCH  26  34ENDBRANCH  20  25ENDBRANCH  18  19ENDBRANCH  13  18ENDBRANCH   1  12BRANCH  11  36ATOM     36  C   UNL     1      41.190  45.964  19.698 -0.42 +0.00    +0.003 A  ATOM     37  C   UNL     1      41.606  45.021  20.650 -0.33 +0.00    +0.014 A  ATOM     38  C   UNL     1      41.999  47.088  19.484 -0.37 +0.00    +0.014 A  ATOM     39  C   UNL     1      42.787  45.201  21.381 -0.13 +0.01    +0.047 A  ATOM     40  C   UNL     1      43.176  47.269  20.217 -0.34 +0.01    +0.047 A  ATOM     41  C   UNL     1      43.578  46.328  21.167 -0.11 +0.07    +0.119 A  BRANCH  41  42ATOM     42  O   UNL     1      44.755  46.628  21.794 -0.60 -0.48    -0.492 OA BRANCH  42  43ATOM     43  C   UNL     1      44.729  47.489  22.937 -0.20 +0.09    +0.245 C  BRANCH  43  44ATOM     44  C   UNL     1      43.320  47.534  23.556 -0.24 +0.02    +0.126 C  BRANCH  44  45ATOM     45  N   UNL     1      42.864  48.897  23.888 -0.76 -0.09    -0.295 NA ATOM     46  C   UNL     1      41.384  48.963  23.951 -0.30 +0.02    +0.113 C  ATOM     47  C   UNL     1      43.394  49.392  25.178 -0.28 +0.02    +0.113 C  ATOM     48  C   UNL     1      40.780  48.308  25.205 -0.24 +0.02    +0.175 C  ATOM     49  C   UNL     1      42.757  48.739  26.417 -0.17 +0.01    +0.175 C  ATOM     50  O   UNL     1      41.330  48.872  26.402 -0.15 -0.04    -0.379 OA ENDBRANCH  44  45ENDBRANCH  43  44ENDBRANCH  42  43ENDBRANCH  41  42ENDBRANCH  11  36TORSDOF 10TERENDMDL