MODEL        8USER    Run = 8USERUSER    Estimated Free Energy of Binding    =  -7.33 kcal/mol  [=(1)+(2)+(3)-(4)]USERUSER    (1) Final Intermolecular Energy     = -11.80 kcal/molUSER        vdW + Hbond + desolv Energy     = -11.94 kcal/molUSER        Electrostatic Energy            =  -0.28 kcal/molUSER        Moving Ligand-Fixed Receptor    = -12.22 kcal/molUSER        Moving Ligand-Moving Receptor   =  +0.41 kcal/molUSER    (2) Final Total Internal Energy     =  -2.75 kcal/molUSER    (3) Torsional Free Energy           =  +4.47 kcal/molUSER    (4) Unbound System's Energy         =  -2.75 kcal/molUSERUSERREMARK SMILES COc1ccc(=O)[nH]c1C(=O)c1ccc(C(=O)N[C@@H]2CCCN(S(=O)(=O)C(F)(F)F)C[C@H]2NC(=O)c2cncc(Cl)c2)cc1REMARK SMILES IDX 19 1 18 2 16 3 17 4 15 6 12 7 13 8 44 9 14 10 43 11 10 12REMARK SMILES IDX 11 13 9 14 3 15 4 16 5 17 8 18 6 19 7 21 2 22 1 23 20 24REMARK SMILES IDX 21 25 22 26 23 27 24 28 25 29 26 30 27 31 28 32 29 33 30 34REMARK SMILES IDX 31 35 32 37 33 39 34 40 35 42 36 43 37 44 42 45 38 46 40 47REMARK SMILES IDX 39 48 41 49REMARK H PARENT 18 5 8 20 33 41REMARK Flexibility Score:  100.900USER                              x       y       z     vdW  Elec       q    TypeUSER                           _______ _______ _______ _____ _____    ______ ____ROOTATOM      1  C   UNL     1      40.474  44.464  20.323 -0.34 +0.00    +0.106 C  ENDROOTBRANCH   1   2ATOM      2  N   UNL     1      39.048  44.103  20.332 -0.08 +0.00    -0.347 N  ATOM      3  C   UNL     1      38.353  43.987  19.138 -0.12 -0.02    +0.251 C  ATOM      4  O   UNL     1      38.893  43.997  18.040 -0.21 +0.03    -0.269 OA ATOM      5  H   UNL     1      38.515  44.279  21.172 +0.10 +0.00    +0.164 HD BRANCH   3   6ATOM      6  C   UNL     1      36.870  43.901  19.225 -0.32 -0.00    +0.039 A  ATOM      7  C   UNL     1      34.079  43.601  19.411 -0.39 -0.00    +0.024 A  ATOM      8  C   UNL     1      34.926  42.550  19.781 -0.43 -0.00    +0.013 A  ATOM      9  C   UNL     1      34.639  44.805  18.957 -0.39 -0.00    +0.013 A  ATOM     10  C   UNL     1      36.312  42.702  19.688 -0.32 -0.00    +0.014 A  ATOM     11  C   UNL     1      36.029  44.961  18.871 -0.26 -0.00    +0.014 A  BRANCH   7  12ATOM     12  C   UNL     1      32.594  43.492  19.464 -0.34 -0.01    +0.213 C  ATOM     13  O   UNL     1      31.964  43.896  20.441 -0.63 -0.02    -0.287 OA BRANCH  12  14ATOM     14  C   UNL     1      31.882  42.895  18.307 -0.23 -0.02    +0.132 A  ATOM     15  C   UNL     1      31.557  43.648  17.241 -0.19 -0.04    +0.146 A  ATOM     16  C   UNL     1      30.819  43.051  16.151 -0.29 -0.02    +0.054 A  ATOM     17  C   UNL     1      30.497  41.749  16.173 -0.30 -0.03    +0.075 A  ATOM     18  N   UNL     1      31.572  41.552  18.339 -0.13 +0.04    -0.316 N  ATOM     19  C   UNL     1      30.892  40.910  17.336 -0.18 -0.05    +0.248 A  ATOM     20  H   UNL     1      31.854  40.986  19.131 +0.10 +0.00    +0.170 HD ATOM     21  O   UNL     1      30.604  39.720  17.386 -0.27 -0.00    -0.270 OA BRANCH  15  22ATOM     22  O   UNL     1      31.777  45.000  17.131 -0.38 +0.09    -0.494 OA ATOM     23  C   UNL     1      32.570  45.302  15.981 -0.19 -0.20    +0.278 C  ENDBRANCH  15  22ENDBRANCH  12  14ENDBRANCH   7  12ENDBRANCH   3   6ENDBRANCH   1   2BRANCH   1  24ATOM     24  C   UNL     1      41.264  43.575  21.304 -0.32 +0.00    +0.028 C  BRANCH  24  25ATOM     25  C   UNL     1      41.183  43.981  22.775 -0.26 +0.00    +0.019 C  BRANCH  25  26ATOM     26  C   UNL     1      41.093  45.487  23.003 -0.18 +0.01    +0.102 C  BRANCH  26  27ATOM     27  N   UNL     1      42.216  46.239  22.385 -0.15 -0.03    -0.192 NA BRANCH  27  28ATOM     28  S   UNL     1      42.647  47.702  23.227 -0.28 +0.05    +0.314 S  ATOM     29  O   UNL     1      41.532  47.974  24.119 -0.24 -0.03    -0.203 OA ATOM     30  O   UNL     1      43.005  48.657  22.192 -0.52 -0.03    -0.203 OA BRANCH  28  31ATOM     31  C   UNL     1      44.179  47.254  24.204 -0.02 +0.10    +0.511 C  ATOM     32  F   UNL     1      44.870  48.367  24.592 -0.07 -0.03    -0.155 F  ATOM     33  F   UNL     1      43.888  46.551  25.332 -0.00 -0.02    -0.155 F  ATOM     34  F   UNL     1      45.046  46.496  23.471 -0.03 -0.06    -0.155 F  ENDBRANCH  28  31ENDBRANCH  27  28BRANCH  27  35ATOM     35  C   UNL     1      42.080  46.429  20.899 -0.32 +0.02    +0.129 CG0ATOM     36  G   UNL     1      40.664  45.999  20.458 +0.00 +0.00    +0.000 G0 ENDBRANCH  27  35ENDBRANCH  26  27ENDBRANCH  25  26ENDBRANCH  24  25ENDBRANCH   1  24BRANCH   1  37ATOM     37  C   UNL     1      40.661  46.002  20.463 -0.25 +0.01    +0.120 CG0ATOM     38  G   UNL     1      42.079  46.429  20.900 +0.00 +0.00    +0.000 G0 BRANCH  37  39ATOM     39  N   UNL     1      40.288  46.711  19.229 +0.02 +0.01    -0.346 N  ATOM     40  C   UNL     1      40.898  46.345  18.040 -0.38 -0.01    +0.253 C  ATOM     41  H   UNL     1      39.321  47.007  19.185 +0.09 -0.02    +0.164 HD ATOM     42  O   UNL     1      41.879  45.613  17.988 -0.30 -0.01    -0.269 OA BRANCH  40  43ATOM     43  C   UNL     1      40.273  46.822  16.787 -0.45 -0.01    +0.059 A  ATOM     44  C   UNL     1      40.772  47.899  16.062 -0.42 -0.02    +0.124 A  ATOM     45  C   UNL     1      39.133  46.170  16.303 -0.39 -0.01    +0.037 A  ATOM     46  N   UNL     1      40.198  48.380  14.932 -0.33 +0.07    -0.262 NA ATOM     47  C   UNL     1      38.525  46.640  15.146 -0.38 -0.02    +0.060 A  ATOM     48  C   UNL     1      39.083  47.738  14.503 -0.39 -0.04    +0.131 A  ATOM     49  Cl  UNL     1      37.101  45.898  14.543 -0.56 +0.04    -0.083 Cl ENDBRANCH  40  43ENDBRANCH  37  39ENDBRANCH   1  37TORSDOF 9TERENDMDL