REMARK SMILES COc1ccc(=O)[nH]c1C(=O)c1ccc(C(=O)N[C@@H]2CCN(CF)C[C@H]2NC(=O)c2cnn(C)c2)cc1
REMARK SMILES IDX 12 1 13 2 14 3 15 4 36 5 37 6 10 7 11 8 9 9 3 10 4 11 5 12
REMARK SMILES IDX 8 13 6 14 7 16 2 17 1 18 16 19 18 20 17 21 19 23 20 24 26 25
REMARK SMILES IDX 21 26 25 27 22 28 27 29 28 30 29 32 30 33 31 34 35 35 32 36
REMARK SMILES IDX 33 37 34 38 23 39 24 40
REMARK H PARENT 8 15 18 22 27 31
ROOT
ATOM      1  C   UNL     1      -4.371   0.264   0.411  1.00  0.00     0.024 A 
ATOM      2  C   UNL     1      -3.347   0.658   1.286  1.00  0.00     0.013 A 
ATOM      3  C   UNL     1      -2.045   0.170   1.129  1.00  0.00     0.014 A 
ATOM      4  C   UNL     1      -1.752  -0.713   0.085  1.00  0.00     0.039 A 
ATOM      5  C   UNL     1      -2.773  -1.113  -0.787  1.00  0.00     0.014 A 
ATOM      6  C   UNL     1      -4.074  -0.620  -0.633  1.00  0.00     0.013 A 
ENDROOT
BRANCH   1   7
ATOM      7  C   UNL     1      -5.737   0.820   0.639  1.00  0.00     0.213 C 
ATOM      8  O   UNL     1      -5.914   1.735   1.438  1.00  0.00    -0.287 OA
BRANCH   7   9
ATOM      9  C   UNL     1      -6.884   0.203  -0.082  1.00  0.00     0.132 A 
ATOM     10  C   UNL     1      -7.609   0.931  -0.951  1.00  0.00     0.146 A 
ATOM     11  C   UNL     1      -8.692   0.300  -1.677  1.00  0.00     0.054 A 
ATOM     12  C   UNL     1      -9.017  -0.981  -1.447  1.00  0.00     0.075 A 
ATOM     13  N   UNL     1      -7.213  -1.113   0.169  1.00  0.00    -0.316 N 
ATOM     14  C   UNL     1      -8.251  -1.768  -0.446  1.00  0.00     0.248 A 
ATOM     15  H   UNL     1      -6.693  -1.647   0.855  1.00  0.00     0.170 HD
ATOM     16  O   UNL     1      -8.532  -2.935  -0.206  1.00  0.00    -0.270 OA
BRANCH  10  17
ATOM     17  O   UNL     1      -7.317   2.225  -1.311  1.00  0.00    -0.494 OA
ATOM     18  C   UNL     1      -8.134   3.155  -0.598  1.00  0.00     0.278 C 
ENDBRANCH  10  17
ENDBRANCH   7   9
ENDBRANCH   1   7
BRANCH   4  19
ATOM     19  C   UNL     1      -0.390  -1.277  -0.121  1.00  0.00     0.251 C 
ATOM     20  N   UNL     1       0.668  -0.473   0.239  1.00  0.00    -0.347 N 
ATOM     21  O   UNL     1      -0.257  -2.397  -0.601  1.00  0.00    -0.269 OA
ATOM     22  H   UNL     1       0.497   0.410   0.703  1.00  0.00     0.164 HD
BRANCH  20  23
ATOM     23  C   UNL     1       2.045  -0.969   0.286  1.00  0.00     0.107 C 
ATOM     24  C   UNL     1       2.354  -1.538   1.685  1.00  0.00     0.043 C 
ATOM     25  C   UNL     1       3.054   0.138  -0.095  1.00  0.00     0.119 C 
ATOM     26  C   UNL     1       2.980  -0.506   2.634  1.00  0.00     0.089 C 
ATOM     27  C   UNL     1       3.059   1.264   0.983  1.00  0.00     0.114 C 
ATOM     28  N   UNL     1       2.526   0.839   2.296  1.00  0.00    -0.274 NA
BRANCH  25  29
ATOM     29  N   UNL     1       4.394  -0.424  -0.309  1.00  0.00    -0.346 N 
ATOM     30  C   UNL     1       5.388   0.310  -0.922  1.00  0.00     0.254 C 
ATOM     31  H   UNL     1       4.531  -1.415  -0.171  1.00  0.00     0.164 HD
ATOM     32  O   UNL     1       5.223   1.476  -1.267  1.00  0.00    -0.269 OA
BRANCH  30  33
ATOM     33  C   UNL     1       6.647  -0.387  -1.122  1.00  0.00     0.077 A 
ATOM     34  C   UNL     1       7.060  -1.694  -0.776  1.00  0.00     0.149 A 
ATOM     35  C   UNL     1       7.767   0.151  -1.730  1.00  0.00     0.122 A 
ATOM     36  N   UNL     1       8.323  -1.955  -1.126  1.00  0.00    -0.181 NA
ATOM     37  N   UNL     1       8.728  -0.814  -1.711  1.00  0.00    -0.275 N 
ATOM     38  C   UNL     1      10.067  -0.720  -2.243  1.00  0.00     0.173 C 
ENDBRANCH  30  33
ENDBRANCH  25  29
BRANCH  28  39
ATOM     39  C   UNL     1       2.902   1.802   3.324  1.00  0.00     0.303 C 
ATOM     40  F   UNL     1       2.396   3.014   2.976  1.00  0.00    -0.234 F 
ENDBRANCH  28  39
ENDBRANCH  20  23
ENDBRANCH   4  19
TORSDOF 8
