REMARK SMILES Oc1nc2ccccc2n1C1CCN(Cc2ccc(-c3nc4cc(F)ccc4nc3-c3ccc(OCCN4CCOCC4)cc3)cc2)CC1
REMARK SMILES IDX 20 1 21 2 22 3 23 4 24 5 25 6 26 7 27 8 28 9 29 10 30 11
REMARK SMILES IDX 19 12 16 13 17 14 47 15 18 16 46 17 15 18 14 19 11 20 12 21
REMARK SMILES IDX 49 22 13 23 48 24 10 25 2 26 3 27 4 28 9 29 5 30 8 31 6 32
REMARK SMILES IDX 7 33 1 34 31 36 32 37 45 38 33 39 44 40 34 41 35 42 36 43
REMARK SMILES IDX 37 44 38 45 39 46 43 47 40 48 42 49 41 50
REMARK H PARENT 1 35
ROOT
ATOM      1  C   UNL     1      -0.779  -2.925   0.142  1.00  0.00     0.097 A 
ATOM      2  N   UNL     1      -0.092  -4.096   0.052  1.00  0.00    -0.244 NA
ATOM      3  C   UNL     1      -0.807  -5.234   0.111  1.00  0.00     0.092 A 
ATOM      4  C   UNL     1      -0.151  -6.453   0.029  1.00  0.00     0.069 A 
ATOM      5  C   UNL     1      -0.866  -7.642   0.082  1.00  0.00     0.125 A 
ATOM      6  F   UNL     1      -0.216  -8.809   0.002  1.00  0.00    -0.207 F 
ATOM      7  C   UNL     1      -2.245  -7.637   0.218  1.00  0.00     0.041 A 
ATOM      8  C   UNL     1      -2.912  -6.415   0.302  1.00  0.00     0.033 A 
ATOM      9  C   UNL     1      -2.217  -5.213   0.251  1.00  0.00     0.090 A 
ATOM     10  N   UNL     1      -2.896  -4.056   0.336  1.00  0.00    -0.244 NA
ATOM     11  C   UNL     1      -2.172  -2.905   0.286  1.00  0.00     0.097 A 
ENDROOT
BRANCH   1  12
ATOM     12  C   UNL     1       0.050  -1.722   0.036  1.00  0.00     0.002 A 
ATOM     13  C   UNL     1       1.640   0.611  -0.186  1.00  0.00    -0.034 A 
ATOM     14  C   UNL     1       1.228  -0.086  -1.330  1.00  0.00     0.006 A 
ATOM     15  C   UNL     1       1.250   0.128   1.070  1.00  0.00     0.006 A 
ATOM     16  C   UNL     1       0.447  -1.240  -1.220  1.00  0.00     0.011 A 
ATOM     17  C   UNL     1       0.473  -1.029   1.179  1.00  0.00     0.011 A 
BRANCH  13  18
ATOM     18  C   UNL     1       2.486   1.861  -0.309  1.00  0.00     0.120 C 
BRANCH  18  19
ATOM     19  N   UNL     1       3.946   1.687  -0.244  1.00  0.00    -0.299 NA
ATOM     20  C   UNL     1       6.589   0.537   0.012  1.00  0.00     0.095 C 
ATOM     21  C   UNL     1       5.940   1.335   1.149  1.00  0.00     0.041 C 
ATOM     22  C   UNL     1       6.008   0.927  -1.351  1.00  0.00     0.041 C 
ATOM     23  C   UNL     1       4.417   1.242   1.070  1.00  0.00     0.087 C 
ATOM     24  C   UNL     1       4.480   0.858  -1.328  1.00  0.00     0.087 C 
BRANCH  20  25
ATOM     25  N   UNL     1       8.044   0.595   0.047  1.00  0.00    -0.291 N 
ATOM     26  C   UNL     1       8.863  -0.479   0.270  1.00  0.00     0.295 A 
ATOM     27  N   UNL     1      10.130  -0.173   0.279  1.00  0.00    -0.195 NA
ATOM     28  C   UNL     1      10.153   1.180   0.044  1.00  0.00     0.092 A 
ATOM     29  C   UNL     1       8.863   1.695  -0.106  1.00  0.00     0.072 A 
ATOM     30  C   UNL     1      11.258   2.040  -0.051  1.00  0.00     0.031 A 
ATOM     31  C   UNL     1       8.629   3.055  -0.350  1.00  0.00     0.029 A 
ATOM     32  C   UNL     1      11.040   3.400  -0.294  1.00  0.00     0.002 A 
ATOM     33  C   UNL     1       9.745   3.896  -0.441  1.00  0.00     0.002 A 
BRANCH  26  34
ATOM     34  O   UNL     1       8.446  -1.713   0.469  1.00  0.00    -0.480 OA
ATOM     35  H   UNL     1       9.292  -2.178   0.604  1.00  0.00     0.296 HD
ENDBRANCH  26  34
ENDBRANCH  20  25
ENDBRANCH  18  19
ENDBRANCH  13  18
ENDBRANCH   1  12
BRANCH  11  36
ATOM     36  C   UNL     1      -2.973  -1.681   0.372  1.00  0.00     0.003 A 
ATOM     37  C   UNL     1      -3.690  -1.216  -0.741  1.00  0.00     0.014 A 
ATOM     38  C   UNL     1      -3.064  -0.954   1.567  1.00  0.00     0.014 A 
ATOM     39  C   UNL     1      -4.463  -0.051  -0.670  1.00  0.00     0.047 A 
ATOM     40  C   UNL     1      -3.833   0.211   1.636  1.00  0.00     0.047 A 
ATOM     41  C   UNL     1      -4.538   0.669   0.521  1.00  0.00     0.119 A 
BRANCH  41  42
ATOM     42  O   UNL     1      -5.258   1.810   0.739  1.00  0.00    -0.492 OA
BRANCH  42  43
ATOM     43  C   UNL     1      -6.080   2.321  -0.316  1.00  0.00     0.245 C 
BRANCH  43  44
ATOM     44  C   UNL     1      -7.446   1.612  -0.337  1.00  0.00     0.126 C 
BRANCH  44  45
ATOM     45  N   UNL     1      -8.307   2.021  -1.462  1.00  0.00    -0.295 NA
ATOM     46  C   UNL     1      -9.466   1.107  -1.607  1.00  0.00     0.113 C 
ATOM     47  C   UNL     1      -8.832   3.398  -1.326  1.00  0.00     0.113 C 
ATOM     48  C   UNL     1     -10.550   1.294  -0.531  1.00  0.00     0.175 C 
ATOM     49  C   UNL     1      -9.932   3.554  -0.261  1.00  0.00     0.175 C 
ATOM     50  O   UNL     1     -11.017   2.648  -0.494  1.00  0.00    -0.379 OA
ENDBRANCH  44  45
ENDBRANCH  43  44
ENDBRANCH  42  43
ENDBRANCH  41  42
ENDBRANCH  11  36
TORSDOF 10
