MODEL        5USER    Run = 5USERUSER    Estimated Free Energy of Binding    = -10.02 kcal/mol  [=(1)+(2)+(3)-(4)]USERUSER    (1) Final Intermolecular Energy     = -12.40 kcal/molUSER        vdW + Hbond + desolv Energy     = -12.13 kcal/molUSER        Electrostatic Energy            =  -0.27 kcal/molUSER        Moving Ligand-Fixed Receptor    = -12.40 kcal/molUSER        Moving Ligand-Moving Receptor   =  +0.00 kcal/molUSER    (2) Final Total Internal Energy     =  -1.68 kcal/molUSER    (3) Torsional Free Energy           =  +2.39 kcal/molUSER    (4) Unbound System's Energy         =  -1.68 kcal/molUSERUSERREMARK SMILES COc1ccc(=O)[nH]c1C(=O)c1ccc(C(=O)N[C@@H]2CCN(CF)C[C@H]2NC(=O)c2cnn(C)c2)cc1REMARK SMILES IDX 12 1 13 2 14 3 15 4 36 5 37 6 10 7 11 8 9 9 3 10 4 11 5 12REMARK SMILES IDX 8 13 6 14 7 16 2 17 1 18 16 19 18 20 17 21 19 23 20 24 26 25REMARK SMILES IDX 21 26 25 27 22 28 27 29 28 30 29 32 30 33 31 34 35 35 32 36REMARK SMILES IDX 33 37 34 38 23 39 24 40REMARK H PARENT 8 15 18 22 27 31USER                              x       y       z     vdW  Elec       q    TypeUSER                           _______ _______ _______ _____ _____    ______ ____ROOTATOM      1  C   UNL     1      33.648  44.066  18.916 -0.38 -0.01    +0.024 A  ATOM      2  C   UNL     1      33.409  45.404  18.566 -0.40 -0.01    +0.013 A  ATOM      3  C   UNL     1      34.401  46.168  17.942 -0.47 -0.01    +0.014 A  ATOM      4  C   UNL     1      35.644  45.597  17.653 -0.33 -0.02    +0.039 A  ATOM      5  C   UNL     1      35.889  44.264  18.007 -0.31 -0.00    +0.014 A  ATOM      6  C   UNL     1      34.894  43.497  18.626 -0.35 -0.00    +0.013 A  ENDROOTBRANCH   1   7ATOM      7  C   UNL     1      32.547  43.311  19.583 -0.33 +0.00    +0.213 C  ATOM      8  O   UNL     1      32.143  43.644  20.693 -0.72 -0.04    -0.287 OA BRANCH   7   9ATOM      9  C   UNL     1      31.991  42.113  18.895 -0.23 -0.01    +0.132 A  ATOM     10  C   UNL     1      31.208  42.258  17.810 -0.19 -0.03    +0.146 A  ATOM     11  C   UNL     1      30.714  41.079  17.128 -0.30 -0.01    +0.054 A  ATOM     12  C   UNL     1      30.978  39.852  17.602 -0.32 -0.00    +0.075 A  ATOM     13  N   UNL     1      32.263  40.857  19.396 -0.17 -0.04    -0.316 N  ATOM     14  C   UNL     1      31.796  39.696  18.832 -0.23 +0.02    +0.248 A  ATOM     15  H   UNL     1      32.817  40.753  20.238 +0.12 +0.08    +0.170 HD ATOM     16  O   UNL     1      32.043  38.590  19.294 -0.56 -0.05    -0.270 OA BRANCH  10  17ATOM     17  O   UNL     1      30.936  43.461  17.205 -0.03 +0.12    -0.494 OA ATOM     18  C   UNL     1      31.447  43.494  15.871 -0.21 -0.13    +0.278 C  ENDBRANCH  10  17ENDBRANCH   7   9ENDBRANCH   1   7BRANCH   4  19ATOM     19  C   UNL     1      36.742  46.366  17.006 -0.19 -0.14    +0.251 C  ATOM     20  N   UNL     1      36.413  47.062  15.865 -0.16 +0.32    -0.347 N  ATOM     21  O   UNL     1      37.869  46.345  17.486 -0.27 +0.09    -0.269 OA ATOM     22  H   UNL     1      35.449  47.107  15.559 +0.11 -0.23    +0.164 HD BRANCH  20  23ATOM     23  C   UNL     1      37.330  48.020  15.243 -0.47 -0.08    +0.107 C  ATOM     24  C   UNL     1      36.595  48.824  14.153 -0.17 -0.03    +0.043 C  ATOM     25  C   UNL     1      38.574  47.310  14.662 -0.45 -0.04    +0.119 C  ATOM     26  C   UNL     1      36.724  48.205  12.753 -0.46 -0.03    +0.089 C  ATOM     27  C   UNL     1      38.170  46.397  13.465 -0.31 -0.03    +0.114 C  ATOM     28  N   UNL     1      36.874  46.756  12.848 -0.40 +0.11    -0.274 NA BRANCH  25  29ATOM     29  N   UNL     1      39.607  48.284  14.286 -0.23 +0.10    -0.346 N  ATOM     30  C   UNL     1      40.632  48.609  15.149 -0.45 -0.05    +0.254 C  ATOM     31  H   UNL     1      39.460  48.853  13.464 +0.02 -0.05    +0.164 HD ATOM     32  O   UNL     1      40.765  48.067  16.242 -0.43 +0.04    -0.269 OA BRANCH  30  33ATOM     33  C   UNL     1      41.551  49.629  14.673 -0.60 -0.01    +0.077 A  ATOM     34  C   UNL     1      42.117  50.754  15.315 -0.21 -0.02    +0.149 A  ATOM     35  C   UNL     1      42.075  49.694  13.394 -0.41 -0.02    +0.122 A  ATOM     36  N   UNL     1      42.918  51.466  14.516 -0.36 +0.03    -0.181 NA ATOM     37  N   UNL     1      42.878  50.793  13.353 -0.43 +0.09    -0.275 N  ATOM     38  C   UNL     1      43.651  51.265  12.228 -0.37 -0.09    +0.173 C  ENDBRANCH  30  33ENDBRANCH  25  29BRANCH  28  39ATOM     39  C   UNL     1      36.748  46.121  11.542 -0.33 -0.11    +0.303 C  ATOM     40  F   UNL     1      37.659  46.684  10.706 -0.15 +0.05    -0.234 F  ENDBRANCH  28  39ENDBRANCH  20  23ENDBRANCH   4  19TORSDOF 8TERENDMDL