REMARK SMILES COc1ccc(=O)[nH]c1C(=O)c1ccc(C(=O)N[C@@H]2CCCN(S(=O)(=O)C(F)(F)F)C[C@H]2NC(=O)c2cncc(Cl)c2)cc1
REMARK SMILES IDX 19 1 18 2 16 3 17 4 15 6 12 7 13 8 44 9 14 10 43 11 10 12
REMARK SMILES IDX 11 13 9 14 3 15 4 16 5 17 8 18 6 19 7 21 2 22 1 23 20 24
REMARK SMILES IDX 21 25 22 26 23 27 24 28 25 29 26 30 27 31 28 32 29 33 30 34
REMARK SMILES IDX 31 35 32 37 33 39 34 40 35 42 36 43 37 44 42 45 38 46 40 47
REMARK SMILES IDX 39 48 41 49
REMARK H PARENT 18 5 8 20 33 41
REMARK Flexibility Score:  100.900
ROOT
ATOM      1  C   UNL     1      -1.914   0.779  -0.808  1.00  0.00     0.106 C 
ENDROOT
BRANCH   1   2
ATOM      2  N   UNL     1      -0.490   1.137  -0.716  1.00  0.00    -0.347 N 
ATOM      3  C   UNL     1       0.465   0.354  -1.346  1.00  0.00     0.251 C 
ATOM      4  O   UNL     1       0.190  -0.540  -2.135  1.00  0.00    -0.269 OA
ATOM      5  H   UNL     1      -0.190   1.714   0.057  1.00  0.00     0.164 HD
BRANCH   3   6
ATOM      6  C   UNL     1       1.887   0.601  -0.985  1.00  0.00     0.039 A 
ATOM      7  C   UNL     1       4.598   0.931  -0.310  1.00  0.00     0.024 A 
ATOM      8  C   UNL     1       4.134  -0.306  -0.774  1.00  0.00     0.013 A 
ATOM      9  C   UNL     1       3.699   2.002  -0.197  1.00  0.00     0.013 A 
ATOM     10  C   UNL     1       2.787  -0.466  -1.109  1.00  0.00     0.014 A 
ATOM     11  C   UNL     1       2.350   1.844  -0.540  1.00  0.00     0.014 A 
BRANCH   7  12
ATOM     12  C   UNL     1       6.017   1.158   0.086  1.00  0.00     0.213 C 
ATOM     13  O   UNL     1       6.352   2.180   0.684  1.00  0.00    -0.287 OA
BRANCH  12  14
ATOM     14  C   UNL     1       7.023   0.118  -0.244  1.00  0.00     0.132 A 
ATOM     15  C   UNL     1       7.560   0.052  -1.475  1.00  0.00     0.146 A 
ATOM     16  C   UNL     1       8.499  -1.003  -1.783  1.00  0.00     0.054 A 
ATOM     17  C   UNL     1       8.872  -1.884  -0.843  1.00  0.00     0.075 A 
ATOM     18  N   UNL     1       7.407  -0.770   0.738  1.00  0.00    -0.316 N 
ATOM     19  C   UNL     1       8.306  -1.784   0.530  1.00  0.00     0.248 A 
ATOM     20  H   UNL     1       7.023  -0.688   1.673  1.00  0.00     0.170 HD
ATOM     21  O   UNL     1       8.623  -2.580   1.405  1.00  0.00    -0.270 OA
BRANCH  15  22
ATOM     22  O   UNL     1       7.212   0.856  -2.534  1.00  0.00    -0.494 OA
ATOM     23  C   UNL     1       7.981   2.061  -2.542  1.00  0.00     0.278 C 
ENDBRANCH  15  22
ENDBRANCH  12  14
ENDBRANCH   7  12
ENDBRANCH   3   6
ENDBRANCH   1   2
BRANCH   1  24
ATOM     24  C   UNL     1      -2.783   2.046  -0.936  1.00  0.00     0.028 C 
BRANCH  24  25
ATOM     25  C   UNL     1      -2.806   2.959   0.289  1.00  0.00     0.019 C 
BRANCH  25  26
ATOM     26  C   UNL     1      -3.868   2.591   1.322  1.00  0.00     0.102 C 
BRANCH  26  27
ATOM     27  N   UNL     1      -3.980   1.127   1.547  1.00  0.00    -0.192 NA
BRANCH  27  28
ATOM     28  S   UNL     1      -5.104   0.679   2.800  1.00  0.00     0.314 S 
ATOM     29  O   UNL     1      -4.619   1.336   4.003  1.00  0.00    -0.203 OA
ATOM     30  O   UNL     1      -5.194  -0.770   2.745  1.00  0.00    -0.203 OA
BRANCH  28  31
ATOM     31  C   UNL     1      -6.737   1.416   2.259  1.00  0.00     0.511 C 
ATOM     32  F   UNL     1      -6.996   1.150   0.944  1.00  0.00    -0.155 F 
ATOM     33  F   UNL     1      -7.787   0.934   2.978  1.00  0.00    -0.155 F 
ATOM     34  F   UNL     1      -6.750   2.774   2.390  1.00  0.00    -0.155 F 
ENDBRANCH  28  31
ENDBRANCH  27  28
BRANCH  27  35
ATOM     35  C   UNL     1      -2.655   0.423   1.661  1.00  0.00     0.129 CG0
ATOM     36  G   UNL     1      -2.308  -0.233   0.307  1.00  0.00     0.000 G0
ENDBRANCH  27  35
ENDBRANCH  26  27
ENDBRANCH  25  26
ENDBRANCH  24  25
ENDBRANCH   1  24
BRANCH   1  37
ATOM     37  C   UNL     1      -2.308  -0.233   0.307  1.00  0.00     0.120 CG0
ATOM     38  G   UNL     1      -2.655   0.423   1.661  1.00  0.00     0.000 G0
BRANCH  37  39
ATOM     39  N   UNL     1      -3.411  -1.109  -0.117  1.00  0.00    -0.346 N 
ATOM     40  C   UNL     1      -3.531  -2.360   0.467  1.00  0.00     0.253 C 
ATOM     41  H   UNL     1      -4.266  -0.625  -0.364  1.00  0.00     0.164 HD
ATOM     42  O   UNL     1      -2.654  -2.862   1.160  1.00  0.00    -0.269 OA
BRANCH  40  43
ATOM     43  C   UNL     1      -4.816  -3.069   0.282  1.00  0.00     0.059 A 
ATOM     44  C   UNL     1      -5.641  -2.852  -0.816  1.00  0.00     0.124 A 
ATOM     45  C   UNL     1      -5.226  -3.999   1.244  1.00  0.00     0.037 A 
ATOM     46  N   UNL     1      -6.840  -3.460  -0.993  1.00  0.00    -0.262 NA
ATOM     47  C   UNL     1      -6.449  -4.639   1.088  1.00  0.00     0.060 A 
ATOM     48  C   UNL     1      -7.216  -4.339  -0.030  1.00  0.00     0.131 A 
ATOM     49  Cl  UNL     1      -7.010  -5.752   2.266  1.00  0.00    -0.083 Cl
ENDBRANCH  40  43
ENDBRANCH  37  39
ENDBRANCH   1  37
TORSDOF 9
