REMARK SMILES Cc1cc(NC2=NC=C3C2=CN=C3C=C2C=CC(NC(=O)N3CCN(C4CC4)CC3)=C2)ccn1
REMARK SMILES IDX 14 1 13 2 5 3 6 4 7 5 10 6 8 7 9 8 11 9 12 10 4 12 2 13 3 14
REMARK SMILES IDX 34 15 33 16 32 17 1 18 15 19 16 20 31 21 17 22 18 23 19 24
REMARK SMILES IDX 20 25 22 26 23 27 30 28 24 29 29 30 25 31 21 33 26 34 27 35
REMARK SMILES IDX 28 36
REMARK H PARENT 5 11 19 32
ROOT
ATOM      1  C   UNL     1      -1.512   0.239  -2.699  1.00  0.00     0.037 C 
ENDROOT
BRANCH   1   2
ATOM      2  C   UNL     1      -2.951  -0.045  -2.662  1.00  0.00     0.073 C 
ATOM      3  N   UNL     1      -7.285  -0.382  -0.721  1.00  0.00    -0.340 N 
ATOM      4  C   UNL     1      -5.941  -0.112  -0.696  1.00  0.00     0.139 C 
ATOM      5  N   UNL     1      -5.189   0.287   0.318  1.00  0.00    -0.238 NA
ATOM      6  C   UNL     1      -5.078  -0.242  -1.889  1.00  0.00     0.046 C 
ATOM      7  C   UNL     1      -3.889   0.419  -0.169  1.00  0.00     0.124 C 
ATOM      8  C   UNL     1      -3.769   0.103  -1.454  1.00  0.00     0.031 C 
ATOM      9  C   UNL     1      -4.987  -0.529  -3.186  1.00  0.00     0.124 C 
ATOM     10  N   UNL     1      -3.692  -0.401  -3.691  1.00  0.00    -0.255 NA
ATOM     11  H   UNL     1      -7.665  -0.685  -1.607  1.00  0.00     0.168 HD
BRANCH   3  12
ATOM     12  C   UNL     1      -8.235  -0.282   0.311  1.00  0.00     0.043 A 
ATOM     13  C   UNL     1      -8.957   0.215   2.561  1.00  0.00     0.039 A 
ATOM     14  C   UNL     1      -7.944   0.157   1.603  1.00  0.00     0.049 A 
ATOM     15  N   UNL     1     -10.235  -0.140   2.298  1.00  0.00    -0.261 NA
ATOM     16  C   UNL     1     -10.505  -0.564   1.049  1.00  0.00     0.113 A 
ATOM     17  C   UNL     1      -9.557  -0.651   0.042  1.00  0.00     0.046 A 
ATOM     18  C   UNL     1      -8.646   0.688   3.950  1.00  0.00     0.067 C 
ENDBRANCH   3  12
ENDBRANCH   1   2
BRANCH   1  19
ATOM     19  C   UNL     1      -0.602  -0.175  -1.808  1.00  0.00    -0.021 C 
ATOM     20  C   UNL     1      -0.771  -1.029  -0.647  1.00  0.00     0.010 C 
ATOM     21  C   UNL     1       0.812   0.159  -1.899  1.00  0.00     0.034 C 
ATOM     22  C   UNL     1       0.441  -1.170  -0.084  1.00  0.00     0.027 C 
ATOM     23  C   UNL     1       1.423  -0.432  -0.861  1.00  0.00     0.043 C 
BRANCH  23  24
ATOM     24  N   UNL     1       2.740  -0.419  -0.500  1.00  0.00    -0.308 N 
ATOM     25  C   UNL     1       3.784   0.161  -1.189  1.00  0.00     0.321 C 
ATOM     26  N   UNL     1       5.015   0.081  -0.550  1.00  0.00    -0.322 N 
ATOM     27  C   UNL     1       6.199   0.579  -1.249  1.00  0.00     0.137 C 
ATOM     28  C   UNL     1       5.229  -0.343   0.837  1.00  0.00     0.137 C 
ATOM     29  C   UNL     1       7.471  -0.211  -0.888  1.00  0.00     0.106 C 
ATOM     30  C   UNL     1       6.603   0.073   1.395  1.00  0.00     0.106 C 
ATOM     31  N   UNL     1       7.707  -0.401   0.556  1.00  0.00    -0.297 NA
ATOM     32  H   UNL     1       2.984  -0.989   0.292  1.00  0.00     0.171 HD
ATOM     33  O   UNL     1       3.664   0.707  -2.284  1.00  0.00    -0.248 OA
BRANCH  31  34
ATOM     34  C   UNL     1       9.081  -0.087   0.972  1.00  0.00     0.057 C 
ATOM     35  C   UNL     1       9.538   1.337   1.145  1.00  0.00     0.021 C 
ATOM     36  C   UNL     1       9.443   0.430   2.337  1.00  0.00     0.021 C 
ENDBRANCH  31  34
ENDBRANCH  23  24
ENDBRANCH   1  19
TORSDOF 5
