MODEL        6USER    Run = 6USERUSER    Estimated Free Energy of Binding    = -11.12 kcal/mol  [=(1)+(2)+(3)-(4)]USERUSER    (1) Final Intermolecular Energy     = -12.61 kcal/molUSER        vdW + Hbond + desolv Energy     = -12.57 kcal/molUSER        Electrostatic Energy            =  -0.04 kcal/molUSER        Moving Ligand-Fixed Receptor    = -12.61 kcal/molUSER        Moving Ligand-Moving Receptor   =  +0.00 kcal/molUSER    (2) Final Total Internal Energy     =  -1.00 kcal/molUSER    (3) Torsional Free Energy           =  +1.49 kcal/molUSER    (4) Unbound System's Energy         =  -1.00 kcal/molUSERUSERREMARK SMILES Cc1cc(NC2=NC=C3C2=CN=C3C=C2C=CC(NC(=O)N3CCN(C4CC4)CC3)=C2)ccn1REMARK SMILES IDX 14 1 13 2 5 3 6 4 7 5 10 6 8 7 9 8 11 9 12 10 4 12 2 13 3 14REMARK SMILES IDX 34 15 33 16 32 17 1 18 15 19 16 20 31 21 17 22 18 23 19 24REMARK SMILES IDX 20 25 22 26 23 27 30 28 24 29 29 30 25 31 21 33 26 34 27 35REMARK SMILES IDX 28 36REMARK H PARENT 5 11 19 32USER                              x       y       z     vdW  Elec       q    TypeUSER                           _______ _______ _______ _____ _____    ______ ____ROOTATOM      1  C   UNL     1      42.412  45.858  22.211 -0.26 +0.01    +0.037 C  ENDROOTBRANCH   1   2ATOM      2  C   UNL     1      41.516  46.117  23.344 -0.18 +0.01    +0.073 C  ATOM      3  N   UNL     1      37.956  45.243  26.381 -0.10 +0.02    -0.340 N  ATOM      4  C   UNL     1      38.757  44.956  25.306 -0.17 +0.00    +0.139 C  ATOM      5  N   UNL     1      38.714  43.917  24.487 -0.10 -0.01    -0.238 NA ATOM      6  C   UNL     1      39.865  45.837  24.878 -0.17 +0.00    +0.046 C  ATOM      7  C   UNL     1      39.739  44.090  23.558 -0.18 +0.01    +0.124 C  ATOM      8  C   UNL     1      40.432  45.210  23.734 -0.18 +0.00    +0.031 C  ATOM      9  C   UNL     1      40.568  46.946  25.095 -0.16 +0.01    +0.124 C  ATOM     10  N   UNL     1      41.600  47.135  24.175 -0.09 -0.03    -0.255 NA ATOM     11  H   UNL     1      38.157  46.102  26.873 +0.07 -0.01    +0.168 HD BRANCH   3  12ATOM     12  C   UNL     1      36.891  44.502  26.923 -0.35 -0.01    +0.043 A  ATOM     13  C   UNL     1      35.474  42.557  27.120 -0.52 -0.01    +0.039 A  ATOM     14  C   UNL     1      36.555  43.208  26.525 -0.36 -0.01    +0.049 A  ATOM     15  N   UNL     1      34.717  43.127  28.085 -0.41 +0.07    -0.261 NA ATOM     16  C   UNL     1      35.048  44.376  28.461 -0.51 -0.03    +0.113 A  ATOM     17  C   UNL     1      36.105  45.090  27.920 -0.36 -0.01    +0.046 A  ATOM     18  C   UNL     1      35.112  41.165  26.694 -0.62 -0.03    +0.067 C  ENDBRANCH   3  12ENDBRANCH   1   2BRANCH   1  19ATOM     19  C   UNL     1      42.260  46.318  20.962 -0.39 -0.00    -0.021 C  ATOM     20  C   UNL     1      43.203  47.030  20.121 -0.47 +0.00    +0.010 C  ATOM     21  C   UNL     1      41.046  46.120  20.183 -0.38 +0.00    +0.034 C  ATOM     22  C   UNL     1      42.589  47.255  18.947 -0.59 +0.00    +0.027 C  ATOM     23  C   UNL     1      41.250  46.691  18.986 -0.49 +0.00    +0.043 C  BRANCH  23  24ATOM     24  N   UNL     1      40.417  46.781  17.908 -0.28 +0.04    -0.308 N  ATOM     25  C   UNL     1      40.521  47.658  16.849 -0.34 -0.06    +0.321 C  ATOM     26  N   UNL     1      39.570  47.479  15.853 -0.24 +0.09    -0.322 N  ATOM     27  C   UNL     1      39.538  48.425  14.738 -0.50 -0.05    +0.137 C  ATOM     28  C   UNL     1      38.661  46.334  15.739 -0.37 -0.04    +0.137 C  ATOM     29  C   UNL     1      38.115  48.642  14.191 -0.40 -0.06    +0.106 C  ATOM     30  C   UNL     1      38.039  46.189  14.337 -0.41 -0.04    +0.106 C  ATOM     31  N   UNL     1      37.354  47.410  13.907 -0.29 +0.14    -0.297 NA ATOM     32  H   UNL     1      39.580  46.225  17.952 +0.10 -0.03    +0.171 HD ATOM     33  O   UNL     1      41.374  48.541  16.771 -0.90 +0.01    -0.248 OA BRANCH  31  34ATOM     34  C   UNL     1      36.701  47.415  12.590 -0.70 -0.02    +0.057 C  ATOM     35  C   UNL     1      37.263  46.625  11.438 -0.60 -0.01    +0.021 C  ATOM     36  C   UNL     1      35.938  46.246  12.033 -0.68 -0.01    +0.021 C  ENDBRANCH  31  34ENDBRANCH  23  24ENDBRANCH   1  19TORSDOF 5TERENDMDL