REMARK SMILES Cc1cc(NC2=NC=C3C2=CN=C3C=C2C=CC(NC(=O)N3CCN(S(C)(=O)=O)CC3)=C2)ccn1
REMARK SMILES IDX 15 1 16 2 17 3 18 4 32 5 14 6 13 7 5 8 6 9 7 10 10 11 8 12
REMARK SMILES IDX 9 13 11 14 12 15 4 17 2 18 3 19 35 20 34 21 33 22 1 23 19 24
REMARK SMILES IDX 20 25 22 26 23 27 31 28 24 29 30 30 25 31 21 33 26 34 27 35
REMARK SMILES IDX 28 36 29 37
REMARK H PARENT 5 16 19 32
ROOT
ATOM      1  C   UNL     1       0.035   0.299   0.561  1.00  0.00    -0.021 C 
ATOM      2  C   UNL     1      -0.359   0.826   1.855  1.00  0.00     0.010 C 
ATOM      3  C   UNL     1      -1.697   0.923   1.849  1.00  0.00     0.027 C 
ATOM      4  C   UNL     1      -2.208   0.468   0.567  1.00  0.00     0.043 C 
ATOM      5  C   UNL     1      -1.180   0.095  -0.212  1.00  0.00     0.034 C 
ENDROOT
BRANCH   1   6
ATOM      6  C   UNL     1       1.260   0.023   0.095  1.00  0.00     0.037 C 
BRANCH   6   7
ATOM      7  C   UNL     1       2.511   0.208   0.851  1.00  0.00     0.073 C 
ATOM      8  N   UNL     1       7.254   0.023   1.251  1.00  0.00    -0.340 N 
ATOM      9  C   UNL     1       6.066  -0.139   0.587  1.00  0.00     0.139 C 
ATOM     10  N   UNL     1       5.850  -0.577  -0.642  1.00  0.00    -0.238 NA
ATOM     11  C   UNL     1       4.760   0.176   1.203  1.00  0.00     0.046 C 
ATOM     12  C   UNL     1       4.471  -0.555  -0.846  1.00  0.00     0.124 C 
ATOM     13  C   UNL     1       3.789  -0.119   0.208  1.00  0.00     0.031 C 
ATOM     14  C   UNL     1       4.090   0.610   2.268  1.00  0.00     0.124 C 
ATOM     15  N   UNL     1       2.707   0.639   2.077  1.00  0.00    -0.255 NA
ATOM     16  H   UNL     1       7.195   0.381   2.195  1.00  0.00     0.168 HD
BRANCH   8  17
ATOM     17  C   UNL     1       8.567  -0.195   0.797  1.00  0.00     0.043 A 
ATOM     18  C   UNL     1      10.223  -0.838  -0.838  1.00  0.00     0.039 A 
ATOM     19  C   UNL     1       8.889  -0.637  -0.486  1.00  0.00     0.049 A 
ATOM     20  N   UNL     1      11.247  -0.613   0.016  1.00  0.00    -0.261 NA
ATOM     21  C   UNL     1      10.927  -0.191   1.254  1.00  0.00     0.113 A 
ATOM     22  C   UNL     1       9.628   0.026   1.683  1.00  0.00     0.046 A 
ATOM     23  C   UNL     1      10.572  -1.292  -2.224  1.00  0.00     0.067 C 
ENDBRANCH   8  17
ENDBRANCH   6   7
ENDBRANCH   1   6
BRANCH   4  24
ATOM     24  N   UNL     1      -3.547   0.469   0.301  1.00  0.00    -0.308 N 
ATOM     25  C   UNL     1      -4.167  -0.015  -0.831  1.00  0.00     0.321 C 
ATOM     26  N   UNL     1      -5.543   0.187  -0.875  1.00  0.00    -0.322 N 
ATOM     27  C   UNL     1      -6.308   1.053   0.030  1.00  0.00     0.138 C 
ATOM     28  C   UNL     1      -6.291  -0.399  -1.993  1.00  0.00     0.138 C 
ATOM     29  C   UNL     1      -7.655   1.512  -0.547  1.00  0.00     0.124 C 
ATOM     30  C   UNL     1      -7.716  -0.787  -1.584  1.00  0.00     0.124 C 
ATOM     31  N   UNL     1      -8.468   0.375  -1.042  1.00  0.00    -0.199 NA
ATOM     32  H   UNL     1      -4.141   0.753   1.062  1.00  0.00     0.171 HD
ATOM     33  O   UNL     1      -3.579  -0.596  -1.740  1.00  0.00    -0.248 OA
BRANCH  31  34
ATOM     34  S   UNL     1      -9.986   0.097  -0.377  1.00  0.00     0.211 S 
ATOM     35  C   UNL     1      -9.585  -0.569   1.228  1.00  0.00     0.176 C 
ATOM     36  O   UNL     1     -10.622   1.380  -0.172  1.00  0.00    -0.213 OA
ATOM     37  O   UNL     1     -10.624  -0.949  -1.145  1.00  0.00    -0.213 OA
ENDBRANCH  31  34
ENDBRANCH   4  24
TORSDOF 5
