MODEL        8USER    Run = 8USERUSER    Estimated Free Energy of Binding    = -10.85 kcal/mol  [=(1)+(2)+(3)-(4)]USERUSER    (1) Final Intermolecular Energy     = -12.34 kcal/molUSER        vdW + Hbond + desolv Energy     = -12.32 kcal/molUSER        Electrostatic Energy            =  -0.02 kcal/molUSER        Moving Ligand-Fixed Receptor    = -12.34 kcal/molUSER        Moving Ligand-Moving Receptor   =  +0.00 kcal/molUSER    (2) Final Total Internal Energy     =  -0.96 kcal/molUSER    (3) Torsional Free Energy           =  +1.49 kcal/molUSER    (4) Unbound System's Energy         =  -0.96 kcal/molUSERUSERREMARK SMILES COC(=O)N1CCN(C(=O)NC2=CC(=CC3=NC=C4C3=CN=C4Nc3ccnc(C)c3)C=C2)CC1REMARK SMILES IDX 12 1 13 2 14 3 32 4 33 5 11 6 3 7 5 8 6 9 35 10 7 11 34 12REMARK SMILES IDX 8 13 9 14 4 15 10 16 2 18 1 19 15 20 16 21 17 22 20 23 18 24REMARK SMILES IDX 19 25 21 26 23 27 22 28 24 29 25 31 26 32 31 33 27 34 29 35REMARK SMILES IDX 28 36 30 37REMARK H PARENT 11 17 24 30USER                              x       y       z     vdW  Elec       q    TypeUSER                           _______ _______ _______ _____ _____    ______ ____ROOTATOM      1  C   UNL     1      37.766  43.395  23.231 -0.37 +0.00    +0.043 C  ATOM      2  C   UNL     1      37.900  44.016  24.416 -0.32 +0.00    +0.034 C  ATOM      3  C   UNL     1      37.286  43.166  25.419 -0.38 +0.00    -0.021 C  ATOM      4  C   UNL     1      36.783  41.986  24.732 -0.45 -0.00    +0.010 C  ATOM      5  C   UNL     1      37.074  42.135  23.429 -0.50 +0.00    +0.027 C  ENDROOTBRANCH   1   6ATOM      6  N   UNL     1      38.232  43.895  22.049 -0.15 -0.01    -0.308 N  ATOM      7  C   UNL     1      40.751  47.584  17.534 -0.24 -0.05    +0.409 C  ATOM      8  N   UNL     1      40.419  46.516  18.342 -0.27 +0.02    -0.305 N  ATOM      9  C   UNL     1      41.405  46.028  19.305 -0.42 +0.01    +0.144 C  ATOM     10  C   UNL     1      39.152  45.793  18.254 -0.38 -0.02    +0.144 C  ATOM     11  C   UNL     1      41.083  44.624  19.831 -0.34 +0.01    +0.143 C  ATOM     12  C   UNL     1      38.684  45.262  19.617 -0.31 -0.01    +0.143 C  ATOM     13  N   UNL     1      39.719  44.539  20.368 -0.15 -0.00    -0.321 N  ATOM     14  C   UNL     1      39.526  43.874  21.578 -0.09 +0.01    +0.321 C  ATOM     15  O   UNL     1      41.816  48.183  17.601 -0.74 +0.00    -0.224 OA ATOM     16  O   UNL     1      40.459  43.326  22.161 -0.21 -0.01    -0.248 OA ATOM     17  H   UNL     1      37.525  44.265  21.443 +0.10 +0.01    +0.171 HD BRANCH   7  18ATOM     18  O   UNL     1      39.763  47.893  16.655 -0.20 +0.14    -0.453 OA ATOM     19  C   UNL     1      40.140  48.846  15.662 -0.42 -0.09    +0.284 C  ENDBRANCH   7  18ENDBRANCH   1   6BRANCH   3  20ATOM     20  C   UNL     1      37.167  43.362  26.739 -0.37 -0.00    +0.037 C  BRANCH  20  21ATOM     21  C   UNL     1      36.793  44.642  27.363 -0.41 -0.01    +0.073 C  ATOM     22  N   UNL     1      37.433  45.791  27.397 -0.20 +0.04    -0.255 NA ATOM     23  C   UNL     1      35.507  44.746  28.063 -0.48 -0.01    +0.031 C  ATOM     24  C   UNL     1      36.603  46.660  28.105 -0.29 -0.03    +0.124 C  ATOM     25  C   UNL     1      35.470  46.092  28.513 -0.26 -0.01    +0.046 C  ATOM     26  C   UNL     1      34.371  44.191  28.475 -0.61 -0.03    +0.124 C  ATOM     27  C   UNL     1      34.181  46.235  29.223 -0.37 -0.03    +0.139 C  ATOM     28  N   UNL     1      33.551  45.070  29.180 -0.69 +0.02    -0.238 NA ATOM     29  N   UNL     1      33.781  47.413  29.801 -0.23 +0.04    -0.340 N  ATOM     30  H   UNL     1      34.409  48.198  29.699 +0.07 -0.01    +0.168 HD BRANCH  29  31ATOM     31  C   UNL     1      32.583  47.714  30.475 -0.35 -0.00    +0.043 A  ATOM     32  C   UNL     1      32.481  48.629  31.519 -0.24 -0.00    +0.046 A  ATOM     33  C   UNL     1      31.406  47.060  30.076 -0.37 +0.00    +0.049 A  ATOM     34  C   UNL     1      31.247  48.843  32.111 -0.24 -0.00    +0.113 A  ATOM     35  C   UNL     1      30.201  47.334  30.723 -0.56 +0.00    +0.039 A  ATOM     36  N   UNL     1      30.110  48.216  31.740 -0.25 +0.01    -0.261 NA ATOM     37  C   UNL     1      28.945  46.622  30.310 -0.65 +0.00    +0.067 C  ENDBRANCH  29  31ENDBRANCH  20  21ENDBRANCH   3  20TORSDOF 5TERENDMDL