REMARK SMILES COC(=O)N1CCN(C(=O)NC2=CC(=CC3=NC=C4C3=CN=C4Nc3ccnc(C)c3)C=C2)CC1
REMARK SMILES IDX 12 1 13 2 14 3 32 4 33 5 11 6 3 7 5 8 6 9 35 10 7 11 34 12
REMARK SMILES IDX 8 13 9 14 4 15 10 16 2 18 1 19 15 20 16 21 17 22 20 23 18 24
REMARK SMILES IDX 19 25 21 26 23 27 22 28 24 29 25 31 26 32 31 33 27 34 29 35
REMARK SMILES IDX 28 36 30 37
REMARK H PARENT 11 17 24 30
ROOT
ATOM      1  C   UNL     1       2.102  -1.375   1.776  1.00  0.00     0.043 C 
ATOM      2  C   UNL     1       0.850  -1.098   1.372  1.00  0.00     0.034 C 
ATOM      3  C   UNL     1      -0.035  -1.391   2.485  1.00  0.00    -0.021 C 
ATOM      4  C   UNL     1       0.797  -1.857   3.584  1.00  0.00     0.010 C 
ATOM      5  C   UNL     1       2.068  -1.844   3.148  1.00  0.00     0.027 C 
ENDROOT
BRANCH   1   6
ATOM      6  N   UNL     1       3.210  -1.214   0.994  1.00  0.00    -0.308 N 
ATOM      7  C   UNL     1       8.499   0.991  -1.744  1.00  0.00     0.409 C 
ATOM      8  N   UNL     1       7.548   0.183  -1.157  1.00  0.00    -0.305 N 
ATOM      9  C   UNL     1       7.753  -0.259   0.222  1.00  0.00     0.144 C 
ATOM     10  C   UNL     1       6.363  -0.316  -1.852  1.00  0.00     0.144 C 
ATOM     11  C   UNL     1       6.867  -1.450   0.606  1.00  0.00     0.143 C 
ATOM     12  C   UNL     1       5.155  -0.470  -0.916  1.00  0.00     0.143 C 
ATOM     13  N   UNL     1       5.448  -1.190   0.330  1.00  0.00    -0.321 N 
ATOM     14  C   UNL     1       4.510  -1.551   1.296  1.00  0.00     0.321 C 
ATOM     15  O   UNL     1       9.496   1.401  -1.165  1.00  0.00    -0.224 OA
ATOM     16  O   UNL     1       4.848  -2.119   2.332  1.00  0.00    -0.248 OA
ATOM     17  H   UNL     1       3.025  -0.860   0.074  1.00  0.00     0.171 HD
BRANCH   7  18
ATOM     18  O   UNL     1       8.205   1.278  -3.039  1.00  0.00    -0.453 OA
ATOM     19  C   UNL     1       9.160   2.120  -3.683  1.00  0.00     0.284 C 
ENDBRANCH   7  18
ENDBRANCH   1   6
BRANCH   3  20
ATOM     20  C   UNL     1      -1.368  -1.279   2.560  1.00  0.00     0.037 C 
BRANCH  20  21
ATOM     21  C   UNL     1      -2.233  -0.831   1.456  1.00  0.00     0.073 C 
ATOM     22  N   UNL     1      -1.946  -0.589   0.195  1.00  0.00    -0.255 NA
ATOM     23  C   UNL     1      -3.662  -0.615   1.712  1.00  0.00     0.031 C 
ATOM     24  C   UNL     1      -3.152  -0.216  -0.397  1.00  0.00     0.124 C 
ATOM     25  C   UNL     1      -4.179  -0.216   0.451  1.00  0.00     0.046 C 
ATOM     26  C   UNL     1      -4.696  -0.613   2.548  1.00  0.00     0.124 C 
ATOM     27  C   UNL     1      -5.624   0.008   0.670  1.00  0.00     0.139 C 
ATOM     28  N   UNL     1      -5.894  -0.239   1.943  1.00  0.00    -0.238 NA
ATOM     29  N   UNL     1      -6.472   0.404  -0.333  1.00  0.00    -0.340 N 
ATOM     30  H   UNL     1      -6.061   0.517  -1.249  1.00  0.00     0.168 HD
BRANCH  29  31
ATOM     31  C   UNL     1      -7.861   0.624  -0.291  1.00  0.00     0.043 A 
ATOM     32  C   UNL     1      -8.636   0.515   0.860  1.00  0.00     0.046 A 
ATOM     33  C   UNL     1      -8.520   0.982  -1.478  1.00  0.00     0.049 A 
ATOM     34  C   UNL     1      -9.999   0.752   0.781  1.00  0.00     0.113 A 
ATOM     35  C   UNL     1      -9.896   1.207  -1.473  1.00  0.00     0.039 A 
ATOM     36  N   UNL     1     -10.644   1.091  -0.356  1.00  0.00    -0.261 NA
ATOM     37  C   UNL     1     -10.606   1.572  -2.745  1.00  0.00     0.067 C 
ENDBRANCH  29  31
ENDBRANCH  20  21
ENDBRANCH   3  20
TORSDOF 5
