REMARK SMILES Cc1cc(NC2=NC=C3C2=CN=C3C=C2C=CC(NC(=O)N3CCN(C(F)F)CC3)=C2)ccn1
REMARK SMILES IDX 15 1 16 2 17 3 18 4 31 5 14 6 13 7 5 8 6 9 7 10 10 11 8 12
REMARK SMILES IDX 9 13 11 14 12 15 4 17 2 18 3 19 34 20 33 21 32 22 1 23 19 24
REMARK SMILES IDX 20 25 22 26 23 27 30 28 24 29 29 30 25 31 21 33 26 34 27 35
REMARK SMILES IDX 28 36
REMARK H PARENT 5 16 19 32
ROOT
ATOM      1  C   UNL     1       0.327   1.426   0.896  1.00  0.00    -0.021 C 
ATOM      2  C   UNL     1       0.193   0.685  -0.343  1.00  0.00     0.010 C 
ATOM      3  C   UNL     1       1.409   0.198  -0.643  1.00  0.00     0.027 C 
ATOM      4  C   UNL     1       2.361   0.611   0.370  1.00  0.00     0.043 C 
ATOM      5  C   UNL     1       1.728   1.363   1.287  1.00  0.00     0.034 C 
ENDROOT
BRANCH   1   6
ATOM      6  C   UNL     1      -0.598   2.099   1.591  1.00  0.00     0.037 C 
BRANCH   6   7
ATOM      7  C   UNL     1      -2.029   2.196   1.281  1.00  0.00     0.073 C 
ATOM      8  N   UNL     1      -6.371   0.639   0.109  1.00  0.00    -0.340 N 
ATOM      9  C   UNL     1      -5.031   0.484   0.355  1.00  0.00     0.139 C 
ATOM     10  N   UNL     1      -4.296  -0.614   0.303  1.00  0.00    -0.238 NA
ATOM     11  C   UNL     1      -4.156   1.609   0.746  1.00  0.00     0.046 C 
ATOM     12  C   UNL     1      -2.994  -0.248   0.641  1.00  0.00     0.124 C 
ATOM     13  C   UNL     1      -2.857   1.050   0.895  1.00  0.00     0.031 C 
ATOM     14  C   UNL     1      -4.051   2.906   1.031  1.00  0.00     0.124 C 
ATOM     15  N   UNL     1      -2.755   3.292   1.380  1.00  0.00    -0.255 NA
ATOM     16  H   UNL     1      -6.737   1.578   0.189  1.00  0.00     0.168 HD
BRANCH   8  17
ATOM     17  C   UNL     1      -7.328  -0.326  -0.255  1.00  0.00     0.043 A 
ATOM     18  C   UNL     1      -9.623  -0.845  -0.827  1.00  0.00     0.039 A 
ATOM     19  C   UNL     1      -8.651   0.087  -0.467  1.00  0.00     0.049 A 
ATOM     20  N   UNL     1      -9.349  -2.157  -0.982  1.00  0.00    -0.261 NA
ATOM     21  C   UNL     1      -8.073  -2.543  -0.774  1.00  0.00     0.113 A 
ATOM     22  C   UNL     1      -7.049  -1.681  -0.416  1.00  0.00     0.046 A 
ATOM     23  C   UNL     1     -11.039  -0.405  -1.056  1.00  0.00     0.067 C 
ENDBRANCH   8  17
ENDBRANCH   6   7
ENDBRANCH   1   6
BRANCH   4  24
ATOM     24  N   UNL     1       3.696   0.327   0.398  1.00  0.00    -0.308 N 
ATOM     25  C   UNL     1       4.396  -0.511  -0.442  1.00  0.00     0.321 C 
ATOM     26  N   UNL     1       5.770  -0.527  -0.226  1.00  0.00    -0.322 N 
ATOM     27  C   UNL     1       6.585  -1.478  -0.985  1.00  0.00     0.137 C 
ATOM     28  C   UNL     1       6.513   0.418   0.613  1.00  0.00     0.137 C 
ATOM     29  C   UNL     1       7.811  -1.950  -0.181  1.00  0.00     0.111 C 
ATOM     30  C   UNL     1       8.017   0.449   0.282  1.00  0.00     0.111 C 
ATOM     31  N   UNL     1       8.649  -0.874   0.392  1.00  0.00    -0.244 NA
ATOM     32  H   UNL     1       4.198   0.671   1.200  1.00  0.00     0.171 HD
ATOM     33  O   UNL     1       3.879  -1.208  -1.312  1.00  0.00    -0.248 OA
BRANCH  31  34
ATOM     34  C   UNL     1       9.959  -0.853  -0.232  1.00  0.00     0.417 C 
ATOM     35  F   UNL     1      10.562  -2.053  -0.057  1.00  0.00    -0.192 F 
ATOM     36  F   UNL     1       9.831  -0.667  -1.568  1.00  0.00    -0.192 F 
ENDBRANCH  31  34
ENDBRANCH   4  24
TORSDOF 5
