REMARK SMILES COCCNC(=O)NC1=CC(=CC2=NC=C3C2=CN=C3Nc2ccnc(C)c2)C=C1
REMARK SMILES IDX 9 1 10 2 11 3 29 4 30 5 8 6 5 7 6 8 7 10 4 12 3 13 2 14 1 15
REMARK SMILES IDX 12 16 13 17 14 18 17 19 15 20 16 21 18 22 20 23 19 24 21 25
REMARK SMILES IDX 22 27 23 28 28 29 24 30 26 31 25 32 27 33
REMARK H PARENT 5 9 8 11 21 26
ROOT
ATOM      1  C   UNL     1       3.491   0.464   0.736  1.00  0.00     0.043 C 
ATOM      2  C   UNL     1       2.364  -0.007   1.296  1.00  0.00     0.034 C 
ATOM      3  C   UNL     1       1.286   0.222   0.345  1.00  0.00    -0.021 C 
ATOM      4  C   UNL     1       1.869   0.861  -0.819  1.00  0.00     0.010 C 
ATOM      5  C   UNL     1       3.183   1.001  -0.575  1.00  0.00     0.027 C 
ENDROOT
BRANCH   1   6
ATOM      6  N   UNL     1       4.722   0.415   1.320  1.00  0.00    -0.308 N 
ATOM      7  N   UNL     1       6.952   0.621   1.680  1.00  0.00    -0.336 N 
ATOM      8  C   UNL     1       5.898   0.958   0.853  1.00  0.00     0.319 C 
ATOM      9  H   UNL     1       6.898  -0.308   2.074  1.00  0.00     0.165 HD
ATOM     10  O   UNL     1       6.035   1.659  -0.141  1.00  0.00    -0.249 OA
ATOM     11  H   UNL     1       4.770   0.032   2.253  1.00  0.00     0.171 HD
BRANCH   7  12
ATOM     12  C   UNL     1       8.306   1.018   1.321  1.00  0.00     0.146 C 
BRANCH  12  13
ATOM     13  C   UNL     1       8.890   0.121   0.227  1.00  0.00     0.181 C 
BRANCH  13  14
ATOM     14  O   UNL     1       8.968  -1.220   0.731  1.00  0.00    -0.383 OA
ATOM     15  C   UNL     1       9.481  -2.110  -0.255  1.00  0.00     0.194 C 
ENDBRANCH  13  14
ENDBRANCH  12  13
ENDBRANCH   7  12
ENDBRANCH   1   6
BRANCH   3  16
ATOM     16  C   UNL     1       0.011  -0.119   0.575  1.00  0.00     0.037 C 
BRANCH  16  17
ATOM     17  C   UNL     1      -1.099   0.091  -0.371  1.00  0.00     0.073 C 
ATOM     18  N   UNL     1      -1.082   0.444  -1.637  1.00  0.00    -0.255 NA
ATOM     19  C   UNL     1      -2.475  -0.135   0.084  1.00  0.00     0.031 C 
ATOM     20  C   UNL     1      -2.420   0.466  -2.037  1.00  0.00     0.124 C 
ATOM     21  C   UNL     1      -3.267   0.132  -1.065  1.00  0.00     0.046 C 
ATOM     22  C   UNL     1      -3.330  -0.462   1.047  1.00  0.00     0.124 C 
ATOM     23  C   UNL     1      -4.665  -0.086  -0.640  1.00  0.00     0.139 C 
ATOM     24  N   UNL     1      -4.661  -0.442   0.635  1.00  0.00    -0.238 NA
ATOM     25  N   UNL     1      -5.731   0.072  -1.488  1.00  0.00    -0.340 N 
ATOM     26  H   UNL     1      -5.511   0.339  -2.439  1.00  0.00     0.168 HD
BRANCH  25  27
ATOM     27  C   UNL     1      -7.105  -0.091  -1.235  1.00  0.00     0.043 A 
ATOM     28  C   UNL     1      -8.007   0.105  -2.287  1.00  0.00     0.046 A 
ATOM     29  C   UNL     1      -7.637  -0.441   0.006  1.00  0.00     0.049 A 
ATOM     30  C   UNL     1      -9.364  -0.054  -2.055  1.00  0.00     0.113 A 
ATOM     31  C   UNL     1      -9.016  -0.580   0.156  1.00  0.00     0.039 A 
ATOM     32  N   UNL     1      -9.886  -0.390  -0.861  1.00  0.00    -0.261 NA
ATOM     33  C   UNL     1      -9.589  -0.957   1.490  1.00  0.00     0.067 C 
ENDBRANCH  25  27
ENDBRANCH  16  17
ENDBRANCH   3  16
TORSDOF 7
