MODEL        6USER    Run = 6USERUSER    Estimated Free Energy of Binding    = -11.68 kcal/mol  [=(1)+(2)+(3)-(4)]USERUSER    (1) Final Intermolecular Energy     = -13.17 kcal/molUSER        vdW + Hbond + desolv Energy     = -12.97 kcal/molUSER        Electrostatic Energy            =  -0.20 kcal/molUSER        Moving Ligand-Fixed Receptor    = -13.17 kcal/molUSER        Moving Ligand-Moving Receptor   =  +0.00 kcal/molUSER    (2) Final Total Internal Energy     =  -1.15 kcal/molUSER    (3) Torsional Free Energy           =  +1.49 kcal/molUSER    (4) Unbound System's Energy         =  -1.15 kcal/molUSERUSERREMARK SMILES Cc1cc(NC2=NC=C3C2=CN=C3C=C2C=CC(NC(=O)N3CCN(S(C)(=O)=O)CC3)=C2)ccn1REMARK SMILES IDX 15 1 16 2 17 3 18 4 32 5 14 6 13 7 5 8 6 9 7 10 10 11 8 12REMARK SMILES IDX 9 13 11 14 12 15 4 17 2 18 3 19 35 20 34 21 33 22 1 23 19 24REMARK SMILES IDX 20 25 22 26 23 27 31 28 24 29 30 30 25 31 21 33 26 34 27 35REMARK SMILES IDX 28 36 29 37REMARK H PARENT 5 16 19 32USER                              x       y       z     vdW  Elec       q    TypeUSER                           _______ _______ _______ _____ _____    ______ ____ROOTATOM      1  C   UNL     1      39.317  43.715  21.681 -0.27 -0.00    -0.021 C  ATOM      2  C   UNL     1      40.645  44.189  21.334 -0.35 +0.00    +0.010 C  ATOM      3  C   UNL     1      40.538  44.837  20.164 -0.42 +0.00    +0.027 C  ATOM      4  C   UNL     1      39.155  44.805  19.720 -0.41 -0.00    +0.043 C  ATOM      5  C   UNL     1      38.417  44.134  20.619 -0.36 -0.00    +0.034 C  ENDROOTBRANCH   1   6ATOM      6  C   UNL     1      38.918  43.024  22.756 -0.32 +0.00    +0.037 C  BRANCH   6   7ATOM      7  C   UNL     1      38.140  43.581  23.876 -0.30 +0.00    +0.073 C  ATOM      8  N   UNL     1      36.571  47.229  26.507 -0.12 +0.06    -0.340 N  ATOM      9  C   UNL     1      37.284  46.667  25.481 -0.24 +0.01    +0.139 C  ATOM     10  N   UNL     1      38.044  47.255  24.573 -0.54 -0.04    -0.238 NA ATOM     11  C   UNL     1      37.307  45.210  25.231 -0.35 +0.00    +0.046 C  ATOM     12  C   UNL     1      38.550  46.249  23.750 -0.28 +0.02    +0.124 C  ATOM     13  C   UNL     1      38.144  45.032  24.096 -0.32 +0.00    +0.031 C  ATOM     14  C   UNL     1      36.897  43.997  25.592 -0.32 -0.00    +0.124 C  ATOM     15  N   UNL     1      37.394  42.979  24.775 -0.19 -0.01    -0.255 NA ATOM     16  H   UNL     1      36.045  46.591  27.090 -0.42 -0.07    +0.168 HD BRANCH   8  17ATOM     17  C   UNL     1      36.419  48.584  26.852 -0.37 -0.00    +0.043 A  ATOM     18  C   UNL     1      36.077  50.924  26.369 -0.33 +0.00    +0.039 A  ATOM     19  C   UNL     1      36.199  49.607  25.930 -0.44 -0.00    +0.049 A  ATOM     20  N   UNL     1      36.153  51.271  27.674 -0.12 -0.05    -0.261 NA ATOM     21  C   UNL     1      36.370  50.278  28.557 -0.17 +0.01    +0.113 A  ATOM     22  C   UNL     1      36.509  48.946  28.201 -0.27 -0.00    +0.046 A  ATOM     23  C   UNL     1      35.818  52.022  25.381 -0.42 +0.01    +0.067 C  ENDBRANCH   8  17ENDBRANCH   6   7ENDBRANCH   1   6BRANCH   4  24ATOM     24  N   UNL     1      38.777  45.394  18.548 -0.21 +0.04    -0.308 N  ATOM     25  C   UNL     1      39.504  46.296  17.802 -0.28 -0.05    +0.321 C  ATOM     26  N   UNL     1      38.842  46.800  16.686 -0.21 +0.11    -0.322 N  ATOM     27  C   UNL     1      37.412  46.642  16.399 -0.34 -0.07    +0.138 C  ATOM     28  C   UNL     1      39.590  47.678  15.779 -0.48 -0.04    +0.138 C  ATOM     29  C   UNL     1      36.853  47.707  15.444 -0.37 -0.11    +0.124 C  ATOM     30  C   UNL     1      39.110  47.541  14.330 -0.43 -0.03    +0.124 C  ATOM     31  N   UNL     1      37.656  47.822  14.203 -0.39 +0.10    -0.199 NA ATOM     32  H   UNL     1      37.927  45.043  18.139 +0.11 -0.03    +0.171 HD ATOM     33  O   UNL     1      40.654  46.637  18.068 -0.37 +0.02    -0.248 OA BRANCH  31  34ATOM     34  S   UNL     1      36.921  47.545  12.718 -0.69 -0.07    +0.211 S  ATOM     35  C   UNL     1      35.764  46.242  13.100 -0.46 -0.10    +0.176 C  ATOM     36  O   UNL     1      36.156  48.723  12.375 -0.72 +0.09    -0.213 OA ATOM     37  O   UNL     1      37.919  47.004  11.822 -0.81 +0.02    -0.213 OA ENDBRANCH  31  34ENDBRANCH   4  24TORSDOF 5TERENDMDL