MODEL        7USER    Run = 7USERUSER    Estimated Free Energy of Binding    = -11.11 kcal/mol  [=(1)+(2)+(3)-(4)]USERUSER    (1) Final Intermolecular Energy     = -13.19 kcal/molUSER        vdW + Hbond + desolv Energy     = -13.19 kcal/molUSER        Electrostatic Energy            =  -0.01 kcal/molUSER        Moving Ligand-Fixed Receptor    = -13.19 kcal/molUSER        Moving Ligand-Moving Receptor   =  +0.00 kcal/molUSER    (2) Final Total Internal Energy     =  -1.87 kcal/molUSER    (3) Torsional Free Energy           =  +2.09 kcal/molUSER    (4) Unbound System's Energy         =  -1.87 kcal/molUSERUSERREMARK SMILES COCCNC(=O)NC1=CC(=CC2=NC=C3C2=CN=C3Nc2ccnc(C)c2)C=C1REMARK SMILES IDX 9 1 10 2 11 3 29 4 30 5 8 6 5 7 6 8 7 10 4 12 3 13 2 14 1 15REMARK SMILES IDX 12 16 13 17 14 18 17 19 15 20 16 21 18 22 20 23 19 24 21 25REMARK SMILES IDX 22 27 23 28 28 29 24 30 26 31 25 32 27 33REMARK H PARENT 5 9 8 11 21 26USER                              x       y       z     vdW  Elec       q    TypeUSER                           _______ _______ _______ _____ _____    ______ ____ROOTATOM      1  C   UNL     1      41.977  50.036  14.505 -0.72 -0.01    +0.043 C  ATOM      2  C   UNL     1      41.513  48.883  13.995 -0.20 -0.00    +0.034 C  ATOM      3  C   UNL     1      40.380  48.478  14.815 -0.62 +0.00    -0.021 C  ATOM      4  C   UNL     1      40.213  49.486  15.844 -0.59 -0.00    +0.010 C  ATOM      5  C   UNL     1      41.170  50.409  15.650 -0.65 -0.01    +0.027 C  ENDROOTBRANCH   1   6ATOM      6  N   UNL     1      43.029  50.737  13.995 -0.31 +0.08    -0.308 N  ATOM      7  N   UNL     1      44.429  51.789  12.554 -0.17 +0.17    -0.336 N  ATOM      8  C   UNL     1      43.189  51.200  12.709 -0.31 -0.14    +0.319 C  ATOM      9  H   UNL     1      45.175  51.344  13.070 -0.45 -0.13    +0.165 HD ATOM     10  O   UNL     1      42.370  51.135  11.801 -0.49 +0.14    -0.249 OA ATOM     11  H   UNL     1      43.729  51.052  14.652 -0.42 -0.05    +0.171 HD BRANCH   7  12ATOM     12  C   UNL     1      44.842  52.268  11.242 -0.35 -0.07    +0.146 C  BRANCH  12  13ATOM     13  C   UNL     1      46.309  51.939  10.953 -0.30 -0.06    +0.181 C  BRANCH  13  14ATOM     14  O   UNL     1      46.919  51.476  12.166 -0.24 +0.12    -0.383 OA ATOM     15  C   UNL     1      47.546  52.545  12.867 -0.21 -0.04    +0.194 C  ENDBRANCH  13  14ENDBRANCH  12  13ENDBRANCH   7  12ENDBRANCH   1   6BRANCH   3  16ATOM     16  C   UNL     1      39.672  47.361  14.599 -0.51 -0.01    +0.037 C  BRANCH  16  17ATOM     17  C   UNL     1      38.340  47.319  13.971 -0.50 -0.02    +0.073 C  ATOM     18  N   UNL     1      37.957  47.672  12.765 -0.79 +0.03    -0.255 NA ATOM     19  C   UNL     1      37.208  46.785  14.737 -0.46 -0.02    +0.031 C  ATOM     20  C   UNL     1      36.589  47.393  12.710 -0.64 -0.05    +0.124 C  ATOM     21  C   UNL     1      36.111  46.871  13.838 -0.53 -0.03    +0.046 C  ATOM     22  C   UNL     1      36.719  46.269  15.859 -0.35 -0.08    +0.124 C  ATOM     23  C   UNL     1      34.950  46.341  14.581 -0.26 -0.13    +0.139 C  ATOM     24  N   UNL     1      35.356  45.989  15.791 -0.20 +0.21    -0.238 NA ATOM     25  N   UNL     1      33.695  46.257  14.034 -0.12 +0.34    -0.340 N  ATOM     26  H   UNL     1      33.602  46.571  13.077 -0.46 -0.16    +0.168 HD BRANCH  25  27ATOM     27  C   UNL     1      32.500  45.787  14.608 -0.30 -0.04    +0.043 A  ATOM     28  C   UNL     1      31.285  46.293  14.134 -0.52 -0.03    +0.046 A  ATOM     29  C   UNL     1      32.442  44.836  15.628 -0.32 -0.03    +0.049 A  ATOM     30  C   UNL     1      30.099  45.838  14.687 -0.37 -0.06    +0.113 A  ATOM     31  C   UNL     1      31.206  44.432  16.130 -0.30 -0.02    +0.039 A  ATOM     32  N   UNL     1      30.033  44.923  15.672 -0.24 +0.11    -0.261 NA ATOM     33  C   UNL     1      31.143  43.410  17.226 -0.29 -0.02    +0.067 C  ENDBRANCH  25  27ENDBRANCH  16  17ENDBRANCH   3  16TORSDOF 7TERENDMDL