MODEL        5USER    Run = 5USERUSER    Estimated Free Energy of Binding    = -10.42 kcal/mol  [=(1)+(2)+(3)-(4)]USERUSER    (1) Final Intermolecular Energy     = -11.91 kcal/molUSER        vdW + Hbond + desolv Energy     = -11.93 kcal/molUSER        Electrostatic Energy            =  +0.02 kcal/molUSER        Moving Ligand-Fixed Receptor    = -11.91 kcal/molUSER        Moving Ligand-Moving Receptor   =  +0.00 kcal/molUSER    (2) Final Total Internal Energy     =  -1.22 kcal/molUSER    (3) Torsional Free Energy           =  +1.49 kcal/molUSER    (4) Unbound System's Energy         =  -1.22 kcal/molUSERUSERREMARK SMILES Cc1cc(NC2=NC=C3C2=CN=C3C=C2C=CC(NC(=O)N3CCN(C(F)F)CC3)=C2)ccn1REMARK SMILES IDX 15 1 16 2 17 3 18 4 31 5 14 6 13 7 5 8 6 9 7 10 10 11 8 12REMARK SMILES IDX 9 13 11 14 12 15 4 17 2 18 3 19 34 20 33 21 32 22 1 23 19 24REMARK SMILES IDX 20 25 22 26 23 27 30 28 24 29 29 30 25 31 21 33 26 34 27 35REMARK SMILES IDX 28 36REMARK H PARENT 5 16 19 32USER                              x       y       z     vdW  Elec       q    TypeUSER                           _______ _______ _______ _____ _____    ______ ____ROOTATOM      1  C   UNL     1      37.727  47.728  13.575 -0.60 +0.01    -0.021 C  ATOM      2  C   UNL     1      37.645  47.047  12.298 -0.54 -0.00    +0.010 C  ATOM      3  C   UNL     1      36.441  46.452  12.247 -0.72 -0.01    +0.027 C  ATOM      4  C   UNL     1      35.718  46.713  13.477 -0.56 -0.03    +0.043 C  ATOM      5  C   UNL     1      36.486  47.461  14.288 -0.50 -0.02    +0.034 C  ENDROOTBRANCH   1   6ATOM      6  C   UNL     1      38.728  48.451  14.092 -0.50 -0.01    +0.037 C  BRANCH   6   7ATOM      7  C   UNL     1      39.475  48.161  15.322 -0.55 -0.03    +0.073 C  ATOM      8  N   UNL     1      40.496  45.935  19.403 -0.20 -0.00    -0.340 N  ATOM      9  C   UNL     1      39.735  46.178  18.288 -0.41 -0.02    +0.139 C  ATOM     10  N   UNL     1      38.605  45.604  17.910 -0.25 +0.05    -0.238 NA ATOM     11  C   UNL     1      40.102  47.190  17.276 -0.52 -0.01    +0.046 C  ATOM     12  C   UNL     1      38.230  46.199  16.706 -0.36 -0.04    +0.124 C  ATOM     13  C   UNL     1      39.069  47.147  16.299 -0.49 -0.01    +0.031 C  ATOM     14  C   UNL     1      40.976  48.110  16.871 -0.51 -0.02    +0.124 C  ATOM     15  N   UNL     1      40.623  48.713  15.662 -0.41 +0.06    -0.255 NA ATOM     16  H   UNL     1      41.325  46.503  19.513 +0.10 +0.01    +0.168 HD BRANCH   8  17ATOM     17  C   UNL     1      40.288  45.006  20.439 -0.34 +0.00    +0.043 A  ATOM     18  C   UNL     1      38.735  43.821  21.870 -0.28 +0.00    +0.039 A  ATOM     19  C   UNL     1      38.974  44.735  20.845 -0.33 +0.00    +0.049 A  ATOM     20  N   UNL     1      39.730  43.170  22.508 -0.14 -0.01    -0.261 NA ATOM     21  C   UNL     1      40.990  43.439  22.110 -0.25 +0.00    +0.113 A  ATOM     22  C   UNL     1      41.312  44.332  21.100 -0.30 +0.00    +0.046 A  ATOM     23  C   UNL     1      37.329  43.529  22.305 -0.40 +0.01    +0.067 C  ENDBRANCH   8  17ENDBRANCH   6   7ENDBRANCH   1   6BRANCH   4  24ATOM     24  N   UNL     1      34.472  46.259  13.802 -0.19 +0.26    -0.308 N  ATOM     25  C   UNL     1      34.094  45.584  14.942 -0.08 -0.28    +0.321 C  ATOM     26  N   UNL     1      32.729  45.332  15.035 -0.16 +0.25    -0.322 N  ATOM     27  C   UNL     1      32.245  44.513  16.149 -0.30 -0.07    +0.137 C  ATOM     28  C   UNL     1      31.692  45.920  14.182 -0.47 -0.10    +0.137 C  ATOM     29  C   UNL     1      31.002  43.692  15.757 -0.32 -0.05    +0.111 C  ATOM     30  C   UNL     1      30.289  45.839  14.812 -0.46 -0.06    +0.111 C  ATOM     31  N   UNL     1      29.897  44.462  15.147 -0.17 +0.18    -0.244 NA ATOM     32  H   UNL     1      33.784  46.313  13.070 -0.39 -0.15    +0.171 HD ATOM     33  O   UNL     1      34.872  45.212  15.816 -0.23 +0.17    -0.248 OA BRANCH  31  34ATOM     34  C   UNL     1      28.735  44.472  16.016 -0.07 -0.17    +0.417 C  ATOM     35  F   UNL     1      28.788  45.555  16.828 +0.03 -0.02    -0.192 F  ATOM     36  F   UNL     1      27.606  44.590  15.275 -0.05 +0.12    -0.192 F  ENDBRANCH  31  34ENDBRANCH   4  24TORSDOF 5TERENDMDL