REMARK SMILES Oc1nc2ncccc2n1[C@H]1CCN(Cc2ccc(-c3nc4ccccc4[nH]3)cc2)C[C@H]1N1CCOCC1
REMARK SMILES IDX 11 1 12 2 13 3 14 4 31 5 32 6 10 7 2 8 3 9 4 10 9 11 5 12
REMARK SMILES IDX 8 13 6 14 7 15 1 16 33 18 34 19 38 20 35 21 37 22 36 23
REMARK SMILES IDX 15 24 16 25 17 26 30 27 18 28 29 29 19 30 20 31 21 32 28 33
REMARK SMILES IDX 22 34 27 35 23 36 26 37 24 38 25 39
REMARK H PARENT 1 17 28 40
ROOT
ATOM      1  C   UNL     1      -2.938   1.477  -0.398  1.00  0.00     0.112 C 
ATOM      2  C   UNL     1      -1.917   1.856   0.684  1.00  0.00     0.043 C 
ATOM      3  C   UNL     1      -0.622   2.368   0.035  1.00  0.00     0.087 C 
ATOM      4  N   UNL     1      -0.490   1.926  -1.358  1.00  0.00    -0.297 NA
ATOM      5  C   UNL     1      -0.865   0.519  -1.507  1.00  0.00     0.106 C 
ATOM      6  C   UNL     1      -2.401   0.245  -1.240  1.00  0.00     0.094 C 
ENDROOT
BRANCH   1   7
ATOM      7  N   UNL     1      -4.339   1.460  -0.003  1.00  0.00    -0.288 N 
ATOM      8  C   UNL     1      -5.396   1.685  -0.869  1.00  0.00     0.296 A 
ATOM      9  N   UNL     1      -6.555   1.619  -0.271  1.00  0.00    -0.175 NA
ATOM     10  C   UNL     1      -6.264   1.387   1.037  1.00  0.00     0.181 A 
ATOM     11  C   UNL     1      -4.889   1.280   1.252  1.00  0.00     0.091 A 
ATOM     12  N   UNL     1      -7.191   1.259   2.013  1.00  0.00    -0.235 NA
ATOM     13  C   UNL     1      -4.395   1.009   2.532  1.00  0.00     0.032 A 
ATOM     14  C   UNL     1      -6.691   1.014   3.238  1.00  0.00     0.114 A 
ATOM     15  C   UNL     1      -5.345   0.881   3.544  1.00  0.00     0.022 A 
BRANCH   8  16
ATOM     16  O   UNL     1      -5.308   1.914  -2.171  1.00  0.00    -0.480 OA
ATOM     17  H   UNL     1      -4.409   2.172  -2.410  1.00  0.00     0.296 HD
ENDBRANCH   8  16
ENDBRANCH   1   7
BRANCH   6  18
ATOM     18  N   UNL     1      -2.569  -1.140  -0.693  1.00  0.00    -0.292 NA
ATOM     19  C   UNL     1      -1.950  -2.203  -1.535  1.00  0.00     0.113 C 
ATOM     20  C   UNL     1      -3.983  -1.518  -0.435  1.00  0.00     0.113 C 
ATOM     21  C   UNL     1      -2.942  -2.915  -2.469  1.00  0.00     0.175 C 
ATOM     22  C   UNL     1      -4.239  -3.036  -0.474  1.00  0.00     0.175 C 
ATOM     23  O   UNL     1      -3.971  -3.608  -1.759  1.00  0.00    -0.379 OA
ENDBRANCH   6  18
BRANCH   4  24
ATOM     24  C   UNL     1       0.805   2.278  -1.965  1.00  0.00     0.120 C 
BRANCH  24  25
ATOM     25  C   UNL     1       2.037   1.613  -1.388  1.00  0.00    -0.034 A 
ATOM     26  C   UNL     1       2.470   0.365  -1.854  1.00  0.00     0.006 A 
ATOM     27  C   UNL     1       2.775   2.239  -0.376  1.00  0.00     0.006 A 
ATOM     28  C   UNL     1       3.604  -0.252  -1.309  1.00  0.00     0.012 A 
ATOM     29  C   UNL     1       3.905   1.620   0.168  1.00  0.00     0.012 A 
ATOM     30  C   UNL     1       4.335   0.365  -0.286  1.00  0.00     0.017 A 
BRANCH  30  31
ATOM     31  C   UNL     1       5.522  -0.244   0.329  1.00  0.00     0.138 A 
ATOM     32  N   UNL     1       6.213   0.264   1.335  1.00  0.00    -0.229 NA
ATOM     33  N   UNL     1       6.082  -1.441  -0.061  1.00  0.00    -0.338 N 
ATOM     34  C   UNL     1       7.224  -0.625   1.599  1.00  0.00     0.089 A 
ATOM     35  C   UNL     1       7.165  -1.708   0.735  1.00  0.00     0.066 A 
ATOM     36  C   UNL     1       8.235  -0.575   2.569  1.00  0.00     0.030 A 
ATOM     37  C   UNL     1       8.069  -2.771   0.772  1.00  0.00     0.028 A 
ATOM     38  C   UNL     1       9.157  -1.627   2.631  1.00  0.00     0.002 A 
ATOM     39  C   UNL     1       9.072  -2.705   1.746  1.00  0.00     0.002 A 
ATOM     40  H   UNL     1       5.752  -2.030  -0.809  1.00  0.00     0.168 HD
ENDBRANCH  30  31
ENDBRANCH  24  25
ENDBRANCH   4  24
TORSDOF 6
