REMARK SMILES Nc1nnc(-c2ccc(F)c(CC3CCN(c4ncccn4)CC3)c2O)c(-c2ccccn2)n1
REMARK SMILES IDX 6 1 7 2 8 3 9 4 10 5 11 6 25 7 5 8 2 9 3 10 34 11 4 12 27 13
REMARK SMILES IDX 1 14 28 17 29 18 33 19 30 20 32 21 31 22 26 23 12 25 13 26
REMARK SMILES IDX 14 27 24 28 15 29 23 30 16 31 17 32 18 33 22 34 19 35 21 36
REMARK SMILES IDX 20 37
REMARK H PARENT 1 15 1 16 26 24
ROOT
ATOM      1  C   UNL     1      -2.894  -1.025  -1.117  1.00  0.00     0.047 A 
ATOM      2  C   UNL     1      -3.398  -1.913  -0.152  1.00  0.00     0.017 A 
ATOM      3  C   UNL     1      -2.594  -2.918   0.385  1.00  0.00     0.040 A 
ATOM      4  C   UNL     1      -1.277  -3.050  -0.041  1.00  0.00     0.130 A 
ATOM      5  F   UNL     1      -0.520  -4.012   0.505  1.00  0.00    -0.207 F 
ATOM      6  C   UNL     1      -0.738  -2.209  -1.018  1.00  0.00     0.031 A 
ATOM      7  C   UNL     1      -1.568  -1.218  -1.562  1.00  0.00     0.131 A 
ENDROOT
BRANCH   1   8
ATOM      8  C   UNL     1      -3.716   0.069  -1.645  1.00  0.00     0.125 A 
ATOM      9  C   UNL     1      -4.989   2.099  -2.878  1.00  0.00     0.240 A 
ATOM     10  N   UNL     1      -4.592   1.032  -3.594  1.00  0.00    -0.111 NA
ATOM     11  N   UNL     1      -4.785   2.224  -1.567  1.00  0.00    -0.208 NA
ATOM     12  N   UNL     1      -3.938   0.006  -2.977  1.00  0.00    -0.144 NA
ATOM     13  C   UNL     1      -4.141   1.194  -0.947  1.00  0.00     0.121 A 
BRANCH   9  14
ATOM     14  N   UNL     1      -5.665   3.123  -3.513  1.00  0.00    -0.366 N 
ATOM     15  H   UNL     1      -6.226   3.632  -2.841  1.00  0.00     0.159 HD
ATOM     16  H   UNL     1      -6.136   2.785  -4.340  1.00  0.00     0.159 HD
ENDBRANCH   9  14
BRANCH  13  17
ATOM     17  C   UNL     1      -3.869   1.417   0.478  1.00  0.00     0.091 A 
ATOM     18  C   UNL     1      -3.051   2.465   0.903  1.00  0.00     0.031 A 
ATOM     19  N   UNL     1      -4.476   0.573   1.355  1.00  0.00    -0.255 NA
ATOM     20  C   UNL     1      -2.829   2.642   2.267  1.00  0.00     0.004 A 
ATOM     21  C   UNL     1      -4.247   0.773   2.673  1.00  0.00     0.112 A 
ATOM     22  C   UNL     1      -3.436   1.779   3.171  1.00  0.00     0.020 A 
ENDBRANCH  13  17
ENDBRANCH   1   8
BRANCH   7  23
ATOM     23  O   UNL     1      -1.039  -0.418  -2.546  1.00  0.00    -0.507 OA
ATOM     24  H   UNL     1      -1.767  -0.115  -3.123  1.00  0.00     0.293 HD
ENDBRANCH   7  23
BRANCH   6  25
ATOM     25  C   UNL     1       0.702  -2.379  -1.440  1.00  0.00     0.046 C 
BRANCH  25  26
ATOM     26  C   UNL     1       1.711  -1.814  -0.420  1.00  0.00    -0.003 C 
ATOM     27  C   UNL     1       3.142  -2.179  -0.844  1.00  0.00     0.025 C 
ATOM     28  C   UNL     1       1.610  -0.288  -0.279  1.00  0.00     0.025 C 
ATOM     29  C   UNL     1       4.183  -1.619   0.126  1.00  0.00     0.120 C 
ATOM     30  C   UNL     1       2.658   0.259   0.691  1.00  0.00     0.120 C 
ATOM     31  N   UNL     1       3.998  -0.178   0.299  1.00  0.00    -0.341 N 
BRANCH  31  32
ATOM     32  C   UNL     1       5.023   0.430   1.038  1.00  0.00     0.225 A 
ATOM     33  N   UNL     1       4.775   1.593   1.670  1.00  0.00    -0.221 NA
ATOM     34  N   UNL     1       6.235  -0.154   1.075  1.00  0.00    -0.221 NA
ATOM     35  C   UNL     1       5.783   2.174   2.348  1.00  0.00     0.117 A 
ATOM     36  C   UNL     1       7.216   0.464   1.762  1.00  0.00     0.117 A 
ATOM     37  C   UNL     1       7.044   1.648   2.428  1.00  0.00     0.040 A 
ENDBRANCH  31  32
ENDBRANCH  25  26
ENDBRANCH   6  25
TORSDOF 7
