MODEL        9USER    Run = 9USERUSER    Estimated Free Energy of Binding    = -11.30 kcal/mol  [=(1)+(2)+(3)-(4)]USERUSER    (1) Final Intermolecular Energy     = -13.39 kcal/molUSER        vdW + Hbond + desolv Energy     = -13.30 kcal/molUSER        Electrostatic Energy            =  -0.08 kcal/molUSER        Moving Ligand-Fixed Receptor    = -13.39 kcal/molUSER        Moving Ligand-Moving Receptor   =  +0.00 kcal/molUSER    (2) Final Total Internal Energy     =  -1.03 kcal/molUSER    (3) Torsional Free Energy           =  +2.09 kcal/molUSER    (4) Unbound System's Energy         =  -1.03 kcal/molUSERUSERREMARK SMILES Nc1nnc(-c2ccc(F)c(CC3CCN(c4ncccn4)CC3)c2O)c(-c2ccccn2)n1REMARK SMILES IDX 6 1 7 2 8 3 9 4 10 5 11 6 25 7 5 8 2 9 3 10 34 11 4 12 27 13REMARK SMILES IDX 1 14 28 17 29 18 33 19 30 20 32 21 31 22 26 23 12 25 13 26REMARK SMILES IDX 14 27 24 28 15 29 23 30 16 31 17 32 18 33 22 34 19 35 21 36REMARK SMILES IDX 20 37REMARK H PARENT 1 15 1 16 26 24USER                              x       y       z     vdW  Elec       q    TypeUSER                           _______ _______ _______ _____ _____    ______ ____ROOTATOM      1  C   UNL     1      39.083  46.433  17.057 -0.40 -0.01    +0.047 A  ATOM      2  C   UNL     1      39.760  45.483  17.840 -0.41 -0.00    +0.017 A  ATOM      3  C   UNL     1      39.055  44.543  18.591 -0.35 -0.00    +0.040 A  ATOM      4  C   UNL     1      37.665  44.545  18.572 -0.27 -0.02    +0.130 A  ATOM      5  F   UNL     1      37.013  43.618  19.287 -0.06 +0.02    -0.207 F  ATOM      6  C   UNL     1      36.947  45.486  17.830 -0.32 -0.01    +0.031 A  ATOM      7  C   UNL     1      37.672  46.438  17.098 -0.23 -0.06    +0.131 A  ENDROOTBRANCH   1   8ATOM      8  C   UNL     1      39.817  47.389  16.221 -0.41 -0.03    +0.125 A  ATOM      9  C   UNL     1      41.117  49.378  14.949 -0.43 -0.05    +0.240 A  ATOM     10  N   UNL     1      41.413  49.106  16.232 -1.09 +0.00    -0.111 NA ATOM     11  N   UNL     1      40.197  48.715  14.248 -0.34 +0.06    -0.208 NA ATOM     12  N   UNL     1      40.751  48.107  16.884 -0.49 +0.02    -0.144 NA ATOM     13  C   UNL     1      39.542  47.709  14.896 -0.42 -0.03    +0.121 A  BRANCH   9  14ATOM     14  N   UNL     1      41.807  50.381  14.296 -0.37 +0.09    -0.366 N  ATOM     15  H   UNL     1      42.733  50.475  14.694 +0.03 -0.02    +0.159 HD ATOM     16  H   UNL     1      41.249  51.220  14.233 -0.02 -0.07    +0.159 HD ENDBRANCH   9  14BRANCH  13  17ATOM     17  C   UNL     1      38.483  47.067  14.108 -0.39 -0.03    +0.091 A  ATOM     18  C   UNL     1      38.291  45.685  14.145 -0.36 -0.01    +0.031 A  ATOM     19  N   UNL     1      37.688  47.888  13.370 -0.70 +0.08    -0.255 NA ATOM     20  C   UNL     1      37.267  45.122  13.387 -0.46 -0.00    +0.004 A  ATOM     21  C   UNL     1      36.699  47.313  12.648 -0.57 -0.05    +0.112 A  ATOM     22  C   UNL     1      36.456  45.950  12.621 -0.58 -0.01    +0.020 A  ENDBRANCH  13  17ENDBRANCH   1   8BRANCH   7  23ATOM     23  O   UNL     1      36.957  47.380  16.400 -0.07 +0.43    -0.507 OA ATOM     24  H   UNL     1      36.109  47.530  16.861 +0.17 -0.37    +0.293 HD ENDBRANCH   7  23BRANCH   6  25ATOM     25  C   UNL     1      35.437  45.442  17.827 -0.39 -0.02    +0.046 C  BRANCH  25  26ATOM     26  C   UNL     1      34.862  44.086  18.282 -0.38 +0.00    -0.003 C  ATOM     27  C   UNL     1      33.482  44.293  18.925 -0.46 -0.01    +0.025 C  ATOM     28  C   UNL     1      34.724  43.088  17.123 -0.42 -0.01    +0.025 C  ATOM     29  C   UNL     1      32.858  42.971  19.373 -0.38 -0.00    +0.120 C  ATOM     30  C   UNL     1      34.097  41.772  17.584 -0.37 -0.05    +0.120 C  ATOM     31  N   UNL     1      32.824  42.019  18.262 -0.15 +0.07    -0.341 N  BRANCH  31  32ATOM     32  C   UNL     1      32.109  40.849  18.554 -0.24 -0.02    +0.225 A  ATOM     33  N   UNL     1      31.246  40.363  17.641 -0.24 +0.03    -0.221 NA ATOM     34  N   UNL     1      32.288  40.256  19.749 -0.68 -0.07    -0.221 NA ATOM     35  C   UNL     1      30.547  39.256  17.956 -0.30 +0.01    +0.117 A  ATOM     36  C   UNL     1      31.565  39.152  20.023 -0.33 +0.03    +0.117 A  ATOM     37  C   UNL     1      30.667  38.599  19.151 -0.39 +0.01    +0.040 A  ENDBRANCH  31  32ENDBRANCH  25  26ENDBRANCH   6  25TORSDOF 7TERENDMDL