MODEL        3USER    Run = 3USERUSER    Estimated Free Energy of Binding    = -11.38 kcal/mol  [=(1)+(2)+(3)-(4)]USERUSER    (1) Final Intermolecular Energy     = -13.17 kcal/molUSER        vdW + Hbond + desolv Energy     = -13.03 kcal/molUSER        Electrostatic Energy            =  -0.14 kcal/molUSER        Moving Ligand-Fixed Receptor    = -13.17 kcal/molUSER        Moving Ligand-Moving Receptor   =  +0.00 kcal/molUSER    (2) Final Total Internal Energy     =  -1.37 kcal/molUSER    (3) Torsional Free Energy           =  +1.79 kcal/molUSER    (4) Unbound System's Energy         =  -1.37 kcal/molUSERUSERREMARK SMILES Oc1nc2ncccc2n1[C@H]1CCN(Cc2ccc(-c3nc4ccccc4[nH]3)cc2)C[C@H]1N1CCOCC1REMARK SMILES IDX 11 1 12 2 13 3 14 4 31 5 32 6 10 7 2 8 3 9 4 10 9 11 5 12REMARK SMILES IDX 8 13 6 14 7 15 1 16 33 18 34 19 38 20 35 21 37 22 36 23REMARK SMILES IDX 15 24 16 25 17 26 30 27 18 28 29 29 19 30 20 31 21 32 28 33REMARK SMILES IDX 22 34 27 35 23 36 26 37 24 38 25 39REMARK H PARENT 1 17 28 40USER                              x       y       z     vdW  Elec       q    TypeUSER                           _______ _______ _______ _____ _____    ______ ____ROOTATOM      1  C   UNL     1      38.899  46.225  16.326 -0.39 -0.03    +0.112 C  ATOM      2  C   UNL     1      38.990  47.141  17.555 -0.15 -0.01    +0.043 C  ATOM      3  C   UNL     1      39.848  46.481  18.646 -0.34 -0.01    +0.087 C  ATOM      4  N   UNL     1      39.946  45.028  18.468 -0.22 +0.02    -0.297 NA ATOM      5  C   UNL     1      38.649  44.446  18.120 -0.32 -0.01    +0.106 C  ATOM      6  C   UNL     1      38.118  44.896  16.699 -0.28 -0.02    +0.094 C  ENDROOTBRANCH   1   7ATOM      7  N   UNL     1      38.577  46.859  15.056 -0.21 +0.10    -0.288 N  ATOM      8  C   UNL     1      38.934  48.154  14.719 -0.29 -0.12    +0.296 A  ATOM      9  N   UNL     1      38.526  48.490  13.525 -0.46 +0.05    -0.175 NA ATOM     10  C   UNL     1      37.840  47.408  13.069 -0.34 -0.04    +0.181 A  ATOM     11  C   UNL     1      37.846  46.362  13.994 -0.37 -0.03    +0.091 A  ATOM     12  N   UNL     1      37.237  47.341  11.861 -1.00 +0.05    -0.235 NA ATOM     13  C   UNL     1      37.219  45.150  13.691 -0.42 -0.01    +0.032 A  ATOM     14  C   UNL     1      36.628  46.170  11.598 -0.49 -0.04    +0.114 A  ATOM     15  C   UNL     1      36.591  45.075  12.449 -0.48 -0.01    +0.022 A  BRANCH   8  16ATOM     16  O   UNL     1      39.637  48.994  15.465 -0.20 +0.22    -0.480 OA ATOM     17  H   UNL     1      39.357  49.904  15.307 -0.18 -0.23    +0.296 HD ENDBRANCH   8  16ENDBRANCH   1   7BRANCH   6  18ATOM     18  N   UNL     1      36.619  44.912  16.712 -0.14 +0.11    -0.292 NA ATOM     19  C   UNL     1      36.031  45.514  17.942 -0.32 -0.05    +0.113 C  ATOM     20  C   UNL     1      36.001  43.576  16.510 -0.37 -0.04    +0.113 C  ATOM     21  C   UNL     1      35.601  44.482  18.998 -0.30 -0.04    +0.175 C  ATOM     22  C   UNL     1      34.588  43.446  17.107 -0.28 -0.07    +0.175 C  ATOM     23  O   UNL     1      34.573  43.607  18.529 -0.10 +0.09    -0.379 OA ENDBRANCH   6  18BRANCH   4  24ATOM     24  C   UNL     1      40.641  44.347  19.574 -0.35 +0.01    +0.120 C  BRANCH  24  25ATOM     25  C   UNL     1      39.833  44.067  20.823 -0.19 -0.00    -0.034 A  ATOM     26  C   UNL     1      40.393  43.376  21.906 -0.18 +0.00    +0.006 A  ATOM     27  C   UNL     1      38.506  44.500  20.924 -0.36 +0.00    +0.006 A  ATOM     28  C   UNL     1      39.638  43.109  23.056 -0.26 +0.00    +0.012 A  ATOM     29  C   UNL     1      37.753  44.230  22.072 -0.37 +0.00    +0.012 A  ATOM     30  C   UNL     1      38.305  43.528  23.153 -0.30 +0.00    +0.017 A  BRANCH  30  31ATOM     31  C   UNL     1      37.465  43.262  24.329 -0.26 +0.01    +0.138 A  ATOM     32  N   UNL     1      36.956  42.088  24.660 -0.28 +0.00    -0.229 NA ATOM     33  N   UNL     1      37.092  44.208  25.257 -0.15 -0.01    -0.338 N  ATOM     34  C   UNL     1      36.255  42.283  25.823 -0.36 -0.01    +0.089 A  ATOM     35  C   UNL     1      36.324  43.610  26.222 -0.35 -0.01    +0.066 A  ATOM     36  C   UNL     1      35.531  41.369  26.602 -0.55 -0.01    +0.030 A  ATOM     37  C   UNL     1      35.703  44.100  27.372 -0.44 -0.01    +0.028 A  ATOM     38  C   UNL     1      34.898  41.831  27.762 -0.55 -0.00    +0.002 A  ATOM     39  C   UNL     1      34.985  43.174  28.137 -0.52 -0.00    +0.002 A  ATOM     40  H   UNL     1      37.341  45.185  25.237 +0.08 +0.01    +0.168 HD ENDBRANCH  30  31ENDBRANCH  24  25ENDBRANCH   4  24TORSDOF 6TERENDMDL