REMARK SMILES NC(=CCc1c(F)cccc1Cl)[C@H]1C=CC(=O)N(O)c2ccccc21
REMARK SMILES IDX 2 1 1 2 3 5 4 6 5 7 6 8 11 9 8 10 10 11 9 12 7 13 12 14
REMARK SMILES IDX 13 15 14 16 15 17 25 19 24 20 20 21 23 22 21 23 22 24 18 25
REMARK SMILES IDX 16 26 17 27 19 29
REMARK H PARENT 1 3 1 4 19 30
REMARK Flexibility Score:   44.900
ROOT
ATOM      1  C   UNL     1       0.024  -0.720   0.528  1.00  0.00     0.016 C 
ENDROOT
BRANCH   1   2
ATOM      2  N   UNL     1      -0.399  -1.983   0.942  1.00  0.00    -0.402 N 
ATOM      3  H   UNL     1      -1.413  -2.085   0.941  1.00  0.00     0.156 HD
ATOM      4  H   UNL     1      -0.014  -2.273   1.837  1.00  0.00     0.156 HD
ENDBRANCH   1   2
BRANCH   1   5
ATOM      5  C   UNL     1       1.110  -0.177   1.119  1.00  0.00    -0.000 C 
BRANCH   5   6
ATOM      6  C   UNL     1       1.759   1.165   0.903  1.00  0.00     0.069 C 
BRANCH   6   7
ATOM      7  C   UNL     1       3.216   1.049   0.523  1.00  0.00     0.010 A 
ATOM      8  C   UNL     1       4.172   0.909   1.539  1.00  0.00     0.128 A 
ATOM      9  C   UNL     1       3.674   1.043  -0.802  1.00  0.00     0.047 A 
ATOM     10  C   UNL     1       5.531   0.776   1.264  1.00  0.00     0.039 A 
ATOM     11  C   UNL     1       5.040   0.910  -1.087  1.00  0.00     0.021 A 
ATOM     12  C   UNL     1       5.969   0.777  -0.055  1.00  0.00     0.005 A 
ATOM     13  F   UNL     1       3.780   0.899   2.822  1.00  0.00    -0.207 F 
ATOM     14  Cl  UNL     1       2.602   1.211  -2.145  1.00  0.00    -0.084 Cl
ENDBRANCH   6   7
ENDBRANCH   5   6
ENDBRANCH   1   5
BRANCH   1  15
ATOM     15  C   UNL     1      -0.792  -0.028  -0.591  1.00  0.00     0.090 C 
BRANCH  15  16
ATOM     16  C   UNL     1      -0.739  -0.776  -1.889  1.00  0.00    -0.007 C 
BRANCH  16  17
ATOM     17  C   UNL     1      -1.508  -1.790  -2.292  1.00  0.00     0.071 CG0
ATOM     18  G   UNL     1      -2.562  -2.461  -1.514  1.00  0.00     0.000 G0
ENDBRANCH  16  17
ENDBRANCH  15  16
BRANCH  15  19
ATOM     19  C   UNL     1      -2.183   0.388  -0.138  1.00  0.00    -0.009 A 
ATOM     20  C   UNL     1      -2.305   1.704   0.380  1.00  0.00     0.007 A 
ATOM     21  C   UNL     1      -3.304  -0.461  -0.097  1.00  0.00     0.077 A 
ATOM     22  C   UNL     1      -3.495   2.174   0.927  1.00  0.00     0.000 A 
ATOM     23  C   UNL     1      -4.491   0.033   0.489  1.00  0.00     0.029 A 
ATOM     24  C   UNL     1      -4.592   1.333   0.988  1.00  0.00     0.002 A 
BRANCH  21  25
ATOM     25  N   UNL     1      -3.317  -1.791  -0.580  1.00  0.00    -0.188 N 
BRANCH  25  26
ATOM     26  C   UNL     1      -2.562  -2.461  -1.514  1.00  0.00     0.274 CG0
ATOM     27  O   UNL     1      -2.822  -3.638  -1.797  1.00  0.00    -0.267 OA
ATOM     28  G   UNL     1      -1.508  -1.790  -2.292  1.00  0.00     0.000 G0
ENDBRANCH  25  26
BRANCH  25  29
ATOM     29  O   UNL     1      -4.393  -2.595  -0.090  1.00  0.00    -0.281 OA
ATOM     30  H   UNL     1      -4.259  -3.429  -0.593  1.00  0.00     0.246 HD
ENDBRANCH  25  29
ENDBRANCH  21  25
ENDBRANCH  15  19
ENDBRANCH   1  15
TORSDOF 6
