REMARK SMILES CCOC(=O)C[C@@H](C)C[C@H]1CCc2ccccc2[C@@]1(C)CC
REMARK SMILES IDX 6 1 4 2 5 3 3 4 2 5 1 6 7 7 8 8 9 9 10 10 11 11 19 12 12 13
REMARK SMILES IDX 18 14 13 15 17 16 14 17 16 18 15 19 20 20 21 21 22 22
REMARK H PARENT
ROOT
ATOM      1  C   UNL     1       2.944  -0.387   1.585  1.00  0.00     0.126 C 
ENDROOT
BRANCH   1   2
ATOM      2  C   UNL     1       4.013   0.298   0.758  1.00  0.00     0.306 C 
ATOM      3  O   UNL     1       3.939   1.414   0.267  1.00  0.00    -0.252 OA
BRANCH   2   4
ATOM      4  O   UNL     1       5.098  -0.526   0.666  1.00  0.00    -0.466 OA
BRANCH   4   5
ATOM      5  C   UNL     1       6.211  -0.012  -0.081  1.00  0.00     0.229 C 
ATOM      6  C   UNL     1       6.033  -0.311  -1.558  1.00  0.00     0.049 C 
ENDBRANCH   4   5
ENDBRANCH   2   4
ENDBRANCH   1   2
BRANCH   1   7
ATOM      7  C   UNL     1       1.512   0.185   1.478  1.00  0.00    -0.003 C 
ATOM      8  C   UNL     1       1.427   1.603   2.048  1.00  0.00     0.008 C 
BRANCH   7   9
ATOM      9  C   UNL     1       0.971   0.084   0.039  1.00  0.00     0.008 C 
BRANCH   9  10
ATOM     10  C   UNL     1      -0.487   0.552  -0.270  1.00  0.00    -0.000 C 
ATOM     11  C   UNL     1      -0.591   0.573  -1.812  1.00  0.00     0.009 C 
ATOM     12  C   UNL     1      -1.713  -0.267   0.353  1.00  0.00    -0.005 C 
ATOM     13  C   UNL     1      -1.835   1.307  -2.260  1.00  0.00     0.036 C 
ATOM     14  C   UNL     1      -3.045   0.082  -0.377  1.00  0.00    -0.039 A 
ATOM     15  C   UNL     1      -3.076   0.788  -1.596  1.00  0.00    -0.044 A 
ATOM     16  C   UNL     1      -4.293  -0.294   0.171  1.00  0.00     0.004 A 
ATOM     17  C   UNL     1      -4.306   1.095  -2.215  1.00  0.00     0.004 A 
ATOM     18  C   UNL     1      -5.506   0.005  -0.454  1.00  0.00     0.000 A 
ATOM     19  C   UNL     1      -5.513   0.701  -1.651  1.00  0.00     0.000 A 
ATOM     20  C   UNL     1      -1.868   0.150   1.839  1.00  0.00     0.017 C 
BRANCH  12  21
ATOM     21  C   UNL     1      -1.412  -1.801   0.243  1.00  0.00     0.008 C 
ATOM     22  C   UNL     1      -2.408  -2.786   0.847  1.00  0.00     0.005 C 
ENDBRANCH  12  21
ENDBRANCH   9  10
ENDBRANCH   7   9
ENDBRANCH   1   7
TORSDOF 7
