MODEL        8USER    Run = 8USERUSER    Estimated Free Energy of Binding    =  -9.18 kcal/mol  [=(1)+(2)+(3)-(4)]USERUSER    (1) Final Intermolecular Energy     = -11.27 kcal/molUSER        vdW + Hbond + desolv Energy     = -11.19 kcal/molUSER        Electrostatic Energy            =  -0.08 kcal/molUSER        Moving Ligand-Fixed Receptor    = -11.27 kcal/molUSER        Moving Ligand-Moving Receptor   =  +0.00 kcal/molUSER    (2) Final Total Internal Energy     =  -2.50 kcal/molUSER    (3) Torsional Free Energy           =  +2.09 kcal/molUSER    (4) Unbound System's Energy         =  -2.50 kcal/molUSERUSERREMARK SMILES N[C@H]1CN(c2ncc(Cl)c(-c3ccc4ccccc4c3)n2)CCN1CCCOREMARK SMILES IDX 25 1 24 2 2 3 3 4 4 5 23 6 22 7 1 8 5 11 6 12 21 13 7 14REMARK SMILES IDX 10 15 8 16 9 17 11 18 12 19 20 20 13 21 19 22 14 23 18 24REMARK SMILES IDX 15 25 17 26 16 27 26 28 27 29 28 30REMARK H PARENT 1 9 1 10 28 31USER                              x       y       z     vdW  Elec       q    TypeUSER                           _______ _______ _______ _____ _____    ______ ____ROOTATOM      1  C   UNL     1      36.510  44.389  27.537 -0.43 -0.02    +0.088 C  ENDROOTBRANCH   1   2ATOM      2  N   UNL     1      36.248  44.074  26.133 -0.21 +0.03    -0.285 NA ATOM      3  C   UNL     1      36.916  44.822  25.068 -0.27 +0.01    +0.141 C  ATOM      4  C   UNL     1      38.250  44.176  24.568 -0.21 +0.01    +0.154 C  ATOM      5  N   UNL     1      38.021  42.780  24.148 -0.13 -0.02    -0.337 N  ATOM      6  C   UNL     1      36.164  42.630  25.821 -0.39 -0.01    +0.107 C  ATOM      7  C   UNL     1      37.426  41.960  25.218 -0.29 -0.01    +0.135 C  BRANCH   3   8ATOM      8  N   UNL     1      37.040  46.217  25.455 -0.77 -0.02    -0.314 NA ATOM      9  H   UNL     1      37.515  46.225  26.356 +0.04 -0.01    +0.120 HD ATOM     10  H   UNL     1      36.108  46.589  25.626 -0.51 -0.02    +0.120 HD ENDBRANCH   3   8BRANCH   5  11ATOM     11  C   UNL     1      37.413  42.647  22.899 -0.27 +0.02    +0.226 A  ATOM     12  N   UNL     1      36.448  41.728  22.740 -0.38 -0.01    -0.220 NA ATOM     13  N   UNL     1      37.795  43.453  21.897 -0.23 -0.01    -0.211 NA ATOM     14  C   UNL     1      35.858  41.638  21.529 -0.34 +0.00    +0.138 A  ATOM     15  C   UNL     1      37.184  43.350  20.687 -0.32 -0.00    +0.094 A  ATOM     16  C   UNL     1      36.184  42.427  20.453 -0.41 -0.00    +0.085 A  ATOM     17  Cl  UNL     1      35.396  42.185  18.947 -0.53 +0.01    -0.080 Cl BRANCH  15  18ATOM     18  C   UNL     1      37.703  44.291  19.681 -0.36 -0.00    +0.002 A  ATOM     19  C   UNL     1      36.898  44.784  18.644 -0.34 -0.00    +0.011 A  ATOM     20  C   UNL     1      39.032  44.747  19.757 -0.37 -0.00    +0.019 A  ATOM     21  C   UNL     1      37.407  45.681  17.699 -0.34 -0.00    +0.009 A  ATOM     22  C   UNL     1      39.561  45.648  18.817 -0.42 +0.00    -0.018 A  ATOM     23  C   UNL     1      38.738  46.119  17.771 -0.38 +0.00    -0.018 A  ATOM     24  C   UNL     1      40.892  46.092  18.895 -0.47 +0.00    +0.009 A  ATOM     25  C   UNL     1      39.265  47.019  16.832 -0.45 -0.00    +0.009 A  ATOM     26  C   UNL     1      41.402  46.987  17.954 -0.51 -0.00    +0.001 A  ATOM     27  C   UNL     1      40.590  47.449  16.922 -0.53 -0.00    +0.001 A  ENDBRANCH  15  18ENDBRANCH   5  11ENDBRANCH   1   2BRANCH   1  28ATOM     28  C   UNL     1      35.427  44.935  28.482 -0.50 -0.01    +0.044 C  BRANCH  28  29ATOM     29  C   UNL     1      35.426  46.432  28.743 -0.26 -0.04    +0.157 C  BRANCH  29  30ATOM     30  O   UNL     1      36.141  47.145  27.746 -0.18 +0.11    -0.396 OA ATOM     31  H   UNL     1      36.125  46.606  26.936 -0.42 -0.09    +0.210 HD ENDBRANCH  29  30ENDBRANCH  28  29ENDBRANCH   1  28TORSDOF 7TERENDMDL