MODEL        2USER    Run = 2USERUSER    Estimated Free Energy of Binding    =  -9.44 kcal/mol  [=(1)+(2)+(3)-(4)]USERUSER    (1) Final Intermolecular Energy     = -12.42 kcal/molUSER        vdW + Hbond + desolv Energy     = -11.83 kcal/molUSER        Electrostatic Energy            =  -0.59 kcal/molUSER        Moving Ligand-Fixed Receptor    = -12.42 kcal/molUSER        Moving Ligand-Moving Receptor   =  +0.00 kcal/molUSER    (2) Final Total Internal Energy     =  -1.51 kcal/molUSER    (3) Torsional Free Energy           =  +2.98 kcal/molUSER    (4) Unbound System's Energy         =  -1.51 kcal/molUSERUSERREMARK SMILES CCCCc1ccc(NC(=O)Nc2ccc(C(=O)NCCO)cc2)cc1OREMARK SMILES IDX 13 1 14 2 15 3 16 4 23 5 24 6 12 7 9 8 10 9 11 11 8 13 5 14REMARK SMILES IDX 6 15 26 16 7 17 25 18 4 19 3 20 2 21 1 22 27 23 17 25 19 26REMARK SMILES IDX 18 27 20 29 21 30 22 31REMARK H PARENT 9 10 12 12 27 24 19 28 22 32USER                              x       y       z     vdW  Elec       q    TypeUSER                           _______ _______ _______ _____ _____    ______ ____ROOTATOM      1  C   UNL     1      27.575  34.393  21.850 -0.36 -0.02    +0.042 A  ATOM      2  C   UNL     1      27.447  33.102  21.320 -0.40 -0.02    +0.027 A  ATOM      3  C   UNL     1      28.138  32.024  21.886 -0.44 -0.01    +0.016 A  ATOM      4  C   UNL     1      28.965  32.228  22.995 -0.43 +0.01    +0.039 A  ATOM      5  C   UNL     1      29.072  33.509  23.544 -0.24 +0.01    +0.016 A  ATOM      6  C   UNL     1      28.385  34.586  22.971 -0.34 +0.01    +0.027 A  ENDROOTBRANCH   1   7ATOM      7  N   UNL     1      26.839  35.423  21.230 +0.04 +0.35    -0.308 N  ATOM      8  N   UNL     1      26.044  37.484  20.694 -0.11 +0.30    -0.308 N  ATOM      9  C   UNL     1      27.078  36.789  21.307 -0.16 -0.21    +0.323 C  ATOM     10  H   UNL     1      25.185  36.971  20.578 -0.38 -0.42    +0.171 HD ATOM     11  O   UNL     1      28.057  37.299  21.833 -0.20 +0.05    -0.248 OA ATOM     12  H   UNL     1      26.188  35.137  20.513 -0.33 -0.33    +0.171 HD BRANCH   8  13ATOM     13  C   UNL     1      25.976  38.873  20.445 -0.27 -0.02    +0.046 A  ATOM     14  C   UNL     1      25.775  41.674  20.095 -0.38 +0.00    -0.006 A  ATOM     15  C   UNL     1      26.064  40.829  19.014 -0.25 -0.00    +0.009 A  ATOM     16  C   UNL     1      25.583  41.092  21.351 -0.37 -0.02    +0.120 A  ATOM     17  C   UNL     1      26.162  39.444  19.187 -0.25 -0.00    +0.027 A  ATOM     18  C   UNL     1      25.678  39.708  21.529 -0.34 -0.02    +0.072 A  BRANCH  14  19ATOM     19  C   UNL     1      25.685  43.166  19.871 -0.49 -0.01    +0.039 C  BRANCH  19  20ATOM     20  C   UNL     1      26.190  43.615  18.494 -0.47 -0.00    +0.005 C  BRANCH  20  21ATOM     21  C   UNL     1      26.043  45.112  18.204 -0.56 -0.00    -0.003 C  ATOM     22  C   UNL     1      26.041  45.972  19.459 -0.67 -0.00    +0.004 C  ENDBRANCH  20  21ENDBRANCH  19  20ENDBRANCH  14  19BRANCH  16  23ATOM     23  O   UNL     1      25.296  41.898  22.416 -0.49 +0.03    -0.508 OA ATOM     24  H   UNL     1      25.740  42.753  22.301 -0.26 -0.10    +0.293 HD ENDBRANCH  16  23ENDBRANCH   8  13ENDBRANCH   1   7BRANCH   4  25ATOM     25  C   UNL     1      29.713  31.113  23.635 -0.37 +0.07    +0.251 C  ATOM     26  N   UNL     1      30.814  30.645  22.946 -0.27 -0.02    -0.350 N  ATOM     27  O   UNL     1      29.366  30.682  24.726 -0.76 -0.18    -0.269 OA ATOM     28  H   UNL     1      31.167  31.180  22.165 +0.11 -0.00    +0.163 HD BRANCH  26  29ATOM     29  C   UNL     1      31.661  29.611  23.507 -0.55 +0.02    +0.144 C  BRANCH  29  30ATOM     30  C   UNL     1      33.037  29.532  22.844 -0.46 +0.00    +0.177 C  BRANCH  30  31ATOM     31  O   UNL     1      33.061  30.289  21.637 -0.90 +0.02    -0.395 OA ATOM     32  H   UNL     1      33.904  30.108  21.190 -0.46 -0.08    +0.210 HD ENDBRANCH  30  31ENDBRANCH  29  30ENDBRANCH  26  29ENDBRANCH   4  25TORSDOF 10TERENDMDL