REMARK SMILES C[C@@H]1CN(c2nc(-c3ccccc3)cc3[nH]ncc23)CC[C@H]1CC(=O)O
REMARK SMILES IDX 23 1 22 2 2 3 3 4 4 5 21 6 20 7 1 8 5 9 6 10 19 11 7 12
REMARK SMILES IDX 18 13 15 14 14 15 17 16 16 17 8 19 9 20 13 21 10 22 12 23
REMARK SMILES IDX 11 24 24 25 25 26 26 27
REMARK H PARENT 16 18 26 28
ROOT
ATOM      1  C   UNL     1      -4.340  -0.579   1.449  1.00  0.00     0.126 C 
ENDROOT
BRANCH   1   2
ATOM      2  C   UNL     1      -3.284  -1.255   0.556  1.00  0.00     0.006 C 
ATOM      3  C   UNL     1      -2.985  -0.489  -0.757  1.00  0.00     0.009 C 
ATOM      4  C   UNL     1      -1.694  -1.049  -1.372  1.00  0.00     0.121 C 
ATOM      5  N   UNL     1      -0.575  -0.733  -0.503  1.00  0.00    -0.356 N 
ATOM      6  C   UNL     1      -1.995  -1.638   1.320  1.00  0.00     0.026 C 
ATOM      7  C   UNL     1      -0.756  -0.819   0.948  1.00  0.00     0.118 C 
ATOM      8  C   UNL     1      -4.139  -0.592  -1.755  1.00  0.00     0.010 C 
BRANCH   5   9
ATOM      9  C   UNL     1       0.517   0.027  -0.899  1.00  0.00     0.140 A 
ATOM     10  N   UNL     1       1.683  -0.162  -0.202  1.00  0.00    -0.230 NA
ATOM     11  C   UNL     1       0.553   0.989  -1.940  1.00  0.00     0.062 A 
ATOM     12  C   UNL     1       2.843   0.471  -0.513  1.00  0.00     0.075 A 
ATOM     13  C   UNL     1      -0.370   1.593  -2.832  1.00  0.00     0.147 A 
ATOM     14  C   UNL     1       1.751   1.633  -2.240  1.00  0.00     0.071 A 
ATOM     15  C   UNL     1       2.935   1.388  -1.552  1.00  0.00     0.057 A 
ATOM     16  N   UNL     1       0.187   2.488  -3.652  1.00  0.00    -0.183 NA
ATOM     17  N   UNL     1       1.473   2.488  -3.272  1.00  0.00    -0.278 N 
ATOM     18  H   UNL     1       2.114   3.112  -3.749  1.00  0.00     0.190 HD
BRANCH  12  19
ATOM     19  C   UNL     1       3.999   0.127   0.342  1.00  0.00     0.000 A 
ATOM     20  C   UNL     1       5.310   0.060  -0.164  1.00  0.00     0.010 A 
ATOM     21  C   UNL     1       3.819  -0.158   1.708  1.00  0.00     0.010 A 
ATOM     22  C   UNL     1       6.393  -0.265   0.662  1.00  0.00     0.001 A 
ATOM     23  C   UNL     1       4.899  -0.477   2.536  1.00  0.00     0.001 A 
ATOM     24  C   UNL     1       6.187  -0.527   2.012  1.00  0.00     0.000 A 
ENDBRANCH  12  19
ENDBRANCH   5   9
ENDBRANCH   1   2
BRANCH   1  25
ATOM     25  C   UNL     1      -4.006   0.820   1.893  1.00  0.00     0.303 C 
ATOM     26  O   UNL     1      -2.918   1.246   2.240  1.00  0.00    -0.252 OA
BRANCH  25  27
ATOM     27  O   UNL     1      -5.093   1.619   1.924  1.00  0.00    -0.481 OA
ATOM     28  H   UNL     1      -4.744   2.479   2.241  1.00  0.00     0.296 HD
ENDBRANCH  25  27
ENDBRANCH   1  25
TORSDOF 5
