MODEL        10USER    Run = 10USERUSER    Estimated Free Energy of Binding    =  -6.20 kcal/mol  [=(1)+(2)+(3)-(4)]USERUSER    (1) Final Intermolecular Energy     =  -9.78 kcal/molUSER        vdW + Hbond + desolv Energy     =  -9.82 kcal/molUSER        Electrostatic Energy            =  -0.24 kcal/molUSER        Moving Ligand-Fixed Receptor    = -10.05 kcal/molUSER        Moving Ligand-Moving Receptor   =  +0.27 kcal/molUSER    (2) Final Total Internal Energy     =  -0.85 kcal/molUSER    (3) Torsional Free Energy           =  +3.58 kcal/molUSER    (4) Unbound System's Energy         =  -0.85 kcal/molUSERUSERREMARK SMILES CCNC1=C(c2cc3cc(O)ccc3[nH]2)C=C(C(=O)NOC)CC=C1REMARK SMILES IDX 5 1 4 2 3 3 2 5 1 6 25 7 24 8 6 10 7 11 15 12 8 13 14 14REMARK SMILES IDX 9 15 13 16 10 17 12 18 11 20 16 22 17 23 18 24 20 25 19 26REMARK SMILES IDX 21 28 22 29 23 30REMARK H PARENT 3 4 15 19 11 21 20 27REMARK Flexibility Score:    8.900USER                              x       y       z     vdW  Elec       q    TypeUSER                           _______ _______ _______ _____ _____    ______ ____ROOTATOM      1  C   UNL     1      37.989  46.440  16.034 -0.43 -0.01    +0.022 C  ENDROOTBRANCH   1   2ATOM      2  C   UNL     1      37.818  46.489  14.673 -0.45 -0.02    +0.043 C  BRANCH   2   3ATOM      3  N   UNL     1      36.736  45.868  14.034 -0.13 +0.18    -0.385 N  ATOM      4  H   UNL     1      36.930  44.900  13.780 +0.11 -0.06    +0.160 HD BRANCH   3   5ATOM      5  C   UNL     1      35.657  46.452  13.261 -0.51 -0.07    +0.109 C  ATOM      6  C   UNL     1      36.162  46.926  11.909 -0.71 -0.01    +0.027 C  ENDBRANCH   3   5ENDBRANCH   2   3BRANCH   2   7ATOM      7  C   UNL     1      38.770  47.172  13.787 -0.42 -0.01    +0.022 C  BRANCH   7   8ATOM      8  C   UNL     1      39.385  48.345  14.009 -0.34 +0.01    -0.020 CG0ATOM      9  G   UNL     1      39.445  49.036  15.336 +0.00 +0.00    +0.000 G0 ENDBRANCH   7   8ENDBRANCH   2   7ENDBRANCH   1   2BRANCH   1  10ATOM     10  C   UNL     1      36.980  45.790  16.819 -0.33 -0.02    +0.049 A  ATOM     11  C   UNL     1      36.911  44.583  17.484 -0.32 -0.01    +0.037 A  ATOM     12  N   UNL     1      35.801  46.458  17.060 -0.15 +0.29    -0.354 N  ATOM     13  C   UNL     1      35.636  44.498  18.108 -0.32 -0.00    +0.004 A  ATOM     14  C   UNL     1      34.957  45.683  17.821 -0.37 -0.03    +0.046 A  ATOM     15  C   UNL     1      34.994  43.519  18.894 -0.33 -0.01    +0.056 A  ATOM     16  C   UNL     1      33.659  45.942  18.276 -0.46 -0.02    +0.030 A  ATOM     17  C   UNL     1      33.699  43.772  19.351 -0.34 -0.02    +0.116 A  ATOM     18  C   UNL     1      33.039  44.957  19.050 -0.26 -0.01    +0.048 A  ATOM     19  H   UNL     1      35.578  47.374  16.695 +0.05 -0.26    +0.167 HD BRANCH  17  20ATOM     20  O   UNL     1      33.033  42.856  20.115 -0.57 -0.12    -0.508 OA ATOM     21  H   UNL     1      32.817  42.091  19.557 +0.19 +0.03    +0.293 HD ENDBRANCH  17  20ENDBRANCH   1  10BRANCH   1  22ATOM     22  C   UNL     1      39.152  46.977  16.750 -0.50 -0.01    +0.022 C  BRANCH  22  23ATOM     23  C   UNL     1      39.836  48.087  16.422 -0.55 -0.01    +0.024 C  BRANCH  23  24ATOM     24  C   UNL     1      41.082  48.346  17.189 -0.28 -0.03    +0.271 C  ATOM     25  N   UNL     1      41.339  47.365  18.123 -0.38 +0.02    -0.231 N  ATOM     26  O   UNL     1      41.753  49.352  16.996 -0.95 -0.05    -0.267 OA ATOM     27  H   UNL     1      40.557  46.816  18.464 +0.12 -0.02    +0.199 HD BRANCH  25  28ATOM     28  O   UNL     1      42.261  47.750  19.128 -0.41 -0.01    -0.277 OA ATOM     29  C   UNL     1      42.591  46.600  19.899 -0.31 +0.06    +0.231 C  ENDBRANCH  25  28ENDBRANCH  23  24BRANCH  23  30ATOM     30  C   UNL     1      39.444  49.039  15.336 -0.46 -0.04    +0.069 CG0ATOM     31  G   UNL     1      39.384  48.346  14.011 +0.00 +0.00    +0.000 G0 ENDBRANCH  23  30ENDBRANCH  22  23ENDBRANCH   1  22TORSDOF 6TERENDMDL