MODEL        10USER    Run = 10USERUSER    Estimated Free Energy of Binding    =  -6.40 kcal/mol  [=(1)+(2)+(3)-(4)]USERUSER    (1) Final Intermolecular Energy     =  -9.69 kcal/molUSER        vdW + Hbond + desolv Energy     =  -9.92 kcal/molUSER        Electrostatic Energy            =  -0.05 kcal/molUSER        Moving Ligand-Fixed Receptor    =  -9.97 kcal/molUSER        Moving Ligand-Moving Receptor   =  +0.29 kcal/molUSER    (2) Final Total Internal Energy     =  -1.80 kcal/molUSER    (3) Torsional Free Energy           =  +3.28 kcal/molUSER    (4) Unbound System's Energy         =  -1.80 kcal/molUSERUSERREMARK SMILES NC(=CCc1c(F)cccc1Cl)[C@H]1C=CC(=O)N(O)c2ccccc21REMARK SMILES IDX 2 1 1 2 3 5 4 6 5 7 6 8 11 9 8 10 10 11 9 12 7 13 12 14REMARK SMILES IDX 13 15 14 16 15 17 25 19 24 20 20 21 23 22 21 23 22 24 18 25REMARK SMILES IDX 16 26 17 27 19 29REMARK H PARENT 1 3 1 4 19 30REMARK Flexibility Score:   44.900USER                              x       y       z     vdW  Elec       q    TypeUSER                           _______ _______ _______ _____ _____    ______ ____ROOTATOM      1  C   UNL     1      36.248  45.749  17.662 -0.38 -0.01    +0.016 C  ENDROOTBRANCH   1   2ATOM      2  N   UNL     1      35.270  46.691  17.980 -0.02 +0.31    -0.402 N  ATOM      3  H   UNL     1      34.630  46.373  18.707 +0.05 -0.09    +0.156 HD ATOM      4  H   UNL     1      34.751  47.034  17.176 -0.18 -0.25    +0.156 HD ENDBRANCH   1   2BRANCH   1   5ATOM      5  C   UNL     1      35.864  44.478  17.417 -0.37 +0.00    -0.000 C  BRANCH   5   6ATOM      6  C   UNL     1      35.251  43.874  16.181 -0.38 -0.03    +0.069 C  BRANCH   6   7ATOM      7  C   UNL     1      33.774  44.165  16.065 -0.32 -0.01    +0.010 A  ATOM      8  C   UNL     1      33.357  45.254  15.286 -0.20 -0.10    +0.128 A  ATOM      9  C   UNL     1      32.779  43.385  16.673 -0.29 -0.02    +0.047 A  ATOM     10  C   UNL     1      32.011  45.571  15.117 -0.39 -0.03    +0.039 A  ATOM     11  C   UNL     1      31.423  43.698  16.507 -0.30 -0.01    +0.021 A  ATOM     12  C   UNL     1      31.038  44.791  15.730 -0.37 -0.00    +0.005 A  ATOM     13  F   UNL     1      34.272  46.023  14.677 -0.09 +0.21    -0.207 F  ATOM     14  Cl  UNL     1      33.158  42.020  17.659 -0.54 +0.03    -0.084 Cl ENDBRANCH   6   7ENDBRANCH   5   6ENDBRANCH   1   5BRANCH   1  15ATOM     15  C   UNL     1      37.716  46.237  17.612 -0.28 -0.03    +0.090 C  BRANCH  15  16ATOM     16  C   UNL     1      38.695  45.154  17.953 -0.45 +0.00    -0.007 C  BRANCH  16  17ATOM     17  C   UNL     1      40.021  45.245  18.077 -0.43 -0.00    +0.071 CG0ATOM     18  G   UNL     1      40.861  46.402  17.729 +0.00 +0.00    +0.000 G0 ENDBRANCH  16  17ENDBRANCH  15  16BRANCH  15  19ATOM     19  C   UNL     1      38.035  47.026  16.351 -0.39 +0.00    -0.009 A  ATOM     20  C   UNL     1      36.957  47.228  15.450 -0.41 -0.01    +0.007 A  ATOM     21  C   UNL     1      39.319  47.462  15.978 -0.43 -0.03    +0.077 A  ATOM     22  C   UNL     1      37.135  47.839  14.213 -0.53 -0.00    +0.000 A  ATOM     23  C   UNL     1      39.476  48.054  14.704 -0.51 -0.01    +0.029 A  ATOM     24  C   UNL     1      38.401  48.248  13.834 -0.47 -0.00    +0.002 A  BRANCH  21  25ATOM     25  N   UNL     1      40.475  47.324  16.782 -0.38 +0.03    -0.188 N  BRANCH  25  26ATOM     26  C   UNL     1      40.858  46.404  17.730 -0.36 -0.02    +0.274 CG0ATOM     27  O   UNL     1      41.887  46.586  18.394 -0.39 -0.00    -0.267 OA ATOM     28  G   UNL     1      40.019  45.246  18.077 +0.00 +0.00    +0.000 G0 ENDBRANCH  25  26BRANCH  25  29ATOM     29  O   UNL     1      41.405  48.406  16.684 -0.83 +0.01    -0.281 OA ATOM     30  H   UNL     1      42.211  48.007  17.081 -0.27 -0.01    +0.246 HD ENDBRANCH  25  29ENDBRANCH  21  25ENDBRANCH  15  19ENDBRANCH   1  15TORSDOF 6TERENDMDL