MODEL        10USER    Run = 10USERUSER    Estimated Free Energy of Binding    =  -8.05 kcal/mol  [=(1)+(2)+(3)-(4)]USERUSER    (1) Final Intermolecular Energy     =  -9.54 kcal/molUSER        vdW + Hbond + desolv Energy     =  -9.36 kcal/molUSER        Electrostatic Energy            =  -0.18 kcal/molUSER        Moving Ligand-Fixed Receptor    =  -9.54 kcal/molUSER        Moving Ligand-Moving Receptor   =  +0.00 kcal/molUSER    (2) Final Total Internal Energy     =  -0.31 kcal/molUSER    (3) Torsional Free Energy           =  +1.49 kcal/molUSER    (4) Unbound System's Energy         =  -0.31 kcal/molUSERUSERREMARK SMILES O=C1Nc2ccc(O)cc2/C1=C/Nc1ccc(O)c(Br)c1REMARK SMILES IDX 12 1 11 2 2 3 3 4 4 5 10 6 5 7 9 8 6 9 7 10 1 11 8 13 13 15REMARK SMILES IDX 14 17 15 18 21 19 16 20 19 21 17 22 20 23 18 24REMARK H PARENT 3 12 8 14 13 16 18 25USER                              x       y       z     vdW  Elec       q    TypeUSER                           _______ _______ _______ _____ _____    ______ ____ROOTATOM      1  C   UNL     1      36.854  45.627  15.214 -0.36 -0.05    +0.097 C  ENDROOTBRANCH   1   2ATOM      2  C   UNL     1      37.530  46.761  14.986 -0.43 -0.03    +0.065 C  ATOM      3  C   UNL     1      37.121  47.792  13.972 -0.40 -0.14    +0.257 C  ATOM      4  N   UNL     1      38.083  48.785  14.065 -0.23 +0.17    -0.321 N  ATOM      5  C   UNL     1      39.041  48.472  15.029 -0.50 -0.02    +0.049 A  ATOM      6  C   UNL     1      38.753  47.238  15.629 -0.45 -0.01    +0.016 A  ATOM      7  C   UNL     1      40.138  49.229  15.383 -0.54 -0.01    +0.030 A  ATOM      8  C   UNL     1      39.571  46.723  16.618 -0.43 -0.01    +0.057 A  ATOM      9  C   UNL     1      40.970  48.717  16.381 -0.53 -0.01    +0.048 A  ATOM     10  C   UNL     1      40.684  47.482  16.985 -0.44 -0.02    +0.116 A  ATOM     11  O   UNL     1      36.152  47.754  13.236 -0.49 +0.16    -0.269 OA ATOM     12  H   UNL     1      38.069  49.616  13.495 -0.39 -0.10    +0.170 HD BRANCH  10  13ATOM     13  O   UNL     1      41.545  47.049  17.952 -0.21 +0.04    -0.508 OA ATOM     14  H   UNL     1      42.442  47.006  17.584 -0.35 -0.08    +0.293 HD ENDBRANCH  10  13ENDBRANCH   1   2BRANCH   1  15ATOM     15  N   UNL     1      35.516  45.514  15.501 -0.11 +0.24    -0.361 N  ATOM     16  H   UNL     1      34.897  45.738  14.717 +0.11 -0.13    +0.166 HD BRANCH  15  17ATOM     17  C   UNL     1      34.877  45.143  16.696 -0.29 -0.02    +0.039 A  ATOM     18  C   UNL     1      34.673  46.018  17.773 -0.42 -0.02    +0.030 A  ATOM     19  C   UNL     1      34.418  43.821  16.824 -0.30 -0.02    +0.045 A  ATOM     20  C   UNL     1      34.031  45.590  18.941 -0.32 -0.02    +0.049 A  ATOM     21  C   UNL     1      33.777  43.393  17.989 -0.28 -0.02    +0.061 A  ATOM     22  C   UNL     1      33.585  44.280  19.044 -0.33 -0.03    +0.129 A  ATOM     23  Br  UNL     1      33.176  41.601  18.109 -0.78 +0.01    -0.047 Br BRANCH  22  24ATOM     24  O   UNL     1      32.965  43.920  20.206 -0.59 -0.00    -0.507 OA ATOM     25  H   UNL     1      32.808  44.737  20.716 -0.31 -0.06    +0.293 HD ENDBRANCH  22  24ENDBRANCH  15  17ENDBRANCH   1  15TORSDOF 5TERENDMDL