MODEL        8USER    Run = 8USERUSER    Estimated Free Energy of Binding    =  -9.76 kcal/mol  [=(1)+(2)+(3)-(4)]USERUSER    (1) Final Intermolecular Energy     = -11.26 kcal/molUSER        vdW + Hbond + desolv Energy     = -11.05 kcal/molUSER        Electrostatic Energy            =  -0.21 kcal/molUSER        Moving Ligand-Fixed Receptor    = -11.26 kcal/molUSER        Moving Ligand-Moving Receptor   =  +0.00 kcal/molUSER    (2) Final Total Internal Energy     =  -1.10 kcal/molUSER    (3) Torsional Free Energy           =  +1.49 kcal/molUSER    (4) Unbound System's Energy         =  -1.10 kcal/molUSERUSERREMARK SMILES C[C@@H]1CN(c2nc(-c3ccccc3)cc3[nH]ncc23)CC[C@H]1CC(=O)OREMARK SMILES IDX 23 1 22 2 2 3 3 4 4 5 21 6 20 7 1 8 5 9 6 10 19 11 7 12REMARK SMILES IDX 18 13 15 14 14 15 17 16 16 17 8 19 9 20 13 21 10 22 12 23REMARK SMILES IDX 11 24 24 25 25 26 26 27REMARK H PARENT 16 18 26 28USER                              x       y       z     vdW  Elec       q    TypeUSER                           _______ _______ _______ _____ _____    ______ ____ROOTATOM      1  C   UNL     1      33.513  42.682  18.304 -0.34 -0.03    +0.126 C  ENDROOTBRANCH   1   2ATOM      2  C   UNL     1      34.027  43.112  16.918 -0.42 -0.00    +0.006 C  ATOM      3  C   UNL     1      33.897  44.630  16.641 -0.37 -0.01    +0.009 C  ATOM      4  C   UNL     1      34.750  44.982  15.413 -0.29 -0.08    +0.121 C  ATOM      5  N   UNL     1      36.152  44.788  15.734 -0.11 +0.16    -0.356 N  ATOM      6  C   UNL     1      35.441  42.574  16.599 -0.50 -0.01    +0.026 C  ATOM      7  C   UNL     1      36.542  43.638  16.552 -0.35 -0.04    +0.118 C  ATOM      8  C   UNL     1      32.444  45.050  16.418 -0.38 -0.01    +0.010 C  BRANCH   5   9ATOM      9  C   UNL     1      37.101  45.801  15.683 -0.27 -0.07    +0.140 A  ATOM     10  N   UNL     1      38.059  45.796  16.664 -0.22 +0.07    -0.230 NA ATOM     11  C   UNL     1      37.178  46.848  14.731 -0.38 -0.03    +0.062 A  ATOM     12  C   UNL     1      39.079  46.690  16.708 -0.38 -0.02    +0.075 A  ATOM     13  C   UNL     1      36.402  47.328  13.645 -0.42 -0.09    +0.147 A  ATOM     14  C   UNL     1      38.229  47.761  14.797 -0.45 -0.03    +0.071 A  ATOM     15  C   UNL     1      39.219  47.706  15.772 -0.46 -0.02    +0.057 A  ATOM     16  N   UNL     1      36.926  48.400  13.046 -0.89 +0.06    -0.183 NA ATOM     17  N   UNL     1      38.034  48.637  13.763 -0.26 +0.11    -0.278 N  ATOM     18  H   UNL     1      38.613  49.428  13.505 -0.29 -0.11    +0.190 HD BRANCH  12  19ATOM     19  C   UNL     1      40.024  46.516  17.833 -0.48 -0.00    +0.000 A  ATOM     20  C   UNL     1      39.780  45.610  18.881 -0.43 -0.00    +0.010 A  ATOM     21  C   UNL     1      41.209  47.271  17.895 -0.52 -0.00    +0.010 A  ATOM     22  C   UNL     1      40.687  45.458  19.936 -0.41 +0.00    +0.001 A  ATOM     23  C   UNL     1      42.120  47.116  18.944 -0.53 +0.00    +0.001 A  ATOM     24  C   UNL     1      41.859  46.206  19.963 -0.42 +0.00    +0.000 A  ENDBRANCH  12  19ENDBRANCH   5   9ENDBRANCH   1   2BRANCH   1  25ATOM     25  C   UNL     1      33.865  43.610  19.436 -0.25 -0.03    +0.303 C  ATOM     26  O   UNL     1      34.947  44.123  19.663 -0.30 +0.04    -0.252 OA BRANCH  25  27ATOM     27  O   UNL     1      32.825  43.813  20.272 -0.66 -0.03    -0.481 OA ATOM     28  H   UNL     1      32.937  44.741  20.566 -0.28 -0.07    +0.296 HD ENDBRANCH  25  27ENDBRANCH   1  25TORSDOF 5TERENDMDL