MODEL        10USER    Run = 10USERUSER    Estimated Free Energy of Binding    =  -8.23 kcal/mol  [=(1)+(2)+(3)-(4)]USERUSER    (1) Final Intermolecular Energy     = -10.31 kcal/molUSER        vdW + Hbond + desolv Energy     = -10.08 kcal/molUSER        Electrostatic Energy            =  -0.23 kcal/molUSER        Moving Ligand-Fixed Receptor    = -10.31 kcal/molUSER        Moving Ligand-Moving Receptor   =  +0.00 kcal/molUSER    (2) Final Total Internal Energy     =  -1.09 kcal/molUSER    (3) Torsional Free Energy           =  +2.09 kcal/molUSER    (4) Unbound System's Energy         =  -1.09 kcal/molUSERUSERREMARK SMILES CCOC(=O)C[C@@H](C)C[C@H]1CCc2ccccc2[C@@]1(C)CCREMARK SMILES IDX 6 1 4 2 5 3 3 4 2 5 1 6 7 7 8 8 9 9 10 10 11 11 19 12 12 13REMARK SMILES IDX 18 14 13 15 17 16 14 17 16 18 15 19 20 20 21 21 22 22REMARK H PARENTUSER                              x       y       z     vdW  Elec       q    TypeUSER                           _______ _______ _______ _____ _____    ______ ____ROOTATOM      1  C   UNL     1      35.857  46.647  12.940 -0.56 -0.07    +0.126 C  ENDROOTBRANCH   1   2ATOM      2  C   UNL     1      37.024  47.241  12.179 -0.44 -0.09    +0.306 C  ATOM      3  O   UNL     1      37.322  47.004  11.018 -0.76 +0.07    -0.252 OA BRANCH   2   4ATOM      4  O   UNL     1      37.685  48.116  12.993 -0.70 +0.07    -0.466 OA BRANCH   4   5ATOM      5  C   UNL     1      36.962  48.560  14.151 -0.40 -0.16    +0.229 C  ATOM      6  C   UNL     1      37.886  48.619  15.353 -0.53 -0.04    +0.049 C  ENDBRANCH   4   5ENDBRANCH   2   4ENDBRANCH   1   2BRANCH   1   7ATOM      7  C   UNL     1      36.166  45.432  13.845 -0.48 +0.00    -0.003 C  ATOM      8  C   UNL     1      37.671  45.175  13.949 -0.45 -0.00    +0.008 C  BRANCH   7   9ATOM      9  C   UNL     1      35.485  45.566  15.220 -0.41 -0.01    +0.008 C  BRANCH   9  10ATOM     10  C   UNL     1      36.089  44.824  16.455 -0.39 +0.00    -0.000 C  ATOM     11  C   UNL     1      36.894  45.897  17.223 -0.41 -0.00    +0.009 C  ATOM     12  C   UNL     1      35.105  44.053  17.455 -0.36 +0.00    -0.005 C  ATOM     13  C   UNL     1      37.792  45.259  18.260 -0.40 -0.01    +0.036 C  ATOM     14  C   UNL     1      35.818  43.738  18.805 -0.33 +0.01    -0.039 A  ATOM     15  C   UNL     1      37.046  44.326  19.167 -0.34 +0.01    -0.044 A  ATOM     16  C   UNL     1      35.254  42.826  19.727 -0.44 -0.00    +0.004 A  ATOM     17  C   UNL     1      37.662  44.000  20.393 -0.37 -0.00    +0.004 A  ATOM     18  C   UNL     1      35.866  42.517  20.944 -0.46 +0.00    +0.000 A  ATOM     19  C   UNL     1      37.073  43.106  21.279 -0.42 +0.00    +0.000 A  ATOM     20  C   UNL     1      34.714  42.701  16.803 -0.47 -0.01    +0.017 C  BRANCH  12  21ATOM     21  C   UNL     1      33.832  44.933  17.698 -0.41 -0.00    +0.008 C  ATOM     22  C   UNL     1      33.924  46.095  18.683 -0.57 -0.00    +0.005 C  ENDBRANCH  12  21ENDBRANCH   9  10ENDBRANCH   7   9ENDBRANCH   1   7TORSDOF 7TERENDMDL