REMARK SMILES O=C1Nc2ccc(O)cc2/C1=C/Nc1ccc(O)c(Br)c1
REMARK SMILES IDX 12 1 11 2 2 3 3 4 4 5 10 6 5 7 9 8 6 9 7 10 1 11 8 13 13 15
REMARK SMILES IDX 14 17 15 18 21 19 16 20 19 21 17 22 20 23 18 24
REMARK H PARENT 3 12 8 14 13 16 18 25
ROOT
ATOM      1  C   UNL     1      -0.012  -0.064  -0.211  1.00  0.00     0.097 C 
ENDROOT
BRANCH   1   2
ATOM      2  C   UNL     1       1.190  -0.636  -0.357  1.00  0.00     0.065 C 
ATOM      3  C   UNL     1       1.443  -1.850  -1.206  1.00  0.00     0.257 C 
ATOM      4  N   UNL     1       2.800  -2.100  -1.075  1.00  0.00    -0.321 N 
ATOM      5  C   UNL     1       3.407  -1.168  -0.234  1.00  0.00     0.049 A 
ATOM      6  C   UNL     1       2.466  -0.242   0.238  1.00  0.00     0.016 A 
ATOM      7  C   UNL     1       4.739  -1.115   0.119  1.00  0.00     0.030 A 
ATOM      8  C   UNL     1       2.843   0.779   1.091  1.00  0.00     0.057 A 
ATOM      9  C   UNL     1       5.129  -0.087   0.980  1.00  0.00     0.048 A 
ATOM     10  C   UNL     1       4.189   0.842   1.455  1.00  0.00     0.116 A 
ATOM     11  O   UNL     1       0.627  -2.470  -1.863  1.00  0.00    -0.269 OA
ATOM     12  H   UNL     1       3.263  -2.866  -1.539  1.00  0.00     0.170 HD
BRANCH  10  13
ATOM     13  O   UNL     1       4.648   1.817   2.293  1.00  0.00    -0.508 OA
ATOM     14  H   UNL     1       3.908   2.391   2.549  1.00  0.00     0.293 HD
ENDBRANCH  10  13
ENDBRANCH   1   2
BRANCH   1  15
ATOM     15  N   UNL     1      -1.189  -0.469  -0.791  1.00  0.00    -0.361 N 
ATOM     16  H   UNL     1      -1.100  -1.295  -1.389  1.00  0.00     0.166 HD
BRANCH  15  17
ATOM     17  C   UNL     1      -2.480   0.075  -0.688  1.00  0.00     0.039 A 
ATOM     18  C   UNL     1      -2.789   1.203   0.085  1.00  0.00     0.030 A 
ATOM     19  C   UNL     1      -3.523  -0.545  -1.397  1.00  0.00     0.045 A 
ATOM     20  C   UNL     1      -4.096   1.700   0.150  1.00  0.00     0.049 A 
ATOM     21  C   UNL     1      -4.828  -0.050  -1.333  1.00  0.00     0.061 A 
ATOM     22  C   UNL     1      -5.110   1.072  -0.559  1.00  0.00     0.129 A 
ATOM     23  Br  UNL     1      -6.197  -0.923  -2.309  1.00  0.00    -0.047 Br
BRANCH  22  24
ATOM     24  O   UNL     1      -6.365   1.601  -0.458  1.00  0.00    -0.507 OA
ATOM     25  H   UNL     1      -6.955   1.052  -1.008  1.00  0.00     0.293 HD
ENDBRANCH  22  24
ENDBRANCH  15  17
ENDBRANCH   1  15
TORSDOF 5
