REMARK SMILES CCNC1=C(c2cc3cc(O)ccc3[nH]2)C=C(C(=O)NOC)CC=C1
REMARK SMILES IDX 5 1 4 2 3 3 2 5 1 6 25 7 24 8 6 10 7 11 15 12 8 13 14 14
REMARK SMILES IDX 9 15 13 16 10 17 12 18 11 20 16 22 17 23 18 24 20 25 19 26
REMARK SMILES IDX 21 28 22 29 23 30
REMARK H PARENT 3 4 15 19 11 21 20 27
REMARK Flexibility Score:    8.900
ROOT
ATOM      1  C   UNL     1       0.142   0.145  -0.114  1.00  0.00     0.022 C 
ENDROOT
BRANCH   1   2
ATOM      2  C   UNL     1       0.349   1.495   0.021  1.00  0.00     0.043 C 
BRANCH   2   3
ATOM      3  N   UNL     1      -0.712   2.404   0.139  1.00  0.00    -0.385 N 
ATOM      4  H   UNL     1      -1.605   2.009  -0.154  1.00  0.00     0.160 HD
BRANCH   3   5
ATOM      5  C   UNL     1      -0.697   3.854   0.113  1.00  0.00     0.109 C 
ATOM      6  C   UNL     1      -0.775   4.365  -1.316  1.00  0.00     0.027 C 
ENDBRANCH   3   5
ENDBRANCH   2   3
BRANCH   2   7
ATOM      7  C   UNL     1       1.693   2.087   0.024  1.00  0.00     0.022 C 
BRANCH   7   8
ATOM      8  C   UNL     1       2.800   1.579   0.590  1.00  0.00    -0.020 CG0
ATOM      9  G   UNL     1       2.882   0.233   1.240  1.00  0.00     0.000 G0
ENDBRANCH   7   8
ENDBRANCH   2   7
ENDBRANCH   1   2
BRANCH   1  10
ATOM     10  C   UNL     1      -1.209  -0.336  -0.112  1.00  0.00     0.049 A 
ATOM     11  C   UNL     1      -2.014  -0.940  -1.056  1.00  0.00     0.037 A 
ATOM     12  N   UNL     1      -1.930  -0.267   1.058  1.00  0.00    -0.354 N 
ATOM     13  C   UNL     1      -3.275  -1.204  -0.453  1.00  0.00     0.004 A 
ATOM     14  C   UNL     1      -3.199  -0.766   0.870  1.00  0.00     0.046 A 
ATOM     15  C   UNL     1      -4.478  -1.778  -0.912  1.00  0.00     0.056 A 
ATOM     16  C   UNL     1      -4.271  -0.866   1.764  1.00  0.00     0.030 A 
ATOM     17  C   UNL     1      -5.551  -1.881  -0.024  1.00  0.00     0.116 A 
ATOM     18  C   UNL     1      -5.456  -1.434   1.288  1.00  0.00     0.048 A 
ATOM     19  H   UNL     1      -1.584   0.130   1.921  1.00  0.00     0.167 HD
BRANCH  17  20
ATOM     20  O   UNL     1      -6.739  -2.427  -0.419  1.00  0.00    -0.508 OA
ATOM     21  H   UNL     1      -6.650  -2.721  -1.340  1.00  0.00     0.293 HD
ENDBRANCH  17  20
ENDBRANCH   1  10
BRANCH   1  22
ATOM     22  C   UNL     1       1.206  -0.849  -0.296  1.00  0.00     0.022 C 
BRANCH  22  23
ATOM     23  C   UNL     1       2.405  -0.840   0.312  1.00  0.00     0.024 C 
BRANCH  23  24
ATOM     24  C   UNL     1       3.313  -1.974  -0.002  1.00  0.00     0.271 C 
ATOM     25  N   UNL     1       4.531  -1.554  -0.492  1.00  0.00    -0.231 N 
ATOM     26  O   UNL     1       2.957  -3.136   0.146  1.00  0.00    -0.267 OA
ATOM     27  H   UNL     1       4.578  -0.641  -0.932  1.00  0.00     0.199 HD
BRANCH  25  28
ATOM     28  O   UNL     1       5.262  -2.563  -1.168  1.00  0.00    -0.277 OA
ATOM     29  C   UNL     1       6.279  -3.042  -0.294  1.00  0.00     0.231 C 
ENDBRANCH  25  28
ENDBRANCH  23  24
BRANCH  23  30
ATOM     30  C   UNL     1       2.882   0.233   1.240  1.00  0.00     0.069 CG0
ATOM     31  G   UNL     1       2.800   1.579   0.590  1.00  0.00     0.000 G0
ENDBRANCH  23  30
ENDBRANCH  22  23
ENDBRANCH   1  22
TORSDOF 6
