REMARK SMILES O=C(O)C=C1C=CCC(C(=O)O)=C(Nc2ccc(F)cc2F)OC1
REMARK SMILES IDX 24 1 5 2 4 3 2 4 1 5 3 6 6 8 23 10 13 11 9 12 8 13 7 14
REMARK SMILES IDX 10 16 11 17 12 18 14 20 15 22 16 23 21 24 17 25 20 26 18 27
REMARK SMILES IDX 22 28 19 29
REMARK H PARENT 3 7 12 19 14 21
REMARK Flexibility Score:   79.900
ROOT
ATOM      1  C   UNL     1       1.203  -0.277   0.813  1.00  0.00     0.267 C 
ENDROOT
BRANCH   1   2
ATOM      2  C   UNL     1       2.543  -0.341   0.098  1.00  0.00    -0.004 C 
BRANCH   2   3
ATOM      3  C   UNL     1       3.429  -1.288   0.472  1.00  0.00     0.100 C 
BRANCH   3   4
ATOM      4  C   UNL     1       4.776  -1.599  -0.032  1.00  0.00     0.328 C 
ATOM      5  O   UNL     1       5.351  -2.652   0.184  1.00  0.00    -0.247 OA
BRANCH   4   6
ATOM      6  O   UNL     1       5.377  -0.607  -0.700  1.00  0.00    -0.478 OA
ATOM      7  H   UNL     1       6.257  -0.974  -0.921  1.00  0.00     0.297 HD
ENDBRANCH   4   6
ENDBRANCH   3   4
ENDBRANCH   2   3
BRANCH   2   8
ATOM      8  C   UNL     1       2.742   0.555  -1.032  1.00  0.00     0.003 CG0
ATOM      9  G   UNL     1       2.156   1.745  -1.244  1.00  0.00     0.000 G0
ENDBRANCH   2   8
ENDBRANCH   1   2
BRANCH   1  10
ATOM     10  O   UNL     1       0.140  -0.280  -0.144  1.00  0.00    -0.474 OA
BRANCH  10  11
ATOM     11  C   UNL     1      -0.670   0.841  -0.191  1.00  0.00     0.202 C 
BRANCH  11  12
ATOM     12  C   UNL     1      -0.169   2.102  -0.262  1.00  0.00     0.101 C 
BRANCH  12  13
ATOM     13  C   UNL     1       1.279   2.522  -0.302  1.00  0.00     0.076 C 
BRANCH  13  14
ATOM     14  C   UNL     1       2.156   1.745  -1.244  1.00  0.00    -0.021 CG0
ATOM     15  G   UNL     1       2.742   0.555  -1.032  1.00  0.00     0.000 G0
ENDBRANCH  13  14
ENDBRANCH  12  13
BRANCH  12  16
ATOM     16  C   UNL     1      -1.147   3.215  -0.308  1.00  0.00     0.337 C 
ATOM     17  O   UNL     1      -2.252   3.188  -0.824  1.00  0.00    -0.247 OA
BRANCH  16  18
ATOM     18  O   UNL     1      -0.707   4.311   0.332  1.00  0.00    -0.478 OA
ATOM     19  H   UNL     1      -1.448   4.948   0.254  1.00  0.00     0.297 HD
ENDBRANCH  16  18
ENDBRANCH  12  16
ENDBRANCH  11  12
BRANCH  11  20
ATOM     20  N   UNL     1      -2.026   0.561  -0.268  1.00  0.00    -0.323 N 
ATOM     21  H   UNL     1      -2.595   1.317  -0.654  1.00  0.00     0.170 HD
BRANCH  20  22
ATOM     22  C   UNL     1      -2.701  -0.658  -0.079  1.00  0.00     0.077 A 
ATOM     23  C   UNL     1      -3.767  -0.967  -0.942  1.00  0.00     0.032 A 
ATOM     24  C   UNL     1      -2.342  -1.618   0.883  1.00  0.00     0.149 A 
ATOM     25  C   UNL     1      -4.444  -2.185  -0.843  1.00  0.00     0.041 A 
ATOM     26  C   UNL     1      -3.012  -2.834   0.990  1.00  0.00     0.080 A 
ATOM     27  C   UNL     1      -4.057  -3.107   0.121  1.00  0.00     0.126 A 
ATOM     28  F   UNL     1      -1.383  -1.359   1.786  1.00  0.00    -0.205 F 
ATOM     29  F   UNL     1      -4.708  -4.274   0.217  1.00  0.00    -0.207 F 
ENDBRANCH  20  22
ENDBRANCH  11  20
ENDBRANCH  10  11
ENDBRANCH   1  10
TORSDOF 7
