REMARK SMILES N[C@H]1CN(c2ncc(Cl)c(-c3ccc4ccccc4c3)n2)CCN1CCCO
REMARK SMILES IDX 25 1 24 2 2 3 3 4 4 5 23 6 22 7 1 8 5 11 6 12 21 13 7 14
REMARK SMILES IDX 10 15 8 16 9 17 11 18 12 19 20 20 13 21 19 22 14 23 18 24
REMARK SMILES IDX 15 25 17 26 16 27 26 28 27 29 28 30
REMARK H PARENT 1 9 1 10 28 31
ROOT
ATOM      1  C   UNL     1       4.240   0.493  -1.121  1.00  0.00     0.088 C 
ENDROOT
BRANCH   1   2
ATOM      2  N   UNL     1       2.991  -0.242  -0.923  1.00  0.00    -0.285 NA
ATOM      3  C   UNL     1       2.977  -1.490  -0.161  1.00  0.00     0.141 C 
ATOM      4  C   UNL     1       2.668  -1.310   1.362  1.00  0.00     0.154 C 
ATOM      5  N   UNL     1       1.396  -0.583   1.546  1.00  0.00    -0.337 N 
ATOM      6  C   UNL     1       1.811   0.599  -0.622  1.00  0.00     0.107 C 
ATOM      7  C   UNL     1       1.391   0.724   0.866  1.00  0.00     0.135 C 
BRANCH   3   8
ATOM      8  N   UNL     1       4.190  -2.243  -0.435  1.00  0.00    -0.314 NA
ATOM      9  H   UNL     1       4.244  -2.343  -1.447  1.00  0.00     0.120 HD
ATOM     10  H   UNL     1       4.075  -3.185  -0.066  1.00  0.00     0.120 HD
ENDBRANCH   3   8
BRANCH   5  11
ATOM     11  C   UNL     1       0.255  -1.358   1.339  1.00  0.00     0.226 A 
ATOM     12  N   UNL     1       0.321  -2.682   1.549  1.00  0.00    -0.220 NA
ATOM     13  N   UNL     1      -0.882  -0.759   0.953  1.00  0.00    -0.211 NA
ATOM     14  C   UNL     1      -0.804  -3.406   1.367  1.00  0.00     0.138 A 
ATOM     15  C   UNL     1      -2.005  -1.505   0.782  1.00  0.00     0.094 A 
ATOM     16  C   UNL     1      -2.009  -2.872   0.980  1.00  0.00     0.085 A 
ATOM     17  Cl  UNL     1      -3.360  -3.902   0.733  1.00  0.00    -0.080 Cl
BRANCH  15  18
ATOM     18  C   UNL     1      -3.176  -0.721   0.356  1.00  0.00     0.002 A 
ATOM     19  C   UNL     1      -4.366  -0.705   1.098  1.00  0.00     0.011 A 
ATOM     20  C   UNL     1      -3.115   0.067  -0.808  1.00  0.00     0.019 A 
ATOM     21  C   UNL     1      -5.467   0.050   0.680  1.00  0.00     0.009 A 
ATOM     22  C   UNL     1      -4.211   0.832  -1.244  1.00  0.00    -0.018 A 
ATOM     23  C   UNL     1      -5.405   0.821  -0.490  1.00  0.00    -0.018 A 
ATOM     24  C   UNL     1      -4.145   1.609  -2.412  1.00  0.00     0.009 A 
ATOM     25  C   UNL     1      -6.500   1.584  -0.924  1.00  0.00     0.009 A 
ATOM     26  C   UNL     1      -5.242   2.363  -2.831  1.00  0.00     0.001 A 
ATOM     27  C   UNL     1      -6.419   2.350  -2.088  1.00  0.00     0.001 A 
ENDBRANCH  15  18
ENDBRANCH   5  11
ENDBRANCH   1   2
BRANCH   1  28
ATOM     28  C   UNL     1       5.223   0.784   0.024  1.00  0.00     0.044 C 
BRANCH  28  29
ATOM     29  C   UNL     1       4.828   1.861   1.020  1.00  0.00     0.157 C 
BRANCH  29  30
ATOM     30  O   UNL     1       4.306   3.013   0.376  1.00  0.00    -0.396 OA
ATOM     31  H   UNL     1       5.024   3.399  -0.156  1.00  0.00     0.210 HD
ENDBRANCH  29  30
ENDBRANCH  28  29
ENDBRANCH   1  28
TORSDOF 7
