REMARK SMILES CCCCOC(=O)c1ccc(-c2ccnc3[nH]ccc23)cc1N
REMARK SMILES IDX 5 1 4 2 3 3 2 4 1 5 6 6 7 7 8 8 9 9 22 10 10 11 21 12 11 13
REMARK SMILES IDX 23 14 12 17 13 18 20 19 14 20 19 21 16 22 15 23 18 24 17 25
REMARK H PARENT 23 15 23 16 17 26
ROOT
ATOM      1  O   UNL     1       2.831  -1.126  -0.058  1.00  0.00    -0.462 OA
ENDROOT
BRANCH   1   2
ATOM      2  C   UNL     1       4.096  -1.769   0.144  1.00  0.00     0.233 C 
BRANCH   2   3
ATOM      3  C   UNL     1       5.137  -1.117  -0.764  1.00  0.00     0.041 C 
BRANCH   3   4
ATOM      4  C   UNL     1       5.300   0.392  -0.559  1.00  0.00     0.000 C 
ATOM      5  C   UNL     1       5.786   0.766   0.832  1.00  0.00     0.004 C 
ENDBRANCH   3   4
ENDBRANCH   2   3
ENDBRANCH   1   2
BRANCH   1   6
ATOM      6  C   UNL     1       1.821  -1.633   0.697  1.00  0.00     0.340 C 
ATOM      7  O   UNL     1       1.932  -2.545   1.504  1.00  0.00    -0.246 OA
BRANCH   6   8
ATOM      8  C   UNL     1       0.552  -0.886   0.474  1.00  0.00     0.083 A 
ATOM      9  C   UNL     1      -0.391  -0.952   1.513  1.00  0.00     0.018 A 
ATOM     10  C   UNL     1       0.266  -0.134  -0.684  1.00  0.00     0.047 A 
ATOM     11  C   UNL     1      -1.621  -0.299   1.404  1.00  0.00     0.010 A 
ATOM     12  C   UNL     1      -1.000   0.471  -0.790  1.00  0.00     0.035 A 
ATOM     13  C   UNL     1      -1.948   0.416   0.247  1.00  0.00    -0.016 A 
BRANCH  10  14
ATOM     14  N   UNL     1       1.080  -0.148  -1.833  1.00  0.00    -0.398 N 
ATOM     15  H   UNL     1       2.060  -0.337  -1.613  1.00  0.00     0.156 HD
ATOM     16  H   UNL     1       0.971   0.663  -2.433  1.00  0.00     0.156 HD
ENDBRANCH  10  14
BRANCH  13  17
ATOM     17  C   UNL     1      -3.243   1.086   0.113  1.00  0.00    -0.006 A 
ATOM     18  C   UNL     1      -3.356   2.477  -0.027  1.00  0.00     0.029 A 
ATOM     19  C   UNL     1      -4.446   0.344   0.115  1.00  0.00     0.026 A 
ATOM     20  C   UNL     1      -4.614   3.053  -0.145  1.00  0.00     0.114 A 
ATOM     21  C   UNL     1      -4.811  -1.032   0.206  1.00  0.00     0.030 A 
ATOM     22  C   UNL     1      -5.635   1.056  -0.013  1.00  0.00     0.137 A 
ATOM     23  N   UNL     1      -5.788   2.386  -0.143  1.00  0.00    -0.239 NA
ATOM     24  C   UNL     1      -6.187  -1.111   0.143  1.00  0.00     0.085 A 
ATOM     25  N   UNL     1      -6.671   0.164   0.011  1.00  0.00    -0.346 N 
ATOM     26  H   UNL     1      -7.641   0.435  -0.067  1.00  0.00     0.167 HD
ENDBRANCH  13  17
ENDBRANCH   6   8
ENDBRANCH   1   6
TORSDOF 7
