MODEL        5USER    Run = 5USERUSER    Estimated Free Energy of Binding    =  -4.22 kcal/mol  [=(1)+(2)+(3)-(4)]USERUSER    (1) Final Intermolecular Energy     =  -8.39 kcal/molUSER        vdW + Hbond + desolv Energy     =  -9.28 kcal/molUSER        Electrostatic Energy            =  -0.21 kcal/molUSER        Moving Ligand-Fixed Receptor    =  -9.49 kcal/molUSER        Moving Ligand-Moving Receptor   =  +1.09 kcal/molUSER    (2) Final Total Internal Energy     =  -1.27 kcal/molUSER    (3) Torsional Free Energy           =  +4.18 kcal/molUSER    (4) Unbound System's Energy         =  -1.27 kcal/molUSERUSERREMARK SMILES O=C(O)C=C1C=CCC(C(=O)O)=C(Nc2ccc(F)cc2F)OC1REMARK SMILES IDX 24 1 5 2 4 3 2 4 1 5 3 6 6 8 23 10 13 11 9 12 8 13 7 14REMARK SMILES IDX 10 16 11 17 12 18 14 20 15 22 16 23 21 24 17 25 20 26 18 27REMARK SMILES IDX 22 28 19 29REMARK H PARENT 3 7 12 19 14 21REMARK Flexibility Score:   79.900USER                              x       y       z     vdW  Elec       q    TypeUSER                           _______ _______ _______ _____ _____    ______ ____ROOTATOM      1  C   UNL     1      38.479  45.565  16.269 -0.22 -0.07    +0.267 C  ENDROOTBRANCH   1   2ATOM      2  C   UNL     1      39.689  46.485  16.230 -0.51 +0.00    -0.004 C  BRANCH   2   3ATOM      3  C   UNL     1      40.628  46.357  17.191 -0.47 -0.01    +0.100 C  BRANCH   3   4ATOM      4  C   UNL     1      41.431  47.370  17.893 -0.32 -0.03    +0.328 C  ATOM      5  O   UNL     1      41.726  47.298  19.074 -0.40 -0.00    -0.247 OA BRANCH   4   6ATOM      6  O   UNL     1      41.769  48.438  17.160 -0.62 -0.02    -0.478 OA ATOM      7  H   UNL     1      42.457  48.096  16.554 -0.26 +0.01    +0.297 HD ENDBRANCH   4   6ENDBRANCH   3   4ENDBRANCH   2   3BRANCH   2   8ATOM      8  C   UNL     1      39.818  47.373  15.083 -0.57 -0.00    +0.003 CG0ATOM      9  G   UNL     1      39.122  48.496  14.838 +0.00 +0.00    +0.000 G0 ENDBRANCH   2   8ENDBRANCH   1   2BRANCH   1  10ATOM     10  O   UNL     1      37.282  46.341  16.377 -0.09 +0.24    -0.474 OA BRANCH  10  11ATOM     11  C   UNL     1      36.540  46.519  15.223 -0.30 -0.14    +0.202 C  BRANCH  11  12ATOM     12  C   UNL     1      36.942  47.334  14.214 -0.48 -0.06    +0.101 C  BRANCH  12  13ATOM     13  C   UNL     1      37.718  48.624  14.318 -0.52 -0.05    +0.076 C  BRANCH  13  14ATOM     14  C   UNL     1      39.117  48.499  14.854 -0.59 +0.01    -0.021 CG0ATOM     15  G   UNL     1      39.814  47.375  15.084 +0.00 +0.00    +0.000 G0 ENDBRANCH  13  14ENDBRANCH  12  13BRANCH  12  16ATOM     16  C   UNL     1      36.587  46.926  12.834 -0.42 -0.15    +0.337 C  ATOM     17  O   UNL     1      36.074  45.871  12.499 -0.44 +0.11    -0.247 OA BRANCH  16  18ATOM     18  O   UNL     1      36.861  47.881  11.930 -0.86 +0.13    -0.478 OA ATOM     19  H   UNL     1      35.981  48.147  11.589 -0.13 -0.19    +0.297 HD ENDBRANCH  16  18ENDBRANCH  12  16ENDBRANCH  11  12BRANCH  11  20ATOM     20  N   UNL     1      35.412  45.715  15.142 -0.15 +0.24    -0.323 N  ATOM     21  H   UNL     1      34.958  45.711  14.226 +0.12 -0.12    +0.170 HD BRANCH  20  22ATOM     22  C   UNL     1      34.919  44.769  16.057 -0.27 -0.04    +0.077 A  ATOM     23  C   UNL     1      33.962  45.192  16.997 -0.31 -0.02    +0.032 A  ATOM     24  C   UNL     1      35.277  43.410  16.058 -0.30 -0.06    +0.149 A  ATOM     25  C   UNL     1      33.392  44.291  17.900 -0.30 -0.01    +0.041 A  ATOM     26  C   UNL     1      34.714  42.505  16.955 -0.38 -0.03    +0.080 A  ATOM     27  C   UNL     1      33.772  42.955  17.866 -0.26 -0.04    +0.126 A  ATOM     28  F   UNL     1      36.236  42.953  15.238 -0.15 +0.07    -0.205 F  ATOM     29  F   UNL     1      33.227  42.092  18.733 -0.08 +0.02    -0.207 F  ENDBRANCH  20  22ENDBRANCH  11  20ENDBRANCH  10  11ENDBRANCH   1  10TORSDOF 7TERENDMDL