MODEL        2USER    Run = 2USERUSER    Estimated Free Energy of Binding    =  -8.77 kcal/mol  [=(1)+(2)+(3)-(4)]USERUSER    (1) Final Intermolecular Energy     =  -9.96 kcal/molUSER        vdW + Hbond + desolv Energy     =  -9.98 kcal/molUSER        Electrostatic Energy            =  +0.02 kcal/molUSER        Moving Ligand-Fixed Receptor    =  -9.96 kcal/molUSER        Moving Ligand-Moving Receptor   =  +0.00 kcal/molUSER    (2) Final Total Internal Energy     =  -1.60 kcal/molUSER    (3) Torsional Free Energy           =  +1.19 kcal/molUSER    (4) Unbound System's Energy         =  -1.60 kcal/molUSERUSERREMARK SMILES CCc1c2ccnnc2c2c3c(cccc13)N[C@H]2[C@](C)(O)CCREMARK SMILES IDX 3 1 4 2 5 3 6 4 7 5 8 6 9 7 10 8 11 9 12 10 13 11 14 12REMARK SMILES IDX 15 13 16 14 17 15 18 16 2 18 1 19 19 20 20 21 21 22 22 24REMARK SMILES IDX 23 25REMARK H PARENT 17 17 21 23USER                              x       y       z     vdW  Elec       q    TypeUSER                           _______ _______ _______ _____ _____    ______ ____ROOTATOM      1  C   UNL     1      39.284  46.287  17.859 -0.41 +0.01    -0.031 A  ATOM      2  C   UNL     1      37.969  45.737  17.629 -0.37 -0.00    +0.008 A  ATOM      3  C   UNL     1      37.361  44.784  18.468 -0.34 -0.01    +0.033 A  ATOM      4  C   UNL     1      36.082  44.342  18.195 -0.24 -0.04    +0.136 A  ATOM      5  N   UNL     1      35.378  44.789  17.147 -0.20 +0.07    -0.159 NA ATOM      6  N   UNL     1      35.947  45.702  16.311 -0.25 +0.10    -0.150 NA ATOM      7  C   UNL     1      37.198  46.153  16.510 -0.31 -0.05    +0.099 A  ATOM      8  C   UNL     1      37.752  47.050  15.623 -0.41 -0.01    +0.015 A  ATOM      9  C   UNL     1      38.970  47.596  15.892 -0.47 -0.01    +0.013 A  ATOM     10  C   UNL     1      39.234  48.546  14.949 -0.50 -0.02    +0.043 A  ATOM     11  C   UNL     1      40.436  49.226  14.982 -0.56 -0.01    +0.026 A  ATOM     12  C   UNL     1      41.347  48.922  16.001 -0.50 -0.00    +0.003 A  ATOM     13  C   UNL     1      41.040  47.956  16.980 -0.53 -0.00    +0.009 A  ATOM     14  C   UNL     1      39.803  47.262  16.958 -0.47 +0.00    -0.012 A  ATOM     15  N   UNL     1      38.197  48.727  13.987 -0.17 +0.18    -0.375 N  ATOM     16  C   UNL     1      37.182  47.658  14.362 -0.46 -0.09    +0.144 C  ATOM     17  H   UNL     1      38.609  48.468  13.083 +0.07 -0.01    +0.161 HD ENDROOTBRANCH   1  18ATOM     18  C   UNL     1      40.123  45.853  19.047 -0.48 -0.00    +0.033 C  ATOM     19  C   UNL     1      41.031  44.682  18.701 -0.46 +0.00    +0.009 C  ENDBRANCH   1  18BRANCH  16  20ATOM     20  C   UNL     1      36.968  46.745  13.078 -0.58 -0.03    +0.086 C  ATOM     21  C   UNL     1      37.487  45.313  13.221 -0.43 -0.01    +0.044 C  BRANCH  20  22ATOM     22  O   UNL     1      37.659  47.355  11.962 -0.92 +0.04    -0.388 OA ATOM     23  H   UNL     1      36.993  47.733  11.362 -0.09 -0.07    +0.211 HD ENDBRANCH  20  22BRANCH  20  24ATOM     24  C   UNL     1      35.449  46.746  12.741 -0.56 -0.02    +0.034 C  ATOM     25  C   UNL     1      34.523  46.267  13.855 -0.36 -0.01    +0.007 C  ENDBRANCH  20  24ENDBRANCH  16  20TORSDOF 4TERENDMDL