MODEL        5USER    Run = 5USERUSER    Estimated Free Energy of Binding    =  -8.70 kcal/mol  [=(1)+(2)+(3)-(4)]USERUSER    (1) Final Intermolecular Energy     = -10.79 kcal/molUSER        vdW + Hbond + desolv Energy     = -10.60 kcal/molUSER        Electrostatic Energy            =  -0.19 kcal/molUSER        Moving Ligand-Fixed Receptor    = -10.79 kcal/molUSER        Moving Ligand-Moving Receptor   =  +0.00 kcal/molUSER    (2) Final Total Internal Energy     =  -1.19 kcal/molUSER    (3) Torsional Free Energy           =  +2.09 kcal/molUSER    (4) Unbound System's Energy         =  -1.19 kcal/molUSERUSERREMARK SMILES CCCCOC(=O)c1ccc(-c2ccnc3[nH]ccc23)cc1NREMARK SMILES IDX 5 1 4 2 3 3 2 4 1 5 6 6 7 7 8 8 9 9 22 10 10 11 21 12 11 13REMARK SMILES IDX 23 14 12 17 13 18 20 19 14 20 19 21 16 22 15 23 18 24 17 25REMARK H PARENT 23 15 23 16 17 26USER                              x       y       z     vdW  Elec       q    TypeUSER                           _______ _______ _______ _____ _____    ______ ____ROOTATOM      1  O   UNL     1      33.666  41.804  18.815 -0.15 +0.05    -0.462 OA ENDROOTBRANCH   1   2ATOM      2  C   UNL     1      32.373  41.442  18.312 -0.29 -0.04    +0.233 C  BRANCH   2   3ATOM      3  C   UNL     1      32.373  39.955  17.961 -0.49 -0.01    +0.041 C  BRANCH   3   4ATOM      4  C   UNL     1      31.662  39.064  18.983 -0.51 +0.00    +0.000 C  ATOM      5  C   UNL     1      32.079  37.604  18.909 -0.62 +0.00    +0.004 C  ENDBRANCH   3   4ENDBRANCH   2   3ENDBRANCH   1   2BRANCH   1   6ATOM      6  C   UNL     1      33.796  43.121  19.123 -0.21 -0.04    +0.340 C  ATOM      7  O   UNL     1      33.525  43.624  20.204 -0.91 -0.01    -0.246 OA BRANCH   6   8ATOM      8  C   UNL     1      34.386  43.885  17.989 -0.25 -0.03    +0.083 A  ATOM      9  C   UNL     1      34.445  45.279  18.151 -0.40 -0.01    +0.018 A  ATOM     10  C   UNL     1      34.881  43.297  16.807 -0.35 -0.02    +0.047 A  ATOM     11  C   UNL     1      34.968  46.094  17.145 -0.36 -0.01    +0.010 A  ATOM     12  C   UNL     1      35.355  44.144  15.788 -0.32 -0.02    +0.035 A  ATOM     13  C   UNL     1      35.424  45.540  15.944 -0.33 +0.01    -0.016 A  BRANCH  10  14ATOM     14  N   UNL     1      34.714  41.934  16.495 -0.07 +0.21    -0.398 N  ATOM     15  H   UNL     1      33.761  41.718  16.194 -0.45 -0.12    +0.156 HD ATOM     16  H   UNL     1      35.042  41.297  17.213 -0.46 -0.10    +0.156 HD ENDBRANCH  10  14BRANCH  13  17ATOM     17  C   UNL     1      35.954  46.387  14.873 -0.39 +0.00    -0.006 A  ATOM     18  C   UNL     1      35.341  46.474  13.614 -0.45 -0.02    +0.029 A  ATOM     19  C   UNL     1      37.117  47.164  15.073 -0.41 -0.02    +0.026 A  ATOM     20  C   UNL     1      35.896  47.292  12.639 -0.53 -0.07    +0.114 A  ATOM     21  C   UNL     1      38.027  47.404  16.145 -0.38 -0.02    +0.030 A  ATOM     22  C   UNL     1      37.558  47.939  14.005 -0.43 -0.07    +0.137 A  ATOM     23  N   UNL     1      37.006  48.046  12.783 -0.94 +0.07    -0.239 NA ATOM     24  C   UNL     1      38.983  48.294  15.699 -0.44 -0.04    +0.085 A  ATOM     25  N   UNL     1      38.684  48.607  14.399 -0.23 +0.17    -0.346 N  ATOM     26  H   UNL     1      39.195  49.239  13.799 -0.24 -0.09    +0.167 HD ENDBRANCH  13  17ENDBRANCH   6   8ENDBRANCH   1   6TORSDOF 7TERENDMDL