REMARK SMILES CCCCc1ccc(NC(=O)Nc2ccc(C(=O)NCCO)cc2)cc1O
REMARK SMILES IDX 13 1 14 2 15 3 16 4 23 5 24 6 12 7 9 8 10 9 11 11 8 13 5 14
REMARK SMILES IDX 6 15 26 16 7 17 25 18 4 19 3 20 2 21 1 22 27 23 17 25 19 26
REMARK SMILES IDX 18 27 20 29 21 30 22 31
REMARK H PARENT 9 10 12 12 27 24 19 28 22 32
ROOT
ATOM      1  C   UNL     1      -2.409  -0.336  -0.797  1.00  0.00     0.042 A 
ATOM      2  C   UNL     1      -3.383  -1.083  -1.472  1.00  0.00     0.027 A 
ATOM      3  C   UNL     1      -4.733  -0.717  -1.417  1.00  0.00     0.016 A 
ATOM      4  C   UNL     1      -5.122   0.409  -0.685  1.00  0.00     0.039 A 
ATOM      5  C   UNL     1      -4.150   1.174  -0.034  1.00  0.00     0.016 A 
ATOM      6  C   UNL     1      -2.802   0.800  -0.086  1.00  0.00     0.027 A 
ENDROOT
BRANCH   1   7
ATOM      7  N   UNL     1      -1.071  -0.764  -0.910  1.00  0.00    -0.308 N 
ATOM      8  N   UNL     1       1.189  -0.862  -0.683  1.00  0.00    -0.308 N 
ATOM      9  C   UNL     1       0.018  -0.321  -0.170  1.00  0.00     0.323 C 
ATOM     10  H   UNL     1       1.130  -1.206  -1.628  1.00  0.00     0.171 HD
ATOM     11  O   UNL     1      -0.050   0.430   0.793  1.00  0.00    -0.248 OA
ATOM     12  H   UNL     1      -0.915  -1.603  -1.449  1.00  0.00     0.171 HD
BRANCH   8  13
ATOM     13  C   UNL     1       2.488  -0.764  -0.137  1.00  0.00     0.046 A 
ATOM     14  C   UNL     1       5.145  -0.661   0.832  1.00  0.00    -0.006 A 
ATOM     15  C   UNL     1       4.070  -0.230   1.622  1.00  0.00     0.009 A 
ATOM     16  C   UNL     1       4.866  -1.150  -0.447  1.00  0.00     0.120 A 
ATOM     17  C   UNL     1       2.756  -0.282   1.143  1.00  0.00     0.027 A 
ATOM     18  C   UNL     1       3.555  -1.206  -0.930  1.00  0.00     0.072 A 
BRANCH  14  19
ATOM     19  C   UNL     1       6.551  -0.582   1.380  1.00  0.00     0.039 C 
BRANCH  19  20
ATOM     20  C   UNL     1       7.095   0.849   1.480  1.00  0.00     0.005 C 
BRANCH  20  21
ATOM     21  C   UNL     1       7.332   1.550   0.139  1.00  0.00    -0.003 C 
ATOM     22  C   UNL     1       8.458   0.930  -0.675  1.00  0.00     0.004 C 
ENDBRANCH  20  21
ENDBRANCH  19  20
ENDBRANCH  14  19
BRANCH  16  23
ATOM     23  O   UNL     1       5.900  -1.579  -1.231  1.00  0.00    -0.508 OA
ATOM     24  H   UNL     1       5.556  -1.851  -2.096  1.00  0.00     0.293 HD
ENDBRANCH  16  23
ENDBRANCH   8  13
ENDBRANCH   1   7
BRANCH   4  25
ATOM     25  C   UNL     1      -6.543   0.842  -0.603  1.00  0.00     0.251 C 
ATOM     26  N   UNL     1      -7.488  -0.163  -0.640  1.00  0.00    -0.350 N 
ATOM     27  O   UNL     1      -6.822   2.027  -0.475  1.00  0.00    -0.269 OA
ATOM     28  H   UNL     1      -7.189  -1.122  -0.532  1.00  0.00     0.163 HD
BRANCH  26  29
ATOM     29  C   UNL     1      -8.900   0.134  -0.495  1.00  0.00     0.144 C 
BRANCH  29  30
ATOM     30  C   UNL     1      -9.302   0.470   0.942  1.00  0.00     0.177 C 
BRANCH  30  31
ATOM     31  O   UNL     1     -10.720   0.475   1.082  1.00  0.00    -0.395 OA
ATOM     32  H   UNL     1     -11.033  -0.437   0.961  1.00  0.00     0.210 HD
ENDBRANCH  30  31
ENDBRANCH  29  30
ENDBRANCH  26  29
ENDBRANCH   4  25
TORSDOF 10
