REMARK SMILES CCc1c2ccnnc2c2c3c(cccc13)N[C@H]2[C@](C)(O)CC
REMARK SMILES IDX 3 1 4 2 5 3 6 4 7 5 8 6 9 7 10 8 11 9 12 10 13 11 14 12
REMARK SMILES IDX 15 13 16 14 17 15 18 16 2 18 1 19 19 20 20 21 21 22 22 24
REMARK SMILES IDX 23 25
REMARK H PARENT 17 17 21 23
ROOT
ATOM      1  C   UNL     1       2.640   0.089  -0.540  1.00  0.00    -0.031 A 
ATOM      2  C   UNL     1       1.807   1.168  -1.015  1.00  0.00     0.008 A 
ATOM      3  C   UNL     1       2.305   2.417  -1.431  1.00  0.00     0.033 A 
ATOM      4  C   UNL     1       1.439   3.379  -1.911  1.00  0.00     0.136 A 
ATOM      5  N   UNL     1       0.119   3.173  -2.003  1.00  0.00    -0.159 NA
ATOM      6  N   UNL     1      -0.392   1.977  -1.595  1.00  0.00    -0.150 NA
ATOM      7  C   UNL     1       0.397   1.010  -1.096  1.00  0.00     0.099 A 
ATOM      8  C   UNL     1      -0.161  -0.173  -0.662  1.00  0.00     0.015 A 
ATOM      9  C   UNL     1       0.650  -1.195  -0.271  1.00  0.00     0.013 A 
ATOM     10  C   UNL     1      -0.126  -2.290  -0.024  1.00  0.00     0.043 A 
ATOM     11  C   UNL     1       0.463  -3.456   0.425  1.00  0.00     0.026 A 
ATOM     12  C   UNL     1       1.852  -3.479   0.601  1.00  0.00     0.003 A 
ATOM     13  C   UNL     1       2.635  -2.343   0.313  1.00  0.00     0.009 A 
ATOM     14  C   UNL     1       2.038  -1.145  -0.159  1.00  0.00    -0.012 A 
ATOM     15  N   UNL     1      -1.518  -2.091  -0.256  1.00  0.00    -0.375 N 
ATOM     16  C   UNL     1      -1.605  -0.617  -0.622  1.00  0.00     0.144 C 
ATOM     17  H   UNL     1      -1.972  -2.216   0.656  1.00  0.00     0.161 HD
ENDROOT
BRANCH   1  18
ATOM     18  C   UNL     1       4.147   0.241  -0.444  1.00  0.00     0.033 C 
ATOM     19  C   UNL     1       4.574   0.815   0.899  1.00  0.00     0.009 C 
ENDBRANCH   1  18
BRANCH  16  20
ATOM     20  C   UNL     1      -2.607   0.063   0.407  1.00  0.00     0.086 C 
ATOM     21  C   UNL     1      -2.476   1.584   0.512  1.00  0.00     0.044 C 
BRANCH  20  22
ATOM     22  O   UNL     1      -2.360  -0.492   1.721  1.00  0.00    -0.388 OA
ATOM     23  H   UNL     1      -2.807   0.071   2.377  1.00  0.00     0.211 HD
ENDBRANCH  20  22
BRANCH  20  24
ATOM     24  C   UNL     1      -4.054  -0.336  -0.002  1.00  0.00     0.034 C 
ATOM     25  C   UNL     1      -5.162   0.149   0.928  1.00  0.00     0.007 C 
ENDBRANCH  20  24
ENDBRANCH  16  20
TORSDOF 4
