
     RDKit          3D

 38 39  0  0  0  0  0  0  0  0999 V2000
   -4.6710   -1.4405    0.4231 C   0  0  0  0  0  0  0  0  0  0  0  0
   -3.6197   -0.3649    0.0873 C   0  0  0  0  0  0  0  0  0  0  0  0
   -3.8317    0.8388    1.0294 C   0  0  0  0  0  0  0  0  0  0  0  0
   -3.8549    0.1349   -1.3339 C   0  0  0  0  0  0  0  0  0  0  0  0
   -2.8423    0.5043   -2.1331 C   0  0  0  0  0  0  0  0  0  0  0  0
   -1.4710    0.4769   -1.6755 C   0  0  0  0  0  0  0  0  0  0  0  0
   -1.1137   -0.2094   -0.5780 C   0  0  0  0  0  0  0  0  0  0  0  0
    0.1710   -0.3090   -0.0745 N   0  0  0  0  0  0  0  0  0  0  0  0
    1.3431    0.2831   -0.5112 C   0  0  0  0  0  0  0  0  0  0  0  0
    1.4218    1.0563   -1.4571 O   0  0  0  0  0  0  0  0  0  0  0  0
    2.4097   -0.1268    0.2701 N   0  0  0  0  0  0  0  0  0  0  0  0
    3.7694    0.2569    0.1766 C   0  0  0  0  0  0  0  0  0  0  0  0
    4.2347    1.2217   -0.7250 C   0  0  0  0  0  0  0  0  0  0  0  0
    5.5924    1.5620   -0.7761 C   0  0  0  0  0  0  0  0  0  0  0  0
    6.5016    0.9441    0.0768 C   0  0  0  0  0  0  0  0  0  0  0  0
    6.0490   -0.0114    0.9800 C   0  0  0  0  0  0  0  0  0  0  0  0
    6.9406   -0.5927    1.7965 F   0  0  0  0  0  0  0  0  0  0  0  0
    4.6979   -0.3595    1.0368 C   0  0  0  0  0  0  0  0  0  0  0  0
    4.1875   -1.5614    2.1763 Cl  0  0  0  0  0  0  0  0  0  0  0  0
   -2.1725   -0.9841    0.2121 C   0  0  0  0  0  0  0  0  0  0  0  0
   -1.7085   -1.2037    1.6050 N   0  0  0  0  0  0  0  0  0  0  0  0
   -4.5844   -2.3031   -0.2483 H   0  0  0  0  0  0  0  0  0  0  0  0
   -4.5633   -1.8040    1.4508 H   0  0  0  0  0  0  0  0  0  0  0  0
   -5.6900   -1.0484    0.3214 H   0  0  0  0  0  0  0  0  0  0  0  0
   -3.8075    0.5377    2.0823 H   0  0  0  0  0  0  0  0  0  0  0  0
   -3.0653    1.6086    0.8827 H   0  0  0  0  0  0  0  0  0  0  0  0
   -4.8072    1.3101    0.8571 H   0  0  0  0  0  0  0  0  0  0  0  0
   -4.8769    0.2235   -1.6945 H   0  0  0  0  0  0  0  0  0  0  0  0
   -3.0290    0.8791   -3.1357 H   0  0  0  0  0  0  0  0  0  0  0  0
   -0.7544    1.0254   -2.2781 H   0  0  0  0  0  0  0  0  0  0  0  0
    0.2009   -0.8557    0.7814 H   0  0  0  0  0  0  0  0  0  0  0  0
    2.2159   -0.8482    0.9529 H   0  0  0  0  0  0  0  0  0  0  0  0
    3.5630    1.7360   -1.4061 H   0  0  0  0  0  0  0  0  0  0  0  0
    5.9332    2.3132   -1.4853 H   0  0  0  0  0  0  0  0  0  0  0  0
    7.5561    1.2002    0.0460 H   0  0  0  0  0  0  0  0  0  0  0  0
   -2.1942   -1.9846   -0.2446 H   0  0  0  0  0  0  0  0  0  0  0  0
   -1.7426   -0.3077    2.0929 H   0  0  0  0  0  0  0  0  0  0  0  0
   -2.3880   -1.7976    2.0794 H   0  0  0  0  0  0  0  0  0  0  0  0
  1  2  1  0
  2  3  1  0
  2  4  1  0
  4  5  2  0
  5  6  1  0
  6  7  2  0
  7  8  1  0
  8  9  1  0
  9 10  2  0
  9 11  1  0
 11 12  1  0
 12 13  2  0
 13 14  1  0
 14 15  2  0
 15 16  1  0
 16 17  1  0
 16 18  2  0
 18 19  1  0
  7 20  1  0
 20 21  1  0
 20  2  1  0
 18 12  1  0
  1 22  1  0
  1 23  1  0
  1 24  1  0
  3 25  1  0
  3 26  1  0
  3 27  1  0
  4 28  1  0
  5 29  1  0
  6 30  1  0
  8 31  1  0
 11 32  1  0
 13 33  1  0
 14 34  1  0
 15 35  1  0
 20 36  1  0
 21 37  1  0
 21 38  1  0
M  END
$$$$
