
     RDKit          3D

 45 46  0  0  0  0  0  0  0  0999 V2000
    2.9306    3.9665    0.0219 C   0  0  0  0  0  0  0  0  0  0  0  0
    2.1154    3.3983   -1.1302 C   0  0  0  0  0  0  0  0  0  0  0  0
    1.2530    2.2578   -0.6712 C   0  0  0  0  0  0  0  0  0  0  0  0
    1.3119    0.9704   -1.0522 C   0  0  0  0  0  0  0  0  0  0  0  0
    2.2299    0.4636   -1.9387 O   0  0  0  0  0  0  0  0  0  0  0  0
    0.4155   -0.0505   -0.4563 C   0  0  0  0  0  0  0  0  0  0  0  0
    0.9553   -1.0547    0.3804 C   0  0  0  0  0  0  0  0  0  0  0  0
    2.3589   -1.1298    0.5592 N   0  0  0  0  0  0  0  0  0  0  0  0
    3.0697   -2.0743    1.2594 C   0  0  0  0  0  0  0  0  0  0  0  0
    2.6129   -3.0439    1.8484 O   0  0  0  0  0  0  0  0  0  0  0  0
    4.4221   -1.7939    1.2215 N   0  0  0  0  0  0  0  0  0  0  0  0
    5.3407   -2.6293    1.9547 C   0  0  0  0  0  0  0  0  0  0  0  0
    0.0591   -1.9197    0.9941 C   0  0  0  0  0  0  0  0  0  0  0  0
   -1.2839   -1.8702    0.8307 N   0  0  0  0  0  0  0  0  0  0  0  0
   -1.7859   -0.9365   -0.0095 C   0  0  0  0  0  0  0  0  0  0  0  0
   -3.2492   -0.9714   -0.1148 C   0  0  0  0  0  0  0  0  0  0  0  0
   -3.8799   -1.7396   -1.1078 C   0  0  0  0  0  0  0  0  0  0  0  0
   -5.2721   -1.7585   -1.2203 C   0  0  0  0  0  0  0  0  0  0  0  0
   -6.0502   -1.0183   -0.3336 C   0  0  0  0  0  0  0  0  0  0  0  0
   -5.4340   -0.2743    0.6646 C   0  0  0  0  0  0  0  0  0  0  0  0
   -6.2335    0.4208    1.5230 O   0  0  0  0  0  0  0  0  0  0  0  0
   -4.0467   -0.2437    0.7825 C   0  0  0  0  0  0  0  0  0  0  0  0
   -0.9816   -0.0130   -0.6950 C   0  0  0  0  0  0  0  0  0  0  0  0
   -1.6019    1.0113   -1.6110 C   0  0  0  0  0  0  0  0  0  0  0  0
    3.6037    3.2105    0.4398 H   0  0  0  0  0  0  0  0  0  0  0  0
    2.2824    4.3285    0.8271 H   0  0  0  0  0  0  0  0  0  0  0  0
    3.5396    4.8075   -0.3246 H   0  0  0  0  0  0  0  0  0  0  0  0
    1.4666    4.1827   -1.5365 H   0  0  0  0  0  0  0  0  0  0  0  0
    2.7955    3.1073   -1.9354 H   0  0  0  0  0  0  0  0  0  0  0  0
    0.5039    2.5373    0.0710 H   0  0  0  0  0  0  0  0  0  0  0  0
    2.6095    1.1947   -2.4521 H   0  0  0  0  0  0  0  0  0  0  0  0
    2.9018   -0.5410   -0.0594 H   0  0  0  0  0  0  0  0  0  0  0  0
    4.6519   -0.8133    1.1665 H   0  0  0  0  0  0  0  0  0  0  0  0
    6.3595   -2.3653    1.6620 H   0  0  0  0  0  0  0  0  0  0  0  0
    5.2033   -2.4540    3.0250 H   0  0  0  0  0  0  0  0  0  0  0  0
    5.1487   -3.6831    1.7329 H   0  0  0  0  0  0  0  0  0  0  0  0
    0.3780   -2.7116    1.6637 H   0  0  0  0  0  0  0  0  0  0  0  0
   -3.2802   -2.3310   -1.7967 H   0  0  0  0  0  0  0  0  0  0  0  0
   -5.7476   -2.3557   -1.9932 H   0  0  0  0  0  0  0  0  0  0  0  0
   -7.1335   -1.0322   -0.4118 H   0  0  0  0  0  0  0  0  0  0  0  0
   -5.6777    0.7906    2.2286 H   0  0  0  0  0  0  0  0  0  0  0  0
   -3.5683    0.3336    1.5677 H   0  0  0  0  0  0  0  0  0  0  0  0
   -1.8560    1.9144   -1.0473 H   0  0  0  0  0  0  0  0  0  0  0  0
   -2.5083    0.6345   -2.0945 H   0  0  0  0  0  0  0  0  0  0  0  0
   -0.9290    1.2784   -2.4324 H   0  0  0  0  0  0  0  0  0  0  0  0
  1  2  1  0
  2  3  1  0
  3  4  2  3
  4  5  1  0
  4  6  1  0
  6  7  2  0
  7  8  1  0
  8  9  1  0
  9 10  2  0
  9 11  1  0
 11 12  1  0
  7 13  1  0
 13 14  2  0
 14 15  1  0
 15 16  1  0
 16 17  2  0
 17 18  1  0
 18 19  2  0
 19 20  1  0
 20 21  1  0
 20 22  2  0
 15 23  2  0
 23 24  1  0
 23  6  1  0
 22 16  1  0
  1 25  1  0
  1 26  1  0
  1 27  1  0
  2 28  1  0
  2 29  1  0
  3 30  1  0
  5 31  1  0
  8 32  1  0
 11 33  1  0
 12 34  1  0
 12 35  1  0
 12 36  1  0
 13 37  1  0
 17 38  1  0
 18 39  1  0
 19 40  1  0
 21 41  1  0
 22 42  1  0
 24 43  1  0
 24 44  1  0
 24 45  1  0
M  END
$$$$
