
     RDKit          3D

 38 41  0  0  0  0  0  0  0  0999 V2000
   -5.2967    0.8251    1.4632 C   0  0  0  0  0  0  0  0  0  0  0  0
   -4.0959    0.0168    1.0668 C   0  0  0  0  0  0  0  0  0  0  0  0
   -3.3774    0.3717   -0.0881 C   0  0  0  0  0  0  0  0  0  0  0  0
   -2.2440   -0.3493   -0.4964 C   0  0  0  0  0  0  0  0  0  0  0  0
   -1.5314    0.0594   -1.7048 C   0  0  0  0  0  0  0  0  0  0  0  0
   -2.0973    0.3315   -2.8693 N   0  0  0  0  0  0  0  0  0  0  0  0
   -1.1152    0.6586   -3.7736 N   0  0  0  0  0  0  0  0  0  0  0  0
    0.0351    0.6148   -3.1434 C   0  0  0  0  0  0  0  0  0  0  0  0
    1.3667    0.8612   -3.5611 C   0  0  0  0  0  0  0  0  0  0  0  0
    2.3695    0.7823   -2.6651 C   0  0  0  0  0  0  0  0  0  0  0  0
    2.1441    0.4540   -1.2468 C   0  0  0  0  0  0  0  0  0  0  0  0
    3.2380    0.4117   -0.3197 C   0  0  0  0  0  0  0  0  0  0  0  0
    4.4984    1.0469   -0.3989 C   0  0  0  0  0  0  0  0  0  0  0  0
    5.2776    0.7784    0.6523 N   0  0  0  0  0  0  0  0  0  0  0  0
    4.5162   -0.0280    1.4119 N   0  0  0  0  0  0  0  0  0  0  0  0
    5.0400   -0.5319    2.6582 C   0  0  0  0  0  0  0  0  0  0  0  0
    3.2853   -0.2772    0.8750 C   0  0  0  0  0  0  0  0  0  0  0  0
    0.8664    0.2035   -0.8803 C   0  0  0  0  0  0  0  0  0  0  0  0
   -0.1664    0.2677   -1.8175 N   0  0  0  0  0  0  0  0  0  0  0  0
   -1.8473   -1.4655    0.2486 C   0  0  0  0  0  0  0  0  0  0  0  0
   -2.5509   -1.8297    1.3970 C   0  0  0  0  0  0  0  0  0  0  0  0
   -3.6618   -1.0922    1.7999 C   0  0  0  0  0  0  0  0  0  0  0  0
   -4.2881   -1.5247    2.9335 O   0  0  0  0  0  0  0  0  0  0  0  0
   -5.1662    1.2280    2.4728 H   0  0  0  0  0  0  0  0  0  0  0  0
   -6.1975    0.2040    1.4318 H   0  0  0  0  0  0  0  0  0  0  0  0
   -5.4543    1.6736    0.7889 H   0  0  0  0  0  0  0  0  0  0  0  0
   -3.7021    1.2238   -0.6860 H   0  0  0  0  0  0  0  0  0  0  0  0
    1.5497    1.1046   -4.6018 H   0  0  0  0  0  0  0  0  0  0  0  0
    3.3883    0.9566   -2.9998 H   0  0  0  0  0  0  0  0  0  0  0  0
    4.8848    1.6988   -1.1717 H   0  0  0  0  0  0  0  0  0  0  0  0
    5.2779    0.3192    3.3011 H   0  0  0  0  0  0  0  0  0  0  0  0
    4.2898   -1.1646    3.1388 H   0  0  0  0  0  0  0  0  0  0  0  0
    5.9386   -1.1156    2.4434 H   0  0  0  0  0  0  0  0  0  0  0  0
    2.5729   -0.9159    1.3776 H   0  0  0  0  0  0  0  0  0  0  0  0
    0.5844   -0.0303    0.1379 H   0  0  0  0  0  0  0  0  0  0  0  0
   -1.0037   -2.0759   -0.0643 H   0  0  0  0  0  0  0  0  0  0  0  0
   -2.2427   -2.6984    1.9731 H   0  0  0  0  0  0  0  0  0  0  0  0
   -5.0848   -0.9927    3.0844 H   0  0  0  0  0  0  0  0  0  0  0  0
  1  2  1  0
  2  3  2  0
  3  4  1  0
  4  5  1  0
  5  6  2  0
  6  7  1  0
  7  8  2  0
  8  9  1  0
  9 10  2  0
 10 11  1  0
 11 12  1  0
 12 13  1  0
 13 14  2  0
 14 15  1  0
 15 16  1  0
 15 17  1  0
 11 18  2  0
 18 19  1  0
  4 20  2  0
 20 21  1  0
 21 22  2  0
 22 23  1  0
 22  2  1  0
 19  5  1  0
 19  8  1  0
 17 12  2  0
  1 24  1  0
  1 25  1  0
  1 26  1  0
  3 27  1  0
  9 28  1  0
 10 29  1  0
 13 30  1  0
 16 31  1  0
 16 32  1  0
 16 33  1  0
 17 34  1  0
 18 35  1  0
 20 36  1  0
 21 37  1  0
 23 38  1  0
M  END
$$$$
