
     RDKit          3D

 44 46  0  0  0  0  0  0  0  0999 V2000
   -5.8087   -0.9898    1.6488 C   0  0  0  0  0  0  0  0  0  0  0  0
   -5.0250    0.2201    1.1632 C   0  0  0  0  0  0  0  0  0  0  0  0
   -5.0373    0.3291   -0.3456 C   0  0  0  0  0  0  0  0  0  0  0  0
   -6.0937    1.0287   -0.9588 C   0  0  0  0  0  0  0  0  0  0  0  0
   -6.1531    1.1377   -2.3452 C   0  0  0  0  0  0  0  0  0  0  0  0
   -7.1631    1.8137   -2.9629 O   0  0  0  0  0  0  0  0  0  0  0  0
   -5.1803    0.5577   -3.1454 C   0  0  0  0  0  0  0  0  0  0  0  0
   -4.1299   -0.1423   -2.5537 C   0  0  0  0  0  0  0  0  0  0  0  0
   -4.0478   -0.2633   -1.1566 C   0  0  0  0  0  0  0  0  0  0  0  0
   -2.9241   -1.0124   -0.5853 C   0  0  0  0  0  0  0  0  0  0  0  0
   -1.6763   -0.5219   -0.5965 C   0  0  0  0  0  0  0  0  0  0  0  0
   -0.5719   -1.3102    0.0040 C   0  0  0  0  0  0  0  0  0  0  0  0
   -0.7295   -2.4319    0.4697 O   0  0  0  0  0  0  0  0  0  0  0  0
    0.7456   -0.6291    0.0026 C   0  0  0  0  0  0  0  0  0  0  0  0
    1.8221   -1.2975    0.4360 C   0  0  0  0  0  0  0  0  0  0  0  0
    3.0881   -0.5996    0.4322 C   0  0  0  0  0  0  0  0  0  0  0  0
    3.5328    0.5852    0.1659 N   0  0  0  0  0  0  0  0  0  0  0  0
    4.8115    0.1557    0.4973 C   0  0  0  0  0  0  0  0  0  0  0  0
    6.0373    0.6399    0.5512 N   0  0  0  0  0  0  0  0  0  0  0  0
    6.9355   -0.2944    0.9453 C   0  0  0  0  0  0  0  0  0  0  0  0
    8.2954    0.0399    1.1004 N   0  0  0  0  0  0  0  0  0  0  0  0
    8.6140    1.4157    0.7490 C   0  0  0  0  0  0  0  0  0  0  0  0
    6.5605   -1.6342    1.2655 C   0  0  0  0  0  0  0  0  0  0  0  0
    5.2250   -2.0567    1.1733 C   0  0  0  0  0  0  0  0  0  0  0  0
    4.3669   -1.0883    0.7699 C   0  0  0  0  0  0  0  0  0  0  0  0
   -6.8557   -0.9383    1.3318 H   0  0  0  0  0  0  0  0  0  0  0  0
   -5.3865   -1.9227    1.2610 H   0  0  0  0  0  0  0  0  0  0  0  0
   -5.7888   -1.0376    2.7421 H   0  0  0  0  0  0  0  0  0  0  0  0
   -5.4566    1.1306    1.5977 H   0  0  0  0  0  0  0  0  0  0  0  0
   -3.9982    0.1776    1.5429 H   0  0  0  0  0  0  0  0  0  0  0  0
   -6.8637    1.4831   -0.3408 H   0  0  0  0  0  0  0  0  0  0  0  0
   -7.7660    2.1600   -2.2855 H   0  0  0  0  0  0  0  0  0  0  0  0
   -5.2391    0.6468   -4.2261 H   0  0  0  0  0  0  0  0  0  0  0  0
   -3.3784   -0.6024   -3.1930 H   0  0  0  0  0  0  0  0  0  0  0  0
   -3.1606   -1.9731   -0.1355 H   0  0  0  0  0  0  0  0  0  0  0  0
   -1.4485    0.4453   -1.0293 H   0  0  0  0  0  0  0  0  0  0  0  0
    0.8064    0.3968   -0.3447 H   0  0  0  0  0  0  0  0  0  0  0  0
    1.7810   -2.3226    0.7855 H   0  0  0  0  0  0  0  0  0  0  0  0
    8.8620   -0.6216    0.5777 H   0  0  0  0  0  0  0  0  0  0  0  0
    8.0633    2.1291    1.3726 H   0  0  0  0  0  0  0  0  0  0  0  0
    9.6816    1.5870    0.9232 H   0  0  0  0  0  0  0  0  0  0  0  0
    8.4146    1.6183   -0.3089 H   0  0  0  0  0  0  0  0  0  0  0  0
    7.3231   -2.3344    1.5985 H   0  0  0  0  0  0  0  0  0  0  0  0
    4.9161   -3.0653    1.4068 H   0  0  0  0  0  0  0  0  0  0  0  0
  1  2  1  0
  2  3  1  0
  3  4  2  0
  4  5  1  0
  5  6  1  0
  5  7  2  0
  7  8  1  0
  8  9  2  0
  9 10  1  0
 10 11  2  0
 11 12  1  0
 12 13  2  0
 12 14  1  0
 14 15  2  0
 15 16  1  0
 16 17  2  0
 17 18  1  0
 18 19  2  0
 19 20  1  0
 20 21  1  0
 21 22  1  0
 20 23  2  0
 23 24  1  0
 24 25  2  0
  9  3  1  0
 25 16  1  0
 25 18  1  0
  1 26  1  0
  1 27  1  0
  1 28  1  0
  2 29  1  0
  2 30  1  0
  4 31  1  0
  6 32  1  0
  7 33  1  0
  8 34  1  0
 10 35  1  0
 11 36  1  0
 14 37  1  0
 15 38  1  0
 21 39  1  0
 22 40  1  0
 22 41  1  0
 22 42  1  0
 23 43  1  0
 24 44  1  0
M  END
$$$$
