
     RDKit          3D

 39 41  0  0  0  0  0  0  0  0999 V2000
   -5.2847   -1.1455    1.9036 C   0  0  0  0  0  0  0  0  0  0  0  0
   -4.4486   -0.4549    0.8591 C   0  0  0  0  0  0  0  0  0  0  0  0
   -3.0444   -0.5284    0.9716 C   0  0  0  0  0  0  0  0  0  0  0  0
   -2.1979    0.1014    0.0421 C   0  0  0  0  0  0  0  0  0  0  0  0
   -0.7860   -0.0034    0.2037 N   0  0  0  0  0  0  0  0  0  0  0  0
   -0.2615   -0.9268    1.0584 N   0  0  0  0  0  0  0  0  0  0  0  0
    1.0536   -0.9409    0.9216 N   0  0  0  0  0  0  0  0  0  0  0  0
    1.4028    0.0450    0.0352 C   0  0  0  0  0  0  0  0  0  0  0  0
    2.7925    0.3414   -0.3000 C   0  0  0  0  0  0  0  0  0  0  0  0
    3.0925    1.2833   -1.0266 O   0  0  0  0  0  0  0  0  0  0  0  0
    3.6727   -0.5406    0.3000 N   0  0  0  0  0  0  0  0  0  0  0  0
    5.0775   -0.5620    0.2039 C   0  0  0  0  0  0  0  0  0  0  0  0
    5.8317    0.3326   -0.5505 C   0  0  0  0  0  0  0  0  0  0  0  0
    7.2228    0.2185   -0.5745 C   0  0  0  0  0  0  0  0  0  0  0  0
    7.8187   -0.7922    0.1606 C   0  0  0  0  0  0  0  0  0  0  0  0
    7.1273   -1.6797    0.9040 N   0  0  0  0  0  0  0  0  0  0  0  0
    5.7793   -1.5426    0.9063 C   0  0  0  0  0  0  0  0  0  0  0  0
    0.2622    0.7000   -0.4038 C   0  0  0  0  0  0  0  0  0  0  0  0
    0.1346    1.7950   -1.2101 N   0  0  0  0  0  0  0  0  0  0  0  0
   -2.7675    0.7838   -1.0338 C   0  0  0  0  0  0  0  0  0  0  0  0
   -4.1596    0.8608   -1.1595 C   0  0  0  0  0  0  0  0  0  0  0  0
   -5.0123    0.2538   -0.2211 C   0  0  0  0  0  0  0  0  0  0  0  0
   -6.4933    0.3584   -0.3980 C   0  0  0  0  0  0  0  0  0  0  0  0
   -7.3573   -0.1948    0.2544 O   0  0  0  0  0  0  0  0  0  0  0  0
   -6.8351    1.1824   -1.4076 O   0  0  0  0  0  0  0  0  0  0  0  0
   -5.9406   -0.4277    2.4060 H   0  0  0  0  0  0  0  0  0  0  0  0
   -4.6612   -1.6044    2.6788 H   0  0  0  0  0  0  0  0  0  0  0  0
   -5.8772   -1.9464    1.4506 H   0  0  0  0  0  0  0  0  0  0  0  0
   -2.6176   -1.0792    1.8107 H   0  0  0  0  0  0  0  0  0  0  0  0
    3.2381   -1.2517    0.8820 H   0  0  0  0  0  0  0  0  0  0  0  0
    5.3745    1.1268   -1.1309 H   0  0  0  0  0  0  0  0  0  0  0  0
    7.8253    0.9067   -1.1572 H   0  0  0  0  0  0  0  0  0  0  0  0
    8.8977   -0.9174    0.1702 H   0  0  0  0  0  0  0  0  0  0  0  0
    5.2633   -2.2782    1.5175 H   0  0  0  0  0  0  0  0  0  0  0  0
    1.0091    2.2643   -1.4734 H   0  0  0  0  0  0  0  0  0  0  0  0
   -0.5781    2.4887   -0.9858 H   0  0  0  0  0  0  0  0  0  0  0  0
   -2.1675    1.2258   -1.8235 H   0  0  0  0  0  0  0  0  0  0  0  0
   -4.5703    1.3919   -2.0167 H   0  0  0  0  0  0  0  0  0  0  0  0
   -7.8153    1.1561   -1.4030 H   0  0  0  0  0  0  0  0  0  0  0  0
  1  2  1  0
  2  3  2  0
  3  4  1  0
  4  5  1  0
  5  6  1  0
  6  7  2  0
  7  8  1  0
  8  9  1  0
  9 10  2  0
  9 11  1  0
 11 12  1  0
 12 13  2  0
 13 14  1  0
 14 15  2  0
 15 16  1  0
 16 17  2  0
  8 18  2  0
 18 19  1  0
  4 20  2  0
 20 21  1  0
 21 22  2  0
 22 23  1  0
 23 24  2  0
 23 25  1  0
 22  2  1  0
 18  5  1  0
 17 12  1  0
  1 26  1  0
  1 27  1  0
  1 28  1  0
  3 29  1  0
 11 30  1  0
 13 31  1  0
 14 32  1  0
 15 33  1  0
 17 34  1  0
 19 35  1  0
 19 36  1  0
 20 37  1  0
 21 38  1  0
 25 39  1  0
M  END
$$$$
