
     RDKit          3D

 50 54  0  0  0  0  0  0  0  0999 V2000
    7.2330    0.3850   -1.8719 N   0  0  0  0  0  0  0  0  0  0  0  0
    6.6290    0.9636   -0.7944 C   0  0  0  0  0  0  0  0  0  0  0  0
    7.2603    1.6407    0.0038 O   0  0  0  0  0  0  0  0  0  0  0  0
    5.1819    0.7033   -0.6841 C   0  0  0  0  0  0  0  0  0  0  0  0
    4.2995    0.8237   -1.6962 C   0  0  0  0  0  0  0  0  0  0  0  0
    2.9808    0.5792   -1.1310 C   0  0  0  0  0  0  0  0  0  0  0  0
    1.8207    0.7321   -1.7731 C   0  0  0  0  0  0  0  0  0  0  0  0
    0.5621    0.7321   -1.2472 N   0  0  0  0  0  0  0  0  0  0  0  0
    0.2046    0.0669   -0.1905 C   0  0  0  0  0  0  0  0  0  0  0  0
   -1.1372    0.2410    0.2439 N   0  0  0  0  0  0  0  0  0  0  0  0
   -2.1673    0.8657   -0.4337 C   0  0  0  0  0  0  0  0  0  0  0  0
   -3.2365    0.8343    0.4290 C   0  0  0  0  0  0  0  0  0  0  0  0
   -4.5752    1.3483    0.1962 C   0  0  0  0  0  0  0  0  0  0  0  0
   -5.4948    1.3810    1.2531 C   0  0  0  0  0  0  0  0  0  0  0  0
   -6.7965    1.8378    1.0468 C   0  0  0  0  0  0  0  0  0  0  0  0
   -7.1859    2.2841   -0.2151 C   0  0  0  0  0  0  0  0  0  0  0  0
   -6.2721    2.3209   -1.2694 C   0  0  0  0  0  0  0  0  0  0  0  0
   -6.7007    2.6590   -2.5596 N   0  0  0  0  0  0  0  0  0  0  0  0
   -4.9874    1.8029   -1.0676 C   0  0  0  0  0  0  0  0  0  0  0  0
   -2.8428    0.2360    1.5956 N   0  0  0  0  0  0  0  0  0  0  0  0
   -1.5631   -0.0920    1.4888 N   0  0  0  0  0  0  0  0  0  0  0  0
    0.9743   -0.7893    0.6024 N   0  0  0  0  0  0  0  0  0  0  0  0
    0.4043   -2.0003    1.2057 C   0  0  0  0  0  0  0  0  0  0  0  0
    1.2581   -3.1934    0.8519 C   0  0  0  0  0  0  0  0  0  0  0  0
    1.0495   -4.5019    1.5729 C   0  0  0  0  0  0  0  0  0  0  0  0
    2.3067   -3.7128    1.8028 C   0  0  0  0  0  0  0  0  0  0  0  0
    2.1644   -0.3577    1.1700 C   0  0  0  0  0  0  0  0  0  0  0  0
    2.4727   -0.5273    2.3513 O   0  0  0  0  0  0  0  0  0  0  0  0
    3.1483    0.2346    0.2577 C   0  0  0  0  0  0  0  0  0  0  0  0
    4.4640    0.3305    0.5217 C   0  0  0  0  0  0  0  0  0  0  0  0
    5.1262   -0.0042    1.6641 O   0  0  0  0  0  0  0  0  0  0  0  0
    8.2420    0.4531   -1.9058 H   0  0  0  0  0  0  0  0  0  0  0  0
    6.7825   -0.3338   -2.4183 H   0  0  0  0  0  0  0  0  0  0  0  0
    4.5096    1.1273   -2.7094 H   0  0  0  0  0  0  0  0  0  0  0  0
    1.8481    1.0255   -2.8224 H   0  0  0  0  0  0  0  0  0  0  0  0
   -2.0230    1.2512   -1.4311 H   0  0  0  0  0  0  0  0  0  0  0  0
   -5.2092    1.0362    2.2463 H   0  0  0  0  0  0  0  0  0  0  0  0
   -7.5096    1.8342    1.8668 H   0  0  0  0  0  0  0  0  0  0  0  0
   -8.2128    2.6063   -0.3678 H   0  0  0  0  0  0  0  0  0  0  0  0
   -5.9556    2.9712   -3.1739 H   0  0  0  0  0  0  0  0  0  0  0  0
   -7.4968    3.2891   -2.5733 H   0  0  0  0  0  0  0  0  0  0  0  0
   -4.3094    1.7545   -1.9151 H   0  0  0  0  0  0  0  0  0  0  0  0
    0.3232   -1.8761    2.2924 H   0  0  0  0  0  0  0  0  0  0  0  0
   -0.5850   -2.2097    0.7879 H   0  0  0  0  0  0  0  0  0  0  0  0
    1.4556   -3.2559   -0.2132 H   0  0  0  0  0  0  0  0  0  0  0  0
    1.1223   -5.4181    0.9973 H   0  0  0  0  0  0  0  0  0  0  0  0
    0.3254   -4.5445    2.3791 H   0  0  0  0  0  0  0  0  0  0  0  0
    2.4289   -3.2300    2.7666 H   0  0  0  0  0  0  0  0  0  0  0  0
    3.2320   -4.0916    1.3845 H   0  0  0  0  0  0  0  0  0  0  0  0
    4.4507   -0.2122    2.3447 H   0  0  0  0  0  0  0  0  0  0  0  0
  1  2  1  0
  2  3  2  0
  2  4  1  0
  4  5  2  0
  5  6  1  0
  6  7  2  0
  7  8  1  0
  8  9  2  0
  9 10  1  0
 10 11  1  0
 11 12  2  0
 12 13  1  0
 13 14  2  0
 14 15  1  0
 15 16  2  0
 16 17  1  0
 17 18  1  0
 17 19  2  0
 12 20  1  0
 20 21  2  0
  9 22  1  0
 22 23  1  0
 23 24  1  0
 24 25  1  0
 25 26  1  0
 22 27  1  0
 27 28  2  0
 27 29  1  0
 29 30  2  0
 30 31  1  0
 30  4  1  0
 29  6  1  0
 21 10  1  0
 26 24  1  0
 19 13  1  0
  1 32  1  0
  1 33  1  0
  5 34  1  0
  7 35  1  0
 11 36  1  0
 14 37  1  0
 15 38  1  0
 16 39  1  0
 18 40  1  0
 18 41  1  0
 19 42  1  0
 23 43  1  0
 23 44  1  0
 24 45  1  0
 25 46  1  0
 25 47  1  0
 26 48  1  0
 26 49  1  0
 31 50  1  0
M  END
$$$$
