
     RDKit          3D

 33 34  0  0  0  0  0  0  0  0999 V2000
    4.9287   -1.8402   -0.9084 C   0  0  0  0  0  0  0  0  0  0  0  0
    3.7476   -1.0145   -0.8517 N   0  0  0  0  0  0  0  0  0  0  0  0
    2.6321   -1.2365   -0.1005 C   0  0  0  0  0  0  0  0  0  0  0  0
    1.7779   -0.1986   -0.3790 C   0  0  0  0  0  0  0  0  0  0  0  0
    0.5033    0.0286    0.1051 N   0  0  0  0  0  0  0  0  0  0  0  0
   -0.1802   -0.7819    0.9818 C   0  0  0  0  0  0  0  0  0  0  0  0
    0.2368   -1.7759    1.5631 O   0  0  0  0  0  0  0  0  0  0  0  0
   -1.5557   -0.3225    1.2679 C   0  0  0  0  0  0  0  0  0  0  0  0
   -1.8692   -0.0171    2.5970 C   0  0  0  0  0  0  0  0  0  0  0  0
   -3.1436    0.4398    2.9150 C   0  0  0  0  0  0  0  0  0  0  0  0
   -3.3996    0.7368    4.2205 O   0  0  0  0  0  0  0  0  0  0  0  0
   -4.1199    0.5858    1.9336 C   0  0  0  0  0  0  0  0  0  0  0  0
   -3.8139    0.2612    0.6095 C   0  0  0  0  0  0  0  0  0  0  0  0
   -5.0577    0.4102   -0.5799 Cl  0  0  0  0  0  0  0  0  0  0  0  0
   -2.5303   -0.1861    0.2713 C   0  0  0  0  0  0  0  0  0  0  0  0
   -2.2820   -0.5964   -1.0494 O   0  0  0  0  0  0  0  0  0  0  0  0
   -1.7849    0.3772   -1.8884 C   0  0  0  0  0  0  0  0  0  0  0  0
   -1.3221    1.5128   -1.4914 N   0  0  0  0  0  0  0  0  0  0  0  0
    2.4895    0.6074   -1.3092 C   0  0  0  0  0  0  0  0  0  0  0  0
    2.0283    1.7609   -1.8300 N   0  0  0  0  0  0  0  0  0  0  0  0
    3.6862    0.1057   -1.5977 N   0  0  0  0  0  0  0  0  0  0  0  0
    5.7841   -1.2407   -0.5873 H   0  0  0  0  0  0  0  0  0  0  0  0
    5.0621   -2.1806   -1.9383 H   0  0  0  0  0  0  0  0  0  0  0  0
    4.8053   -2.6995   -0.2446 H   0  0  0  0  0  0  0  0  0  0  0  0
    2.5377   -2.0977    0.5461 H   0  0  0  0  0  0  0  0  0  0  0  0
    0.0194    0.8351   -0.2909 H   0  0  0  0  0  0  0  0  0  0  0  0
   -1.1217   -0.1335    3.3788 H   0  0  0  0  0  0  0  0  0  0  0  0
   -4.3253    1.0176    4.3146 H   0  0  0  0  0  0  0  0  0  0  0  0
   -5.1156    0.9366    2.1869 H   0  0  0  0  0  0  0  0  0  0  0  0
   -1.8080    0.0302   -2.9334 H   0  0  0  0  0  0  0  0  0  0  0  0
   -1.0070    2.0300   -2.3256 H   0  0  0  0  0  0  0  0  0  0  0  0
    2.7569    2.3142   -2.2716 H   0  0  0  0  0  0  0  0  0  0  0  0
    1.4410    2.3317   -1.2326 H   0  0  0  0  0  0  0  0  0  0  0  0
  1  2  1  0
  2  3  1  0
  3  4  2  0
  4  5  1  0
  5  6  1  0
  6  7  2  0
  6  8  1  0
  8  9  2  0
  9 10  1  0
 10 11  1  0
 10 12  2  0
 12 13  1  0
 13 14  1  0
 13 15  2  0
 15 16  1  0
 16 17  1  0
 17 18  2  3
  4 19  1  0
 19 20  1  0
 19 21  2  0
 21  2  1  0
 15  8  1  0
  1 22  1  0
  1 23  1  0
  1 24  1  0
  3 25  1  0
  5 26  1  0
  9 27  1  0
 11 28  1  0
 12 29  1  0
 17 30  1  0
 18 31  1  0
 20 32  1  0
 20 33  1  0
M  END
$$$$
