REMARK SMILES COc1cc(F)ccc1S(=O)(=O)N1Cc2cc(C[C@@H]3CCCCN3C)ccc2Cc2ccccc21
REMARK SMILES IDX 13 1 14 2 15 3 16 4 17 5 26 6 27 7 28 8 29 9 30 10 31 11
REMARK SMILES IDX 32 12 33 13 34 14 35 15 10 16 11 17 12 18 9 19 3 20 4 21
REMARK SMILES IDX 5 22 8 23 7 24 6 25 2 26 1 27 18 28 19 29 20 30 24 31 21 32
REMARK SMILES IDX 23 33 22 34 25 35
REMARK H PARENT
ROOT
ATOM      1  N   UNL     1       2.135   0.519   0.797  1.00  0.00    -0.261 N 
ATOM      2  C   UNL     1       0.978  -0.221   1.323  1.00  0.00     0.171 C 
ATOM      3  C   UNL     1      -0.297   0.480   0.943  1.00  0.00    -0.024 A 
ATOM      4  C   UNL     1      -1.149  -0.049  -0.038  1.00  0.00     0.009 A 
ATOM      5  C   UNL     1      -2.296   0.647  -0.439  1.00  0.00    -0.046 A 
ATOM      6  C   UNL     1      -2.585   1.879   0.158  1.00  0.00     0.004 A 
ATOM      7  C   UNL     1      -1.734   2.416   1.125  1.00  0.00     0.005 A 
ATOM      8  C   UNL     1      -0.578   1.728   1.519  1.00  0.00    -0.038 A 
ATOM      9  C   UNL     1       0.321   2.282   2.595  1.00  0.00     0.073 C 
ATOM     10  C   UNL     1       1.785   2.534   2.264  1.00  0.00    -0.019 A 
ATOM     11  C   UNL     1       2.348   3.667   2.905  1.00  0.00     0.006 A 
ATOM     12  C   UNL     1       3.692   3.999   2.771  1.00  0.00     0.000 A 
ATOM     13  C   UNL     1       4.512   3.194   2.002  1.00  0.00     0.002 A 
ATOM     14  C   UNL     1       3.984   2.065   1.369  1.00  0.00     0.027 A 
ATOM     15  C   UNL     1       2.624   1.710   1.472  1.00  0.00     0.056 A 
ENDROOT
BRANCH   1  16
ATOM     16  S   UNL     1       2.867  -0.134  -0.598  1.00  0.00     0.268 S 
ATOM     17  O   UNL     1       3.526   0.933  -1.323  1.00  0.00    -0.201 OA
ATOM     18  O   UNL     1       1.905  -1.004  -1.246  1.00  0.00    -0.201 OA
BRANCH  16  19
ATOM     19  C   UNL     1       4.151  -1.221   0.025  1.00  0.00     0.130 A 
ATOM     20  C   UNL     1       5.039  -1.810  -0.894  1.00  0.00     0.142 A 
ATOM     21  C   UNL     1       6.045  -2.653  -0.413  1.00  0.00     0.087 A 
ATOM     22  C   UNL     1       6.155  -2.901   0.953  1.00  0.00     0.126 A 
ATOM     23  C   UNL     1       4.271  -1.479   1.401  1.00  0.00     0.029 A 
ATOM     24  C   UNL     1       5.280  -2.324   1.862  1.00  0.00     0.041 A 
ATOM     25  F   UNL     1       7.121  -3.715   1.397  1.00  0.00    -0.207 F 
BRANCH  20  26
ATOM     26  O   UNL     1       4.844  -1.536  -2.219  1.00  0.00    -0.495 OA
ATOM     27  C   UNL     1       5.819  -1.989  -3.151  1.00  0.00     0.278 C 
ENDBRANCH  20  26
ENDBRANCH  16  19
ENDBRANCH   1  16
BRANCH   5  28
ATOM     28  C   UNL     1      -3.209   0.078  -1.503  1.00  0.00     0.054 C 
BRANCH  28  29
ATOM     29  C   UNL     1      -4.216  -0.976  -0.973  1.00  0.00     0.060 C 
ATOM     30  C   UNL     1      -4.793  -1.795  -2.144  1.00  0.00     0.019 C 
ATOM     31  N   UNL     1      -5.267  -0.307  -0.169  1.00  0.00    -0.303 NA
ATOM     32  C   UNL     1      -5.756  -0.992  -3.013  1.00  0.00     0.003 C 
ATOM     33  C   UNL     1      -6.627  -0.449  -0.696  1.00  0.00     0.084 C 
ATOM     34  C   UNL     1      -6.677  -0.102  -2.181  1.00  0.00     0.016 C 
ATOM     35  C   UNL     1      -5.209  -0.698   1.238  1.00  0.00     0.105 C 
ENDBRANCH  28  29
ENDBRANCH   5  28
TORSDOF 5
