MODEL        7USER    Run = 7USERUSER    Estimated Free Energy of Binding    = -10.94 kcal/mol  [=(1)+(2)+(3)-(4)]USERUSER    (1) Final Intermolecular Energy     = -12.13 kcal/molUSER        vdW + Hbond + desolv Energy     = -12.01 kcal/molUSER        Electrostatic Energy            =  -0.12 kcal/molUSER        Moving Ligand-Fixed Receptor    = -12.13 kcal/molUSER        Moving Ligand-Moving Receptor   =  +0.00 kcal/molUSER    (2) Final Total Internal Energy     =  -1.57 kcal/molUSER    (3) Torsional Free Energy           =  +1.19 kcal/molUSER    (4) Unbound System's Energy         =  -1.57 kcal/molUSERUSERREMARK SMILES C[C@H]1c2ccc(C[C@@H]3CCCCN3C)cc2CN(S(=O)(=O)c2ccc(F)cc2)c2ccccc21REMARK SMILES IDX 1 1 2 2 3 3 4 4 5 5 6 6 15 7 16 8 17 9 18 10 29 11 30 12REMARK SMILES IDX 31 13 32 14 33 15 34 16 19 17 20 18 21 19 22 20 23 21 28 22REMARK SMILES IDX 24 23 27 24 25 25 26 26 7 27 8 28 9 29 13 30 10 31 12 32REMARK SMILES IDX 11 33 14 34REMARK H PARENTUSER                              x       y       z     vdW  Elec       q    TypeUSER                           _______ _______ _______ _____ _____    ______ ____ROOTATOM      1  C   UNL     1      33.572  45.477  18.635 -0.52 -0.01    +0.018 C  ATOM      2  C   UNL     1      33.165  44.683  17.385 -0.35 -0.02    +0.049 C  ATOM      3  C   UNL     1      34.213  44.797  16.280 -0.29 +0.02    -0.036 A  ATOM      4  C   UNL     1      34.002  45.795  15.305 -0.14 -0.01    +0.005 A  ATOM      5  C   UNL     1      34.895  45.999  14.251 -0.34 -0.00    +0.004 A  ATOM      6  C   UNL     1      36.040  45.219  14.136 -0.31 +0.02    -0.046 A  ATOM      7  C   UNL     1      36.258  44.220  15.098 -0.35 -0.00    +0.009 A  ATOM      8  C   UNL     1      35.373  43.998  16.180 -0.35 +0.01    -0.023 A  ATOM      9  C   UNL     1      35.774  42.877  17.131 -0.31 -0.06    +0.171 C  ATOM     10  N   UNL     1      34.982  42.727  18.357 -0.20 +0.06    -0.262 N  ATOM     11  C   UNL     1      33.626  42.308  18.184 -0.36 -0.01    +0.056 A  ATOM     12  C   UNL     1      33.223  40.979  18.340 -0.23 -0.00    +0.027 A  ATOM     13  C   UNL     1      31.904  40.606  18.078 -0.41 -0.00    +0.002 A  ATOM     14  C   UNL     1      30.991  41.551  17.624 -0.30 -0.00    +0.000 A  ATOM     15  C   UNL     1      31.402  42.867  17.413 -0.29 -0.00    +0.006 A  ATOM     16  C   UNL     1      32.727  43.257  17.676 -0.31 +0.00    -0.016 A  ENDROOTBRANCH  10  17ATOM     17  S   UNL     1      35.774  42.491  19.831 -0.44 -0.02    +0.264 S  ATOM     18  O   UNL     1      36.382  41.175  19.836 -0.10 +0.01    -0.201 OA ATOM     19  O   UNL     1      34.881  42.888  20.902 -0.34 -0.03    -0.201 OA BRANCH  17  20ATOM     20  C   UNL     1      37.104  43.684  19.840 -0.30 -0.01    +0.088 A  ATOM     21  C   UNL     1      38.050  43.657  20.874 -0.29 +0.00    +0.025 A  ATOM     22  C   UNL     1      37.248  44.574  18.767 -0.34 -0.00    +0.025 A  ATOM     23  C   UNL     1      39.112  44.564  20.858 -0.32 +0.00    +0.040 A  ATOM     24  C   UNL     1      38.312  45.477  18.759 -0.33 -0.01    +0.040 A  ATOM     25  C   UNL     1      39.230  45.467  19.805 -0.31 -0.00    +0.123 A  ATOM     26  F   UNL     1      40.251  46.333  19.793 -0.08 -0.00    -0.207 F  ENDBRANCH  17  20ENDBRANCH  10  17BRANCH   6  27ATOM     27  C   UNL     1      37.029  45.419  13.009 -0.53 -0.02    +0.054 C  BRANCH  27  28ATOM     28  C   UNL     1      38.011  46.627  13.102 -0.37 -0.02    +0.060 C  ATOM     29  C   UNL     1      39.074  46.420  14.211 -0.45 -0.00    +0.019 C  ATOM     30  N   UNL     1      37.456  47.997  13.127 -0.78 +0.08    -0.303 NA ATOM     31  C   UNL     1      39.816  47.714  14.518 -0.51 -0.00    +0.003 C  ATOM     32  C   UNL     1      37.410  48.588  14.456 -0.54 -0.06    +0.084 C  ATOM     33  C   UNL     1      38.837  48.798  14.979 -0.50 -0.01    +0.016 C  ATOM     34  C   UNL     1      36.272  48.235  12.326 -0.45 -0.05    +0.105 C  ENDBRANCH  27  28ENDBRANCH   6  27TORSDOF 4TERENDMDL