REMARK SMILES C[C@H]1c2ccc(C[C@@H]3CCCCN3C)cc2CN(S(=O)(=O)c2ccc(F)cc2)c2ccccc21
REMARK SMILES IDX 1 1 2 2 3 3 4 4 5 5 6 6 15 7 16 8 17 9 18 10 29 11 30 12
REMARK SMILES IDX 31 13 32 14 33 15 34 16 19 17 20 18 21 19 22 20 23 21 28 22
REMARK SMILES IDX 24 23 27 24 25 25 26 26 7 27 8 28 9 29 13 30 10 31 12 32
REMARK SMILES IDX 11 33 14 34
REMARK H PARENT
ROOT
ATOM      1  C   UNL     1      -1.195  -2.088  -2.357  1.00  0.00     0.018 C 
ATOM      2  C   UNL     1      -1.391  -2.361  -0.859  1.00  0.00     0.049 C 
ATOM      3  C   UNL     1      -0.264  -1.755  -0.024  1.00  0.00    -0.036 A 
ATOM      4  C   UNL     1       0.812  -2.607   0.303  1.00  0.00     0.005 A 
ATOM      5  C   UNL     1       1.902  -2.165   1.055  1.00  0.00     0.004 A 
ATOM      6  C   UNL     1       1.964  -0.849   1.501  1.00  0.00    -0.046 A 
ATOM      7  C   UNL     1       0.897   0.006   1.185  1.00  0.00     0.009 A 
ATOM      8  C   UNL     1      -0.216  -0.415   0.418  1.00  0.00    -0.023 A 
ATOM      9  C   UNL     1      -1.275   0.651   0.165  1.00  0.00     0.171 C 
ATOM     10  N   UNL     1      -2.356   0.310  -0.766  1.00  0.00    -0.262 N 
ATOM     11  C   UNL     1      -3.260  -0.710  -0.336  1.00  0.00     0.056 A 
ATOM     12  C   UNL     1      -4.502  -0.423   0.237  1.00  0.00     0.027 A 
ATOM     13  C   UNL     1      -5.313  -1.452   0.718  1.00  0.00     0.002 A 
ATOM     14  C   UNL     1      -4.871  -2.769   0.662  1.00  0.00     0.000 A 
ATOM     15  C   UNL     1      -3.610  -3.056   0.142  1.00  0.00     0.006 A 
ATOM     16  C   UNL     1      -2.784  -2.029  -0.349  1.00  0.00    -0.016 A 
ENDROOT
BRANCH  10  17
ATOM     17  S   UNL     1      -2.820   1.431  -1.942  1.00  0.00     0.264 S 
ATOM     18  O   UNL     1      -3.737   0.795  -2.866  1.00  0.00    -0.201 OA
ATOM     19  O   UNL     1      -1.631   2.100  -2.435  1.00  0.00    -0.201 OA
BRANCH  17  20
ATOM     20  C   UNL     1      -3.746   2.677  -1.057  1.00  0.00     0.088 A 
ATOM     21  C   UNL     1      -3.065   3.616  -0.270  1.00  0.00     0.025 A 
ATOM     22  C   UNL     1      -5.134   2.768  -1.231  1.00  0.00     0.025 A 
ATOM     23  C   UNL     1      -3.787   4.614   0.388  1.00  0.00     0.040 A 
ATOM     24  C   UNL     1      -5.847   3.768  -0.570  1.00  0.00     0.040 A 
ATOM     25  C   UNL     1      -5.169   4.678   0.236  1.00  0.00     0.123 A 
ATOM     26  F   UNL     1      -5.856   5.638   0.867  1.00  0.00    -0.207 F 
ENDBRANCH  17  20
ENDBRANCH  10  17
BRANCH   6  27
ATOM     27  C   UNL     1       3.134  -0.339   2.313  1.00  0.00     0.054 C 
BRANCH  27  28
ATOM     28  C   UNL     1       4.394   0.166   1.545  1.00  0.00     0.060 C 
ATOM     29  C   UNL     1       4.021   1.184   0.436  1.00  0.00     0.019 C 
ATOM     30  N   UNL     1       5.382  -0.824   1.067  1.00  0.00    -0.303 NA
ATOM     31  C   UNL     1       5.189   1.424  -0.512  1.00  0.00     0.003 C 
ATOM     32  C   UNL     1       5.269  -1.130  -0.351  1.00  0.00     0.084 C 
ATOM     33  C   UNL     1       5.618   0.114  -1.179  1.00  0.00     0.016 C 
ATOM     34  C   UNL     1       5.607  -1.980   1.912  1.00  0.00     0.105 C 
ENDBRANCH  27  28
ENDBRANCH   6  27
TORSDOF 4
