MODEL        6USER    Run = 6USERUSER    Estimated Free Energy of Binding    = -10.32 kcal/mol  [=(1)+(2)+(3)-(4)]USERUSER    (1) Final Intermolecular Energy     = -11.81 kcal/molUSER        vdW + Hbond + desolv Energy     = -11.82 kcal/molUSER        Electrostatic Energy            =  +0.01 kcal/molUSER        Moving Ligand-Fixed Receptor    = -11.81 kcal/molUSER        Moving Ligand-Moving Receptor   =  +0.00 kcal/molUSER    (2) Final Total Internal Energy     =  -0.99 kcal/molUSER    (3) Torsional Free Energy           =  +1.49 kcal/molUSER    (4) Unbound System's Energy         =  -0.99 kcal/molUSERUSERREMARK SMILES COc1cc(F)ccc1S(=O)(=O)N1Cc2cc(C[C@@H]3CCCCN3C)ccc2Cc2ccccc21REMARK SMILES IDX 13 1 14 2 15 3 16 4 17 5 26 6 27 7 28 8 29 9 30 10 31 11REMARK SMILES IDX 32 12 33 13 34 14 35 15 10 16 11 17 12 18 9 19 3 20 4 21REMARK SMILES IDX 5 22 8 23 7 24 6 25 2 26 1 27 18 28 19 29 20 30 24 31 21 32REMARK SMILES IDX 23 33 22 34 25 35REMARK H PARENTUSER                              x       y       z     vdW  Elec       q    TypeUSER                           _______ _______ _______ _____ _____    ______ ____ROOTATOM      1  N   UNL     1      35.837  45.018  18.241 -0.18 +0.09    -0.261 N  ATOM      2  C   UNL     1      36.296  43.714  18.744 -0.27 -0.03    +0.171 C  ATOM      3  C   UNL     1      37.238  43.911  19.899 -0.36 +0.00    -0.024 A  ATOM      4  C   UNL     1      36.843  43.617  21.213 -0.41 +0.00    +0.009 A  ATOM      5  C   UNL     1      37.699  43.873  22.291 -0.34 -0.00    -0.046 A  ATOM      6  C   UNL     1      38.961  44.422  22.039 -0.31 +0.00    +0.004 A  ATOM      7  C   UNL     1      39.354  44.728  20.735 -0.35 +0.00    +0.005 A  ATOM      8  C   UNL     1      38.494  44.486  19.655 -0.34 +0.00    -0.038 A  ATOM      9  C   UNL     1      38.930  44.773  18.241 -0.40 -0.01    +0.073 C  ATOM     10  C   UNL     1      38.099  45.732  17.402 -0.37 +0.01    -0.019 A  ATOM     11  C   UNL     1      38.851  46.537  16.508 -0.42 -0.00    +0.006 A  ATOM     12  C   UNL     1      38.244  47.415  15.616 -0.45 -0.00    +0.000 A  ATOM     13  C   UNL     1      36.864  47.498  15.586 -0.40 -0.00    +0.002 A  ATOM     14  C   UNL     1      36.100  46.708  16.449 -0.32 -0.02    +0.027 A  ATOM     15  C   UNL     1      36.684  45.820  17.375 -0.31 -0.02    +0.056 A  ENDROOTBRANCH   1  16ATOM     16  S   UNL     1      34.262  45.482  18.701 -0.46 -0.12    +0.268 S  ATOM     17  O   UNL     1      34.189  46.929  18.726 -1.10 +0.14    -0.201 OA ATOM     18  O   UNL     1      33.876  44.688  19.851 -0.29 +0.06    -0.201 OA BRANCH  16  19ATOM     19  C   UNL     1      33.210  44.924  17.360 -0.24 -0.06    +0.130 A  ATOM     20  C   UNL     1      32.261  43.918  17.622 -0.20 -0.04    +0.142 A  ATOM     21  C   UNL     1      31.434  43.484  16.581 -0.25 -0.03    +0.087 A  ATOM     22  C   UNL     1      31.559  44.041  15.311 -0.28 -0.07    +0.126 A  ATOM     23  C   UNL     1      33.327  45.478  16.074 -0.25 -0.03    +0.029 A  ATOM     24  C   UNL     1      32.495  45.031  15.048 -0.27 -0.03    +0.041 A  ATOM     25  F   UNL     1      30.764  43.610  14.324 +0.04 +0.18    -0.207 F  BRANCH  20  26ATOM     26  O   UNL     1      32.223  43.406  18.889 -0.11 +0.05    -0.495 OA ATOM     27  C   UNL     1      32.594  42.046  19.077 -0.25 -0.01    +0.278 C  ENDBRANCH  20  26ENDBRANCH  16  19ENDBRANCH   1  16BRANCH   5  28ATOM     28  C   UNL     1      37.267  43.562  23.707 -0.37 +0.01    +0.054 C  BRANCH  28  29ATOM     29  C   UNL     1      38.067  44.329  24.793 -0.27 +0.00    +0.060 C  ATOM     30  C   UNL     1      38.332  43.412  26.004 -0.26 -0.00    +0.019 C  ATOM     31  N   UNL     1      37.349  45.572  25.162 -0.58 -0.03    -0.303 NA ATOM     32  C   UNL     1      37.074  43.128  26.820 -0.41 -0.00    +0.003 C  ATOM     33  C   UNL     1      36.927  45.645  26.564 -0.32 -0.01    +0.084 C  ATOM     34  C   UNL     1      36.201  44.370  26.983 -0.45 -0.00    +0.016 C  ATOM     35  C   UNL     1      38.097  46.768  24.780 -0.28 +0.02    +0.105 C  ENDBRANCH  28  29ENDBRANCH   5  28TORSDOF 5TERENDMDL