MODEL        5USER    Run = 5USERUSER    Estimated Free Energy of Binding    =  -6.29 kcal/mol  [=(1)+(2)+(3)-(4)]USERUSER    (1) Final Intermolecular Energy     = -10.76 kcal/molUSER        vdW + Hbond + desolv Energy     = -11.19 kcal/molUSER        Electrostatic Energy            =  -0.04 kcal/molUSER        Moving Ligand-Fixed Receptor    = -11.23 kcal/molUSER        Moving Ligand-Moving Receptor   =  +0.47 kcal/molUSER    (2) Final Total Internal Energy     =  -2.41 kcal/molUSER    (3) Torsional Free Energy           =  +4.47 kcal/molUSER    (4) Unbound System's Energy         =  -2.41 kcal/molUSERUSERREMARK SMILES COc1ccc(O)c(C(=O)c2ccc(NC[C@@H]3CCCNC[C@@H]3NC(=O)c3ccncc3)cc2)c1FREMARK SMILES IDX 16 1 15 2 14 4 11 5 12 6 34 7 13 8 33 9 9 10 10 11 8 12 3 13REMARK SMILES IDX 4 14 35 15 5 16 6 17 36 18 2 19 1 20 7 21 17 23 18 24 23 26REMARK SMILES IDX 22 27 21 28 20 30 19 31 24 33 25 34 26 36 27 37 28 38 32 39REMARK SMILES IDX 29 40 31 41 30 42REMARK H PARENT 15 3 7 22 21 29 24 35REMARK Flexibility Score:   99.900USER                              x       y       z     vdW  Elec       q    TypeUSER                           _______ _______ _______ _____ _____    ______ ____ROOTATOM      1  C   UNL     1      33.556  42.577  16.331 -0.15 -0.06    +0.118 C  ENDROOTBRANCH   1   2ATOM      2  N   UNL     1      34.900  42.669  16.907 -0.17 +0.15    -0.385 N  ATOM      3  H   UNL     1      34.959  42.300  17.851 +0.08 -0.05    +0.160 HD BRANCH   2   4ATOM      4  C   UNL     1      35.742  43.754  16.677 -0.34 -0.01    +0.034 A  ATOM      5  C   UNL     1      37.388  45.968  16.045 -0.35 -0.01    +0.023 A  ATOM      6  C   UNL     1      36.746  45.894  17.283 -0.34 -0.01    +0.014 A  ATOM      7  C   UNL     1      37.166  44.967  15.098 -0.36 -0.01    +0.014 A  ATOM      8  C   UNL     1      35.926  44.800  17.589 -0.30 -0.01    +0.026 A  ATOM      9  C   UNL     1      36.345  43.878  15.418 -0.37 -0.01    +0.026 A  BRANCH   5  10ATOM     10  C   UNL     1      38.219  47.160  15.750 -0.35 -0.09    +0.199 C  ATOM     11  O   UNL     1      37.869  47.927  14.852 -0.32 +0.16    -0.288 OA BRANCH  10  12ATOM     12  C   UNL     1      39.491  47.454  16.446 -0.40 -0.03    +0.104 A  ATOM     13  C   UNL     1      41.240  46.883  18.048 -0.40 -0.01    +0.155 A  ATOM     14  C   UNL     1      41.917  48.061  17.724 -0.25 -0.00    +0.053 A  ATOM     15  C   UNL     1      40.024  46.595  17.408 -0.35 -0.03    +0.179 A  ATOM     16  C   UNL     1      41.376  48.944  16.788 -0.27 -0.00    +0.051 A  ATOM     17  C   UNL     1      40.165  48.649  16.166 -0.42 -0.04    +0.130 A  ATOM     18  F   UNL     1      39.362  45.481  17.759 -0.10 +0.03    -0.202 F  BRANCH  13  19ATOM     19  O   UNL     1      41.661  45.952  18.960 -0.16 -0.04    -0.494 OA ATOM     20  C   UNL     1      40.891  45.807  20.147 -0.26 +0.02    +0.278 C  ENDBRANCH  13  19BRANCH  17  21ATOM     21  O   UNL     1      39.689  49.584  15.286 -0.03 +0.30    -0.507 OA ATOM     22  H   UNL     1      38.717  49.659  15.423 -0.19 -0.24    +0.293 HD ENDBRANCH  17  21ENDBRANCH  10  12ENDBRANCH   5  10ENDBRANCH   2   4ENDBRANCH   1   2BRANCH   1  23ATOM     23  C   UNL     1      32.453  42.640  17.418 -0.36 -0.01    +0.032 C  BRANCH  23  24ATOM     24  C   UNL     1      31.064  42.458  16.774 -0.35 -0.00    +0.009 CG0ATOM     25  G   UNL     1      30.703  43.310  15.556 +0.00 +0.00    +0.000 G0 ENDBRANCH  23  24BRANCH  23  26ATOM     26  C   UNL     1      32.623  43.910  18.283 -0.33 -0.02    +0.101 C  BRANCH  26  27ATOM     27  C   UNL     1      32.686  45.187  17.412 -0.19 -0.05    +0.106 C  BRANCH  27  28ATOM     28  N   UNL     1      31.508  45.423  16.567 -0.62 +0.07    -0.315 NA ATOM     29  H   UNL     1      30.682  45.184  17.120 +0.09 +0.02    +0.122 HD BRANCH  28  30ATOM     30  C   UNL     1      31.496  44.595  15.360 -0.39 -0.04    +0.081 C  BRANCH  30  31ATOM     31  C   UNL     1      30.700  43.312  15.560 -0.37 -0.01    +0.016 CG0ATOM     32  G   UNL     1      31.063  42.461  16.777 +0.00 +0.00    +0.000 G0 ENDBRANCH  30  31ENDBRANCH  28  30ENDBRANCH  27  28ENDBRANCH  26  27BRANCH  26  33ATOM     33  N   UNL     1      33.792  43.857  19.157 -0.16 +0.06    -0.348 N  ATOM     34  C   UNL     1      34.260  42.695  19.722 -0.27 +0.00    +0.251 C  ATOM     35  H   UNL     1      34.168  44.761  19.418 +0.04 -0.05    +0.164 HD ATOM     36  O   UNL     1      33.729  41.605  19.543 -0.32 -0.02    -0.269 OA BRANCH  34  37ATOM     37  C   UNL     1      35.452  42.810  20.604 -0.38 +0.00    +0.042 A  ATOM     38  C   UNL     1      36.109  44.040  20.662 -0.35 -0.00    +0.034 A  ATOM     39  C   UNL     1      35.911  41.749  21.386 -0.47 +0.00    +0.034 A  ATOM     40  C   UNL     1      37.214  44.151  21.484 -0.31 +0.00    +0.112 A  ATOM     41  C   UNL     1      37.025  41.964  22.177 -0.44 +0.01    +0.112 A  ATOM     42  N   UNL     1      37.689  43.137  22.239 -0.20 -0.02    -0.265 NA ENDBRANCH  34  37ENDBRANCH  26  33ENDBRANCH  23  26ENDBRANCH   1  23TORSDOF 9TERENDMDL