MODEL        9USER    Run = 9USERUSER    Estimated Free Energy of Binding    = -12.12 kcal/mol  [=(1)+(2)+(3)-(4)]USERUSER    (1) Final Intermolecular Energy     = -14.51 kcal/molUSER        vdW + Hbond + desolv Energy     = -14.42 kcal/molUSER        Electrostatic Energy            =  -0.09 kcal/molUSER        Moving Ligand-Fixed Receptor    = -14.51 kcal/molUSER        Moving Ligand-Moving Receptor   =  +0.00 kcal/molUSER    (2) Final Total Internal Energy     =  -2.61 kcal/molUSER    (3) Torsional Free Energy           =  +2.39 kcal/molUSER    (4) Unbound System's Energy         =  -2.61 kcal/molUSERUSERREMARK SMILES N#Cc1cnc(-c2ccc(CNCc3ccc(-c4csnn4)cc3)cc2)c(-c2ccccc2)c1REMARK SMILES IDX 11 1 10 2 7 3 8 4 26 5 9 6 25 7 6 8 3 9 4 10 34 11 5 12REMARK SMILES IDX 27 13 2 14 1 15 28 16 29 17 33 18 30 19 32 20 31 21 12 22REMARK SMILES IDX 13 24 14 25 15 26 24 27 16 28 23 29 17 30 18 31 19 32 22 33REMARK SMILES IDX 20 34 21 35REMARK H PARENT 12 23USER                              x       y       z     vdW  Elec       q    TypeUSER                           _______ _______ _______ _____ _____    ______ ____ROOTATOM      1  C   UNL     1      36.914  43.298  20.153 -0.36 -0.01    +0.117 C  ENDROOTBRANCH   1   2ATOM      2  C   UNL     1      35.997  43.821  19.073 -0.34 +0.01    -0.034 A  ATOM      3  C   UNL     1      34.241  44.806  17.070 -0.32 -0.00    +0.001 A  ATOM      4  C   UNL     1      34.896  43.571  16.922 -0.34 -0.00    +0.011 A  ATOM      5  C   UNL     1      34.498  45.544  18.237 -0.43 -0.01    +0.011 A  ATOM      6  C   UNL     1      35.757  43.080  17.910 -0.31 -0.00    +0.006 A  ATOM      7  C   UNL     1      35.356  45.056  19.228 -0.25 -0.00    +0.006 A  BRANCH   3   8ATOM      8  C   UNL     1      33.335  45.300  16.013 -0.24 -0.06    +0.078 A  ATOM      9  C   UNL     1      31.415  46.097  14.187 -0.49 -0.05    +0.071 A  ATOM     10  C   UNL     1      31.093  45.525  15.402 -0.35 -0.07    +0.131 A  ATOM     11  C   UNL     1      32.765  46.283  13.892 -0.01 -0.03    +0.032 A  ATOM     12  N   UNL     1      32.014  45.133  16.313 -0.50 +0.12    -0.254 NA ATOM     13  C   UNL     1      33.763  45.890  14.805 -0.14 -0.01    +0.009 A  BRANCH   9  14ATOM     14  C   UNL     1      30.391  46.491  13.274 -0.58 -0.06    +0.101 C  ATOM     15  N   UNL     1      29.561  46.811  12.532 -0.65 +0.11    -0.192 NA ENDBRANCH   9  14BRANCH  13  16ATOM     16  C   UNL     1      35.174  46.149  14.467 -0.39 +0.01    -0.016 A  ATOM     17  C   UNL     1      35.945  47.039  15.235 -0.21 -0.01    +0.009 A  ATOM     18  C   UNL     1      35.791  45.504  13.383 -0.23 -0.00    +0.009 A  ATOM     19  C   UNL     1      37.284  47.284  14.923 -0.45 -0.00    +0.001 A  ATOM     20  C   UNL     1      37.129  45.750  13.068 -0.51 -0.00    +0.001 A  ATOM     21  C   UNL     1      37.875  46.640  13.838 -0.47 -0.00    +0.000 A  ENDBRANCH  13  16ENDBRANCH   3   8ENDBRANCH   1   2BRANCH   1  22ATOM     22  N   UNL     1      37.640  44.399  20.786 -0.19 -0.00    -0.309 NA ATOM     23  H   UNL     1      37.509  44.328  21.794 +0.06 +0.01    +0.123 HD BRANCH  22  24ATOM     24  C   UNL     1      39.071  44.361  20.489 -0.31 +0.00    +0.117 C  BRANCH  24  25ATOM     25  C   UNL     1      39.487  45.335  19.411 -0.38 +0.00    -0.034 A  ATOM     26  C   UNL     1      38.637  45.620  18.335 -0.39 -0.00    +0.006 A  ATOM     27  C   UNL     1      40.741  45.956  19.458 -0.43 +0.00    +0.006 A  ATOM     28  C   UNL     1      39.029  46.516  17.334 -0.42 -0.00    +0.011 A  ATOM     29  C   UNL     1      41.134  46.849  18.457 -0.50 -0.00    +0.011 A  ATOM     30  C   UNL     1      40.281  47.147  17.385 -0.50 -0.00    +0.003 A  BRANCH  30  31ATOM     31  C   UNL     1      40.719  48.086  16.357 -0.47 -0.02    +0.105 A  ATOM     32  C   UNL     1      40.470  47.946  15.002 -0.44 -0.02    +0.118 A  ATOM     33  N   UNL     1      41.425  49.240  16.693 -1.05 -0.00    -0.138 NA ATOM     34  S   UNL     1      41.168  49.296  14.206 -0.80 +0.00    -0.020 S  ATOM     35  N   UNL     1      41.728  49.965  15.630 -1.02 +0.00    -0.091 NA ENDBRANCH  30  31ENDBRANCH  24  25ENDBRANCH  22  24ENDBRANCH   1  22TORSDOF 8TERENDMDL