MODEL        6USER    Run = 6USERUSER    Estimated Free Energy of Binding    =  -8.11 kcal/mol  [=(1)+(2)+(3)-(4)]USERUSER    (1) Final Intermolecular Energy     = -12.59 kcal/molUSER        vdW + Hbond + desolv Energy     = -12.68 kcal/molUSER        Electrostatic Energy            =  -0.29 kcal/molUSER        Moving Ligand-Fixed Receptor    = -12.98 kcal/molUSER        Moving Ligand-Moving Receptor   =  +0.39 kcal/molUSER    (2) Final Total Internal Energy     =  -2.62 kcal/molUSER    (3) Torsional Free Energy           =  +4.47 kcal/molUSER    (4) Unbound System's Energy         =  -2.62 kcal/molUSERUSERREMARK SMILES COc1ccc(O)c(C(=O)c2ccc(CO[C@@H]3CCCNC[C@@H]3NC(=O)c3ccncc3)cc2)c1FREMARK SMILES IDX 16 1 15 2 14 3 11 4 12 5 34 6 13 7 33 8 9 9 10 10 8 11 3 12REMARK SMILES IDX 4 13 35 14 5 15 6 16 36 17 2 18 1 19 7 20 17 22 18 23 23 25REMARK SMILES IDX 22 26 21 27 20 29 19 30 24 32 25 33 26 35 27 36 28 37 32 38REMARK SMILES IDX 29 39 31 40 30 41REMARK H PARENT 7 21 21 28 24 34REMARK Flexibility Score:   99.900USER                              x       y       z     vdW  Elec       q    TypeUSER                           _______ _______ _______ _____ _____    ______ ____ROOTATOM      1  O   UNL     1      36.870  45.608  16.743 -0.14 +0.17    -0.371 OA ENDROOTBRANCH   1   2ATOM      2  C   UNL     1      36.009  45.766  17.869 -0.25 -0.09    +0.196 C  BRANCH   2   3ATOM      3  C   UNL     1      34.781  44.923  17.645 -0.32 +0.01    -0.022 A  ATOM      4  C   UNL     1      32.474  43.367  17.252 -0.29 -0.01    +0.023 A  ATOM      5  C   UNL     1      32.388  44.763  17.235 -0.28 -0.00    +0.012 A  ATOM      6  C   UNL     1      33.717  42.751  17.432 -0.36 -0.00    +0.012 A  ATOM      7  C   UNL     1      33.534  45.533  17.437 -0.36 -0.00    +0.007 A  ATOM      8  C   UNL     1      34.862  43.524  17.634 -0.32 -0.00    +0.007 A  BRANCH   4   9ATOM      9  C   UNL     1      31.291  42.508  17.008 -0.23 -0.07    +0.199 C  ATOM     10  O   UNL     1      30.389  42.924  16.276 -0.18 +0.12    -0.288 OA BRANCH   9  11ATOM     11  C   UNL     1      31.099  41.191  17.651 -0.26 -0.02    +0.104 A  ATOM     12  C   UNL     1      31.461  39.632  19.491 -0.29 +0.02    +0.155 A  ATOM     13  C   UNL     1      30.686  38.676  18.830 -0.39 +0.01    +0.053 A  ATOM     14  C   UNL     1      31.666  40.882  18.888 -0.23 -0.00    +0.179 A  ATOM     15  C   UNL     1      30.141  38.962  17.576 -0.20 +0.01    +0.051 A  ATOM     16  C   UNL     1      30.359  40.205  16.986 -0.25 -0.01    +0.130 A  ATOM     17  F   UNL     1      32.442  41.780  19.516 -0.10 -0.02    -0.202 F  BRANCH  12  18ATOM     18  O   UNL     1      32.057  39.462  20.711 -0.84 -0.23    -0.494 OA ATOM     19  C   UNL     1      31.579  38.403  21.530 -0.30 +0.04    +0.278 C  ENDBRANCH  12  18BRANCH  16  20ATOM     20  O   UNL     1      29.815  40.392  15.744 -0.21 +0.08    -0.507 OA ATOM     21  H   UNL     1      30.408  41.001  15.244 -0.10 -0.14    +0.293 HD ENDBRANCH  16  20ENDBRANCH   9  11ENDBRANCH   4   9ENDBRANCH   2   3ENDBRANCH   1   2BRANCH   1  22ATOM     22  C   UNL     1      36.684  46.622  15.732 -0.35 -0.10    +0.142 C  BRANCH  22  23ATOM     23  C   UNL     1      35.785  45.958  14.679 -0.43 -0.02    +0.035 CG0ATOM     24  G   UNL     1      35.384  46.747  13.437 +0.00 +0.00    +0.000 G0 ENDBRANCH  22  23BRANCH  22  25ATOM     25  C   UNL     1      38.067  47.107  15.234 -0.40 -0.06    +0.125 C  BRANCH  25  26ATOM     26  C   UNL     1      38.345  46.608  13.794 -0.40 -0.03    +0.108 C  BRANCH  26  27ATOM     27  N   UNL     1      37.684  47.329  12.708 -0.82 +0.06    -0.315 NA ATOM     28  H   UNL     1      38.325  47.375  11.915 +0.07 +0.01    +0.122 HD BRANCH  27  29ATOM     29  C   UNL     1      36.402  46.771  12.303 -0.69 -0.04    +0.081 C  BRANCH  29  30ATOM     30  C   UNL     1      35.388  46.745  13.437 -0.56 -0.01    +0.018 CG0ATOM     31  G   UNL     1      35.788  45.956  14.678 +0.00 +0.00    +0.000 G0 ENDBRANCH  29  30ENDBRANCH  27  29ENDBRANCH  26  27ENDBRANCH  25  26BRANCH  25  32ATOM     32  N   UNL     1      39.125  46.780  16.200 -0.18 +0.10    -0.345 N  ATOM     33  C   UNL     1      40.048  47.724  16.599 -0.38 -0.06    +0.251 C  ATOM     34  H   UNL     1      38.856  46.102  16.903 +0.11 -0.04    +0.164 HD ATOM     35  O   UNL     1      40.127  48.845  16.115 -0.42 +0.09    -0.269 OA BRANCH  33  36ATOM     36  C   UNL     1      40.955  47.328  17.711 -0.49 -0.00    +0.042 A  ATOM     37  C   UNL     1      40.618  46.209  18.472 -0.46 -0.00    +0.034 A  ATOM     38  C   UNL     1      42.098  48.060  18.030 -0.34 -0.00    +0.034 A  ATOM     39  C   UNL     1      41.455  45.856  19.515 -0.36 +0.01    +0.112 A  ATOM     40  C   UNL     1      42.868  47.625  19.094 -0.43 +0.01    +0.112 A  ATOM     41  N   UNL     1      42.574  46.538  19.838 -0.26 -0.07    -0.265 NA ENDBRANCH  33  36ENDBRANCH  25  32ENDBRANCH  22  25ENDBRANCH   1  22TORSDOF 9TERENDMDL