MODEL        8USER    Run = 8USERUSER    Estimated Free Energy of Binding    =  -8.05 kcal/mol  [=(1)+(2)+(3)-(4)]USERUSER    (1) Final Intermolecular Energy     = -12.23 kcal/molUSER        vdW + Hbond + desolv Energy     = -12.44 kcal/molUSER        Electrostatic Energy            =  -0.11 kcal/molUSER        Moving Ligand-Fixed Receptor    = -12.55 kcal/molUSER        Moving Ligand-Moving Receptor   =  +0.32 kcal/molUSER    (2) Final Total Internal Energy     =  -2.68 kcal/molUSER    (3) Torsional Free Energy           =  +4.18 kcal/molUSER    (4) Unbound System's Energy         =  -2.68 kcal/molUSERUSERREMARK SMILES COc1ccc(O)c(C(=O)c2ccc(C(=O)N[C@@H]3CCCNC[C@H]3NC(=O)c3ccncc3)cc2)c1FREMARK SMILES IDX 15 1 16 2 17 3 14 5 11 6 12 7 35 8 13 9 34 10 9 11 10 12REMARK SMILES IDX 8 13 3 14 4 15 36 16 5 17 6 18 37 19 2 20 1 21 7 22 18 24REMARK SMILES IDX 19 25 24 27 23 28 22 29 21 31 20 32 25 34 26 35 27 37 28 38REMARK SMILES IDX 29 39 33 40 30 41 32 42 31 43REMARK H PARENT 17 4 7 23 22 30 25 36REMARK Flexibility Score:   88.900USER                              x       y       z     vdW  Elec       q    TypeUSER                           _______ _______ _______ _____ _____    ______ ____ROOTATOM      1  C   UNL     1      38.957  45.856  17.049 -0.29 -0.06    +0.251 C  ATOM      2  O   UNL     1      38.417  44.756  17.083 -0.22 +0.06    -0.269 OA ATOM      3  N   UNL     1      38.643  46.825  16.118 -0.17 +0.13    -0.347 N  ATOM      4  H   UNL     1      39.269  47.614  16.026 +0.12 -0.06    +0.164 HD ENDROOTBRANCH   1   5ATOM      5  C   UNL     1      40.063  46.180  17.993 -0.44 -0.00    +0.039 A  ATOM      6  C   UNL     1      42.141  46.658  19.814 -0.43 +0.00    +0.023 A  ATOM      7  C   UNL     1      41.090  45.803  20.159 -0.38 +0.00    +0.013 A  ATOM      8  C   UNL     1      42.152  47.277  18.558 -0.53 +0.00    +0.013 A  ATOM      9  C   UNL     1      40.048  45.574  19.256 -0.42 -0.00    +0.014 A  ATOM     10  C   UNL     1      41.109  47.047  17.652 -0.49 -0.00    +0.014 A  BRANCH   6  11ATOM     11  C   UNL     1      43.258  46.805  20.771 -0.29 +0.08    +0.199 C  ATOM     12  O   UNL     1      44.312  47.295  20.361 -0.45 -0.22    -0.288 OA BRANCH  11  13ATOM     13  C   UNL     1      43.176  46.444  22.206 -0.23 +0.03    +0.104 A  ATOM     14  C   UNL     1      42.944  44.805  23.999 -0.05 +0.01    +0.155 A  ATOM     15  C   UNL     1      43.038  45.826  24.947 -0.05 +0.00    +0.053 A  ATOM     16  C   UNL     1      43.017  45.125  22.633 -0.12 +0.04    +0.179 A  ATOM     17  C   UNL     1      43.225  47.148  24.534 -0.12 +0.01    +0.051 A  ATOM     18  C   UNL     1      43.307  47.449  23.176 -0.22 +0.03    +0.130 A  ATOM     19  F   UNL     1      42.962  44.127  21.736 -0.08 -0.05    -0.202 F  BRANCH  14  20ATOM     20  O   UNL     1      42.777  43.475  24.282 -0.02 -0.00    -0.494 OA ATOM     21  C   UNL     1      41.499  42.908  24.009 -0.12 -0.01    +0.278 C  ENDBRANCH  14  20BRANCH  18  22ATOM     22  O   UNL     1      43.522  48.766  22.866 -0.61 -0.14    -0.507 OA ATOM     23  H   UNL     1      43.895  48.796  21.953 -0.45 -0.01    +0.293 HD ENDBRANCH  18  22ENDBRANCH  11  13ENDBRANCH   6  11ENDBRANCH   1   5BRANCH   3  24ATOM     24  C   UNL     1      37.776  46.517  14.974 -0.39 -0.05    +0.106 C  BRANCH  24  25ATOM     25  C   UNL     1      38.113  47.448  13.802 -0.56 -0.01    +0.028 CG0ATOM     26  G   UNL     1      37.677  46.956  12.412 +0.00 +0.00    +0.000 G0 ENDBRANCH  24  25BRANCH  24  27ATOM     27  C   UNL     1      36.281  46.556  15.401 -0.35 -0.09    +0.118 C  BRANCH  27  28ATOM     28  C   UNL     1      35.267  46.387  14.245 -0.39 -0.09    +0.108 C  BRANCH  28  29ATOM     29  N   UNL     1      35.301  47.387  13.173 -0.19 +0.23    -0.315 NA ATOM     30  H   UNL     1      34.360  47.552  12.824 -0.29 -0.11    +0.122 HD BRANCH  29  31ATOM     31  C   UNL     1      36.199  47.107  12.059 -0.68 -0.04    +0.081 C  BRANCH  31  32ATOM     32  C   UNL     1      37.676  46.955  12.414 -0.53 -0.00    +0.017 CG0ATOM     33  G   UNL     1      38.112  47.453  13.802 +0.00 +0.00    +0.000 G0 ENDBRANCH  31  32ENDBRANCH  29  31ENDBRANCH  28  29ENDBRANCH  27  28BRANCH  27  34ATOM     34  N   UNL     1      36.034  45.576  16.467 -0.11 +0.20    -0.346 N  ATOM     35  C   UNL     1      35.221  45.866  17.538 -0.27 -0.17    +0.251 C  ATOM     36  H   UNL     1      36.242  44.612  16.260 +0.12 -0.07    +0.164 HD ATOM     37  O   UNL     1      34.723  46.967  17.734 -0.45 +0.32    -0.269 OA BRANCH  35  38ATOM     38  C   UNL     1      34.933  44.747  18.468 -0.34 -0.01    +0.042 A  ATOM     39  C   UNL     1      33.608  44.339  18.623 -0.36 -0.01    +0.034 A  ATOM     40  C   UNL     1      35.940  44.119  19.204 -0.35 -0.01    +0.034 A  ATOM     41  C   UNL     1      33.346  43.300  19.493 -0.34 -0.00    +0.112 A  ATOM     42  C   UNL     1      35.573  43.089  20.050 -0.36 -0.00    +0.112 A  ATOM     43  N   UNL     1      34.299  42.662  20.206 -0.52 -0.03    -0.265 NA ENDBRANCH  35  38ENDBRANCH  27  34ENDBRANCH  24  27ENDBRANCH   3  24TORSDOF 8TERENDMDL