MODEL        2USER    Run = 2USERUSER    Estimated Free Energy of Binding    =  -6.63 kcal/mol  [=(1)+(2)+(3)-(4)]USERUSER    (1) Final Intermolecular Energy     = -11.11 kcal/molUSER        vdW + Hbond + desolv Energy     = -11.85 kcal/molUSER        Electrostatic Energy            =  -0.38 kcal/molUSER        Moving Ligand-Fixed Receptor    = -12.23 kcal/molUSER        Moving Ligand-Moving Receptor   =  +1.13 kcal/molUSER    (2) Final Total Internal Energy     =  -3.44 kcal/molUSER    (3) Torsional Free Energy           =  +4.47 kcal/molUSER    (4) Unbound System's Energy         =  -3.44 kcal/molUSERUSERREMARK SMILES COc1ccc(O)c(C(=O)c2ccc(CN[C@@H]3CCCNC[C@H]3NC(=O)c3ccncc3)cc2)c1FREMARK SMILES IDX 16 1 15 3 14 4 11 5 12 6 34 7 13 8 33 9 9 10 10 11 8 12 3 13REMARK SMILES IDX 4 14 35 15 5 16 6 17 36 18 2 19 1 20 7 21 17 23 18 24 23 26REMARK SMILES IDX 22 27 21 28 20 30 19 31 24 33 25 34 26 36 27 37 28 38 32 39REMARK SMILES IDX 29 40 31 41 30 42REMARK H PARENT 16 2 7 22 21 29 24 35REMARK Flexibility Score:   99.900USER                              x       y       z     vdW  Elec       q    TypeUSER                           _______ _______ _______ _____ _____    ______ ____ROOTATOM      1  N   UNL     1      38.400  45.204  19.249 -0.19 +0.03    -0.308 NA ATOM      2  H   UNL     1      38.007  46.041  18.812 +0.05 -0.02    +0.123 HD ENDROOTBRANCH   1   3ATOM      3  C   UNL     1      37.616  44.042  18.825 -0.26 -0.01    +0.117 C  BRANCH   3   4ATOM      4  C   UNL     1      36.465  44.389  17.912 -0.30 +0.01    -0.034 A  ATOM      5  C   UNL     1      34.327  45.020  16.197 -0.30 -0.02    +0.023 A  ATOM      6  C   UNL     1      35.448  44.348  15.699 -0.34 -0.01    +0.012 A  ATOM      7  C   UNL     1      34.287  45.398  17.544 -0.37 -0.01    +0.012 A  ATOM      8  C   UNL     1      36.505  44.029  16.556 -0.35 -0.00    +0.006 A  ATOM      9  C   UNL     1      35.346  45.079  18.397 -0.36 -0.00    +0.006 A  BRANCH   5  10ATOM     10  C   UNL     1      33.199  45.417  15.320 -0.22 -0.18    +0.199 C  ATOM     11  O   UNL     1      33.422  46.149  14.354 -0.28 +0.31    -0.288 OA BRANCH  10  12ATOM     12  C   UNL     1      31.815  44.930  15.507 -0.31 -0.06    +0.104 A  ATOM     13  C   UNL     1      30.219  43.160  16.017 -0.21 -0.07    +0.155 A  ATOM     14  C   UNL     1      29.167  44.060  15.837 -0.24 -0.03    +0.053 A  ATOM     15  C   UNL     1      31.538  43.608  15.856 -0.22 -0.09    +0.179 A  ATOM     16  C   UNL     1      29.434  45.395  15.522 -0.24 -0.02    +0.051 A  ATOM     17  C   UNL     1      30.749  45.828  15.375 -0.37 -0.06    +0.130 A  ATOM     18  F   UNL     1      32.543  42.742  16.071 -0.06 +0.11    -0.202 F  BRANCH  13  19ATOM     19  O   UNL     1      30.082  41.837  16.348 -0.08 +0.17    -0.494 OA ATOM     20  C   UNL     1      29.104  41.087  15.641 -0.25 -0.09    +0.278 C  ENDBRANCH  13  19BRANCH  17  21ATOM     21  O   UNL     1      30.925  47.159  15.102 -0.67 +0.21    -0.507 OA ATOM     22  H   UNL     1      31.881  47.366  15.224 -0.34 -0.54    +0.293 HD ENDBRANCH  17  21ENDBRANCH  10  12ENDBRANCH   5  10ENDBRANCH   3   4ENDBRANCH   1   3BRANCH   1  23ATOM     23  C   UNL     1      39.841  45.121  18.885 -0.44 -0.00    +0.077 C  BRANCH  23  24ATOM     24  C   UNL     1      40.609  44.740  20.158 -0.42 +0.00    +0.022 CG0ATOM     25  G   UNL     1      41.084  45.916  21.010 +0.00 +0.00    +0.000 G0 ENDBRANCH  23  24BRANCH  23  26ATOM     26  C   UNL     1      40.309  46.470  18.257 -0.45 -0.01    +0.113 C  BRANCH  26  27ATOM     27  C   UNL     1      41.853  46.576  18.201 -0.36 -0.00    +0.107 C  BRANCH  27  28ATOM     28  N   UNL     1      42.561  47.131  19.350 -0.32 -0.04    -0.315 NA ATOM     29  H   UNL     1      42.239  48.089  19.508 -0.03 -0.00    +0.122 HD BRANCH  28  30ATOM     30  C   UNL     1      42.477  46.404  20.609 -0.37 +0.02    +0.081 C  BRANCH  30  31ATOM     31  C   UNL     1      41.085  45.913  20.998 -0.36 +0.00    +0.017 CG0ATOM     32  G   UNL     1      40.612  44.734  20.149 +0.00 +0.00    +0.000 G0 ENDBRANCH  30  31ENDBRANCH  28  30ENDBRANCH  27  28ENDBRANCH  26  27BRANCH  26  33ATOM     33  N   UNL     1      39.756  46.598  16.894 -0.21 +0.07    -0.346 N  ATOM     34  C   UNL     1      38.430  46.907  16.681 -0.28 -0.10    +0.251 C  ATOM     35  H   UNL     1      40.402  46.538  16.121 +0.12 -0.02    +0.164 HD ATOM     36  O   UNL     1      37.608  47.001  17.584 +0.17 +0.13    -0.269 OA BRANCH  34  37ATOM     37  C   UNL     1      38.005  47.099  15.270 -0.40 -0.02    +0.042 A  ATOM     38  C   UNL     1      37.573  48.367  14.882 -0.51 -0.02    +0.034 A  ATOM     39  C   UNL     1      38.057  46.070  14.330 -0.40 -0.01    +0.034 A  ATOM     40  C   UNL     1      37.179  48.548  13.570 -0.40 -0.05    +0.112 A  ATOM     41  C   UNL     1      37.643  46.354  13.040 -0.35 -0.03    +0.112 A  ATOM     42  N   UNL     1      37.197  47.564  12.644 -0.91 +0.07    -0.265 NA ENDBRANCH  34  37ENDBRANCH  26  33ENDBRANCH  23  26ENDBRANCH   1  23TORSDOF 9TERENDMDL