MODEL        5USER    Run = 5USERUSER    Estimated Free Energy of Binding    = -12.84 kcal/mol  [=(1)+(2)+(3)-(4)]USERUSER    (1) Final Intermolecular Energy     = -14.63 kcal/molUSER        vdW + Hbond + desolv Energy     = -14.62 kcal/molUSER        Electrostatic Energy            =  -0.01 kcal/molUSER        Moving Ligand-Fixed Receptor    = -14.63 kcal/molUSER        Moving Ligand-Moving Receptor   =  +0.00 kcal/molUSER    (2) Final Total Internal Energy     =  -2.07 kcal/molUSER    (3) Torsional Free Energy           =  +1.79 kcal/molUSER    (4) Unbound System's Energy         =  -2.07 kcal/molUSERUSERREMARK SMILES Oc1nc2ccccc2n1C1CCN(Cc2ccc(-c3nc4ccccc4nc3-c3ccccc3)cc2)CC1REMARK SMILES IDX 11 1 12 2 13 3 14 4 38 5 39 6 10 7 2 8 3 9 4 10 9 11 5 12REMARK SMILES IDX 8 13 6 14 7 15 1 16 15 18 16 19 17 20 37 21 18 22 36 23REMARK SMILES IDX 19 24 20 25 21 26 29 27 22 28 28 29 23 30 27 31 24 32 26 33REMARK SMILES IDX 25 34 30 35 31 36 35 37 32 38 34 39 33 40REMARK H PARENT 1 17USER                              x       y       z     vdW  Elec       q    TypeUSER                           _______ _______ _______ _____ _____    ______ ____ROOTATOM      1  C   UNL     1      39.419  47.268  15.862 -0.48 -0.03    +0.095 C  ATOM      2  C   UNL     1      38.058  46.943  16.499 -0.42 -0.02    +0.041 C  ATOM      3  C   UNL     1      36.906  47.625  15.760 -0.36 -0.08    +0.087 C  ATOM      4  N   UNL     1      37.010  47.547  14.300 -0.25 +0.18    -0.299 NA ATOM      5  C   UNL     1      38.274  48.100  13.787 -0.49 -0.03    +0.087 C  ATOM      6  C   UNL     1      39.320  48.423  14.859 -0.58 -0.02    +0.041 C  ENDROOTBRANCH   1   7ATOM      7  N   UNL     1      40.467  47.464  16.852 -0.31 +0.05    -0.291 N  ATOM      8  C   UNL     1      41.355  48.503  16.902 -0.20 -0.01    +0.295 A  ATOM      9  N   UNL     1      42.183  48.429  17.906 -0.51 -0.01    -0.195 NA ATOM     10  C   UNL     1      41.816  47.281  18.565 -0.46 -0.00    +0.092 A  ATOM     11  C   UNL     1      40.740  46.653  17.934 -0.46 -0.01    +0.072 A  ATOM     12  C   UNL     1      42.362  46.713  19.727 -0.43 +0.01    +0.031 A  ATOM     13  C   UNL     1      40.172  45.466  18.421 -0.44 -0.00    +0.029 A  ATOM     14  C   UNL     1      41.809  45.527  20.226 -0.35 +0.00    +0.002 A  ATOM     15  C   UNL     1      40.732  44.917  19.581 -0.41 +0.00    +0.002 A  BRANCH   8  16ATOM     16  O   UNL     1      41.391  49.502  16.044 -0.85 +0.02    -0.480 OA ATOM     17  H   UNL     1      41.384  50.270  16.644 +0.06 -0.04    +0.296 HD ENDBRANCH   8  16ENDBRANCH   1   7BRANCH   4  18ATOM     18  C   UNL     1      36.743  46.206  13.750 -0.44 -0.06    +0.120 C  BRANCH  18  19ATOM     19  C   UNL     1      36.019  45.285  14.708 -0.35 +0.02    -0.034 A  ATOM     20  C   UNL     1      34.720  45.578  15.139 -0.34 -0.00    +0.006 A  ATOM     21  C   UNL     1      36.645  44.129  15.191 -0.35 -0.00    +0.006 A  ATOM     22  C   UNL     1      34.056  44.719  16.021 -0.31 -0.01    +0.011 A  ATOM     23  C   UNL     1      35.978  43.273  16.071 -0.44 -0.00    +0.011 A  ATOM     24  C   UNL     1      34.664  43.544  16.489 -0.37 -0.00    +0.002 A  BRANCH  24  25ATOM     25  C   UNL     1      33.941  42.643  17.402 -0.31 -0.03    +0.097 A  ATOM     26  N   UNL     1      32.847  42.052  16.839 -0.09 +0.13    -0.244 NA ATOM     27  C   UNL     1      34.290  42.399  18.740 -0.34 -0.02    +0.097 A  ATOM     28  C   UNL     1      32.099  41.257  17.623 -0.29 -0.03    +0.089 A  ATOM     29  N   UNL     1      33.518  41.600  19.532 -0.24 -0.02    -0.244 NA ATOM     30  C   UNL     1      30.969  40.643  17.096 -0.29 -0.01    +0.030 A  ATOM     31  C   UNL     1      32.434  41.032  18.976 -0.31 +0.00    +0.089 A  ATOM     32  C   UNL     1      30.162  39.813  17.875 -0.35 +0.00    +0.002 A  ATOM     33  C   UNL     1      31.625  40.204  19.745 -0.28 +0.00    +0.030 A  ATOM     34  C   UNL     1      30.493  39.593  19.206 -0.30 +0.00    +0.002 A  BRANCH  27  35ATOM     35  C   UNL     1      35.486  42.932  19.418 -0.42 -0.00    +0.002 A  ATOM     36  C   UNL     1      35.993  44.198  19.073 -0.37 -0.00    +0.010 A  ATOM     37  C   UNL     1      36.141  42.223  20.441 -0.47 -0.00    +0.010 A  ATOM     38  C   UNL     1      37.124  44.724  19.705 -0.25 -0.00    +0.001 A  ATOM     39  C   UNL     1      37.274  42.745  21.072 -0.37 +0.00    +0.001 A  ATOM     40  C   UNL     1      37.767  43.994  20.702 -0.37 -0.00    +0.000 A  ENDBRANCH  27  35ENDBRANCH  24  25ENDBRANCH  18  19ENDBRANCH   4  18TORSDOF 6TERENDMDL