MODEL        6USER    Run = 6USERUSER    Estimated Free Energy of Binding    = -12.50 kcal/mol  [=(1)+(2)+(3)-(4)]USERUSER    (1) Final Intermolecular Energy     = -14.29 kcal/molUSER        vdW + Hbond + desolv Energy     = -13.99 kcal/molUSER        Electrostatic Energy            =  -0.30 kcal/molUSER        Moving Ligand-Fixed Receptor    = -14.29 kcal/molUSER        Moving Ligand-Moving Receptor   =  +0.00 kcal/molUSER    (2) Final Total Internal Energy     =  -1.43 kcal/molUSER    (3) Torsional Free Energy           =  +1.79 kcal/molUSER    (4) Unbound System's Energy         =  -1.43 kcal/molUSERUSERREMARK SMILES Cn1ccc2ccc3c4[nH]c5c(CCCN[C@H]6CC[C@H](O)CC6)cccc5c4c4c(c3c21)C(=O)NC4=OREMARK SMILES IDX 15 1 14 2 13 3 12 4 2 5 3 6 32 7 4 8 31 9 5 10 30 11 8 12REMARK SMILES IDX 6 13 29 14 33 15 7 16 9 17 28 18 36 19 35 20 10 21 27 22REMARK SMILES IDX 11 23 26 24 25 25 24 26 1 27 34 28 37 29 16 32 17 34 23 35REMARK SMILES IDX 18 36 22 37 19 38 20 39 21 40REMARK H PARENT 35 30 10 31 16 33 21 41USER                              x       y       z     vdW  Elec       q    TypeUSER                           _______ _______ _______ _____ _____    ______ ____ROOTATOM      1  C   UNL     1      36.189  41.771  20.031 -0.33 -0.00    +0.081 C  ENDROOTBRANCH   1   2ATOM      2  C   UNL     1      36.799  41.485  21.406 -0.60 +0.00    +0.020 C  BRANCH   2   3ATOM      3  C   UNL     1      36.970  42.745  22.262 -0.48 +0.00    +0.039 C  BRANCH   3   4ATOM      4  C   UNL     1      38.332  43.386  22.151 -0.31 -0.00    -0.024 A  ATOM      5  N   UNL     1      39.621  48.007  14.927 -0.24 +0.11    -0.350 N  ATOM      6  C   UNL     1      38.738  48.511  14.000 -0.33 -0.03    +0.086 A  ATOM      7  C   UNL     1      38.938  47.479  16.016 -0.42 -0.02    +0.057 A  ATOM      8  C   UNL     1      37.478  48.121  14.369 -0.52 -0.02    +0.028 A  ATOM      9  C   UNL     1      39.342  46.978  17.310 -0.42 -0.01    +0.022 A  ATOM     10  C   UNL     1      37.598  47.407  15.589 -0.44 -0.00    +0.000 A  ATOM     11  C   UNL     1      40.560  47.168  17.982 -0.42 -0.01    +0.063 A  ATOM     12  C   UNL     1      38.363  46.197  18.001 -0.29 -0.00    +0.009 A  ATOM     13  C   UNL     1      36.651  46.714  16.361 -0.35 -0.01    +0.011 A  ATOM     14  C   UNL     1      40.871  46.513  19.179 -0.35 +0.00    +0.063 A  ATOM     15  C   UNL     1      41.664  48.118  17.762 -0.28 -0.01    +0.259 C  ATOM     16  C   UNL     1      37.048  46.071  17.530 -0.28 -0.00    +0.012 A  ATOM     17  C   UNL     1      38.716  45.537  19.219 -0.31 -0.00    +0.055 A  ATOM     18  C   UNL     1      39.974  45.657  19.823 -0.37 -0.00    +0.022 A  ATOM     19  C   UNL     1      42.199  46.953  19.603 -0.34 +0.03    +0.259 C  ATOM     20  N   UNL     1      42.645  47.803  18.646 -0.39 -0.01    -0.288 N  ATOM     21  N   UNL     1      37.981  44.700  20.031 -0.15 +0.01    -0.354 N  ATOM     22  C   UNL     1      39.970  44.845  21.008 -0.33 +0.00    +0.008 A  ATOM     23  C   UNL     1      38.709  44.257  21.109 -0.30 +0.00    +0.050 A  ATOM     24  C   UNL     1      40.918  44.548  22.009 -0.25 +0.00    +0.011 A  ATOM     25  C   UNL     1      40.578  43.690  23.059 -0.24 +0.00    +0.001 A  ATOM     26  C   UNL     1      39.310  43.123  23.126 -0.27 +0.00    +0.006 A  ATOM     27  C   UNL     1      41.022  47.852  14.594 -0.27 -0.01    +0.149 C  ATOM     28  O   UNL     1      41.673  49.079  17.021 -0.94 -0.03    -0.269 OA ATOM     29  O   UNL     1      42.780  46.678  20.632 -0.30 -0.08    -0.269 OA ATOM     30  H   UNL     1      43.450  48.393  18.792 -0.33 -0.01    +0.173 HD ATOM     31  H   UNL     1      37.029  44.421  19.850 +0.11 -0.01    +0.167 HD ENDBRANCH   3   4ENDBRANCH   2   3ENDBRANCH   1   2BRANCH   1  32ATOM     32  N   UNL     1      34.780  42.134  20.197 -0.31 -0.02    -0.314 NA ATOM     33  H   UNL     1      34.271  41.369  20.636 +0.08 +0.02    +0.122 HD BRANCH  32  34ATOM     34  C   UNL     1      34.134  42.503  18.929 -0.43 -0.01    +0.053 C  ATOM     35  C   UNL     1      32.902  43.412  19.121 -0.45 -0.00    +0.021 C  ATOM     36  C   UNL     1      35.213  43.169  18.051 -0.39 -0.01    +0.021 C  ATOM     37  C   UNL     1      33.249  44.895  19.004 -0.44 -0.01    +0.033 C  ATOM     38  C   UNL     1      34.586  44.059  16.986 -0.35 -0.01    +0.033 C  ATOM     39  C   UNL     1      33.820  45.225  17.619 -0.35 -0.07    +0.114 C  BRANCH  39  40ATOM     40  O   UNL     1      32.760  45.580  16.732 -0.26 +0.29    -0.393 OA ATOM     41  H   UNL     1      32.815  46.539  16.578 -0.36 -0.39    +0.210 HD ENDBRANCH  39  40ENDBRANCH  32  34ENDBRANCH   1  32TORSDOF 6TERENDMDL