MODEL        10USER    Run = 10USERUSER    Estimated Free Energy of Binding    =  -6.51 kcal/mol  [=(1)+(2)+(3)-(4)]USERUSER    (1) Final Intermolecular Energy     = -10.98 kcal/molUSER        vdW + Hbond + desolv Energy     = -11.32 kcal/molUSER        Electrostatic Energy            =  -0.08 kcal/molUSER        Moving Ligand-Fixed Receptor    = -11.40 kcal/molUSER        Moving Ligand-Moving Receptor   =  +0.42 kcal/molUSER    (2) Final Total Internal Energy     =  -2.40 kcal/molUSER    (3) Torsional Free Energy           =  +4.47 kcal/molUSER    (4) Unbound System's Energy         =  -2.40 kcal/molUSERUSERREMARK SMILES COc1ccc(O)c(C(=O)c2ccc(C(=O)O[C@@H]3CCCNC[C@H]3NC(=O)c3ccncc3)cc2)c1FREMARK SMILES IDX 17 1 15 2 16 3 14 4 11 5 12 6 35 7 13 8 34 9 9 10 10 11 8 12REMARK SMILES IDX 3 13 4 14 36 15 5 16 6 17 37 18 2 19 1 20 7 21 18 23 24 25REMARK SMILES IDX 23 26 22 27 21 29 20 30 19 31 25 33 26 34 27 36 28 37 29 38REMARK SMILES IDX 33 39 30 40 32 41 31 42REMARK H PARENT 7 22 22 28 25 35REMARK Flexibility Score:   99.900USER                              x       y       z     vdW  Elec       q    TypeUSER                           _______ _______ _______ _____ _____    ______ ____ROOTATOM      1  O   UNL     1      39.104  46.320  18.101 -0.18 +0.08    -0.457 OA ENDROOTBRANCH   1   2ATOM      2  C   UNL     1      40.025  45.517  18.691 -0.28 -0.02    +0.338 C  ATOM      3  O   UNL     1      41.204  45.407  18.386 -0.33 -0.01    -0.246 OA BRANCH   2   4ATOM      4  C   UNL     1      39.402  44.795  19.828 -0.35 -0.00    +0.060 A  ATOM      5  C   UNL     1      38.295  43.425  22.014 -0.31 +0.00    +0.023 A  ATOM      6  C   UNL     1      37.544  43.611  20.846 -0.36 +0.00    +0.013 A  ATOM      7  C   UNL     1      39.605  43.924  22.079 -0.26 +0.00    +0.013 A  ATOM      8  C   UNL     1      38.096  44.294  19.757 -0.34 -0.00    +0.016 A  ATOM      9  C   UNL     1      40.160  44.597  20.988 -0.32 +0.00    +0.016 A  BRANCH   5  10ATOM     10  C   UNL     1      37.747  42.730  23.211 -0.31 +0.02    +0.199 C  ATOM     11  O   UNL     1      37.396  41.556  23.153 -0.31 -0.03    -0.288 OA BRANCH  10  12ATOM     12  C   UNL     1      37.609  43.438  24.489 -0.26 +0.00    +0.104 A  ATOM     13  C   UNL     1      37.360  45.538  25.676 -0.24 +0.00    +0.155 A  ATOM     14  C   UNL     1      37.402  44.839  26.890 -0.30 -0.01    +0.053 A  ATOM     15  C   UNL     1      37.472  44.824  24.477 -0.20 +0.02    +0.179 A  ATOM     16  C   UNL     1      37.524  43.444  26.901 -0.28 -0.01    +0.051 A  ATOM     17  C   UNL     1      37.619  42.744  25.699 -0.23 -0.01    +0.130 A  ATOM     18  F   UNL     1      37.400  45.479  23.307 +0.06 -0.04    -0.202 F  BRANCH  13  19ATOM     19  O   UNL     1      37.192  46.891  25.544 -0.66 -0.03    -0.494 OA ATOM     20  C   UNL     1      38.315  47.650  25.116 -0.25 +0.03    +0.278 C  ENDBRANCH  13  19BRANCH  17  21ATOM     21  O   UNL     1      37.716  41.383  25.702 -0.07 +0.04    -0.507 OA ATOM     22  H   UNL     1      36.983  40.995  25.197 -0.05 -0.08    +0.293 HD ENDBRANCH  17  21ENDBRANCH  10  12ENDBRANCH   5  10ENDBRANCH   2   4ENDBRANCH   1   2BRANCH   1  23ATOM     23  C   UNL     1      38.387  45.764  16.967 -0.31 -0.05    +0.200 CG0ATOM     24  G   UNL     1      39.183  46.122  15.713 +0.00 +0.00    +0.000 G0 BRANCH  23  25ATOM     25  C   UNL     1      36.960  46.349  17.003 -0.28 -0.07    +0.137 C  BRANCH  25  26ATOM     26  C   UNL     1      36.499  46.996  15.681 -0.37 -0.09    +0.109 C  BRANCH  26  27ATOM     27  N   UNL     1      37.008  48.352  15.464 -0.21 +0.32    -0.315 NA ATOM     28  H   UNL     1      37.015  48.837  16.361 +0.06 -0.17    +0.122 HD BRANCH  27  29ATOM     29  C   UNL     1      38.346  48.448  14.871 -0.54 -0.05    +0.081 C  BRANCH  29  30ATOM     30  C   UNL     1      39.472  47.610  15.489 -0.57 -0.01    +0.019 C  BRANCH  30  31ATOM     31  C   UNL     1      39.178  46.121  15.708 -0.42 -0.01    +0.049 CG0ATOM     32  G   UNL     1      38.386  45.765  16.966 +0.00 +0.00    +0.000 G0 ENDBRANCH  30  31ENDBRANCH  29  30ENDBRANCH  27  29ENDBRANCH  26  27ENDBRANCH  25  26BRANCH  25  33ATOM     33  N   UNL     1      36.018  45.296  17.405 -0.11 +0.15    -0.344 N  ATOM     34  C   UNL     1      34.930  45.550  18.203 -0.29 -0.12    +0.251 C  ATOM     35  H   UNL     1      36.020  44.462  16.833 +0.12 -0.06    +0.164 HD ATOM     36  O   UNL     1      34.676  46.647  18.684 -0.68 +0.16    -0.269 OA BRANCH  34  37ATOM     37  C   UNL     1      34.033  44.399  18.459 -0.34 -0.01    +0.042 A  ATOM     38  C   UNL     1      33.199  44.437  19.575 -0.37 -0.01    +0.034 A  ATOM     39  C   UNL     1      34.040  43.276  17.633 -0.31 -0.01    +0.034 A  ATOM     40  C   UNL     1      32.378  43.349  19.805 -0.33 +0.00    +0.112 A  ATOM     41  C   UNL     1      33.186  42.238  17.955 -0.30 -0.03    +0.112 A  ATOM     42  N   UNL     1      32.351  42.253  19.017 -0.23 +0.01    -0.265 NA ENDBRANCH  34  37ENDBRANCH  25  33ENDBRANCH  23  25ENDBRANCH   1  23TORSDOF 9TERENDMDL