MODEL        3USER    Run = 3USERUSER    Estimated Free Energy of Binding    =  -7.27 kcal/mol  [=(1)+(2)+(3)-(4)]USERUSER    (1) Final Intermolecular Energy     = -11.75 kcal/molUSER        vdW + Hbond + desolv Energy     = -12.16 kcal/molUSER        Electrostatic Energy            =  -0.44 kcal/molUSER        Moving Ligand-Fixed Receptor    = -12.60 kcal/molUSER        Moving Ligand-Moving Receptor   =  +0.85 kcal/molUSER    (2) Final Total Internal Energy     =  -2.17 kcal/molUSER    (3) Torsional Free Energy           =  +4.47 kcal/molUSER    (4) Unbound System's Energy         =  -2.17 kcal/molUSERUSERREMARK SMILES COc1ccc(O)c(C(=O)c2ccc(/C=C/[C@@H]3CCCNC[C@H]3NC(=O)c3ccncc3)cc2)c1FREMARK SMILES IDX 16 1 15 2 14 3 11 4 12 5 34 6 13 7 33 8 9 9 10 10 8 11 3 12REMARK SMILES IDX 4 13 35 14 5 15 6 16 36 17 2 18 1 19 7 20 17 22 18 23 23 25REMARK SMILES IDX 22 26 21 27 20 29 19 30 24 32 25 33 26 35 27 36 28 37 32 38REMARK SMILES IDX 29 39 31 40 30 41REMARK H PARENT 7 21 21 28 24 34REMARK Flexibility Score:   99.900USER                              x       y       z     vdW  Elec       q    TypeUSER                           _______ _______ _______ _____ _____    ______ ____ROOTATOM      1  C   UNL     1      32.607  43.258  15.707 -0.36 +0.01    -0.021 C  ENDROOTBRANCH   1   2ATOM      2  C   UNL     1      31.426  43.885  15.817 -0.40 -0.00    +0.004 C  BRANCH   2   3ATOM      3  C   UNL     1      30.133  43.190  15.777 -0.29 +0.01    -0.026 A  ATOM      4  C   UNL     1      27.694  41.801  15.748 -0.25 -0.01    +0.023 A  ATOM      5  C   UNL     1      28.899  41.093  15.779 -0.37 -0.00    +0.013 A  ATOM      6  C   UNL     1      27.703  43.198  15.772 -0.22 -0.01    +0.013 A  ATOM      7  C   UNL     1      30.113  41.790  15.798 -0.35 -0.00    +0.009 A  ATOM      8  C   UNL     1      28.917  43.888  15.778 -0.26 -0.01    +0.009 A  BRANCH   4   9ATOM      9  C   UNL     1      26.392  41.101  15.759 -0.27 -0.04    +0.199 C  ATOM     10  O   UNL     1      25.785  40.958  14.697 -0.30 +0.09    -0.288 OA BRANCH   9  11ATOM     11  C   UNL     1      25.756  40.606  17.001 -0.25 -0.00    +0.104 A  ATOM     12  C   UNL     1      24.987  40.947  19.290 -0.20 -0.03    +0.155 A  ATOM     13  C   UNL     1      24.544  39.625  19.334 -0.30 -0.02    +0.053 A  ATOM     14  C   UNL     1      25.594  41.426  18.119 -0.15 -0.02    +0.179 A  ATOM     15  C   UNL     1      24.727  38.787  18.231 -0.38 -0.02    +0.051 A  ATOM     16  C   UNL     1      25.340  39.272  17.080 -0.27 +0.01    +0.130 A  ATOM     17  F   UNL     1      26.052  42.689  18.102 -0.05 +0.02    -0.202 F  BRANCH  12  18ATOM     18  O   UNL     1      24.882  41.854  20.311 -0.13 +0.12    -0.494 OA ATOM     19  C   UNL     1      26.038  42.076  21.108 -0.20 -0.06    +0.278 C  ENDBRANCH  12  18BRANCH  16  20ATOM     20  O   UNL     1      25.507  38.376  16.057 -0.45 -0.29    -0.507 OA ATOM     21  H   UNL     1      25.245  38.824  15.220 +0.00 +0.01    +0.293 HD ENDBRANCH  16  20ENDBRANCH   9  11ENDBRANCH   4   9ENDBRANCH   2   3ENDBRANCH   1   2BRANCH   1  22ATOM     22  C   UNL     1      33.788  43.392  16.665 -0.38 -0.01    +0.035 C  BRANCH  22  23ATOM     23  C   UNL     1      33.585  42.340  17.774 -0.44 -0.00    +0.011 CG0ATOM     24  G   UNL     1      34.636  42.232  18.873 +0.00 +0.00    +0.000 G0 ENDBRANCH  22  23BRANCH  22  25ATOM     25  C   UNL     1      34.099  44.825  17.194 -0.31 -0.06    +0.103 C  BRANCH  25  26ATOM     26  C   UNL     1      35.145  44.787  18.345 -0.34 -0.04    +0.106 C  BRANCH  26  27ATOM     27  N   UNL     1      34.664  44.557  19.703 -0.16 +0.07    -0.315 NA ATOM     28  H   UNL     1      33.818  45.107  19.859 -0.28 -0.05    +0.122 HD BRANCH  27  29ATOM     29  C   UNL     1      34.436  43.164  20.053 -0.33 +0.00    +0.081 C  BRANCH  29  30ATOM     30  C   UNL     1      34.637  42.231  18.868 -0.45 -0.00    +0.016 CG0ATOM     31  G   UNL     1      33.587  42.331  17.767 +0.00 +0.00    +0.000 G0 ENDBRANCH  29  30ENDBRANCH  27  29ENDBRANCH  26  27ENDBRANCH  25  26BRANCH  25  32ATOM     32  N   UNL     1      34.619  45.688  16.122 -0.10 +0.33    -0.347 N  ATOM     33  C   UNL     1      35.769  45.376  15.432 -0.23 -0.15    +0.251 C  ATOM     34  H   UNL     1      34.013  46.417  15.771 -0.14 -0.30    +0.164 HD ATOM     35  O   UNL     1      36.442  44.377  15.651 -0.24 +0.10    -0.269 OA BRANCH  33  36ATOM     36  C   UNL     1      36.156  46.315  14.349 -0.40 -0.03    +0.042 A  ATOM     37  C   UNL     1      36.611  47.605  14.625 -0.40 -0.03    +0.034 A  ATOM     38  C   UNL     1      36.090  45.871  13.030 -0.49 -0.02    +0.034 A  ATOM     39  C   UNL     1      36.957  48.407  13.555 -0.46 -0.06    +0.112 A  ATOM     40  C   UNL     1      36.456  46.752  12.031 -0.59 -0.05    +0.112 A  ATOM     41  N   UNL     1      36.879  48.014  12.265 -0.97 +0.07    -0.265 NA ENDBRANCH  33  36ENDBRANCH  25  32ENDBRANCH  22  25ENDBRANCH   1  22TORSDOF 9TERENDMDL