REMARK SMILES N#Cc1cnc(-c2ccc(CNCc3ccc(-c4csnn4)cc3)cc2)c(-c2ccccc2)c1
REMARK SMILES IDX 11 1 10 2 7 3 8 4 26 5 9 6 25 7 6 8 3 9 4 10 34 11 5 12
REMARK SMILES IDX 27 13 2 14 1 15 28 16 29 17 33 18 30 19 32 20 31 21 12 22
REMARK SMILES IDX 13 24 14 25 15 26 24 27 16 28 23 29 17 30 18 31 19 32 22 33
REMARK SMILES IDX 20 34 21 35
REMARK H PARENT 12 23
ROOT
ATOM      1  C   UNL     1       1.559   0.152  -1.704  1.00  0.00     0.117 C 
ENDROOT
BRANCH   1   2
ATOM      2  C   UNL     1       0.140   0.563  -1.390  1.00  0.00    -0.034 A 
ATOM      3  C   UNL     1      -2.534   1.300  -0.780  1.00  0.00     0.001 A 
ATOM      4  C   UNL     1      -2.070   1.270  -2.107  1.00  0.00     0.011 A 
ATOM      5  C   UNL     1      -1.623   0.969   0.236  1.00  0.00     0.011 A 
ATOM      6  C   UNL     1      -0.755   0.901  -2.411  1.00  0.00     0.006 A 
ATOM      7  C   UNL     1      -0.308   0.597  -0.064  1.00  0.00     0.006 A 
BRANCH   3   8
ATOM      8  C   UNL     1      -3.928   1.691  -0.487  1.00  0.00     0.078 A 
ATOM      9  C   UNL     1      -6.474   2.688  -0.067  1.00  0.00     0.071 A 
ATOM     10  C   UNL     1      -5.537   3.345  -0.840  1.00  0.00     0.131 A 
ATOM     11  C   UNL     1      -6.109   1.471   0.506  1.00  0.00     0.032 A 
ATOM     12  N   UNL     1      -4.289   2.875  -1.064  1.00  0.00    -0.254 NA
ATOM     13  C   UNL     1      -4.820   0.938   0.305  1.00  0.00     0.009 A 
BRANCH   9  14
ATOM     14  C   UNL     1      -7.776   3.241   0.125  1.00  0.00     0.101 C 
ATOM     15  N   UNL     1      -8.833   3.691   0.282  1.00  0.00    -0.192 NA
ENDBRANCH   9  14
BRANCH  13  16
ATOM     16  C   UNL     1      -4.496  -0.373   0.894  1.00  0.00    -0.016 A 
ATOM     17  C   UNL     1      -4.501  -0.555   2.288  1.00  0.00     0.009 A 
ATOM     18  C   UNL     1      -4.191  -1.478   0.083  1.00  0.00     0.009 A 
ATOM     19  C   UNL     1      -4.200  -1.797   2.852  1.00  0.00     0.001 A 
ATOM     20  C   UNL     1      -3.888  -2.720   0.646  1.00  0.00     0.001 A 
ATOM     21  C   UNL     1      -3.892  -2.879   2.030  1.00  0.00     0.000 A 
ENDBRANCH  13  16
ENDBRANCH   3   8
ENDBRANCH   1   2
BRANCH   1  22
ATOM     22  N   UNL     1       1.721  -1.293  -1.544  1.00  0.00    -0.309 NA
ATOM     23  H   UNL     1       1.028  -1.757  -2.129  1.00  0.00     0.123 HD
BRANCH  22  24
ATOM     24  C   UNL     1       3.055  -1.746  -1.938  1.00  0.00     0.117 C 
BRANCH  24  25
ATOM     25  C   UNL     1       4.144  -1.305  -0.988  1.00  0.00    -0.034 A 
ATOM     26  C   UNL     1       5.237  -0.559  -1.447  1.00  0.00     0.006 A 
ATOM     27  C   UNL     1       4.090  -1.652   0.367  1.00  0.00     0.006 A 
ATOM     28  C   UNL     1       6.249  -0.160  -0.566  1.00  0.00     0.011 A 
ATOM     29  C   UNL     1       5.101  -1.255   1.247  1.00  0.00     0.011 A 
ATOM     30  C   UNL     1       6.191  -0.498   0.794  1.00  0.00     0.003 A 
BRANCH  30  31
ATOM     31  C   UNL     1       7.229  -0.097   1.739  1.00  0.00     0.105 A 
ATOM     32  C   UNL     1       8.097   0.966   1.552  1.00  0.00     0.118 A 
ATOM     33  N   UNL     1       7.402  -0.772   2.946  1.00  0.00    -0.138 NA
ATOM     34  S   UNL     1       9.117   1.048   2.930  1.00  0.00    -0.020 S 
ATOM     35  N   UNL     1       8.384  -0.260   3.667  1.00  0.00    -0.091 NA
ENDBRANCH  30  31
ENDBRANCH  24  25
ENDBRANCH  22  24
ENDBRANCH   1  22
TORSDOF 8
