MODEL        6USER    Run = 6USERUSER    Estimated Free Energy of Binding    =  -7.07 kcal/mol  [=(1)+(2)+(3)-(4)]USERUSER    (1) Final Intermolecular Energy     = -11.55 kcal/molUSER        vdW + Hbond + desolv Energy     = -11.71 kcal/molUSER        Electrostatic Energy            =  -0.32 kcal/molUSER        Moving Ligand-Fixed Receptor    = -12.03 kcal/molUSER        Moving Ligand-Moving Receptor   =  +0.48 kcal/molUSER    (2) Final Total Internal Energy     =  -2.43 kcal/molUSER    (3) Torsional Free Energy           =  +4.47 kcal/molUSER    (4) Unbound System's Energy         =  -2.43 kcal/molUSERUSERREMARK SMILES COc1ccc(O)c(C(=O)c2ccc(CN[C@@H]3CCCNC[C@H]3NC(=O)c3ccncc3)cc2)c1FREMARK SMILES IDX 16 1 15 3 14 4 11 5 12 6 34 7 13 8 33 9 9 10 10 11 8 12 3 13REMARK SMILES IDX 4 14 35 15 5 16 6 17 36 18 2 19 1 20 7 21 17 23 18 24 23 26REMARK SMILES IDX 22 27 21 28 20 30 19 31 24 33 25 34 26 36 27 37 28 38 32 39REMARK SMILES IDX 29 40 31 41 30 42REMARK H PARENT 16 2 7 22 21 29 24 35REMARK Flexibility Score:   99.900USER                              x       y       z     vdW  Elec       q    TypeUSER                           _______ _______ _______ _____ _____    ______ ____ROOTATOM      1  N   UNL     1      39.635  45.721  19.882 -0.20 +0.00    -0.308 NA ATOM      2  H   UNL     1      39.270  45.860  18.937 +0.06 -0.01    +0.123 HD ENDROOTBRANCH   1   3ATOM      3  C   UNL     1      39.276  44.373  20.329 -0.31 +0.00    +0.117 C  BRANCH   3   4ATOM      4  C   UNL     1      38.695  44.333  21.722 -0.31 -0.00    -0.034 A  ATOM      5  C   UNL     1      37.596  44.243  24.309 -0.30 +0.00    +0.023 A  ATOM      6  C   UNL     1      36.821  43.869  23.207 -0.13 +0.00    +0.012 A  ATOM      7  C   UNL     1      38.909  44.686  24.115 -0.21 +0.00    +0.012 A  ATOM      8  C   UNL     1      37.373  43.907  21.923 -0.38 +0.00    +0.006 A  ATOM      9  C   UNL     1      39.457  44.725  22.830 -0.25 +0.00    +0.006 A  BRANCH   5  10ATOM     10  C   UNL     1      37.044  44.260  25.685 -0.27 -0.00    +0.199 C  ATOM     11  O   UNL     1      36.633  45.324  26.152 -0.29 +0.04    -0.288 OA BRANCH  10  12ATOM     12  C   UNL     1      36.902  43.046  26.518 -0.30 -0.01    +0.104 A  ATOM     13  C   UNL     1      37.828  41.052  27.573 -0.34 -0.02    +0.155 A  ATOM     14  C   UNL     1      36.570  40.749  28.096 -0.31 -0.02    +0.053 A  ATOM     15  C   UNL     1      37.983  42.207  26.791 -0.24 -0.02    +0.179 A  ATOM     16  C   UNL     1      35.487  41.601  27.858 -0.50 -0.02    +0.051 A  ATOM     17  C   UNL     1      35.659  42.748  27.089 -0.42 -0.03    +0.130 A  ATOM     18  F   UNL     1      39.206  42.510  26.326 -0.04 +0.01    -0.202 F  BRANCH  13  19ATOM     19  O   UNL     1      38.963  40.308  27.756 -0.18 -0.03    -0.494 OA ATOM     20  C   UNL     1      40.070  40.951  28.373 -0.16 +0.00    +0.278 C  ENDBRANCH  13  19BRANCH  17  21ATOM     21  O   UNL     1      34.557  43.548  26.934 -0.22 +0.07    -0.507 OA ATOM     22  H   UNL     1      34.872  44.447  26.683 -0.09 -0.10    +0.293 HD ENDBRANCH  17  21ENDBRANCH  10  12ENDBRANCH   5  10ENDBRANCH   3   4ENDBRANCH   1   3BRANCH   1  23ATOM     23  C   UNL     1      41.102  45.973  19.857 -0.41 +0.01    +0.077 C  BRANCH  23  24ATOM     24  C   UNL     1      41.544  46.228  21.303 -0.34 +0.00    +0.022 CG0ATOM     25  G   UNL     1      42.680  47.236  21.471 +0.00 +0.00    +0.000 G0 ENDBRANCH  23  24BRANCH  23  26ATOM     26  C   UNL     1      41.421  47.156  18.891 -0.36 -0.00    +0.113 C  BRANCH  26  27ATOM     27  C   UNL     1      42.882  47.106  18.381 -0.04 +0.00    +0.107 C  BRANCH  27  28ATOM     28  N   UNL     1      43.960  47.456  19.301 -0.15 -0.14    -0.315 NA ATOM     29  H   UNL     1      44.007  48.475  19.386 -0.55 -0.03    +0.122 HD BRANCH  28  30ATOM     30  C   UNL     1      43.916  46.886  20.639 -0.15 +0.06    +0.081 C  BRANCH  30  31ATOM     31  C   UNL     1      42.684  47.236  21.468 -0.34 +0.00    +0.017 CG0ATOM     32  G   UNL     1      41.548  46.227  21.301 +0.00 +0.00    +0.000 G0 ENDBRANCH  30  31ENDBRANCH  28  30ENDBRANCH  27  28ENDBRANCH  26  27BRANCH  26  33ATOM     33  N   UNL     1      40.495  47.118  17.741 -0.26 +0.05    -0.346 N  ATOM     34  C   UNL     1      40.630  47.986  16.679 -0.40 -0.04    +0.251 C  ATOM     35  H   UNL     1      39.812  46.375  17.717 +0.10 -0.02    +0.164 HD ATOM     36  O   UNL     1      41.449  48.897  16.655 -1.01 -0.01    -0.269 OA BRANCH  34  37ATOM     37  C   UNL     1      39.698  47.796  15.538 -0.50 -0.01    +0.042 A  ATOM     38  C   UNL     1      39.630  46.533  14.949 -0.42 -0.01    +0.034 A  ATOM     39  C   UNL     1      38.879  48.823  15.066 -0.42 -0.02    +0.034 A  ATOM     40  C   UNL     1      38.763  46.355  13.889 -0.21 -0.03    +0.112 A  ATOM     41  C   UNL     1      38.042  48.541  14.000 -0.37 -0.05    +0.112 A  ATOM     42  N   UNL     1      37.975  47.336  13.397 -0.47 +0.07    -0.265 NA ENDBRANCH  34  37ENDBRANCH  26  33ENDBRANCH  23  26ENDBRANCH   1  23TORSDOF 9TERENDMDL