MODEL        1USER    Run = 1USERUSER    Estimated Free Energy of Binding    =  -7.31 kcal/mol  [=(1)+(2)+(3)-(4)]USERUSER    (1) Final Intermolecular Energy     = -11.79 kcal/molUSER        vdW + Hbond + desolv Energy     = -11.43 kcal/molUSER        Electrostatic Energy            =  -0.52 kcal/molUSER        Moving Ligand-Fixed Receptor    = -11.95 kcal/molUSER        Moving Ligand-Moving Receptor   =  +0.17 kcal/molUSER    (2) Final Total Internal Energy     =  -2.64 kcal/molUSER    (3) Torsional Free Energy           =  +4.47 kcal/molUSER    (4) Unbound System's Energy         =  -2.64 kcal/molUSERUSERREMARK SMILES COc1ccc(O)c(C(=O)c2ccc(NC[C@@H]3CCCNC[C@@H]3NC(=O)c3ccncc3)cc2)c1FREMARK SMILES IDX 16 1 15 2 14 4 11 5 12 6 34 7 13 8 33 9 9 10 10 11 8 12 3 13REMARK SMILES IDX 4 14 35 15 5 16 6 17 36 18 2 19 1 20 7 21 17 23 18 24 23 26REMARK SMILES IDX 22 27 21 28 20 30 19 31 24 33 25 34 26 36 27 37 28 38 32 39REMARK SMILES IDX 29 40 31 41 30 42REMARK H PARENT 15 3 7 22 21 29 24 35REMARK Flexibility Score:   99.900USER                              x       y       z     vdW  Elec       q    TypeUSER                           _______ _______ _______ _____ _____    ______ ____ROOTATOM      1  C   UNL     1      37.400  46.352  16.475 -0.36 -0.06    +0.118 C  ENDROOTBRANCH   1   2ATOM      2  N   UNL     1      38.399  45.429  17.020 -0.12 +0.09    -0.385 N  ATOM      3  H   UNL     1      38.001  44.556  17.351 +0.10 -0.03    +0.160 HD BRANCH   2   4ATOM      4  C   UNL     1      39.494  45.861  17.762 -0.42 -0.00    +0.034 A  ATOM      5  C   UNL     1      41.788  46.576  19.260 -0.47 +0.00    +0.023 A  ATOM      6  C   UNL     1      41.285  47.435  18.280 -0.48 -0.00    +0.014 A  ATOM      7  C   UNL     1      41.182  45.334  19.455 -0.41 +0.00    +0.014 A  ATOM      8  C   UNL     1      40.155  47.074  17.536 -0.46 -0.00    +0.026 A  ATOM      9  C   UNL     1      40.051  44.986  18.706 -0.42 -0.00    +0.026 A  BRANCH   5  10ATOM     10  C   UNL     1      43.006  46.983  20.000 -0.37 +0.06    +0.199 C  ATOM     11  O   UNL     1      44.004  47.332  19.367 -0.34 -0.15    -0.288 OA BRANCH  10  12ATOM     12  C   UNL     1      43.111  46.942  21.475 -0.31 +0.03    +0.104 A  ATOM     13  C   UNL     1      42.119  46.673  23.688 -0.11 +0.02    +0.155 A  ATOM     14  C   UNL     1      43.375  46.861  24.270 -0.11 +0.01    +0.053 A  ATOM     15  C   UNL     1      41.999  46.723  22.290 -0.17 +0.03    +0.179 A  ATOM     16  C   UNL     1      44.488  47.114  23.465 -0.18 +0.01    +0.051 A  ATOM     17  C   UNL     1      44.352  47.168  22.081 -0.25 +0.07    +0.130 A  ATOM     18  F   UNL     1      40.780  46.584  21.745 -0.02 -0.02    -0.202 F  BRANCH  13  19ATOM     19  O   UNL     1      40.956  46.437  24.371 +0.01 -0.04    -0.494 OA ATOM     20  C   UNL     1      40.392  45.135  24.268 -0.06 +0.01    +0.278 C  ENDBRANCH  13  19BRANCH  17  21ATOM     21  O   UNL     1      45.487  47.454  21.369 -0.62 -0.65    -0.507 OA ATOM     22  H   UNL     1      45.281  48.198  20.758 -0.28 +0.15    +0.293 HD ENDBRANCH  17  21ENDBRANCH  10  12ENDBRANCH   5  10ENDBRANCH   2   4ENDBRANCH   1   2BRANCH   1  23ATOM     23  C   UNL     1      37.444  46.407  14.927 -0.44 -0.01    +0.032 C  BRANCH  23  24ATOM     24  C   UNL     1      36.688  47.652  14.420 -0.53 -0.01    +0.009 CG0ATOM     25  G   UNL     1      36.903  48.102  12.974 +0.00 +0.00    +0.000 G0 ENDBRANCH  23  24BRANCH  23  26ATOM     26  C   UNL     1      36.980  45.059  14.328 -0.39 -0.04    +0.101 C  BRANCH  26  27ATOM     27  C   UNL     1      36.768  45.159  12.799 -0.49 -0.04    +0.106 C  BRANCH  27  28ATOM     28  N   UNL     1      35.671  46.040  12.378 -0.29 +0.17    -0.315 NA ATOM     29  H   UNL     1      35.186  45.576  11.606 +0.00 -0.07    +0.122 HD BRANCH  28  30ATOM     30  C   UNL     1      36.135  47.342  11.899 -0.52 -0.04    +0.081 C  BRANCH  30  31ATOM     31  C   UNL     1      36.903  48.102  12.974 -0.62 -0.01    +0.016 CG0ATOM     32  G   UNL     1      36.686  47.652  14.419 +0.00 +0.00    +0.000 G0 ENDBRANCH  30  31ENDBRANCH  28  30ENDBRANCH  27  28ENDBRANCH  26  27BRANCH  26  33ATOM     33  N   UNL     1      35.768  44.539  14.956 -0.11 +0.16    -0.348 N  ATOM     34  C   UNL     1      35.780  43.576  15.936 -0.29 -0.10    +0.251 C  ATOM     35  H   UNL     1      34.903  44.852  14.533 +0.12 -0.09    +0.164 HD ATOM     36  O   UNL     1      36.811  43.069  16.361 -0.24 +0.08    -0.269 OA BRANCH  34  37ATOM     37  C   UNL     1      34.460  43.139  16.464 -0.37 -0.02    +0.042 A  ATOM     38  C   UNL     1      33.316  43.770  15.973 -0.29 -0.02    +0.034 A  ATOM     39  C   UNL     1      34.330  42.111  17.399 -0.40 -0.01    +0.034 A  ATOM     40  C   UNL     1      32.088  43.362  16.457 -0.25 -0.05    +0.112 A  ATOM     41  C   UNL     1      33.054  41.777  17.819 -0.32 -0.03    +0.112 A  ATOM     42  N   UNL     1      31.934  42.382  17.374 -0.14 +0.08    -0.265 NA ENDBRANCH  34  37ENDBRANCH  26  33ENDBRANCH  23  26ENDBRANCH   1  23TORSDOF 9TERENDMDL