MODEL        6USER    Run = 6USERUSER    Estimated Free Energy of Binding    = -12.83 kcal/mol  [=(1)+(2)+(3)-(4)]USERUSER    (1) Final Intermolecular Energy     = -15.22 kcal/molUSER        vdW + Hbond + desolv Energy     = -15.10 kcal/molUSER        Electrostatic Energy            =  -0.12 kcal/molUSER        Moving Ligand-Fixed Receptor    = -15.22 kcal/molUSER        Moving Ligand-Moving Receptor   =  +0.00 kcal/molUSER    (2) Final Total Internal Energy     =  -2.59 kcal/molUSER    (3) Torsional Free Energy           =  +2.39 kcal/molUSER    (4) Unbound System's Energy         =  -2.59 kcal/molUSERUSERREMARK SMILES N#Cc1cnc(-c2ccc(CNCc3ccc(-c4csnn4)cc3)cc2)c(-c2ccccc2)c1REMARK SMILES IDX 11 1 10 2 7 3 8 4 26 5 9 6 25 7 6 8 3 9 4 10 34 11 5 12REMARK SMILES IDX 27 13 2 14 1 15 28 16 29 17 33 18 30 19 32 20 31 21 12 22REMARK SMILES IDX 13 24 14 25 15 26 24 27 16 28 23 29 17 30 18 31 19 32 22 33REMARK SMILES IDX 20 34 21 35REMARK H PARENT 12 23USER                              x       y       z     vdW  Elec       q    TypeUSER                           _______ _______ _______ _____ _____    ______ ____ROOTATOM      1  C   UNL     1      36.112  43.508  20.361 -0.41 -0.00    +0.117 C  ENDROOTBRANCH   1   2ATOM      2  C   UNL     1      35.277  44.007  19.205 -0.36 +0.01    -0.034 A  ATOM      3  C   UNL     1      33.682  44.963  17.058 -0.33 -0.00    +0.001 A  ATOM      4  C   UNL     1      33.942  43.590  17.220 -0.31 -0.00    +0.011 A  ATOM      5  C   UNL     1      34.254  45.847  17.987 -0.46 -0.01    +0.011 A  ATOM      6  C   UNL     1      34.722  43.116  18.280 -0.35 -0.00    +0.006 A  ATOM      7  C   UNL     1      35.032  45.377  19.050 -0.25 -0.00    +0.006 A  BRANCH   3   8ATOM      8  C   UNL     1      32.853  45.436  15.931 -0.24 -0.07    +0.078 A  ATOM      9  C   UNL     1      31.062  46.237  13.982 -0.52 -0.04    +0.071 A  ATOM     10  C   UNL     1      30.660  45.834  15.240 -0.38 -0.06    +0.131 A  ATOM     11  C   UNL     1      32.428  46.246  13.705 -0.05 -0.03    +0.032 A  ATOM     12  N   UNL     1      31.517  45.444  16.210 -0.71 +0.10    -0.254 NA ATOM     13  C   UNL     1      33.363  45.847  14.681 -0.16 -0.01    +0.009 A  BRANCH   9  14ATOM     14  C   UNL     1      30.101  46.640  13.005 -0.57 -0.06    +0.101 C  ATOM     15  N   UNL     1      29.322  46.966  12.211 -0.74 +0.10    -0.192 NA ENDBRANCH   9  14BRANCH  13  16ATOM     16  C   UNL     1      34.798  45.916  14.357 -0.31 +0.01    -0.016 A  ATOM     17  C   UNL     1      35.301  46.942  13.538 -0.42 -0.01    +0.009 A  ATOM     18  C   UNL     1      35.704  44.973  14.868 -0.31 -0.00    +0.009 A  ATOM     19  C   UNL     1      36.662  47.016  13.232 -0.59 -0.00    +0.001 A  ATOM     20  C   UNL     1      37.065  45.044  14.561 -0.39 -0.00    +0.001 A  ATOM     21  C   UNL     1      37.543  46.065  13.743 -0.45 -0.00    +0.000 A  ENDBRANCH  13  16ENDBRANCH   3   8ENDBRANCH   1   2BRANCH   1  22ATOM     22  N   UNL     1      37.214  44.431  20.633 -0.19 +0.00    -0.309 NA ATOM     23  H   UNL     1      37.375  44.446  21.638 +0.06 +0.01    +0.123 HD BRANCH  22  24ATOM     24  C   UNL     1      38.449  44.030  19.959 -0.26 -0.00    +0.117 C  BRANCH  24  25ATOM     25  C   UNL     1      38.977  45.073  19.002 -0.38 +0.00    -0.034 A  ATOM     26  C   UNL     1      38.236  45.452  17.875 -0.38 -0.00    +0.006 A  ATOM     27  C   UNL     1      40.227  45.666  19.213 -0.44 -0.00    +0.006 A  ATOM     28  C   UNL     1      38.733  46.411  16.984 -0.41 -0.00    +0.011 A  ATOM     29  C   UNL     1      40.724  46.623  18.324 -0.49 -0.00    +0.011 A  ATOM     30  C   UNL     1      39.981  47.014  17.201 -0.49 -0.00    +0.003 A  BRANCH  30  31ATOM     31  C   UNL     1      40.526  48.018  16.292 -0.47 -0.02    +0.105 A  ATOM     32  C   UNL     1      40.214  48.116  14.947 -0.45 -0.03    +0.118 A  ATOM     33  N   UNL     1      41.412  48.993  16.747 -1.03 -0.00    -0.138 NA ATOM     34  S   UNL     1      41.087  49.450  14.310 -0.82 +0.00    -0.020 S  ATOM     35  N   UNL     1      41.790  49.813  15.782 -1.04 -0.00    -0.091 NA ENDBRANCH  30  31ENDBRANCH  24  25ENDBRANCH  22  24ENDBRANCH   1  22TORSDOF 8TERENDMDL