MODEL        10USER    Run = 10USERUSER    Estimated Free Energy of Binding    = -12.05 kcal/mol  [=(1)+(2)+(3)-(4)]USERUSER    (1) Final Intermolecular Energy     = -13.84 kcal/molUSER        vdW + Hbond + desolv Energy     = -13.47 kcal/molUSER        Electrostatic Energy            =  -0.37 kcal/molUSER        Moving Ligand-Fixed Receptor    = -13.84 kcal/molUSER        Moving Ligand-Moving Receptor   =  +0.00 kcal/molUSER    (2) Final Total Internal Energy     =  -1.97 kcal/molUSER    (3) Torsional Free Energy           =  +1.79 kcal/molUSER    (4) Unbound System's Energy         =  -1.97 kcal/molUSERUSERREMARK SMILES Oc1nc2ccccc2n1C1CCN(Cc2ccc(-c3cc4ccccc4nc3-c3ccccc3)cc2)CC1REMARK SMILES IDX 11 1 12 2 13 3 14 4 38 5 39 6 10 7 2 8 3 9 4 10 9 11 5 12REMARK SMILES IDX 8 13 6 14 7 15 1 16 15 18 16 19 17 20 37 21 18 22 36 23REMARK SMILES IDX 19 24 20 25 21 26 29 27 22 28 28 29 23 30 27 31 24 32 26 33REMARK SMILES IDX 25 34 30 35 31 36 35 37 32 38 34 39 33 40REMARK H PARENT 1 17USER                              x       y       z     vdW  Elec       q    TypeUSER                           _______ _______ _______ _____ _____    ______ ____ROOTATOM      1  C   UNL     1      29.823  41.521  15.919 -0.36 -0.04    +0.095 C  ATOM      2  C   UNL     1      30.276  40.657  17.105 -0.39 -0.01    +0.041 C  ATOM      3  C   UNL     1      30.940  41.432  18.238 -0.23 -0.01    +0.087 C  ATOM      4  N   UNL     1      31.935  42.410  17.793 -0.11 +0.07    -0.299 NA ATOM      5  C   UNL     1      31.333  43.382  16.876 -0.30 -0.03    +0.087 C  ATOM      6  C   UNL     1      30.682  42.764  15.642 -0.36 -0.02    +0.041 C  ENDROOTBRANCH   1   7ATOM      7  N   UNL     1      28.382  41.758  15.867 -0.14 +0.12    -0.291 N  ATOM      8  C   UNL     1      27.534  41.076  15.028 -0.09 -0.15    +0.295 A  ATOM      9  N   UNL     1      26.291  41.456  15.115 -0.24 +0.08    -0.195 NA ATOM     10  C   UNL     1      26.308  42.439  16.067 -0.22 -0.02    +0.092 A  ATOM     11  C   UNL     1      27.600  42.652  16.570 -0.18 -0.02    +0.072 A  ATOM     12  C   UNL     1      25.230  43.200  16.552 -0.32 -0.00    +0.031 A  ATOM     13  C   UNL     1      27.839  43.607  17.565 -0.19 -0.00    +0.029 A  ATOM     14  C   UNL     1      25.466  44.158  17.540 -0.41 +0.00    +0.002 A  ATOM     15  C   UNL     1      26.751  44.354  18.037 -0.35 -0.00    +0.002 A  BRANCH   8  16ATOM     16  O   UNL     1      27.899  40.120  14.197 -0.17 +0.20    -0.480 OA ATOM     17  H   UNL     1      27.640  40.508  13.341 -0.11 -0.50    +0.296 HD ENDBRANCH   8  16ENDBRANCH   1   7BRANCH   4  18ATOM     18  C   UNL     1      33.151  41.767  17.267 -0.26 -0.05    +0.120 C  BRANCH  18  19ATOM     19  C   UNL     1      34.357  42.682  17.264 -0.37 +0.01    -0.034 A  ATOM     20  C   UNL     1      35.358  42.551  16.295 -0.43 -0.00    +0.006 A  ATOM     21  C   UNL     1      34.487  43.680  18.239 -0.32 -0.00    +0.006 A  ATOM     22  C   UNL     1      36.469  43.400  16.302 -0.38 -0.00    +0.009 A  ATOM     23  C   UNL     1      35.603  44.522  18.250 -0.33 -0.00    +0.009 A  ATOM     24  C   UNL     1      36.612  44.391  17.286 -0.32 +0.00    -0.016 A  BRANCH  24  25ATOM     25  C   UNL     1      37.780  45.284  17.293 -0.36 -0.00    +0.009 A  ATOM     26  C   UNL     1      38.666  45.242  18.379 -0.39 -0.00    +0.021 A  ATOM     27  C   UNL     1      38.095  46.169  16.249 -0.33 -0.03    +0.079 A  ATOM     28  C   UNL     1      39.815  46.041  18.403 -0.45 -0.00    +0.001 A  ATOM     29  N   UNL     1      39.218  46.943  16.252 -0.26 +0.07    -0.247 NA ATOM     30  C   UNL     1      40.718  46.012  19.480 -0.41 +0.00    +0.010 A  ATOM     31  C   UNL     1      40.052  46.883  17.302 -0.44 -0.01    +0.071 A  ATOM     32  C   UNL     1      41.855  46.817  19.470 -0.45 +0.00    +0.001 A  ATOM     33  C   UNL     1      41.193  47.675  17.314 -0.46 -0.00    +0.029 A  ATOM     34  C   UNL     1      42.094  47.651  18.383 -0.52 -0.00    +0.002 A  BRANCH  27  35ATOM     35  C   UNL     1      37.259  46.359  15.048 -0.39 -0.00    +0.001 A  ATOM     36  C   UNL     1      37.852  46.480  13.779 -0.45 -0.00    +0.010 A  ATOM     37  C   UNL     1      35.858  46.450  15.130 -0.37 -0.01    +0.010 A  ATOM     38  C   UNL     1      37.073  46.657  12.632 -0.62 -0.00    +0.001 A  ATOM     39  C   UNL     1      35.078  46.628  13.984 -0.41 -0.00    +0.001 A  ATOM     40  C   UNL     1      35.686  46.728  12.735 -0.59 -0.00    +0.000 A  ENDBRANCH  27  35ENDBRANCH  24  25ENDBRANCH  18  19ENDBRANCH   4  18TORSDOF 6TERENDMDL