MODEL        10USER    Run = 10USERUSER    Estimated Free Energy of Binding    = -12.65 kcal/mol  [=(1)+(2)+(3)-(4)]USERUSER    (1) Final Intermolecular Energy     = -14.44 kcal/molUSER        vdW + Hbond + desolv Energy     = -14.38 kcal/molUSER        Electrostatic Energy            =  -0.06 kcal/molUSER        Moving Ligand-Fixed Receptor    = -14.44 kcal/molUSER        Moving Ligand-Moving Receptor   =  +0.00 kcal/molUSER    (2) Final Total Internal Energy     =  -1.08 kcal/molUSER    (3) Torsional Free Energy           =  +1.79 kcal/molUSER    (4) Unbound System's Energy         =  -1.08 kcal/molUSERUSERREMARK SMILES Cn1ccc2ccc3c4[nH]c5c(CCCN[C@H]6CC[C@H](O)CC6)cccc5c4c4c(c3c21)C(=O)NC4=OREMARK SMILES IDX 15 1 14 2 13 3 12 4 2 5 3 6 32 7 4 8 31 9 5 10 30 11 8 12REMARK SMILES IDX 6 13 29 14 33 15 7 16 9 17 28 18 36 19 35 20 10 21 27 22REMARK SMILES IDX 11 23 26 24 25 25 24 26 1 27 34 28 37 29 16 32 17 34 23 35REMARK SMILES IDX 18 36 22 37 19 38 20 39 21 40REMARK H PARENT 35 30 10 31 16 33 21 41USER                              x       y       z     vdW  Elec       q    TypeUSER                           _______ _______ _______ _____ _____    ______ ____ROOTATOM      1  C   UNL     1      37.948  45.946  25.388 -0.30 +0.00    +0.081 C  ENDROOTBRANCH   1   2ATOM      2  C   UNL     1      38.465  45.861  23.948 -0.34 +0.00    +0.020 C  BRANCH   2   3ATOM      3  C   UNL     1      38.897  44.445  23.548 -0.27 +0.00    +0.039 C  BRANCH   3   4ATOM      4  C   UNL     1      37.924  43.739  22.637 -0.34 -0.00    -0.024 A  ATOM      5  N   UNL     1      37.584  46.840  14.545 -0.15 +0.16    -0.350 N  ATOM      6  C   UNL     1      38.444  47.656  13.847 -0.42 -0.03    +0.086 A  ATOM      7  C   UNL     1      38.143  46.467  15.761 -0.36 -0.02    +0.057 A  ATOM      8  C   UNL     1      39.469  47.998  14.688 -0.50 -0.01    +0.028 A  ATOM      9  C   UNL     1      37.770  45.527  16.793 -0.35 -0.01    +0.022 A  ATOM     10  C   UNL     1      39.250  47.322  15.916 -0.48 -0.00    +0.000 A  ATOM     11  C   UNL     1      36.858  44.462  16.721 -0.30 -0.02    +0.063 A  ATOM     12  C   UNL     1      38.429  45.699  18.051 -0.38 -0.00    +0.009 A  ATOM     13  C   UNL     1      39.930  47.376  17.144 -0.47 -0.00    +0.011 A  ATOM     14  C   UNL     1      36.489  43.707  17.841 -0.23 -0.02    +0.063 A  ATOM     15  C   UNL     1      36.227  43.786  15.574 -0.28 -0.09    +0.259 C  ATOM     16  C   UNL     1      39.486  46.607  18.215 -0.34 -0.00    +0.012 A  ATOM     17  C   UNL     1      38.024  44.915  19.176 -0.32 -0.01    +0.055 A  ATOM     18  C   UNL     1      37.037  43.924  19.107 -0.31 -0.00    +0.022 A  ATOM     19  C   UNL     1      35.545  42.681  17.403 -0.23 -0.08    +0.259 C  ATOM     20  N   UNL     1      35.351  42.879  16.076 -0.29 +0.11    -0.288 N  ATOM     21  N   UNL     1      38.461  44.930  20.483 -0.16 +0.00    -0.354 N  ATOM     22  C   UNL     1      36.884  43.367  20.422 -0.40 -0.00    +0.008 A  ATOM     23  C   UNL     1      37.788  44.020  21.262 -0.35 +0.00    +0.050 A  ATOM     24  C   UNL     1      36.063  42.369  20.987 -0.48 +0.00    +0.011 A  ATOM     25  C   UNL     1      36.172  42.062  22.347 -0.44 +0.00    +0.001 A  ATOM     26  C   UNL     1      37.084  42.735  23.152 -0.41 +0.00    +0.006 A  ATOM     27  C   UNL     1      36.212  46.680  14.110 -0.41 -0.10    +0.149 C  ATOM     28  O   UNL     1      36.505  43.914  14.400 -0.25 +0.09    -0.269 OA ATOM     29  O   UNL     1      35.065  41.782  18.061 -0.47 +0.08    -0.269 OA ATOM     30  H   UNL     1      34.896  42.191  15.496 -0.00 -0.07    +0.173 HD ATOM     31  H   UNL     1      39.172  45.549  20.840 +0.08 +0.00    +0.167 HD ENDBRANCH   3   4ENDBRANCH   2   3ENDBRANCH   1   2BRANCH   1  32ATOM     32  N   UNL     1      36.701  45.187  25.497 -0.38 +0.00    -0.314 NA ATOM     33  H   UNL     1      35.902  45.817  25.442 -0.54 -0.02    +0.122 HD BRANCH  32  34ATOM     34  C   UNL     1      36.626  44.389  26.729 -0.40 -0.01    +0.053 C  ATOM     35  C   UNL     1      35.388  43.469  26.778 -0.53 -0.00    +0.021 C  ATOM     36  C   UNL     1      37.943  43.593  26.831 -0.31 -0.00    +0.021 C  ATOM     37  C   UNL     1      35.689  42.061  26.267 -0.51 -0.01    +0.033 C  ATOM     38  C   UNL     1      37.777  42.365  27.716 -0.42 -0.01    +0.033 C  ATOM     39  C   UNL     1      36.769  41.380  27.117 -0.50 -0.03    +0.114 C  BRANCH  39  40ATOM     40  O   UNL     1      36.160  40.672  28.195 -0.40 +0.18    -0.393 OA ATOM     41  H   UNL     1      36.283  41.202  29.002 -0.45 -0.16    +0.210 HD ENDBRANCH  39  40ENDBRANCH  32  34ENDBRANCH   1  32TORSDOF 6TERENDMDL