MODEL        5USER    Run = 5USERUSER    Estimated Free Energy of Binding    = -12.98 kcal/mol  [=(1)+(2)+(3)-(4)]USERUSER    (1) Final Intermolecular Energy     = -14.77 kcal/molUSER        vdW + Hbond + desolv Energy     = -14.69 kcal/molUSER        Electrostatic Energy            =  -0.08 kcal/molUSER        Moving Ligand-Fixed Receptor    = -14.77 kcal/molUSER        Moving Ligand-Moving Receptor   =  +0.00 kcal/molUSER    (2) Final Total Internal Energy     =  -1.81 kcal/molUSER    (3) Torsional Free Energy           =  +1.79 kcal/molUSER    (4) Unbound System's Energy         =  -1.81 kcal/molUSERUSERREMARK SMILES Oc1nc2ccccc2n1C1CCN(Cc2ccc(-c3nc4ccccc4nc3-c3ccccc3)cc2)CC1REMARK SMILES IDX 11 1 12 2 13 3 14 4 38 5 39 6 10 7 2 8 3 9 4 10 9 11 5 12REMARK SMILES IDX 8 13 6 14 7 15 1 16 15 18 16 19 17 20 37 21 18 22 36 23REMARK SMILES IDX 19 24 20 25 21 26 29 27 22 28 28 29 23 30 27 31 24 32 26 33REMARK SMILES IDX 25 34 30 35 31 36 35 37 32 38 34 39 33 40REMARK H PARENT 1 17USER                              x       y       z     vdW  Elec       q    TypeUSER                           _______ _______ _______ _____ _____    ______ ____ROOTATOM      1  C   UNL     1      38.970  47.440  15.480 -0.48 -0.03    +0.095 C  ATOM      2  C   UNL     1      37.825  46.916  16.362 -0.42 -0.02    +0.041 C  ATOM      3  C   UNL     1      36.456  47.326  15.820 -0.31 -0.09    +0.087 C  ATOM      4  N   UNL     1      36.322  47.169  14.369 -0.22 +0.22    -0.299 NA ATOM      5  C   UNL     1      37.351  47.908  13.618 -0.56 -0.04    +0.087 C  ATOM      6  C   UNL     1      38.483  48.487  14.472 -0.56 -0.02    +0.041 C  ENDROOTBRANCH   1   7ATOM      7  N   UNL     1      40.115  47.889  16.258 -0.30 +0.07    -0.291 N  ATOM      8  C   UNL     1      40.815  49.049  16.077 -0.34 -0.05    +0.295 A  ATOM      9  N   UNL     1      41.792  49.202  16.927 -0.86 -0.04    -0.195 NA ATOM     10  C   UNL     1      41.728  48.085  17.723 -0.35 -0.00    +0.092 A  ATOM     11  C   UNL     1      40.684  47.241  17.335 -0.47 -0.01    +0.072 A  ATOM     12  C   UNL     1      42.537  47.724  18.813 -0.50 +0.00    +0.031 A  ATOM     13  C   UNL     1      40.403  46.039  17.998 -0.46 -0.00    +0.029 A  ATOM     14  C   UNL     1      42.271  46.526  19.486 -0.45 +0.00    +0.002 A  ATOM     15  C   UNL     1      41.222  45.700  19.083 -0.46 +0.00    +0.002 A  BRANCH   8  16ATOM     16  O   UNL     1      40.551  49.951  15.154 -0.22 +0.21    -0.480 OA ATOM     17  H   UNL     1      39.774  50.397  15.539 -0.20 -0.22    +0.296 HD ENDBRANCH   8  16ENDBRANCH   1   7BRANCH   4  18ATOM     18  C   UNL     1      36.226  45.769  13.922 -0.42 -0.06    +0.120 C  BRANCH  18  19ATOM     19  C   UNL     1      35.527  44.858  14.908 -0.24 +0.02    -0.034 A  ATOM     20  C   UNL     1      34.227  45.141  15.345 -0.31 -0.00    +0.006 A  ATOM     21  C   UNL     1      36.176  43.724  15.412 -0.39 -0.00    +0.006 A  ATOM     22  C   UNL     1      33.585  44.292  16.253 -0.32 -0.01    +0.011 A  ATOM     23  C   UNL     1      35.531  42.878  16.318 -0.45 -0.00    +0.011 A  ATOM     24  C   UNL     1      34.218  43.138  16.743 -0.37 -0.00    +0.002 A  BRANCH  24  25ATOM     25  C   UNL     1      33.518  42.247  17.684 -0.32 -0.03    +0.097 A  ATOM     26  N   UNL     1      32.422  41.635  17.149 -0.10 +0.11    -0.244 NA ATOM     27  C   UNL     1      33.890  42.032  19.020 -0.31 -0.01    +0.097 A  ATOM     28  C   UNL     1      31.694  40.847  17.959 -0.32 -0.02    +0.089 A  ATOM     29  N   UNL     1      33.139  41.240  19.839 -0.04 -0.06    -0.244 NA ATOM     30  C   UNL     1      30.562  40.212  17.461 -0.34 -0.00    +0.030 A  ATOM     31  C   UNL     1      32.052  40.651  19.310 -0.29 +0.01    +0.089 A  ATOM     32  C   UNL     1      29.776  39.389  18.269 -0.34 +0.00    +0.002 A  ATOM     33  C   UNL     1      31.264  39.830  20.107 -0.27 +0.00    +0.030 A  ATOM     34  C   UNL     1      30.130  39.197  19.598 -0.31 +0.00    +0.002 A  BRANCH  27  35ATOM     35  C   UNL     1      35.092  42.589  19.669 -0.44 -0.00    +0.002 A  ATOM     36  C   UNL     1      35.520  43.894  19.367 -0.38 -0.00    +0.010 A  ATOM     37  C   UNL     1      35.828  41.864  20.623 -0.44 -0.00    +0.010 A  ATOM     38  C   UNL     1      36.654  44.444  19.973 -0.32 -0.00    +0.001 A  ATOM     39  C   UNL     1      36.964  42.410  21.227 -0.45 +0.00    +0.001 A  ATOM     40  C   UNL     1      37.378  43.699  20.900 -0.39 +0.00    +0.000 A  ENDBRANCH  27  35ENDBRANCH  24  25ENDBRANCH  18  19ENDBRANCH   4  18TORSDOF 6TERENDMDL