MODEL        6USER    Run = 6USERUSER    Estimated Free Energy of Binding    =  -6.22 kcal/mol  [=(1)+(2)+(3)-(4)]USERUSER    (1) Final Intermolecular Energy     = -10.69 kcal/molUSER        vdW + Hbond + desolv Energy     = -10.96 kcal/molUSER        Electrostatic Energy            =  +0.00 kcal/molUSER        Moving Ligand-Fixed Receptor    = -10.95 kcal/molUSER        Moving Ligand-Moving Receptor   =  +0.26 kcal/molUSER    (2) Final Total Internal Energy     =  -2.87 kcal/molUSER    (3) Torsional Free Energy           =  +4.47 kcal/molUSER    (4) Unbound System's Energy         =  -2.87 kcal/molUSERUSERREMARK SMILES COc1ccc(O)c(C(=O)c2ccc(CO[C@@H]3CCCNC[C@@H]3NC(=O)c3ccncc3)cc2)c1FREMARK SMILES IDX 16 1 15 2 14 3 11 4 12 5 34 6 13 7 33 8 9 9 10 10 8 11 3 12REMARK SMILES IDX 4 13 35 14 5 15 6 16 36 17 2 18 1 19 7 20 17 22 18 23 23 25REMARK SMILES IDX 22 26 21 27 20 29 19 30 24 32 25 33 26 35 27 36 28 37 32 38REMARK SMILES IDX 29 39 31 40 30 41REMARK H PARENT 7 21 21 28 24 34REMARK Flexibility Score:   99.900USER                              x       y       z     vdW  Elec       q    TypeUSER                           _______ _______ _______ _____ _____    ______ ____ROOTATOM      1  O   UNL     1      36.909  43.667  19.020 -0.14 +0.05    -0.371 OA ENDROOTBRANCH   1   2ATOM      2  C   UNL     1      35.755  44.490  19.176 -0.29 -0.04    +0.196 C  BRANCH   2   3ATOM      3  C   UNL     1      34.569  43.750  18.616 -0.34 +0.01    -0.022 A  ATOM      4  C   UNL     1      32.364  42.343  17.588 -0.32 -0.01    +0.023 A  ATOM      5  C   UNL     1      32.547  42.444  18.970 -0.37 -0.00    +0.012 A  ATOM      6  C   UNL     1      33.264  42.972  16.721 -0.34 -0.01    +0.012 A  ATOM      7  C   UNL     1      33.646  43.138  19.478 -0.41 -0.00    +0.007 A  ATOM      8  C   UNL     1      34.363  43.667  17.232 -0.32 -0.00    +0.007 A  BRANCH   4   9ATOM      9  C   UNL     1      31.194  41.646  17.003 -0.21 -0.07    +0.199 C  ATOM     10  O   UNL     1      30.731  42.047  15.932 -0.25 +0.14    -0.288 OA BRANCH   9  11ATOM     11  C   UNL     1      30.503  40.522  17.670 -0.27 -0.01    +0.104 A  ATOM     12  C   UNL     1      30.509  38.311  18.697 -0.32 +0.04    +0.155 A  ATOM     13  C   UNL     1      29.139  38.426  18.948 -0.31 +0.01    +0.053 A  ATOM     14  C   UNL     1      31.177  39.361  18.051 -0.28 +0.01    +0.179 A  ATOM     15  C   UNL     1      28.447  39.569  18.540 -0.23 +0.01    +0.051 A  ATOM     16  C   UNL     1      29.123  40.602  17.894 -0.17 -0.00    +0.130 A  ATOM     17  F   UNL     1      32.485  39.224  17.783 -0.17 +0.03    -0.202 F  BRANCH  12  18ATOM     18  O   UNL     1      31.287  37.236  19.033 -0.74 -0.19    -0.494 OA ATOM     19  C   UNL     1      31.637  37.086  20.403 -0.37 +0.06    +0.278 C  ENDBRANCH  12  18BRANCH  16  20ATOM     20  O   UNL     1      28.365  41.672  17.501 +0.02 +0.06    -0.507 OA ATOM     21  H   UNL     1      28.763  42.037  16.677 +0.17 -0.08    +0.293 HD ENDBRANCH  16  20ENDBRANCH   9  11ENDBRANCH   4   9ENDBRANCH   2   3ENDBRANCH   1   2BRANCH   1  22ATOM     22  C   UNL     1      37.454  43.198  20.272 -0.19 -0.00    +0.142 C  BRANCH  22  23ATOM     23  C   UNL     1      36.244  43.109  21.213 -0.45 +0.00    +0.035 CG0ATOM     24  G   UNL     1      36.382  42.365  22.536 +0.00 +0.00    +0.000 G0 ENDBRANCH  22  23BRANCH  22  25ATOM     25  C   UNL     1      38.594  44.145  20.721 -0.29 +0.00    +0.125 C  BRANCH  25  26ATOM     26  C   UNL     1      38.381  44.617  22.181 -0.33 +0.01    +0.108 C  BRANCH  26  27ATOM     27  N   UNL     1      38.426  43.588  23.218 -0.11 -0.02    -0.315 NA ATOM     28  H   UNL     1      38.950  43.956  24.013 +0.07 +0.01    +0.122 HD BRANCH  27  29ATOM     29  C   UNL     1      37.122  43.100  23.643 -0.38 +0.01    +0.081 C  BRANCH  29  30ATOM     30  C   UNL     1      36.381  42.366  22.536 -0.42 +0.00    +0.018 CG0ATOM     31  G   UNL     1      36.241  43.110  21.213 +0.00 +0.00    +0.000 G0 ENDBRANCH  29  30ENDBRANCH  27  29ENDBRANCH  26  27ENDBRANCH  25  26BRANCH  25  32ATOM     32  N   UNL     1      38.787  45.237  19.756 -0.18 +0.01    -0.345 N  ATOM     33  C   UNL     1      39.948  45.344  19.018 -0.33 -0.01    +0.251 C  ATOM     34  H   UNL     1      37.941  45.542  19.292 +0.09 -0.02    +0.164 HD ATOM     35  O   UNL     1      40.925  44.624  19.179 -0.30 -0.02    -0.269 OA BRANCH  33  36ATOM     36  C   UNL     1      39.955  46.380  17.950 -0.44 -0.01    +0.042 A  ATOM     37  C   UNL     1      38.876  46.427  17.068 -0.40 -0.01    +0.034 A  ATOM     38  C   UNL     1      41.017  47.270  17.789 -0.50 -0.00    +0.034 A  ATOM     39  C   UNL     1      38.897  47.381  16.066 -0.37 -0.04    +0.112 A  ATOM     40  C   UNL     1      40.942  48.185  16.754 -0.45 -0.01    +0.112 A  ATOM     41  N   UNL     1      39.904  48.263  15.894 -0.32 +0.08    -0.265 NA ENDBRANCH  33  36ENDBRANCH  25  32ENDBRANCH  22  25ENDBRANCH   1  22TORSDOF 9TERENDMDL