MODEL        3USER    Run = 3USERUSER    Estimated Free Energy of Binding    =  -7.03 kcal/mol  [=(1)+(2)+(3)-(4)]USERUSER    (1) Final Intermolecular Energy     = -11.51 kcal/molUSER        vdW + Hbond + desolv Energy     = -12.47 kcal/molUSER        Electrostatic Energy            =  -0.08 kcal/molUSER        Moving Ligand-Fixed Receptor    = -12.54 kcal/molUSER        Moving Ligand-Moving Receptor   =  +1.04 kcal/molUSER    (2) Final Total Internal Energy     =  -1.60 kcal/molUSER    (3) Torsional Free Energy           =  +4.47 kcal/molUSER    (4) Unbound System's Energy         =  -1.60 kcal/molUSERUSERREMARK SMILES COc1ccc(O)c(C(=O)c2ccc(/C=C/[C@@H]3CCCNC[C@H]3NC(=O)c3ccncc3)cc2)c1FREMARK SMILES IDX 16 1 15 2 14 3 11 4 12 5 34 6 13 7 33 8 9 9 10 10 8 11 3 12REMARK SMILES IDX 4 13 35 14 5 15 6 16 36 17 2 18 1 19 7 20 17 22 18 23 23 25REMARK SMILES IDX 22 26 21 27 20 29 19 30 24 32 25 33 26 35 27 36 28 37 32 38REMARK SMILES IDX 29 39 31 40 30 41REMARK H PARENT 7 21 21 28 24 34REMARK Flexibility Score:   99.900USER                              x       y       z     vdW  Elec       q    TypeUSER                           _______ _______ _______ _____ _____    ______ ____ROOTATOM      1  C   UNL     1      38.486  46.968  25.162 -0.33 -0.00    -0.021 C  ENDROOTBRANCH   1   2ATOM      2  C   UNL     1      38.491  45.819  24.469 -0.32 +0.00    +0.004 C  BRANCH   2   3ATOM      3  C   UNL     1      38.984  45.708  23.090 -0.30 -0.00    -0.026 A  ATOM      4  C   UNL     1      40.000  45.468  20.484 -0.35 +0.00    +0.023 A  ATOM      5  C   UNL     1      40.848  45.839  21.532 -0.28 +0.00    +0.013 A  ATOM      6  C   UNL     1      38.657  45.179  20.741 -0.30 +0.00    +0.013 A  ATOM      7  C   UNL     1      40.338  45.953  22.831 -0.24 +0.00    +0.009 A  ATOM      8  C   UNL     1      38.152  45.307  22.036 -0.24 +0.00    +0.009 A  BRANCH   4   9ATOM      9  C   UNL     1      40.509  45.307  19.106 -0.37 +0.00    +0.199 C  ATOM     10  O   UNL     1      41.353  44.438  18.882 -0.24 -0.03    -0.288 OA BRANCH   9  11ATOM     11  C   UNL     1      40.087  46.179  17.986 -0.40 -0.01    +0.104 A  ATOM     12  C   UNL     1      40.419  48.121  16.548 -0.41 -0.03    +0.155 A  ATOM     13  C   UNL     1      39.249  47.804  15.856 -0.46 -0.02    +0.053 A  ATOM     14  C   UNL     1      40.827  47.303  17.613 -0.38 -0.02    +0.179 A  ATOM     15  C   UNL     1      38.486  46.698  16.240 -0.38 -0.02    +0.051 A  ATOM     16  C   UNL     1      38.896  45.901  17.305 -0.33 -0.03    +0.130 A  ATOM     17  F   UNL     1      41.933  47.640  18.296 -0.21 +0.01    -0.202 F  BRANCH  12  18ATOM     18  O   UNL     1      41.236  49.186  16.279 -0.73 +0.03    -0.494 OA ATOM     19  C   UNL     1      41.689  49.338  14.940 -0.34 -0.02    +0.278 C  ENDBRANCH  12  18BRANCH  16  20ATOM     20  O   UNL     1      38.075  44.856  17.633 -0.08 +0.11    -0.507 OA ATOM     21  H   UNL     1      38.635  44.141  18.015 +0.19 -0.04    +0.293 HD ENDBRANCH  16  20ENDBRANCH   9  11ENDBRANCH   4   9ENDBRANCH   2   3ENDBRANCH   1   2BRANCH   1  22ATOM     22  C   UNL     1      37.324  47.516  25.987 -0.41 -0.00    +0.035 C  BRANCH  22  23ATOM     23  C   UNL     1      37.483  49.049  26.018 -0.42 +0.00    +0.011 CG0ATOM     24  G   UNL     1      36.285  49.894  26.438 +0.00 +0.00    +0.000 G0 ENDBRANCH  22  23BRANCH  22  25ATOM     25  C   UNL     1      37.096  46.869  27.387 -0.32 -0.02    +0.103 C  BRANCH  25  26ATOM     26  C   UNL     1      36.126  47.725  28.252 -0.33 -0.02    +0.106 C  BRANCH  26  27ATOM     27  N   UNL     1      36.592  49.024  28.724 -0.11 +0.04    -0.315 NA ATOM     28  H   UNL     1      37.609  49.006  28.812 -0.26 -0.03    +0.122 HD BRANCH  27  29ATOM     29  C   UNL     1      36.171  50.163  27.923 -0.25 +0.01    +0.081 C  BRANCH  29  30ATOM     30  C   UNL     1      36.286  49.893  26.430 -0.44 +0.00    +0.016 CG0ATOM     31  G   UNL     1      37.479  49.044  26.006 +0.00 +0.00    +0.000 G0 ENDBRANCH  29  30ENDBRANCH  27  29ENDBRANCH  26  27ENDBRANCH  25  26BRANCH  25  32ATOM     32  N   UNL     1      36.536  45.515  27.264 -0.16 +0.09    -0.347 N  ATOM     33  C   UNL     1      37.315  44.390  27.417 -0.26 -0.04    +0.251 C  ATOM     34  H   UNL     1      35.529  45.422  27.253 -0.37 -0.09    +0.164 HD ATOM     35  O   UNL     1      38.515  44.423  27.659 -0.17 +0.02    -0.269 OA BRANCH  33  36ATOM     36  C   UNL     1      36.611  43.087  27.306 -0.39 -0.01    +0.042 A  ATOM     37  C   UNL     1      35.252  43.012  27.003 -0.51 -0.01    +0.034 A  ATOM     38  C   UNL     1      37.350  41.918  27.476 -0.42 -0.01    +0.034 A  ATOM     39  C   UNL     1      34.682  41.756  26.912 -0.45 -0.03    +0.112 A  ATOM     40  C   UNL     1      36.685  40.711  27.366 -0.30 -0.04    +0.112 A  ATOM     41  N   UNL     1      35.366  40.606  27.098 -0.41 +0.13    -0.265 NA ENDBRANCH  33  36ENDBRANCH  25  32ENDBRANCH  22  25ENDBRANCH   1  22TORSDOF 9TERENDMDL