MODEL        8USER    Run = 8USERUSER    Estimated Free Energy of Binding    =  -6.81 kcal/mol  [=(1)+(2)+(3)-(4)]USERUSER    (1) Final Intermolecular Energy     = -10.99 kcal/molUSER        vdW + Hbond + desolv Energy     = -11.02 kcal/molUSER        Electrostatic Energy            =  -0.32 kcal/molUSER        Moving Ligand-Fixed Receptor    = -11.34 kcal/molUSER        Moving Ligand-Moving Receptor   =  +0.35 kcal/molUSER    (2) Final Total Internal Energy     =  -2.67 kcal/molUSER    (3) Torsional Free Energy           =  +4.18 kcal/molUSER    (4) Unbound System's Energy         =  -2.67 kcal/molUSERUSERREMARK SMILES COc1ccc(O)c(C(=O)c2ccc(C(=O)N[C@@H]3CCCNC[C@H]3NC(=O)c3ccncc3)cc2)c1FREMARK SMILES IDX 15 1 16 2 17 3 14 5 11 6 12 7 35 8 13 9 34 10 9 11 10 12REMARK SMILES IDX 8 13 3 14 4 15 36 16 5 17 6 18 37 19 2 20 1 21 7 22 18 24REMARK SMILES IDX 19 25 24 27 23 28 22 29 21 31 20 32 25 34 26 35 27 37 28 38REMARK SMILES IDX 29 39 33 40 30 41 32 42 31 43REMARK H PARENT 17 4 7 23 22 30 25 36REMARK Flexibility Score:   88.900USER                              x       y       z     vdW  Elec       q    TypeUSER                           _______ _______ _______ _____ _____    ______ ____ROOTATOM      1  C   UNL     1      40.265  44.285  25.479 -0.07 +0.00    +0.251 C  ATOM      2  O   UNL     1      40.906  43.522  26.193 -0.07 +0.00    -0.269 OA ATOM      3  N   UNL     1      38.939  44.595  25.702 -0.03 -0.00    -0.347 N  ATOM      4  H   UNL     1      38.430  45.060  24.962 +0.08 +0.01    +0.164 HD ENDROOTBRANCH   1   5ATOM      5  C   UNL     1      40.885  44.873  24.259 -0.11 +0.00    +0.039 A  ATOM      6  C   UNL     1      42.008  45.868  21.891 -0.25 +0.00    +0.023 A  ATOM      7  C   UNL     1      42.041  44.496  22.159 -0.25 +0.00    +0.013 A  ATOM      8  C   UNL     1      41.414  46.743  22.807 -0.22 +0.00    +0.013 A  ATOM      9  C   UNL     1      41.492  44.001  23.346 -0.18 +0.00    +0.014 A  ATOM     10  C   UNL     1      40.863  46.248  23.997 -0.16 +0.00    +0.014 A  BRANCH   6  11ATOM     11  C   UNL     1      42.530  46.332  20.587 -0.29 +0.05    +0.199 C  ATOM     12  O   UNL     1      43.733  46.584  20.501 -0.25 -0.20    -0.288 OA BRANCH  11  13ATOM     13  C   UNL     1      41.706  46.467  19.363 -0.40 +0.01    +0.104 A  ATOM     14  C   UNL     1      39.861  45.767  17.927 -0.34 -0.02    +0.155 A  ATOM     15  C   UNL     1      40.175  46.787  17.024 -0.45 -0.01    +0.053 A  ATOM     16  C   UNL     1      40.631  45.619  19.093 -0.33 +0.00    +0.179 A  ATOM     17  C   UNL     1      41.231  47.660  17.297 -0.42 -0.01    +0.051 A  ATOM     18  C   UNL     1      41.978  47.508  18.463 -0.41 -0.00    +0.130 A  ATOM     19  F   UNL     1      40.293  44.657  19.967 -0.09 -0.01    -0.202 F  BRANCH  14  20ATOM     20  O   UNL     1      38.843  44.864  17.776 -0.09 +0.07    -0.494 OA ATOM     21  C   UNL     1      37.648  45.329  17.158 -0.23 -0.08    +0.278 C  ENDBRANCH  14  20BRANCH  18  22ATOM     22  O   UNL     1      42.974  48.429  18.662 -0.13 +0.00    -0.507 OA ATOM     23  H   UNL     1      43.357  48.259  19.555 -0.40 -0.04    +0.293 HD ENDBRANCH  18  22ENDBRANCH  11  13ENDBRANCH   6  11ENDBRANCH   1   5BRANCH   3  24ATOM     24  C   UNL     1      38.151  43.863  26.702 -0.24 -0.01    +0.106 C  BRANCH  24  25ATOM     25  C   UNL     1      38.328  42.353  26.497 -0.34 -0.00    +0.028 CG0ATOM     26  G   UNL     1      37.653  41.454  27.546 +0.00 +0.00    +0.000 G0 ENDBRANCH  24  25BRANCH  24  27ATOM     27  C   UNL     1      36.669  44.335  26.676 -0.35 -0.02    +0.118 C  BRANCH  27  28ATOM     28  C   UNL     1      35.705  43.505  27.556 -0.49 -0.03    +0.108 C  BRANCH  28  29ATOM     29  N   UNL     1      35.288  42.196  27.042 -0.29 +0.08    -0.315 NA ATOM     30  H   UNL     1      34.356  41.972  27.382 +0.06 -0.03    +0.122 HD BRANCH  29  31ATOM     31  C   UNL     1      36.191  41.082  27.308 -0.59 -0.03    +0.081 C  BRANCH  31  32ATOM     32  C   UNL     1      37.653  41.451  27.547 -0.52 -0.00    +0.017 CG0ATOM     33  G   UNL     1      38.324  42.352  26.497 +0.00 +0.00    +0.000 G0 ENDBRANCH  31  32ENDBRANCH  29  31ENDBRANCH  28  29ENDBRANCH  27  28BRANCH  27  34ATOM     34  N   UNL     1      36.588  45.763  27.006 -0.11 +0.09    -0.346 N  ATOM     35  C   UNL     1      36.942  46.734  26.098 -0.20 -0.02    +0.251 C  ATOM     36  H   UNL     1      36.014  46.020  27.794 -0.20 -0.06    +0.164 HD ATOM     37  O   UNL     1      37.428  46.493  25.001 -0.80 -0.05    -0.269 OA BRANCH  35  38ATOM     38  C   UNL     1      36.676  48.138  26.497 -0.38 -0.00    +0.042 A  ATOM     39  C   UNL     1      36.535  48.424  27.856 -0.31 -0.00    +0.034 A  ATOM     40  C   UNL     1      36.538  49.161  25.558 -0.47 -0.00    +0.034 A  ATOM     41  C   UNL     1      36.283  49.732  28.221 -0.21 +0.00    +0.112 A  ATOM     42  C   UNL     1      36.284  50.437  26.026 -0.33 +0.01    +0.112 A  ATOM     43  N   UNL     1      36.160  50.745  27.337 -0.14 -0.04    -0.265 NA ENDBRANCH  35  38ENDBRANCH  27  34ENDBRANCH  24  27ENDBRANCH   3  24TORSDOF 8TERENDMDL