MODEL        8USER    Run = 8USERUSER    Estimated Free Energy of Binding    =  -7.57 kcal/mol  [=(1)+(2)+(3)-(4)]USERUSER    (1) Final Intermolecular Energy     = -11.45 kcal/molUSER        vdW + Hbond + desolv Energy     = -11.70 kcal/molUSER        Electrostatic Energy            =  -0.07 kcal/molUSER        Moving Ligand-Fixed Receptor    = -11.76 kcal/molUSER        Moving Ligand-Moving Receptor   =  +0.31 kcal/molUSER    (2) Final Total Internal Energy     =  -0.77 kcal/molUSER    (3) Torsional Free Energy           =  +3.88 kcal/molUSER    (4) Unbound System's Energy         =  -0.77 kcal/molUSERUSERREMARK SMILES CC[C@@H]1Cc2cc(NCC(=O)N[C@@H]3CCCNCC3)cc(-c3ccc(F)cc3)c2[S@@H]1OREMARK SMILES IDX 10 1 11 2 12 3 9 5 8 6 7 8 3 9 4 10 30 11 5 12 29 13 6 14REMARK SMILES IDX 21 15 20 16 2 18 1 19 31 20 22 22 23 23 28 24 24 25 27 26REMARK SMILES IDX 25 27 26 28 13 29 14 30 19 32 18 33 17 34 16 36 15 37REMARK H PARENT 12 4 8 7 30 17 31 21 17 35REMARK Flexibility Score:  151.900USER                              x       y       z     vdW  Elec       q    TypeUSER                           _______ _______ _______ _____ _____    ______ ____ROOTATOM      1  C   UNL     1      42.870  50.758  13.571 -0.46 -0.07    +0.239 C  ATOM      2  O   UNL     1      42.922  51.584  14.476 -0.39 +0.05    -0.273 OA ATOM      3  N   UNL     1      43.401  50.959  12.312 -0.30 +0.18    -0.352 N  ATOM      4  H   UNL     1      43.351  50.159  11.683 -0.43 -0.11    +0.163 HD ENDROOTBRANCH   1   5ATOM      5  C   UNL     1      42.157  49.406  13.715 -0.35 -0.02    +0.213 C  BRANCH   5   6ATOM      6  N   UNL     1      40.710  49.618  13.935 -0.13 +0.13    -0.376 N  ATOM      7  H   UNL     1      40.209  49.629  13.046 +0.08 -0.06    +0.161 HD BRANCH   6   8ATOM      8  C   UNL     1      40.037  48.801  14.858 -0.53 -0.01    +0.035 A  ATOM      9  C   UNL     1      36.422  46.327  16.894 -0.36 -0.04    +0.058 C  ATOM     10  C   UNL     1      36.789  46.850  15.487 -0.42 -0.04    +0.052 C  ATOM     11  S   UNL     1      37.992  45.952  17.662 -0.44 +0.03    -0.120 S  ATOM     12  C   UNL     1      38.174  47.445  15.587 -0.43 +0.02    -0.030 A  ATOM     13  C   UNL     1      38.933  47.027  16.682 -0.42 -0.01    +0.021 A  ATOM     14  C   UNL     1      38.740  48.309  14.657 -0.50 -0.01    +0.030 A  ATOM     15  C   UNL     1      40.227  47.455  16.935 -0.51 +0.00    -0.002 A  ATOM     16  C   UNL     1      40.766  48.342  15.983 -0.55 -0.01    +0.035 A  ATOM     17  H   UNL     1      38.040  46.095  19.008 +0.04 -0.01    +0.115 HD BRANCH   9  18ATOM     18  C   UNL     1      35.447  45.153  16.901 -0.37 -0.01    +0.012 C  ATOM     19  C   UNL     1      35.167  44.643  18.306 -0.40 -0.00    +0.005 C  ENDBRANCH   9  18BRANCH  11  20ATOM     20  O   UNL     1      38.265  44.448  17.118 -0.16 +0.07    -0.350 OA ATOM     21  H   UNL     1      37.521  43.809  17.236 +0.15 -0.05    +0.226 HD ENDBRANCH  11  20BRANCH  15  22ATOM     22  C   UNL     1      41.008  47.047  18.110 -0.51 +0.00    -0.017 A  ATOM     23  C   UNL     1      40.618  45.929  18.870 -0.46 -0.00    +0.012 A  ATOM     24  C   UNL     1      42.153  47.757  18.509 -0.49 -0.00    +0.012 A  ATOM     25  C   UNL     1      41.352  45.532  19.992 -0.37 +0.00    +0.040 A  ATOM     26  C   UNL     1      42.890  47.361  19.629 -0.47 +0.01    +0.040 A  ATOM     27  C   UNL     1      42.481  46.252  20.360 -0.27 +0.03    +0.123 A  ATOM     28  F   UNL     1      43.185  45.872  21.434 -0.07 -0.09    -0.207 F  ENDBRANCH  15  22ENDBRANCH   6   8ENDBRANCH   5   6ENDBRANCH   1   5BRANCH   3  29ATOM     29  C   UNL     1      44.186  52.134  11.952 -0.41 -0.04    +0.083 C  BRANCH  29  30ATOM     30  C   UNL     1      43.526  52.882  10.791 -0.44 -0.02    +0.026 CG0ATOM     31  G   UNL     1      44.023  52.521   9.390 +0.00 +0.00    +0.000 G0 ENDBRANCH  29  30BRANCH  29  32ATOM     32  C   UNL     1      45.667  51.790  11.731 -0.35 -0.02    +0.040 C  BRANCH  32  33ATOM     33  C   UNL     1      46.542  52.980  11.336 -0.24 -0.03    +0.083 C  BRANCH  33  34ATOM     34  N   UNL     1      46.109  53.750  10.179 -0.04 +0.11    -0.317 NA ATOM     35  H   UNL     1      46.901  54.275   9.810 +0.04 -0.03    +0.122 HD BRANCH  34  36ATOM     36  C   UNL     1      45.429  53.047   9.101 -0.30 -0.02    +0.081 C  BRANCH  36  37ATOM     37  C   UNL     1      44.025  52.520   9.389 -0.45 -0.00    +0.017 CG0ATOM     38  G   UNL     1      43.530  52.881  10.790 +0.00 +0.00    +0.000 G0 ENDBRANCH  36  37ENDBRANCH  34  36ENDBRANCH  33  34ENDBRANCH  32  33ENDBRANCH  29  32ENDBRANCH   3  29TORSDOF 7TERENDMDL