MODEL        8USER    Run = 8USERUSER    Estimated Free Energy of Binding    =  -7.25 kcal/mol  [=(1)+(2)+(3)-(4)]USERUSER    (1) Final Intermolecular Energy     = -11.42 kcal/molUSER        vdW + Hbond + desolv Energy     = -12.58 kcal/molUSER        Electrostatic Energy            =  -0.10 kcal/molUSER        Moving Ligand-Fixed Receptor    = -12.68 kcal/molUSER        Moving Ligand-Moving Receptor   =  +1.26 kcal/molUSER    (2) Final Total Internal Energy     =  -3.08 kcal/molUSER    (3) Torsional Free Energy           =  +4.18 kcal/molUSER    (4) Unbound System's Energy         =  -3.08 kcal/molUSERUSERREMARK SMILES COc1ccc(O)c(C(=O)c2ccc(C(=O)N[C@@H]3CCCNC[C@H]3NC(=O)c3cnc4cc(Cl)ccc4n3)cc2)c1FREMARK SMILES IDX 18 1 17 3 15 4 16 5 14 7 11 8 12 9 40 10 13 11 39 12 9 13REMARK SMILES IDX 10 14 8 15 3 16 4 17 41 18 5 19 6 20 42 21 2 22 1 23 7 24REMARK SMILES IDX 24 26 23 27 22 28 21 30 20 31 19 32 25 34 26 35 27 37 28 38REMARK SMILES IDX 29 39 38 40 30 41 37 42 31 43 36 44 32 45 35 46 33 47 34 48REMARK H PARENT 17 6 7 25 22 29 25 36REMARK Flexibility Score:  100.900USER                              x       y       z     vdW  Elec       q    TypeUSER                           _______ _______ _______ _____ _____    ______ ____ROOTATOM      1  C   UNL     1      32.495  43.653  17.720 -0.30 -0.03    +0.106 CG0ATOM      2  G   UNL     1      31.540  42.571  18.242 +0.00 +0.00    +0.000 G0 ENDROOTBRANCH   1   3ATOM      3  N   UNL     1      33.668  43.772  18.600 -0.11 +0.08    -0.347 N  ATOM      4  C   UNL     1      34.493  42.700  18.862 -0.28 -0.04    +0.251 C  ATOM      5  O   UNL     1      34.358  41.595  18.348 -0.33 +0.06    -0.269 OA ATOM      6  H   UNL     1      33.609  44.481  19.330 +0.07 -0.04    +0.164 HD BRANCH   4   7ATOM      7  C   UNL     1      35.564  42.928  19.875 -0.42 -0.00    +0.039 A  ATOM      8  C   UNL     1      37.587  43.263  21.787 -0.37 +0.00    +0.023 A  ATOM      9  C   UNL     1      36.928  42.032  21.676 -0.51 +0.00    +0.013 A  ATOM     10  C   UNL     1      37.258  44.313  20.922 -0.37 +0.00    +0.013 A  ATOM     11  C   UNL     1      35.919  41.869  20.720 -0.46 -0.00    +0.014 A  ATOM     12  C   UNL     1      36.245  44.150  19.972 -0.38 -0.00    +0.014 A  BRANCH   8  13ATOM     13  C   UNL     1      38.697  43.462  22.749 -0.23 +0.01    +0.199 C  ATOM     14  O   UNL     1      39.427  42.509  23.027 -0.19 -0.03    -0.288 OA BRANCH  13  15ATOM     15  C   UNL     1      38.923  44.739  23.453 -0.21 +0.01    +0.104 A  ATOM     16  C   UNL     1      38.152  46.563  24.872 -0.21 +0.02    +0.155 A  ATOM     17  C   UNL     1      39.413  47.159  24.786 -0.25 +0.00    +0.053 A  ATOM     18  C   UNL     1      37.920  45.353  24.202 -0.17 +0.02    +0.179 A  ATOM     19  C   UNL     1      40.416  46.563  24.017 -0.19 +0.00    +0.051 A  ATOM     20  C   UNL     1      40.165  45.373  23.340 -0.15 +0.01    +0.130 A  ATOM     21  F   UNL     1      36.699  44.796  24.270 -0.03 -0.05    -0.202 F  BRANCH  16  22ATOM     22  O   UNL     1      37.088  47.061  25.575 -0.63 -0.03    -0.494 OA ATOM     23  C   UNL     1      36.833  48.459  25.469 -0.34 +0.00    +0.278 C  ENDBRANCH  16  22BRANCH  20  24ATOM     24  O   UNL     1      41.186  44.871  22.579 +0.00 -0.04    -0.507 OA ATOM     25  H   UNL     1      41.067  43.895  22.530 +0.14 +0.01    +0.293 HD ENDBRANCH  20  24ENDBRANCH  13  15ENDBRANCH   8  13ENDBRANCH   4   7ENDBRANCH   1   3BRANCH   1  26ATOM     26  C   UNL     1      32.951  43.484  16.243 -0.31 -0.06    +0.118 C  BRANCH  26  27ATOM     27  C   UNL     1      31.890  43.885  15.189 -0.31 -0.06    +0.108 C  BRANCH  27  28ATOM     28  N   UNL     1      30.465  43.822  15.547 -0.14 +0.18    -0.315 NA ATOM     29  H   UNL     1      29.904  44.028  14.719 -0.13 -0.13    +0.122 HD BRANCH  28  30ATOM     30  C   UNL     1      30.045  42.553  16.126 -0.31 -0.04    +0.081 C  BRANCH  30  31ATOM     31  C   UNL     1      30.131  42.547  17.657 -0.25 -0.00    +0.017 C  BRANCH  31  32ATOM     32  C   UNL     1      31.539  42.570  18.256 -0.33 -0.00    +0.028 CG0ATOM     33  G   UNL     1      32.484  43.654  17.719 +0.00 +0.00    +0.000 G0 ENDBRANCH  31  32ENDBRANCH  30  31ENDBRANCH  28  30ENDBRANCH  27  28ENDBRANCH  26  27BRANCH  26  34ATOM     34  N   UNL     1      34.193  44.235  16.006 -0.10 +0.18    -0.345 N  ATOM     35  C   UNL     1      35.443  43.646  16.038 -0.26 -0.11    +0.271 C  ATOM     36  H   UNL     1      34.188  45.246  16.138 +0.10 -0.13    +0.164 HD ATOM     37  O   UNL     1      35.622  42.433  16.060 -0.39 +0.11    -0.267 OA BRANCH  35  38ATOM     38  C   UNL     1      36.575  44.612  16.079 -0.25 -0.06    +0.147 A  ATOM     39  C   UNL     1      37.710  44.336  16.817 -0.20 -0.04    +0.146 A  ATOM     40  N   UNL     1      36.415  45.776  15.386 -0.19 +0.14    -0.239 NA ATOM     41  N   UNL     1      38.746  45.208  16.890 -0.17 +0.05    -0.252 NA ATOM     42  C   UNL     1      37.436  46.649  15.459 -0.33 -0.05    +0.090 A  ATOM     43  C   UNL     1      38.610  46.366  16.213 -0.34 -0.03    +0.090 A  ATOM     44  C   UNL     1      37.345  47.862  14.790 -0.48 -0.02    +0.032 A  ATOM     45  C   UNL     1      39.634  47.301  16.257 -0.46 -0.01    +0.051 A  ATOM     46  C   UNL     1      38.380  48.797  14.839 -0.41 -0.01    +0.023 A  ATOM     47  C   UNL     1      39.524  48.508  15.572 -0.51 -0.02    +0.043 A  ATOM     48  Cl  UNL     1      40.806  49.651  15.642 -0.90 +0.02    -0.084 Cl ENDBRANCH  35  38ENDBRANCH  26  34ENDBRANCH   1  26TORSDOF 8TERENDMDL