REMARK SMILES CN(C)S(=O)(=O)c1ccc(CN[C@H]2C[C@H](O)CC[C@@H]2n2cnc3c(N)ncnc32)cc1
REMARK SMILES IDX 11 1 10 2 7 3 8 4 31 5 9 6 30 7 4 8 5 9 6 10 2 11 1 12 3 13
REMARK SMILES IDX 12 14 13 16 14 17 19 18 15 19 18 20 17 21 20 22 21 23 29 24
REMARK SMILES IDX 22 25 28 26 23 27 27 28 24 29 26 30 25 31 16 34
REMARK H PARENT 12 15 25 32 25 33 16 35
ROOT
ATOM      1  C   UNL     1       0.536  -0.473   1.220  1.00  0.00     0.117 C 
ENDROOT
BRANCH   1   2
ATOM      2  C   UNL     1       1.800  -0.557   0.393  1.00  0.00    -0.034 A 
ATOM      3  C   UNL     1       4.138  -0.701  -1.143  1.00  0.00     0.082 A 
ATOM      4  C   UNL     1       3.063   0.069  -1.592  1.00  0.00     0.022 A 
ATOM      5  C   UNL     1       4.045  -1.424   0.051  1.00  0.00     0.022 A 
ATOM      6  C   UNL     1       1.902   0.146  -0.820  1.00  0.00     0.006 A 
ATOM      7  C   UNL     1       2.881  -1.345   0.818  1.00  0.00     0.006 A 
BRANCH   3   8
ATOM      8  S   UNL     1       5.608  -0.833  -2.140  1.00  0.00     0.242 S 
ATOM      9  O   UNL     1       6.250  -2.087  -1.800  1.00  0.00    -0.207 OA
ATOM     10  O   UNL     1       5.235  -0.534  -3.507  1.00  0.00    -0.207 OA
BRANCH   8  11
ATOM     11  N   UNL     1       6.583   0.438  -1.563  1.00  0.00    -0.204 NA
ATOM     12  C   UNL     1       6.142   1.807  -1.875  1.00  0.00     0.124 C 
ATOM     13  C   UNL     1       7.127   0.297  -0.203  1.00  0.00     0.124 C 
ENDBRANCH   8  11
ENDBRANCH   3   8
ENDBRANCH   1   2
BRANCH   1  14
ATOM     14  N   UNL     1      -0.601  -0.996   0.468  1.00  0.00    -0.308 NA
ATOM     15  H   UNL     1      -0.403  -1.967   0.221  1.00  0.00     0.123 HD
BRANCH  14  16
ATOM     16  C   UNL     1      -1.920  -0.913   1.123  1.00  0.00     0.079 C 
ATOM     17  C   UNL     1      -1.969  -1.620   2.486  1.00  0.00     0.052 C 
ATOM     18  C   UNL     1      -2.469   0.540   1.242  1.00  0.00     0.107 C 
ATOM     19  C   UNL     1      -3.397  -1.710   3.039  1.00  0.00     0.116 C 
ATOM     20  C   UNL     1      -3.695   0.654   2.176  1.00  0.00     0.030 C 
ATOM     21  C   UNL     1      -4.368  -0.687   2.446  1.00  0.00     0.034 C 
BRANCH  18  22
ATOM     22  N   UNL     1      -2.705   1.147  -0.065  1.00  0.00    -0.310 N 
ATOM     23  C   UNL     1      -2.001   2.206  -0.582  1.00  0.00     0.202 A 
ATOM     24  C   UNL     1      -3.640   0.784  -0.996  1.00  0.00     0.165 A 
ATOM     25  N   UNL     1      -2.430   2.550  -1.778  1.00  0.00    -0.231 NA
ATOM     26  N   UNL     1      -4.541  -0.210  -0.920  1.00  0.00    -0.217 NA
ATOM     27  C   UNL     1      -3.460   1.671  -2.046  1.00  0.00     0.150 A 
ATOM     28  C   UNL     1      -5.292  -0.262  -2.039  1.00  0.00     0.226 A 
ATOM     29  C   UNL     1      -4.312   1.520  -3.153  1.00  0.00     0.155 A 
ATOM     30  N   UNL     1      -5.227   0.525  -3.134  1.00  0.00    -0.217 NA
BRANCH  29  31
ATOM     31  N   UNL     1      -4.250   2.333  -4.278  1.00  0.00    -0.382 N 
ATOM     32  H   UNL     1      -3.358   2.803  -4.383  1.00  0.00     0.158 HD
ATOM     33  H   UNL     1      -4.643   1.880  -5.093  1.00  0.00     0.158 HD
ENDBRANCH  29  31
ENDBRANCH  18  22
BRANCH  19  34
ATOM     34  O   UNL     1      -3.913  -3.021   2.823  1.00  0.00    -0.393 OA
ATOM     35  H   UNL     1      -4.037  -3.152   1.866  1.00  0.00     0.210 HD
ENDBRANCH  19  34
ENDBRANCH  14  16
ENDBRANCH   1  14
TORSDOF 8
