MODEL        2USER    Run = 2USERUSER    Estimated Free Energy of Binding    =  -9.48 kcal/mol  [=(1)+(2)+(3)-(4)]USERUSER    (1) Final Intermolecular Energy     = -11.27 kcal/molUSER        vdW + Hbond + desolv Energy     = -10.97 kcal/molUSER        Electrostatic Energy            =  -0.30 kcal/molUSER        Moving Ligand-Fixed Receptor    = -11.27 kcal/molUSER        Moving Ligand-Moving Receptor   =  +0.00 kcal/molUSER    (2) Final Total Internal Energy     =  -1.49 kcal/molUSER    (3) Torsional Free Energy           =  +1.79 kcal/molUSER    (4) Unbound System's Energy         =  -1.49 kcal/molUSERUSERREMARK SMILES COC1=c2cc[nH]c2=C(N2CC[C@H](Cc3ccc(C(=O)O)cc3)C2=O)C[C@@H]1CREMARK SMILES IDX 14 1 13 2 10 3 11 4 24 5 12 6 25 7 9 8 3 9 4 10 27 11 5 12REMARK SMILES IDX 8 13 26 14 6 15 7 16 28 17 2 19 1 20 15 21 16 22 23 23 17 24REMARK SMILES IDX 22 25 18 26 19 27 20 28 21 29REMARK H PARENT 7 18 21 30USER                              x       y       z     vdW  Elec       q    TypeUSER                           _______ _______ _______ _____ _____    ______ ____ROOTATOM      1  C   UNL     1      40.813  45.021  20.718 -0.37 +0.00    +0.049 C  ENDROOTBRANCH   1   2ATOM      2  C   UNL     1      40.126  44.579  19.428 -0.39 +0.00    +0.085 C  ATOM      3  N   UNL     1      39.006  45.537  17.573 -0.19 +0.06    -0.314 N  ATOM      4  C   UNL     1      38.147  44.509  18.135 -0.32 -0.02    +0.126 C  ATOM      5  C   UNL     1      40.175  45.656  18.357 -0.36 -0.01    +0.230 C  ATOM      6  C   UNL     1      38.631  44.337  19.559 -0.37 -0.00    +0.036 C  ATOM      7  O   UNL     1      41.113  46.431  18.239 -0.35 +0.01    -0.274 OA BRANCH   3   8ATOM      8  C   UNL     1      38.669  46.235  16.403 -0.43 -0.01    +0.046 C  ATOM      9  C   UNL     1      37.878  47.595  13.903 -0.51 -0.04    +0.108 C  ATOM     10  C   UNL     1      39.030  47.876  14.549 -0.48 -0.01    +0.039 A  ATOM     11  C   UNL     1      37.060  46.402  14.370 -0.45 -0.03    +0.058 C  ATOM     12  C   UNL     1      40.085  48.854  14.279 -0.38 -0.01    +0.031 A  ATOM     13  C   UNL     1      39.468  47.089  15.734 -0.43 -0.02    +0.069 A  ATOM     14  C   UNL     1      37.254  46.063  15.865 -0.38 -0.03    +0.067 C  ATOM     15  C   UNL     1      41.072  48.591  15.153 -0.48 -0.01    +0.083 A  ATOM     16  N   UNL     1      40.747  47.534  15.958 -0.22 +0.05    -0.360 N  ATOM     17  C   UNL     1      37.383  45.187  13.490 -0.49 -0.01    +0.016 C  ATOM     18  H   UNL     1      41.255  47.269  16.801 -0.11 -0.02    +0.166 HD BRANCH   9  19ATOM     19  O   UNL     1      37.296  48.201  12.817 -0.74 +0.09    -0.500 OA ATOM     20  C   UNL     1      36.023  47.796  12.349 -0.42 -0.15    +0.278 C  ENDBRANCH   9  19ENDBRANCH   3   8ENDBRANCH   1   2BRANCH   1  21ATOM     21  C   UNL     1      39.874  45.036  21.901 -0.26 -0.00    -0.047 A  ATOM     22  C   UNL     1      39.484  43.839  22.514 -0.26 +0.00    +0.004 A  ATOM     23  C   UNL     1      39.394  46.251  22.407 -0.22 +0.00    +0.004 A  ATOM     24  C   UNL     1      38.627  43.854  23.618 -0.25 +0.00    +0.016 A  ATOM     25  C   UNL     1      38.538  46.269  23.512 -0.29 +0.00    +0.016 A  ATOM     26  C   UNL     1      38.152  45.070  24.121 -0.26 +0.01    +0.059 A  BRANCH  26  27ATOM     27  C   UNL     1      37.242  45.137  25.291 -0.18 +0.02    +0.335 C  ATOM     28  O   UNL     1      36.951  44.209  26.023 -0.24 +0.02    -0.246 OA BRANCH  27  29ATOM     29  O   UNL     1      36.734  46.367  25.489 -0.70 -0.02    -0.478 OA ATOM     30  H   UNL     1      35.879  46.195  25.936 -0.42 -0.15    +0.297 HD ENDBRANCH  27  29ENDBRANCH  26  27ENDBRANCH   1  21TORSDOF 6TERENDMDL