MODEL        5USER    Run = 5USERUSER    Estimated Free Energy of Binding    =  -9.65 kcal/mol  [=(1)+(2)+(3)-(4)]USERUSER    (1) Final Intermolecular Energy     = -11.74 kcal/molUSER        vdW + Hbond + desolv Energy     = -11.49 kcal/molUSER        Electrostatic Energy            =  -0.25 kcal/molUSER        Moving Ligand-Fixed Receptor    = -11.74 kcal/molUSER        Moving Ligand-Moving Receptor   =  +0.00 kcal/molUSER    (2) Final Total Internal Energy     =  -1.26 kcal/molUSER    (3) Torsional Free Energy           =  +2.09 kcal/molUSER    (4) Unbound System's Energy         =  -1.26 kcal/molUSERUSERREMARK SMILES Nc1ncnc2c1ncn2[C@H]1CC[C@@H](O)C[C@@H]1NCc1ccc(C(F)(F)F)cc1REMARK SMILES IDX 18 1 17 3 11 4 12 5 13 6 16 7 14 8 10 9 2 10 3 11 7 12 4 13REMARK SMILES IDX 6 14 8 15 5 16 9 17 1 18 15 21 19 23 20 24 21 25 29 26 22 27REMARK SMILES IDX 28 28 23 29 24 30 25 31 26 32 27 33REMARK H PARENT 18 2 1 19 1 20 15 22USER                              x       y       z     vdW  Elec       q    TypeUSER                           _______ _______ _______ _____ _____    ______ ____ROOTATOM      1  N   UNL     1      36.261  45.656  15.510 -0.14 +0.18    -0.308 NA ATOM      2  H   UNL     1      35.769  45.886  14.644 +0.09 -0.08    +0.123 HD ENDROOTBRANCH   1   3ATOM      3  C   UNL     1      37.656  46.146  15.421 -0.38 -0.03    +0.079 C  ATOM      4  C   UNL     1      37.846  47.530  16.114 -0.34 -0.07    +0.107 C  ATOM      5  C   UNL     1      37.159  48.675  15.337 -0.44 -0.03    +0.030 C  ATOM      6  C   UNL     1      37.426  48.681  13.833 -0.54 -0.02    +0.034 C  ATOM      7  C   UNL     1      38.040  46.242  13.933 -0.46 -0.02    +0.052 C  ATOM      8  C   UNL     1      37.245  47.311  13.190 -0.56 -0.04    +0.116 C  BRANCH   4   9ATOM      9  N   UNL     1      39.245  47.755  16.478 -0.24 +0.12    -0.310 N  ATOM     10  C   UNL     1      42.002  47.184  18.573 -0.41 +0.00    +0.155 A  ATOM     11  N   UNL     1      41.501  46.331  19.495 -0.31 -0.02    -0.217 NA ATOM     12  C   UNL     1      41.151  47.647  17.556 -0.40 -0.02    +0.150 A  ATOM     13  C   UNL     1      40.213  45.943  19.375 -0.25 -0.00    +0.226 A  ATOM     14  C   UNL     1      39.853  47.167  17.563 -0.30 -0.03    +0.165 A  ATOM     15  N   UNL     1      41.336  48.529  16.513 -0.80 +0.01    -0.231 NA ATOM     16  N   UNL     1      39.310  46.305  18.441 -0.28 +0.03    -0.217 NA ATOM     17  C   UNL     1      40.174  48.572  15.895 -0.40 -0.06    +0.202 A  BRANCH  10  18ATOM     18  N   UNL     1      43.329  47.576  18.692 -0.26 -0.05    -0.382 N  ATOM     19  H   UNL     1      43.886  47.366  17.873 -0.46 +0.00    +0.158 HD ATOM     20  H   UNL     1      43.419  48.496  19.103 -0.54 -0.02    +0.158 HD ENDBRANCH  10  18ENDBRANCH   4   9BRANCH   8  21ATOM     21  O   UNL     1      37.713  47.363  11.845 -0.87 +0.03    -0.393 OA ATOM     22  H   UNL     1      37.054  47.851  11.322 -0.13 -0.06    +0.210 HD ENDBRANCH   8  21ENDBRANCH   1   3BRANCH   1  23ATOM     23  C   UNL     1      36.196  44.198  15.661 -0.36 -0.05    +0.117 C  BRANCH  23  24ATOM     24  C   UNL     1      36.263  43.821  17.123 -0.31 +0.01    -0.034 A  ATOM     25  C   UNL     1      35.381  42.866  17.648 -0.38 -0.00    +0.005 A  ATOM     26  C   UNL     1      37.216  44.400  17.970 -0.33 -0.00    +0.005 A  ATOM     27  C   UNL     1      35.444  42.504  18.996 -0.40 -0.00    +0.013 A  ATOM     28  C   UNL     1      37.280  44.039  19.318 -0.34 -0.00    +0.013 A  ATOM     29  C   UNL     1      36.400  43.082  19.844 -0.35 -0.00    +0.056 A  BRANCH  29  30ATOM     30  C   UNL     1      36.455  42.709  21.304 -0.22 +0.02    +0.416 C  ATOM     31  F   UNL     1      36.387  43.788  22.136 -0.10 -0.02    -0.166 F  ATOM     32  F   UNL     1      37.598  42.050  21.648 -0.13 -0.01    -0.166 F  ATOM     33  F   UNL     1      35.429  41.892  21.670 -0.14 -0.01    -0.166 F  ENDBRANCH  29  30ENDBRANCH  23  24ENDBRANCH   1  23TORSDOF 7TERENDMDL