REMARK SMILES Nc1ncnc2c1ncn2[C@H]1CC[C@@H](O)C[C@@H]1NCc1ccc(C(=O)O)cc1
REMARK SMILES IDX 18 1 17 3 11 4 12 5 13 6 16 7 14 8 10 9 2 10 3 11 7 12 4 13
REMARK SMILES IDX 6 14 8 15 5 16 9 17 1 18 15 21 19 23 20 24 21 25 28 26 22 27
REMARK SMILES IDX 27 28 23 29 24 30 25 31 26 32
REMARK H PARENT 18 2 1 19 1 20 15 22 26 33
ROOT
ATOM      1  N   UNL     1       0.753  -0.985   0.646  1.00  0.00    -0.308 NA
ATOM      2  H   UNL     1       1.507  -1.518   1.077  1.00  0.00     0.123 HD
ENDROOT
BRANCH   1   3
ATOM      3  C   UNL     1      -0.345  -1.871   0.199  1.00  0.00     0.079 C 
ATOM      4  C   UNL     1      -1.717  -1.358   0.723  1.00  0.00     0.107 C 
ATOM      5  C   UNL     1      -2.857  -2.339   0.399  1.00  0.00     0.030 C 
ATOM      6  C   UNL     1      -2.554  -3.744   0.918  1.00  0.00     0.034 C 
ATOM      7  C   UNL     1      -0.076  -3.293   0.738  1.00  0.00     0.052 C 
ATOM      8  C   UNL     1      -1.210  -4.264   0.414  1.00  0.00     0.116 C 
BRANCH   4   9
ATOM      9  N   UNL     1      -2.039  -0.005   0.290  1.00  0.00    -0.310 N 
ATOM     10  C   UNL     1      -2.818   2.489  -2.042  1.00  0.00     0.155 A 
ATOM     11  N   UNL     1      -2.781   1.820  -3.217  1.00  0.00    -0.217 NA
ATOM     12  C   UNL     1      -2.540   1.784  -0.858  1.00  0.00     0.150 A 
ATOM     13  C   UNL     1      -2.505   0.498  -3.191  1.00  0.00     0.226 A 
ATOM     14  C   UNL     1      -2.269   0.431  -0.987  1.00  0.00     0.165 A 
ATOM     15  N   UNL     1      -2.457   2.182   0.461  1.00  0.00    -0.231 NA
ATOM     16  N   UNL     1      -2.230  -0.281  -2.125  1.00  0.00    -0.217 NA
ATOM     17  C   UNL     1      -2.156   1.083   1.120  1.00  0.00     0.202 A 
BRANCH  10  18
ATOM     18  N   UNL     1      -3.107   3.848  -2.068  1.00  0.00    -0.382 N 
ATOM     19  H   UNL     1      -2.902   4.262  -2.967  1.00  0.00     0.158 HD
ATOM     20  H   UNL     1      -2.796   4.339  -1.237  1.00  0.00     0.158 HD
ENDBRANCH  10  18
ENDBRANCH   4   9
BRANCH   8  21
ATOM     21  O   UNL     1      -1.290  -4.453  -0.994  1.00  0.00    -0.393 OA
ATOM     22  H   UNL     1      -0.500  -4.946  -1.275  1.00  0.00     0.210 HD
ENDBRANCH   8  21
ENDBRANCH   1   3
BRANCH   1  23
ATOM     23  C   UNL     1       1.330  -0.225  -0.466  1.00  0.00     0.117 C 
BRANCH  23  24
ATOM     24  C   UNL     1       2.340   0.772   0.050  1.00  0.00    -0.034 A 
ATOM     25  C   UNL     1       3.714   0.498  -0.005  1.00  0.00     0.006 A 
ATOM     26  C   UNL     1       1.908   1.984   0.611  1.00  0.00     0.006 A 
ATOM     27  C   UNL     1       4.639   1.428   0.475  1.00  0.00     0.016 A 
ATOM     28  C   UNL     1       2.832   2.913   1.096  1.00  0.00     0.016 A 
ATOM     29  C   UNL     1       4.202   2.639   1.026  1.00  0.00     0.059 A 
BRANCH  29  30
ATOM     30  C   UNL     1       5.223   3.599   1.511  1.00  0.00     0.335 C 
ATOM     31  O   UNL     1       6.429   3.457   1.428  1.00  0.00    -0.246 OA
BRANCH  30  32
ATOM     32  O   UNL     1       4.687   4.696   2.075  1.00  0.00    -0.478 OA
ATOM     33  H   UNL     1       5.465   5.233   2.333  1.00  0.00     0.297 HD
ENDBRANCH  30  32
ENDBRANCH  29  30
ENDBRANCH  23  24
ENDBRANCH   1  23
TORSDOF 8
