MODEL        6USER    Run = 6USERUSER    Estimated Free Energy of Binding    = -10.10 kcal/mol  [=(1)+(2)+(3)-(4)]USERUSER    (1) Final Intermolecular Energy     = -12.49 kcal/molUSER        vdW + Hbond + desolv Energy     = -12.15 kcal/molUSER        Electrostatic Energy            =  -0.34 kcal/molUSER        Moving Ligand-Fixed Receptor    = -12.49 kcal/molUSER        Moving Ligand-Moving Receptor   =  +0.00 kcal/molUSER    (2) Final Total Internal Energy     =  -1.85 kcal/molUSER    (3) Torsional Free Energy           =  +2.39 kcal/molUSER    (4) Unbound System's Energy         =  -1.85 kcal/molUSERUSERREMARK SMILES Nc1ncnc2c1ncn2[C@H]1CC[C@@H](O)C[C@@H]1NCc1ccc(C(=O)O)cc1REMARK SMILES IDX 18 1 17 3 11 4 12 5 13 6 16 7 14 8 10 9 2 10 3 11 7 12 4 13REMARK SMILES IDX 6 14 8 15 5 16 9 17 1 18 15 21 19 23 20 24 21 25 28 26 22 27REMARK SMILES IDX 27 28 23 29 24 30 25 31 26 32REMARK H PARENT 18 2 1 19 1 20 15 22 26 33USER                              x       y       z     vdW  Elec       q    TypeUSER                           _______ _______ _______ _____ _____    ______ ____ROOTATOM      1  N   UNL     1      37.975  45.259  15.537 -0.14 +0.10    -0.308 NA ATOM      2  H   UNL     1      37.713  45.603  16.460 +0.09 -0.04    +0.123 HD ENDROOTBRANCH   1   3ATOM      3  C   UNL     1      37.913  46.336  14.524 -0.42 -0.03    +0.079 C  ATOM      4  C   UNL     1      38.108  47.730  15.186 -0.47 -0.06    +0.107 C  ATOM      5  C   UNL     1      37.901  48.876  14.181 -0.38 -0.02    +0.030 C  ATOM      6  C   UNL     1      36.544  48.776  13.486 -0.31 -0.02    +0.034 C  ATOM      7  C   UNL     1      36.536  46.274  13.828 -0.50 -0.03    +0.052 C  ATOM      8  C   UNL     1      36.335  47.413  12.830 -0.63 -0.06    +0.116 C  BRANCH   4   9ATOM      9  N   UNL     1      39.371  47.867  15.898 -0.25 +0.11    -0.310 N  ATOM     10  C   UNL     1      41.682  47.186  18.440 -0.41 -0.00    +0.155 A  ATOM     11  N   UNL     1      41.015  46.305  19.220 -0.31 -0.00    -0.217 NA ATOM     12  C   UNL     1      41.038  47.694  17.299 -0.41 -0.02    +0.150 A  ATOM     13  C   UNL     1      39.770  45.935  18.847 -0.27 -0.02    +0.226 A  ATOM     14  C   UNL     1      39.758  47.227  17.044 -0.35 -0.04    +0.165 A  ATOM     15  N   UNL     1      41.426  48.618  16.349 -0.85 +0.00    -0.231 NA ATOM     16  N   UNL     1      39.058  46.347  17.779 -0.29 +0.05    -0.217 NA ATOM     17  C   UNL     1      40.402  48.696  15.526 -0.42 -0.05    +0.202 A  BRANCH  10  18ATOM     18  N   UNL     1      42.964  47.562  18.821 -0.32 -0.03    -0.382 N  ATOM     19  H   UNL     1      42.960  48.392  19.398 -0.42 -0.02    +0.158 HD ATOM     20  H   UNL     1      43.637  47.513  18.064 -0.36 +0.01    +0.158 HD ENDBRANCH  10  18ENDBRANCH   4   9BRANCH   8  21ATOM     21  O   UNL     1      37.256  47.276  11.755 -0.90 +0.09    -0.393 OA ATOM     22  H   UNL     1      37.036  47.946  11.085 -0.20 -0.08    +0.210 HD ENDBRANCH   8  21ENDBRANCH   1   3BRANCH   1  23ATOM     23  C   UNL     1      37.078  44.148  15.210 -0.14 -0.04    +0.117 C  BRANCH  23  24ATOM     24  C   UNL     1      35.938  44.087  16.198 -0.34 +0.01    -0.034 A  ATOM     25  C   UNL     1      35.419  45.257  16.770 -0.32 -0.00    +0.006 A  ATOM     26  C   UNL     1      35.395  42.847  16.569 -0.45 -0.00    +0.006 A  ATOM     27  C   UNL     1      34.363  45.188  17.682 -0.36 -0.01    +0.016 A  ATOM     28  C   UNL     1      34.343  42.776  17.486 -0.37 -0.01    +0.016 A  ATOM     29  C   UNL     1      33.821  43.948  18.043 -0.28 -0.02    +0.059 A  BRANCH  29  30ATOM     30  C   UNL     1      32.694  43.928  19.006 -0.23 -0.04    +0.335 C  ATOM     31  O   UNL     1      31.511  43.960  18.718 -0.22 +0.01    -0.246 OA BRANCH  30  32ATOM     32  O   UNL     1      33.098  43.866  20.287 -0.60 -0.02    -0.478 OA ATOM     33  H   UNL     1      32.862  44.744  20.653 -0.30 -0.06    +0.297 HD ENDBRANCH  30  32ENDBRANCH  29  30ENDBRANCH  23  24ENDBRANCH   1  23TORSDOF 8TERENDMDL