REMARK SMILES COC1=c2cc[nH]c2=C(N2CC[C@H](Cc3ccc(C(=O)O)cc3)C2=O)C[C@@H]1C
REMARK SMILES IDX 14 1 13 2 10 3 11 4 24 5 12 6 25 7 9 8 3 9 4 10 27 11 5 12
REMARK SMILES IDX 8 13 26 14 6 15 7 16 28 17 2 19 1 20 15 21 16 22 23 23 17 24
REMARK SMILES IDX 22 25 18 26 19 27 20 28 21 29
REMARK H PARENT 7 18 21 30
ROOT
ATOM      1  C   UNL     1       2.668   1.401  -0.176  1.00  0.00     0.049 C 
ENDROOT
BRANCH   1   2
ATOM      2  C   UNL     1       1.635   0.319  -0.481  1.00  0.00     0.085 C 
ATOM      3  N   UNL     1      -0.612  -0.216   0.045  1.00  0.00    -0.314 N 
ATOM      4  C   UNL     1       0.208  -1.377   0.343  1.00  0.00     0.126 C 
ATOM      5  C   UNL     1       0.213   0.845  -0.390  1.00  0.00     0.230 C 
ATOM      6  C   UNL     1       1.608  -0.828   0.516  1.00  0.00     0.036 C 
ATOM      7  O   UNL     1      -0.091   1.991  -0.692  1.00  0.00    -0.274 OA
BRANCH   3   8
ATOM      8  C   UNL     1      -2.010  -0.238   0.163  1.00  0.00     0.046 C 
ATOM      9  C   UNL     1      -4.951  -0.421   0.371  1.00  0.00     0.108 C 
ATOM     10  C   UNL     1      -4.309   0.749   0.161  1.00  0.00     0.039 A 
ATOM     11  C   UNL     1      -4.147  -1.709   0.300  1.00  0.00     0.058 C 
ATOM     12  C   UNL     1      -4.801   2.122   0.041  1.00  0.00     0.031 A 
ATOM     13  C   UNL     1      -2.840   0.798  -0.069  1.00  0.00     0.069 A 
ATOM     14  C   UNL     1      -2.654  -1.530   0.652  1.00  0.00     0.067 C 
ATOM     15  C   UNL     1      -3.743   2.869  -0.320  1.00  0.00     0.083 A 
ATOM     16  N   UNL     1      -2.618   2.100  -0.443  1.00  0.00    -0.360 N 
ATOM     17  C   UNL     1      -4.307  -2.332  -1.094  1.00  0.00     0.016 C 
ATOM     18  H   UNL     1      -1.672   2.467  -0.532  1.00  0.00     0.166 HD
BRANCH   9  19
ATOM     19  O   UNL     1      -6.278  -0.677   0.615  1.00  0.00    -0.500 OA
ATOM     20  C   UNL     1      -7.209   0.377   0.774  1.00  0.00     0.278 C 
ENDBRANCH   9  19
ENDBRANCH   3   8
ENDBRANCH   1   2
BRANCH   1  21
ATOM     21  C   UNL     1       4.088   0.896  -0.280  1.00  0.00    -0.047 A 
ATOM     22  C   UNL     1       4.833   0.627   0.875  1.00  0.00     0.004 A 
ATOM     23  C   UNL     1       4.671   0.678  -1.535  1.00  0.00     0.004 A 
ATOM     24  C   UNL     1       6.142   0.146   0.779  1.00  0.00     0.016 A 
ATOM     25  C   UNL     1       5.979   0.196  -1.634  1.00  0.00     0.016 A 
ATOM     26  C   UNL     1       6.719  -0.072  -0.477  1.00  0.00     0.059 A 
BRANCH  26  27
ATOM     27  C   UNL     1       8.103  -0.582  -0.630  1.00  0.00     0.335 C 
ATOM     28  O   UNL     1       8.670  -0.801  -1.685  1.00  0.00    -0.246 OA
BRANCH  27  29
ATOM     29  O   UNL     1       8.715  -0.797   0.548  1.00  0.00    -0.478 OA
ATOM     30  H   UNL     1       9.604  -1.121   0.292  1.00  0.00     0.297 HD
ENDBRANCH  27  29
ENDBRANCH  26  27
ENDBRANCH   1  21
TORSDOF 6
