REMARK SMILES CC[C@@H]1Cc2cc(NCC(=O)N[C@@H]3CCCNCC3)cc(-c3ccc(F)cc3)c2[S@@H]1O
REMARK SMILES IDX 10 1 11 2 12 3 9 5 8 6 7 8 3 9 4 10 30 11 5 12 29 13 6 14
REMARK SMILES IDX 21 15 20 16 2 18 1 19 31 20 22 22 23 23 28 24 24 25 27 26
REMARK SMILES IDX 25 27 26 28 13 29 14 30 19 32 18 33 17 34 16 36 15 37
REMARK H PARENT 12 4 8 7 30 17 31 21 17 35
REMARK Flexibility Score:  151.900
ROOT
ATOM      1  C   UNL     1      -3.061   2.238  -1.482  1.00  0.00     0.239 C 
ATOM      2  O   UNL     1      -3.670   2.851  -2.353  1.00  0.00    -0.273 OA
ATOM      3  N   UNL     1      -3.668   1.621  -0.406  1.00  0.00    -0.352 N 
ATOM      4  H   UNL     1      -3.047   1.086   0.199  1.00  0.00     0.163 HD
ENDROOT
BRANCH   1   5
ATOM      5  C   UNL     1      -1.530   2.126  -1.456  1.00  0.00     0.213 C 
BRANCH   5   6
ATOM      6  N   UNL     1      -1.126   0.848  -0.833  1.00  0.00    -0.376 N 
ATOM      7  H   UNL     1      -1.591   0.062  -1.289  1.00  0.00     0.161 HD
BRANCH   6   8
ATOM      8  C   UNL     1       0.242   0.573  -0.673  1.00  0.00     0.035 A 
ATOM      9  C   UNL     1       5.005   1.354  -0.463  1.00  0.00     0.058 C 
ATOM     10  C   UNL     1       3.710   2.182  -0.304  1.00  0.00     0.052 C 
ATOM     11  S   UNL     1       4.576  -0.275   0.136  1.00  0.00    -0.120 S 
ATOM     12  C   UNL     1       2.555   1.212  -0.383  1.00  0.00    -0.030 A 
ATOM     13  C   UNL     1       2.873  -0.126  -0.138  1.00  0.00     0.021 A 
ATOM     14  C   UNL     1       1.231   1.565  -0.619  1.00  0.00     0.030 A 
ATOM     15  C   UNL     1       1.946  -1.156  -0.155  1.00  0.00    -0.002 A 
ATOM     16  C   UNL     1       0.617  -0.768  -0.413  1.00  0.00     0.035 A 
ATOM     17  H   UNL     1       5.236  -1.308  -0.440  1.00  0.00     0.115 HD
BRANCH   9  18
ATOM     18  C   UNL     1       6.229   1.951   0.224  1.00  0.00     0.012 C 
ATOM     19  C   UNL     1       6.671   3.258  -0.417  1.00  0.00     0.005 C 
ENDBRANCH   9  18
BRANCH  11  20
ATOM     20  O   UNL     1       4.820  -0.105   1.731  1.00  0.00    -0.350 OA
ATOM     21  H   UNL     1       4.022   0.131   2.263  1.00  0.00     0.226 HD
ENDBRANCH  11  20
BRANCH  15  22
ATOM     22  C   UNL     1       2.289  -2.568   0.060  1.00  0.00    -0.017 A 
ATOM     23  C   UNL     1       2.063  -3.517  -0.954  1.00  0.00     0.012 A 
ATOM     24  C   UNL     1       2.842  -3.010   1.274  1.00  0.00     0.012 A 
ATOM     25  C   UNL     1       2.384  -4.864  -0.762  1.00  0.00     0.040 A 
ATOM     26  C   UNL     1       3.165  -4.356   1.468  1.00  0.00     0.040 A 
ATOM     27  C   UNL     1       2.932  -5.270   0.448  1.00  0.00     0.123 A 
ATOM     28  F   UNL     1       3.240  -6.560   0.633  1.00  0.00    -0.207 F 
ENDBRANCH  15  22
ENDBRANCH   6   8
ENDBRANCH   5   6
ENDBRANCH   1   5
BRANCH   3  29
ATOM     29  C   UNL     1      -5.114   1.530  -0.245  1.00  0.00     0.083 C 
BRANCH  29  30
ATOM     30  C   UNL     1      -5.480   1.381   1.234  1.00  0.00     0.026 CG0
ATOM     31  G   UNL     1      -5.222   0.007   1.854  1.00  0.00     0.000 G0
ENDBRANCH  29  30
BRANCH  29  32
ATOM     32  C   UNL     1      -5.729   0.465  -1.165  1.00  0.00     0.040 C 
BRANCH  32  33
ATOM     33  C   UNL     1      -5.208  -0.953  -0.932  1.00  0.00     0.083 C 
BRANCH  33  34
ATOM     34  N   UNL     1      -5.872  -1.727   0.107  1.00  0.00    -0.317 NA
ATOM     35  H   UNL     1      -5.333  -2.573   0.291  1.00  0.00     0.122 HD
BRANCH  34  36
ATOM     36  C   UNL     1      -6.197  -1.060   1.359  1.00  0.00     0.081 C 
BRANCH  36  37
ATOM     37  C   UNL     1      -5.222   0.007   1.854  1.00  0.00     0.017 CG0
ATOM     38  G   UNL     1      -5.480   1.381   1.234  1.00  0.00     0.000 G0
ENDBRANCH  36  37
ENDBRANCH  34  36
ENDBRANCH  33  34
ENDBRANCH  32  33
ENDBRANCH  29  32
ENDBRANCH   3  29
TORSDOF 7
