MODEL        7USER    Run = 7USERUSER    Estimated Free Energy of Binding    =  -8.71 kcal/mol  [=(1)+(2)+(3)-(4)]USERUSER    (1) Final Intermolecular Energy     = -11.09 kcal/molUSER        vdW + Hbond + desolv Energy     = -10.75 kcal/molUSER        Electrostatic Energy            =  -0.34 kcal/molUSER        Moving Ligand-Fixed Receptor    = -11.09 kcal/molUSER        Moving Ligand-Moving Receptor   =  +0.00 kcal/molUSER    (2) Final Total Internal Energy     =  -2.09 kcal/molUSER    (3) Torsional Free Energy           =  +2.39 kcal/molUSER    (4) Unbound System's Energy         =  -2.09 kcal/molUSERUSERREMARK SMILES CN(C)S(=O)(=O)c1ccc(CN[C@H]2C[C@H](O)CC[C@@H]2n2cnc3c(N)ncnc32)cc1REMARK SMILES IDX 11 1 10 2 7 3 8 4 31 5 9 6 30 7 4 8 5 9 6 10 2 11 1 12 3 13REMARK SMILES IDX 12 14 13 16 14 17 19 18 15 19 18 20 17 21 20 22 21 23 29 24REMARK SMILES IDX 22 25 28 26 23 27 27 28 24 29 26 30 25 31 16 34REMARK H PARENT 12 15 25 32 25 33 16 35USER                              x       y       z     vdW  Elec       q    TypeUSER                           _______ _______ _______ _____ _____    ______ ____ROOTATOM      1  C   UNL     1      34.132  30.182  21.905 -0.10 -0.02    +0.117 C  ENDROOTBRANCH   1   2ATOM      2  C   UNL     1      32.763  30.359  22.525 -0.52 -0.00    -0.034 A  ATOM      3  C   UNL     1      30.234  30.692  23.681 -0.50 +0.02    +0.082 A  ATOM      4  C   UNL     1      31.368  30.675  24.495 -0.51 +0.01    +0.022 A  ATOM      5  C   UNL     1      30.348  30.515  22.298 -0.56 -0.00    +0.022 A  ATOM      6  C   UNL     1      32.629  30.517  23.915 -0.45 +0.00    +0.006 A  ATOM      7  C   UNL     1      31.611  30.355  21.724 -0.47 -0.00    +0.006 A  BRANCH   3   8ATOM      8  S   UNL     1      28.620  30.857  24.417 -0.52 +0.13    +0.242 S  ATOM      9  O   UNL     1      28.744  30.494  25.815 -0.75 -0.19    -0.207 OA ATOM     10  O   UNL     1      28.093  32.148  24.027 -0.51 -0.15    -0.207 OA BRANCH   8  11ATOM     11  N   UNL     1      27.711  29.650  23.632 -0.38 +0.02    -0.204 NA ATOM     12  C   UNL     1      26.783  28.870  24.466 -0.56 +0.01    +0.124 C  ATOM     13  C   UNL     1      27.165  29.982  22.306 -0.30 -0.10    +0.124 C  ENDBRANCH   8  11ENDBRANCH   3   8ENDBRANCH   1   2BRANCH   1  14ATOM     14  N   UNL     1      35.001  29.421  22.798 -0.21 +0.03    -0.308 NA ATOM     15  H   UNL     1      35.226  28.532  22.347 +0.07 -0.03    +0.123 HD BRANCH  14  16ATOM     16  C   UNL     1      36.247  30.083  23.230 -0.38 +0.00    +0.079 C  ATOM     17  C   UNL     1      36.257  30.448  24.722 -0.42 +0.01    +0.052 C  ATOM     18  C   UNL     1      37.537  29.296  22.852 -0.25 +0.01    +0.107 C  ATOM     19  C   UNL     1      37.459  31.326  25.094 -0.39 +0.01    +0.116 C  ATOM     20  C   UNL     1      38.806  29.834  23.551 -0.39 +0.01    +0.030 C  ATOM     21  C   UNL     1      38.629  31.240  24.112 -0.30 +0.01    +0.034 C  BRANCH  18  22ATOM     22  N   UNL     1      37.704  29.177  21.406 -0.10 -0.00    -0.310 N  ATOM     23  C   UNL     1      38.550  29.943  20.644 -0.24 +0.03    +0.202 A  ATOM     24  C   UNL     1      37.073  28.303  20.563 -0.18 -0.03    +0.165 A  ATOM     25  N   UNL     1      38.495  29.624  19.368 -0.23 -0.04    -0.231 NA ATOM     26  N   UNL     1      36.168  27.360  20.875 -0.21 +0.11    -0.217 NA ATOM     27  C   UNL     1      37.569  28.602  19.304 -0.18 -0.01    +0.150 A  ATOM     28  C   UNL     1      35.774  26.691  19.772 -0.15 -0.21    +0.226 A  ATOM     29  C   UNL     1      37.073  27.840  18.232 -0.15 -0.03    +0.155 A  ATOM     30  N   UNL     1      36.172  26.867  18.494 -0.21 +0.13    -0.217 NA BRANCH  29  31ATOM     31  N   UNL     1      37.477  28.024  16.916 -0.06 +0.04    -0.382 N  ATOM     32  H   UNL     1      36.703  28.070  16.263 +0.08 -0.02    +0.158 HD ATOM     33  H   UNL     1      38.202  28.726  16.838 +0.08 +0.02    +0.158 HD ENDBRANCH  29  31ENDBRANCH  18  22BRANCH  19  34ATOM     34  O   UNL     1      37.043  32.685  25.205 -0.45 +0.01    -0.393 OA ATOM     35  H   UNL     1      37.621  33.135  25.847 -0.37 -0.08    +0.210 HD ENDBRANCH  19  34ENDBRANCH  14  16ENDBRANCH   1  14TORSDOF 8TERENDMDL