REMARK SMILES CN1CCN(c2cc(C(=O)c3c(O)cccc3C(=O)O)ccc2O)CC1
REMARK SMILES IDX 11 1 12 2 14 3 15 4 16 5 17 6 9 7 10 8 8 9 6 10 7 11 23 12
REMARK SMILES IDX 22 13 21 14 5 15 2 16 3 17 26 18 4 19 25 20 1 21 24 22 13 24
REMARK SMILES IDX 18 26 19 27 20 28
REMARK H PARENT 24 23 13 25 20 29
ROOT
ATOM      1  C   UNL     1      -2.915   1.254  -0.796  1.00  0.00     0.079 A 
ATOM      2  C   UNL     1      -3.038   2.618  -1.105  1.00  0.00     0.127 A 
ATOM      3  C   UNL     1      -3.295   3.560  -0.111  1.00  0.00     0.047 A 
ATOM      4  C   UNL     1      -3.462   3.149   1.209  1.00  0.00     0.005 A 
ATOM      5  C   UNL     1      -3.393   1.792   1.528  1.00  0.00     0.017 A 
ATOM      6  C   UNL     1      -3.131   0.841   0.527  1.00  0.00     0.074 A 
ENDROOT
BRANCH   1   7
ATOM      7  C   UNL     1      -2.527   0.336  -1.893  1.00  0.00     0.197 C 
ATOM      8  O   UNL     1      -3.037   0.515  -2.999  1.00  0.00    -0.288 OA
BRANCH   7   9
ATOM      9  C   UNL     1      -1.476  -0.700  -1.729  1.00  0.00     0.025 A 
ATOM     10  C   UNL     1       0.590  -1.498  -0.681  1.00  0.00     0.080 A 
ATOM     11  C   UNL     1      -0.395  -0.512  -0.852  1.00  0.00     0.042 A 
ATOM     12  C   UNL     1       0.460  -2.671  -1.460  1.00  0.00     0.138 A 
ATOM     13  C   UNL     1      -0.595  -2.852  -2.361  1.00  0.00     0.049 A 
ATOM     14  C   UNL     1      -1.563  -1.862  -2.496  1.00  0.00     0.016 A 
BRANCH  10  15
ATOM     15  N   UNL     1       1.661  -1.333   0.212  1.00  0.00    -0.366 N 
ATOM     16  N   UNL     1       3.769   0.679   0.962  1.00  0.00    -0.303 NA
ATOM     17  C   UNL     1       2.323   0.855   1.221  1.00  0.00     0.105 C 
ATOM     18  C   UNL     1       4.066  -0.686   0.467  1.00  0.00     0.105 C 
ATOM     19  C   UNL     1       1.525  -0.457   1.391  1.00  0.00     0.132 C 
ATOM     20  C   UNL     1       2.977  -1.256  -0.471  1.00  0.00     0.132 C 
ATOM     21  C   UNL     1       4.575   0.980   2.141  1.00  0.00     0.105 C 
ENDBRANCH  10  15
BRANCH  12  22
ATOM     22  O   UNL     1       1.379  -3.682  -1.318  1.00  0.00    -0.506 OA
ATOM     23  H   UNL     1       1.082  -4.451  -1.829  1.00  0.00     0.293 HD
ENDBRANCH  12  22
ENDBRANCH   7   9
ENDBRANCH   1   7
BRANCH   2  24
ATOM     24  O   UNL     1      -2.912   3.103  -2.381  1.00  0.00    -0.507 OA
ATOM     25  H   UNL     1      -2.999   2.344  -3.002  1.00  0.00     0.293 HD
ENDBRANCH   2  24
BRANCH   6  26
ATOM     26  C   UNL     1      -3.175  -0.588   0.889  1.00  0.00     0.336 C 
ATOM     27  O   UNL     1      -3.677  -1.480   0.237  1.00  0.00    -0.246 OA
BRANCH  26  28
ATOM     28  O   UNL     1      -2.537  -0.816   2.050  1.00  0.00    -0.478 OA
ATOM     29  H   UNL     1      -2.571  -1.792   2.155  1.00  0.00     0.297 HD
ENDBRANCH  26  28
ENDBRANCH   6  26
TORSDOF 7
