REMARK SMILES Cc1ncc2n1[C@]2(NS(=O)(=O)Cc1cc(F)ccc1F)c1ccccc1NC1CC1
REMARK SMILES IDX 8 1 7 3 2 4 3 5 6 6 4 7 5 8 1 9 21 10 22 11 26 12 23 13
REMARK SMILES IDX 25 14 24 15 27 16 28 18 29 19 30 20 9 21 10 22 11 23 12 24
REMARK SMILES IDX 13 25 14 26 19 27 15 28 18 29 17 30 20 31 16 32
REMARK H PARENT 8 2 27 17
ROOT
ATOM      1  N   UNL     1       0.403  -0.826  -0.690  1.00  0.00    -0.180 NA
ATOM      2  H   UNL     1       0.829   0.097  -0.798  1.00  0.00     0.144 HD
ENDROOT
BRANCH   1   3
ATOM      3  C   UNL     1      -1.072  -0.820  -0.823  1.00  0.00     0.180 C 
ATOM      4  C   UNL     1      -1.445  -1.279   1.627  1.00  0.00     0.108 A 
ATOM      5  N   UNL     1      -1.389  -2.581   1.787  1.00  0.00    -0.241 NA
ATOM      6  N   UNL     1      -1.854  -0.987   0.363  1.00  0.00    -0.299 N 
ATOM      7  C   UNL     1      -1.805  -3.071   0.577  1.00  0.00     0.139 A 
ATOM      8  C   UNL     1      -1.846  -2.124  -0.426  1.00  0.00     0.087 A 
ATOM      9  C   UNL     1      -1.199  -0.231   2.642  1.00  0.00     0.088 C 
BRANCH   3  10
ATOM     10  C   UNL     1      -1.690   0.081  -1.876  1.00  0.00     0.023 A 
ATOM     11  C   UNL     1      -2.044  -0.446  -3.137  1.00  0.00     0.010 A 
ATOM     12  C   UNL     1      -1.931   1.464  -1.639  1.00  0.00     0.042 A 
ATOM     13  C   UNL     1      -2.649   0.337  -4.118  1.00  0.00     0.001 A 
ATOM     14  C   UNL     1      -2.581   2.226  -2.626  1.00  0.00     0.026 A 
ATOM     15  C   UNL     1      -2.926   1.671  -3.858  1.00  0.00     0.002 A 
BRANCH  12  16
ATOM     16  N   UNL     1      -1.611   2.021  -0.367  1.00  0.00    -0.382 N 
ATOM     17  H   UNL     1      -0.750   1.628   0.002  1.00  0.00     0.160 HD
BRANCH  16  18
ATOM     18  C   UNL     1      -1.823   3.438  -0.071  1.00  0.00     0.079 C 
ATOM     19  C   UNL     1      -0.985   4.122   0.974  1.00  0.00     0.027 C 
ATOM     20  C   UNL     1      -0.820   4.480  -0.474  1.00  0.00     0.027 C 
ENDBRANCH  16  18
ENDBRANCH  12  16
ENDBRANCH   3  10
ENDBRANCH   1   3
BRANCH   1  21
ATOM     21  S   UNL     1       1.254  -1.894  -1.685  1.00  0.00     0.218 S 
ATOM     22  O   UNL     1       0.326  -2.669  -2.480  1.00  0.00    -0.212 OA
ATOM     23  O   UNL     1       2.256  -1.070  -2.329  1.00  0.00    -0.212 OA
BRANCH  21  24
ATOM     24  C   UNL     1       2.037  -3.000  -0.498  1.00  0.00     0.192 C 
BRANCH  24  25
ATOM     25  C   UNL     1       2.864  -2.225   0.489  1.00  0.00     0.007 A 
ATOM     26  C   UNL     1       2.353  -1.877   1.748  1.00  0.00     0.047 A 
ATOM     27  C   UNL     1       4.167  -1.831   0.168  1.00  0.00     0.127 A 
ATOM     28  C   UNL     1       3.129  -1.130   2.631  1.00  0.00     0.123 A 
ATOM     29  C   UNL     1       4.943  -1.089   1.056  1.00  0.00     0.042 A 
ATOM     30  C   UNL     1       4.418  -0.731   2.296  1.00  0.00     0.042 A 
ATOM     31  F   UNL     1       4.696  -2.184  -1.011  1.00  0.00    -0.207 F 
ATOM     32  F   UNL     1       2.620  -0.784   3.821  1.00  0.00    -0.207 F 
ENDBRANCH  24  25
ENDBRANCH  21  24
ENDBRANCH   1  21
TORSDOF 7
