MODEL        8USER    Run = 8USERUSER    Estimated Free Energy of Binding    =  -8.39 kcal/mol  [=(1)+(2)+(3)-(4)]USERUSER    (1) Final Intermolecular Energy     =  -9.58 kcal/molUSER        vdW + Hbond + desolv Energy     =  -9.55 kcal/molUSER        Electrostatic Energy            =  -0.03 kcal/molUSER        Moving Ligand-Fixed Receptor    =  -9.58 kcal/molUSER        Moving Ligand-Moving Receptor   =  +0.00 kcal/molUSER    (2) Final Total Internal Energy     =  -1.21 kcal/molUSER    (3) Torsional Free Energy           =  +1.19 kcal/molUSER    (4) Unbound System's Energy         =  -1.21 kcal/molUSERUSERREMARK SMILES Cc1ccc([C@@]2(NS(=O)(=O)c3cc(F)ccc3F)c3cnc(C)n32)cc1REMARK SMILES IDX 7 1 6 3 19 4 24 5 20 6 22 7 21 8 23 9 5 10 2 11 3 12 26 13REMARK SMILES IDX 4 14 25 15 1 16 8 17 9 18 10 19 11 20 12 21 17 22 13 23REMARK SMILES IDX 16 24 15 25 18 26 14 27REMARK H PARENT 7 2USER                              x       y       z     vdW  Elec       q    TypeUSER                           _______ _______ _______ _____ _____    ______ ____ROOTATOM      1  N   UNL     1      35.507  46.638  16.033 -0.22 +0.20    -0.176 NA ATOM      2  H   UNL     1      35.407  46.935  17.004 +0.03 -0.18    +0.144 HD ENDROOTBRANCH   1   3ATOM      3  C   UNL     1      36.779  46.929  15.350 -0.33 -0.13    +0.179 C  ATOM      4  C   UNL     1      36.800  47.936  14.304 -0.42 -0.06    +0.087 A  ATOM      5  N   UNL     1      36.856  46.498  14.007 -0.21 +0.15    -0.299 N  ATOM      6  C   UNL     1      36.792  48.494  13.067 -0.30 -0.05    +0.139 A  ATOM      7  C   UNL     1      36.847  46.455  12.662 -0.53 -0.04    +0.108 A  ATOM      8  N   UNL     1      36.761  47.606  12.060 -0.95 +0.08    -0.241 NA ATOM      9  C   UNL     1      36.938  45.141  11.971 -0.53 -0.03    +0.088 C  BRANCH   3  10ATOM     10  C   UNL     1      38.046  46.707  16.160 -0.40 +0.00    -0.000 A  ATOM     11  C   UNL     1      40.399  46.288  17.709 -0.45 +0.01    -0.051 A  ATOM     12  C   UNL     1      40.447  47.035  16.530 -0.49 -0.00    +0.004 A  ATOM     13  C   UNL     1      39.178  45.742  18.110 -0.42 -0.00    +0.004 A  ATOM     14  C   UNL     1      39.286  47.247  15.777 -0.47 -0.00    +0.008 A  ATOM     15  C   UNL     1      38.022  45.957  17.353 -0.37 -0.00    +0.008 A  ATOM     16  C   UNL     1      41.646  46.036  18.502 -0.50 +0.00    +0.044 C  ENDBRANCH   3  10ENDBRANCH   1   3BRANCH   1  17ATOM     17  S   UNL     1      34.752  45.163  15.740 -0.32 -0.17    +0.246 S  ATOM     18  O   UNL     1      33.399  45.452  15.319 -0.30 +0.19    -0.207 OA ATOM     19  O   UNL     1      35.629  44.338  14.938 -0.26 +0.09    -0.207 OA BRANCH  17  20ATOM     20  C   UNL     1      34.631  44.420  17.330 -0.22 -0.05    +0.121 A  ATOM     21  C   UNL     1      33.527  44.674  18.147 -0.32 -0.02    +0.064 A  ATOM     22  C   UNL     1      35.646  43.568  17.755 -0.23 -0.04    +0.143 A  ATOM     23  C   UNL     1      33.462  44.056  19.390 -0.35 -0.02    +0.124 A  ATOM     24  C   UNL     1      35.571  42.953  19.002 -0.36 -0.01    +0.044 A  ATOM     25  C   UNL     1      34.472  43.199  19.826 -0.39 -0.00    +0.042 A  ATOM     26  F   UNL     1      36.694  43.298  16.963 -0.05 +0.06    -0.206 F  ATOM     27  F   UNL     1      32.409  44.284  20.184 -0.19 +0.01    -0.207 F  ENDBRANCH  17  20ENDBRANCH   1  17TORSDOF 4TERENDMDL