MODEL        6USER    Run = 6USERUSER    Estimated Free Energy of Binding    =  -8.55 kcal/mol  [=(1)+(2)+(3)-(4)]USERUSER    (1) Final Intermolecular Energy     = -10.64 kcal/molUSER        vdW + Hbond + desolv Energy     = -10.58 kcal/molUSER        Electrostatic Energy            =  -0.05 kcal/molUSER        Moving Ligand-Fixed Receptor    = -10.64 kcal/molUSER        Moving Ligand-Moving Receptor   =  +0.00 kcal/molUSER    (2) Final Total Internal Energy     =  -3.40 kcal/molUSER    (3) Torsional Free Energy           =  +2.09 kcal/molUSER    (4) Unbound System's Energy         =  -3.40 kcal/molUSERUSERREMARK SMILES Cc1ncc2n1[C@]2(NS(=O)(=O)Cc1cc(F)ccc1F)c1ccccc1NC1CC1REMARK SMILES IDX 8 1 7 3 2 4 3 5 6 6 4 7 5 8 1 9 21 10 22 11 26 12 23 13REMARK SMILES IDX 25 14 24 15 27 16 28 18 29 19 30 20 9 21 10 22 11 23 12 24REMARK SMILES IDX 13 25 14 26 19 27 15 28 18 29 17 30 20 31 16 32REMARK H PARENT 8 2 27 17USER                              x       y       z     vdW  Elec       q    TypeUSER                           _______ _______ _______ _____ _____    ______ ____ROOTATOM      1  N   UNL     1      36.710  46.908  15.800 -0.28 +0.14    -0.180 NA ATOM      2  H   UNL     1      36.706  47.695  16.453 +0.07 -0.15    +0.144 HD ENDROOTBRANCH   1   3ATOM      3  C   UNL     1      37.904  46.869  14.924 -0.36 -0.08    +0.180 C  ATOM      4  C   UNL     1      36.535  46.747  12.811 -0.54 -0.05    +0.108 A  ATOM      5  N   UNL     1      36.252  45.480  12.610 -0.34 +0.10    -0.241 NA ATOM      6  N   UNL     1      37.698  46.853  13.509 -0.25 +0.10    -0.299 N  ATOM      7  C   UNL     1      37.302  44.820  13.191 -0.28 -0.04    +0.139 A  ATOM      8  C   UNL     1      38.088  45.618  13.997 -0.32 -0.03    +0.087 A  ATOM      9  C   UNL     1      35.798  47.929  12.315 -0.45 -0.05    +0.088 C  BRANCH   3  10ATOM     10  C   UNL     1      39.150  47.604  15.383 -0.49 -0.01    +0.023 A  ATOM     11  C   UNL     1      39.736  48.584  14.554 -0.50 -0.00    +0.010 A  ATOM     12  C   UNL     1      39.763  47.338  16.639 -0.46 -0.01    +0.042 A  ATOM     13  C   UNL     1      40.857  49.310  14.952 -0.64 -0.00    +0.001 A  ATOM     14  C   UNL     1      40.868  48.111  17.040 -0.50 -0.00    +0.026 A  ATOM     15  C   UNL     1      41.417  49.079  16.200 -0.43 -0.00    +0.002 A  BRANCH  12  16ATOM     16  N   UNL     1      39.180  46.374  17.512 -0.18 +0.08    -0.382 N  ATOM     17  H   UNL     1      38.246  46.118  17.207 +0.10 -0.05    +0.160 HD BRANCH  16  18ATOM     18  C   UNL     1      39.965  45.283  18.090 -0.43 -0.01    +0.079 C  ATOM     19  C   UNL     1      40.519  45.411  19.483 -0.47 +0.00    +0.027 C  ATOM     20  C   UNL     1      39.421  44.429  19.198 -0.40 -0.00    +0.027 C  ENDBRANCH  16  18ENDBRANCH  12  16ENDBRANCH   3  10ENDBRANCH   1   3BRANCH   1  21ATOM     21  S   UNL     1      36.370  45.512  16.689 -0.36 -0.11    +0.218 S  ATOM     22  O   UNL     1      37.245  44.439  16.271 -0.26 +0.07    -0.212 OA ATOM     23  O   UNL     1      36.362  45.953  18.068 -0.25 +0.08    -0.212 OA BRANCH  21  24ATOM     24  C   UNL     1      34.695  45.108  16.162 -0.24 -0.13    +0.192 C  BRANCH  24  25ATOM     25  C   UNL     1      34.019  44.218  17.167 -0.30 -0.00    +0.007 A  ATOM     26  C   UNL     1      33.902  42.837  16.950 -0.34 -0.02    +0.047 A  ATOM     27  C   UNL     1      33.488  44.754  18.345 -0.29 -0.04    +0.127 A  ATOM     28  C   UNL     1      33.242  42.041  17.883 -0.31 -0.04    +0.123 A  ATOM     29  C   UNL     1      32.834  43.953  19.279 -0.41 -0.00    +0.042 A  ATOM     30  C   UNL     1      32.705  42.585  19.044 -0.36 -0.00    +0.042 A  ATOM     31  F   UNL     1      33.621  46.062  18.599 -0.18 +0.12    -0.207 F  ATOM     32  F   UNL     1      33.116  40.727  17.652 -0.13 +0.08    -0.207 F  ENDBRANCH  24  25ENDBRANCH  21  24ENDBRANCH   1  21TORSDOF 7TERENDMDL