MODEL        3USER    Run = 3USERUSER    Estimated Free Energy of Binding    =  -8.76 kcal/mol  [=(1)+(2)+(3)-(4)]USERUSER    (1) Final Intermolecular Energy     = -11.74 kcal/molUSER        vdW + Hbond + desolv Energy     = -11.66 kcal/molUSER        Electrostatic Energy            =  -0.08 kcal/molUSER        Moving Ligand-Fixed Receptor    = -11.74 kcal/molUSER        Moving Ligand-Moving Receptor   =  +0.00 kcal/molUSER    (2) Final Total Internal Energy     =  -3.45 kcal/molUSER    (3) Torsional Free Energy           =  +2.98 kcal/molUSER    (4) Unbound System's Energy         =  -3.45 kcal/molUSERUSERREMARK SMILES C[C@H]1C[C@@H]1Nc1ccc(F)nc1-c1n[nH]cc1C(=O)N(CCO)Cc1ccc2c(c1)OCO2REMARK SMILES IDX 18 1 19 2 17 3 13 4 14 5 15 6 16 7 12 9 6 10 7 11 8 12 11 13REMARK SMILES IDX 9 14 10 15 5 16 4 18 2 19 3 20 1 21 20 22 21 23 22 24 23 25REMARK SMILES IDX 24 27 25 28 26 29 30 30 27 31 29 32 28 33 31 34 33 35 32 36REMARK H PARENT 15 8 5 17 23 26USER                              x       y       z     vdW  Elec       q    TypeUSER                           _______ _______ _______ _____ _____    ______ ____ROOTATOM      1  C   UNL     1      40.497  45.084  19.136 -0.32 +0.00    +0.258 C  ATOM      2  O   UNL     1      40.612  44.151  18.345 -0.30 -0.00    -0.269 OA ENDROOTBRANCH   1   3ATOM      3  C   UNL     1      41.226  46.319  18.907 -0.43 +0.00    +0.087 A  ATOM      4  C   UNL     1      41.014  47.294  17.884 -0.43 -0.01    +0.125 A  ATOM      5  N   UNL     1      41.958  48.260  17.948 -0.56 -0.00    -0.173 NA ATOM      6  N   UNL     1      42.738  47.901  18.979 -0.36 -0.01    -0.284 N  ATOM      7  C   UNL     1      42.352  46.746  19.581 -0.39 +0.02    +0.119 A  ATOM      8  H   UNL     1      43.531  48.493  19.210 -0.51 -0.03    +0.189 HD BRANCH   4   9ATOM      9  C   UNL     1      39.923  47.326  16.891 -0.41 -0.03    +0.118 A  ATOM     10  C   UNL     1      40.082  47.946  15.629 -0.50 -0.02    +0.063 A  ATOM     11  C   UNL     1      38.984  47.892  14.763 -0.49 -0.01    +0.033 A  ATOM     12  C   UNL     1      37.794  47.300  15.176 -0.40 -0.03    +0.062 A  ATOM     13  N   UNL     1      38.762  46.755  17.314 -0.28 +0.07    -0.216 NA ATOM     14  C   UNL     1      37.737  46.759  16.444 -0.23 -0.11    +0.213 A  ATOM     15  F   UNL     1      36.587  46.197  16.843 -0.09 +0.11    -0.185 F  BRANCH  10  16ATOM     16  N   UNL     1      41.326  48.490  15.208 -0.19 +0.02    -0.380 N  ATOM     17  H   UNL     1      42.003  48.402  15.980 -0.03 +0.02    +0.160 HD BRANCH  16  18ATOM     18  C   UNL     1      41.395  49.726  14.431 -0.67 -0.02    +0.082 C  ATOM     19  C   UNL     1      42.630  50.086  13.649 -0.73 -0.00    +0.010 C  ATOM     20  C   UNL     1      42.291  50.843  14.902 -0.53 -0.00    +0.030 C  ATOM     21  C   UNL     1      42.513  50.746  12.319 -0.71 -0.00    +0.010 C  ENDBRANCH  16  18ENDBRANCH  10  16ENDBRANCH   4   9ENDBRANCH   1   3BRANCH   1  22ATOM     22  N   UNL     1      39.726  44.992  20.299 -0.17 -0.00    -0.332 N  BRANCH  22  23ATOM     23  C   UNL     1      38.260  45.056  20.322 -0.21 -0.00    +0.148 C  BRANCH  23  24ATOM     24  C   UNL     1      37.572  43.951  19.510 -0.26 -0.01    +0.177 C  BRANCH  24  25ATOM     25  O   UNL     1      37.724  44.211  18.115 -0.13 +0.07    -0.395 OA ATOM     26  H   UNL     1      38.550  44.718  18.016 +0.13 -0.03    +0.210 HD ENDBRANCH  24  25ENDBRANCH  23  24ENDBRANCH  22  23BRANCH  22  27ATOM     27  C   UNL     1      40.398  44.582  21.531 -0.25 +0.01    +0.155 C  BRANCH  27  28ATOM     28  C   UNL     1      39.443  44.324  22.672 -0.24 -0.00    -0.025 A  ATOM     29  C   UNL     1      39.110  42.998  23.030 -0.28 +0.00    +0.009 A  ATOM     30  C   UNL     1      38.862  45.396  23.372 -0.26 +0.00    +0.056 A  ATOM     31  C   UNL     1      38.209  42.734  24.068 -0.27 +0.00    +0.051 A  ATOM     32  C   UNL     1      37.976  45.104  24.388 -0.21 +0.02    +0.166 A  ATOM     33  C   UNL     1      37.659  43.810  24.727 -0.21 +0.01    +0.165 A  ATOM     34  O   UNL     1      37.320  46.017  25.153 -0.69 -0.06    -0.454 OA ATOM     35  O   UNL     1      36.768  43.746  25.751 -0.11 +0.02    -0.454 OA ATOM     36  C   UNL     1      36.566  45.148  26.025 +0.04 -0.06    +0.468 C  ENDBRANCH  27  28ENDBRANCH  22  27ENDBRANCH   1  22TORSDOF 10TERENDMDL