REMARK SMILES C[C@H]1C[C@@H]1Nc1ccc(F)nc1-c1n[nH]cc1C(=O)N(CCO)Cc1ccc2c(c1)OCO2
REMARK SMILES IDX 18 1 19 2 17 3 13 4 14 5 15 6 16 7 12 9 6 10 7 11 8 12 11 13
REMARK SMILES IDX 9 14 10 15 5 16 4 18 2 19 3 20 1 21 20 22 21 23 22 24 23 25
REMARK SMILES IDX 24 27 25 28 26 29 30 30 27 31 29 32 28 33 31 34 33 35 32 36
REMARK H PARENT 15 8 5 17 23 26
ROOT
ATOM      1  C   UNL     1      -0.780  -1.502  -1.593  1.00  0.00     0.258 C 
ATOM      2  O   UNL     1      -0.492  -0.812  -2.568  1.00  0.00    -0.269 OA
ENDROOT
BRANCH   1   3
ATOM      3  C   UNL     1       0.270  -2.173  -0.848  1.00  0.00     0.087 A 
ATOM      4  C   UNL     1       1.352  -1.587  -0.123  1.00  0.00     0.125 A 
ATOM      5  N   UNL     1       2.173  -2.546   0.361  1.00  0.00    -0.173 NA
ATOM      6  N   UNL     1       1.622  -3.699  -0.049  1.00  0.00    -0.284 N 
ATOM      7  C   UNL     1       0.490  -3.534  -0.782  1.00  0.00     0.119 A 
ATOM      8  H   UNL     1       2.084  -4.568   0.202  1.00  0.00     0.189 HD
BRANCH   4   9
ATOM      9  C   UNL     1       1.585  -0.152   0.133  1.00  0.00     0.118 A 
ATOM     10  C   UNL     1       2.885   0.368   0.336  1.00  0.00     0.063 A 
ATOM     11  C   UNL     1       2.981   1.748   0.547  1.00  0.00     0.033 A 
ATOM     12  C   UNL     1       1.831   2.530   0.604  1.00  0.00     0.062 A 
ATOM     13  N   UNL     1       0.450   0.597   0.199  1.00  0.00    -0.216 NA
ATOM     14  C   UNL     1       0.609   1.912   0.430  1.00  0.00     0.213 A 
ATOM     15  F   UNL     1      -0.498   2.666   0.494  1.00  0.00    -0.185 F 
BRANCH  10  16
ATOM     16  N   UNL     1       4.047  -0.441   0.213  1.00  0.00    -0.380 N 
ATOM     17  H   UNL     1       3.779  -1.427   0.346  1.00  0.00     0.160 HD
BRANCH  16  18
ATOM     18  C   UNL     1       5.324  -0.038   0.800  1.00  0.00     0.082 C 
ATOM     19  C   UNL     1       6.332   0.750   0.006  1.00  0.00     0.010 C 
ATOM     20  C   UNL     1       6.594  -0.695   0.324  1.00  0.00     0.030 C 
ATOM     21  C   UNL     1       7.136   1.820   0.660  1.00  0.00     0.010 C 
ENDBRANCH  16  18
ENDBRANCH  10  16
ENDBRANCH   4   9
ENDBRANCH   1   3
BRANCH   1  22
ATOM     22  N   UNL     1      -2.102  -1.721  -1.192  1.00  0.00    -0.332 N 
BRANCH  22  23
ATOM     23  C   UNL     1      -2.484  -2.323   0.091  1.00  0.00     0.148 C 
BRANCH  23  24
ATOM     24  C   UNL     1      -2.189  -1.440   1.310  1.00  0.00     0.177 C 
BRANCH  24  25
ATOM     25  O   UNL     1      -3.120  -1.728   2.353  1.00  0.00    -0.395 OA
ATOM     26  H   UNL     1      -3.913  -1.192   2.171  1.00  0.00     0.210 HD
ENDBRANCH  24  25
ENDBRANCH  23  24
ENDBRANCH  22  23
BRANCH  22  27
ATOM     27  C   UNL     1      -3.165  -1.112  -1.989  1.00  0.00     0.155 C 
BRANCH  27  28
ATOM     28  C   UNL     1      -3.779   0.103  -1.333  1.00  0.00    -0.025 A 
ATOM     29  C   UNL     1      -3.057   1.317  -1.276  1.00  0.00     0.009 A 
ATOM     30  C   UNL     1      -5.059   0.031  -0.757  1.00  0.00     0.056 A 
ATOM     31  C   UNL     1      -3.595   2.448  -0.653  1.00  0.00     0.051 A 
ATOM     32  C   UNL     1      -5.561   1.162  -0.148  1.00  0.00     0.166 A 
ATOM     33  C   UNL     1      -4.850   2.338  -0.098  1.00  0.00     0.165 A 
ATOM     34  O   UNL     1      -6.771   1.261   0.464  1.00  0.00    -0.454 OA
ATOM     35  O   UNL     1      -5.525   3.325   0.548  1.00  0.00    -0.454 OA
ATOM     36  C   UNL     1      -6.747   2.640   0.891  1.00  0.00     0.468 C 
ENDBRANCH  27  28
ENDBRANCH  22  27
ENDBRANCH   1  22
TORSDOF 10
