REMARK SMILES Cc1ccc([C@@]2(NS(=O)(=O)c3cc(F)ccc3F)c3cnc(C)n32)cc1
REMARK SMILES IDX 7 1 6 3 19 4 24 5 20 6 22 7 21 8 23 9 5 10 2 11 3 12 26 13
REMARK SMILES IDX 4 14 25 15 1 16 8 17 9 18 10 19 11 20 12 21 17 22 13 23
REMARK SMILES IDX 16 24 15 25 18 26 14 27
REMARK H PARENT 7 2
ROOT
ATOM      1  N   UNL     1       0.374  -0.897   1.428  1.00  0.00    -0.176 NA
ATOM      2  H   UNL     1       0.758  -0.549   2.307  1.00  0.00     0.144 HD
ENDROOT
BRANCH   1   3
ATOM      3  C   UNL     1      -0.285   0.070   0.533  1.00  0.00     0.179 C 
ATOM      4  C   UNL     1       0.539   0.953  -0.274  1.00  0.00     0.087 A 
ATOM      5  N   UNL     1      -0.174   1.424   0.921  1.00  0.00    -0.299 N 
ATOM      6  C   UNL     1       1.205   2.063  -0.678  1.00  0.00     0.139 A 
ATOM      7  C   UNL     1       0.209   2.709   1.029  1.00  0.00     0.108 A 
ATOM      8  N   UNL     1       1.061   3.122   0.136  1.00  0.00    -0.241 NA
ATOM      9  C   UNL     1      -0.350   3.551   2.120  1.00  0.00     0.088 C 
BRANCH   3  10
ATOM     10  C   UNL     1      -1.652  -0.327  -0.001  1.00  0.00    -0.000 A 
ATOM     11  C   UNL     1      -4.222  -1.081  -0.967  1.00  0.00    -0.051 A 
ATOM     12  C   UNL     1      -3.109  -1.108  -1.810  1.00  0.00     0.004 A 
ATOM     13  C   UNL     1      -4.054  -0.669   0.356  1.00  0.00     0.004 A 
ATOM     14  C   UNL     1      -1.846  -0.746  -1.329  1.00  0.00     0.008 A 
ATOM     15  C   UNL     1      -2.789  -0.309   0.831  1.00  0.00     0.008 A 
ATOM     16  C   UNL     1      -5.581  -1.442  -1.488  1.00  0.00     0.044 C 
ENDBRANCH   3  10
ENDBRANCH   1   3
BRANCH   1  17
ATOM     17  S   UNL     1       1.332  -2.102   0.750  1.00  0.00     0.246 S 
ATOM     18  O   UNL     1       1.715  -2.996   1.820  1.00  0.00    -0.207 OA
ATOM     19  O   UNL     1       0.688  -2.595  -0.448  1.00  0.00    -0.207 OA
BRANCH  17  20
ATOM     20  C   UNL     1       2.796  -1.259   0.257  1.00  0.00     0.121 A 
ATOM     21  C   UNL     1       3.298  -1.412  -1.037  1.00  0.00     0.064 A 
ATOM     22  C   UNL     1       3.437  -0.430   1.172  1.00  0.00     0.143 A 
ATOM     23  C   UNL     1       4.448  -0.718  -1.392  1.00  0.00     0.124 A 
ATOM     24  C   UNL     1       4.588   0.263   0.807  1.00  0.00     0.044 A 
ATOM     25  C   UNL     1       5.098   0.117  -0.484  1.00  0.00     0.042 A 
ATOM     26  F   UNL     1       2.943  -0.256   2.407  1.00  0.00    -0.206 F 
ATOM     27  F   UNL     1       4.940  -0.849  -2.630  1.00  0.00    -0.207 F 
ENDBRANCH  17  20
ENDBRANCH   1  17
TORSDOF 4
