MODEL        6USER    Run = 6USERUSER    Estimated Free Energy of Binding    =  -8.91 kcal/mol  [=(1)+(2)+(3)-(4)]USERUSER    (1) Final Intermolecular Energy     = -10.41 kcal/molUSER        vdW + Hbond + desolv Energy     = -10.23 kcal/molUSER        Electrostatic Energy            =  -0.17 kcal/molUSER        Moving Ligand-Fixed Receptor    = -10.41 kcal/molUSER        Moving Ligand-Moving Receptor   =  +0.00 kcal/molUSER    (2) Final Total Internal Energy     =  -1.75 kcal/molUSER    (3) Torsional Free Energy           =  +1.49 kcal/molUSER    (4) Unbound System's Energy         =  -1.75 kcal/molUSERUSERREMARK SMILES Cc1ncccc1NC(=O)c1ccc(F)c(-c2n[nH]c3cc(O)ccc23)c1NREMARK SMILES IDX 11 1 12 2 13 3 14 4 15 5 16 6 27 7 9 8 8 9 10 11 7 12 2 13REMARK SMILES IDX 3 14 4 15 6 16 5 17 1 18 28 19 17 22 18 23 26 24 19 25 25 26REMARK SMILES IDX 20 27 24 28 21 29 22 30 23 32REMARK H PARENT 8 10 28 20 28 21 19 31 23 33USER                              x       y       z     vdW  Elec       q    TypeUSER                           _______ _______ _______ _____ _____    ______ ____ROOTATOM      1  C   UNL     1      40.352  45.965  18.423 -0.43 -0.00    +0.064 A  ATOM      2  C   UNL     1      39.528  45.062  19.112 -0.40 -0.00    +0.019 A  ATOM      3  C   UNL     1      39.749  44.824  20.463 -0.34 +0.00    +0.041 A  ATOM      4  C   UNL     1      40.793  45.475  21.116 -0.25 +0.01    +0.134 A  ATOM      5  F   UNL     1      40.953  45.225  22.425 -0.03 -0.02    -0.206 F  ATOM      6  C   UNL     1      41.648  46.366  20.445 -0.30 +0.01    +0.062 A  ATOM      7  C   UNL     1      41.434  46.612  19.063 -0.45 +0.00    +0.057 A  ENDROOTBRANCH   1   8ATOM      8  C   UNL     1      40.083  46.206  16.979 -0.33 -0.03    +0.257 C  ATOM      9  N   UNL     1      38.762  46.499  16.692 -0.20 +0.10    -0.320 N  ATOM     10  H   UNL     1      38.158  46.642  17.490 +0.09 -0.06    +0.170 HD ATOM     11  O   UNL     1      41.022  46.139  16.194 -0.27 -0.01    -0.269 OA BRANCH   9  12ATOM     12  C   UNL     1      38.187  46.725  15.418 -0.37 -0.03    +0.062 A  ATOM     13  C   UNL     1      38.575  47.844  14.655 -0.47 -0.03    +0.061 A  ATOM     14  N   UNL     1      38.054  48.129  13.432 -0.65 +0.07    -0.259 NA ATOM     15  C   UNL     1      37.124  47.286  12.939 -0.52 -0.04    +0.111 A  ATOM     16  C   UNL     1      37.217  45.888  14.865 -0.37 -0.01    +0.029 A  ATOM     17  C   UNL     1      36.678  46.166  13.610 -0.47 -0.01    +0.022 A  ATOM     18  C   UNL     1      39.610  48.818  15.140 -0.54 -0.03    +0.069 C  ENDBRANCH   9  12ENDBRANCH   1   8BRANCH   7  19ATOM     19  N   UNL     1      42.148  47.618  18.377 -0.30 +0.01    -0.397 N  ATOM     20  H   UNL     1      42.312  47.411  17.390 -0.46 -0.03    +0.156 HD ATOM     21  H   UNL     1      42.968  47.961  18.879 -0.05 +0.00    +0.156 HD ENDBRANCH   7  19BRANCH   6  22ATOM     22  C   UNL     1      42.766  46.973  21.179 -0.31 +0.02    +0.105 A  ATOM     23  N   UNL     1      44.011  46.987  20.669 -0.46 -0.12    -0.174 NA ATOM     24  C   UNL     1      42.750  47.562  22.487 -0.31 +0.00    +0.028 A  ATOM     25  N   UNL     1      44.746  47.627  21.591 -0.10 -0.16    -0.277 N  ATOM     26  C   UNL     1      41.791  47.778  23.500 -0.29 +0.00    +0.016 A  ATOM     27  C   UNL     1      44.058  47.978  22.716 -0.25 +0.02    +0.069 A  ATOM     28  C   UNL     1      42.177  48.411  24.689 -0.30 +0.01    +0.047 A  ATOM     29  C   UNL     1      44.468  48.614  23.891 -0.21 +0.02    +0.074 A  ATOM     30  C   UNL     1      43.495  48.819  24.868 -0.26 +0.02    +0.117 A  ATOM     31  H   UNL     1      45.729  47.782  21.398 -0.04 +0.20    +0.190 HD BRANCH  30  32ATOM     32  O   UNL     1      43.891  49.439  26.018 -0.11 -0.02    -0.508 OA ATOM     33  H   UNL     1      43.313  50.203  26.174 -0.51 -0.06    +0.293 HD ENDBRANCH  30  32ENDBRANCH   6  22TORSDOF 5TERENDMDL