REMARK SMILES Cc1ccccc1CNC(=O)[C@H](C)Nc1nc(-c2ccc(F)cc2)cs1
REMARK SMILES IDX 12 1 13 2 10 3 9 4 11 6 8 7 7 8 2 9 3 10 4 11 6 12 5 13 1 14
REMARK SMILES IDX 14 15 15 17 16 18 26 19 17 20 25 21 18 22 19 23 24 24 20 25
REMARK SMILES IDX 23 26 21 27 22 28
REMARK H PARENT 9 5 14 16
ROOT
ATOM      1  C   UNL     1      -0.187   0.472   0.228  1.00  0.00     0.167 C 
ATOM      2  C   UNL     1      -0.088   1.960   0.553  1.00  0.00     0.041 C 
ENDROOT
BRANCH   1   3
ATOM      3  C   UNL     1      -1.291   0.288  -0.839  1.00  0.00     0.242 C 
ATOM      4  N   UNL     1      -2.573   0.235  -0.334  1.00  0.00    -0.350 N 
ATOM      5  H   UNL     1      -2.717   0.108   0.659  1.00  0.00     0.163 HD
ATOM      6  O   UNL     1      -1.049   0.238  -2.044  1.00  0.00    -0.273 OA
BRANCH   4   7
ATOM      7  C   UNL     1      -3.699   0.007  -1.210  1.00  0.00     0.152 C 
BRANCH   7   8
ATOM      8  C   UNL     1      -4.995   0.131  -0.448  1.00  0.00    -0.026 A 
ATOM      9  C   UNL     1      -5.599  -0.967   0.200  1.00  0.00    -0.046 A 
ATOM     10  C   UNL     1      -6.795  -0.770   0.910  1.00  0.00     0.004 A 
ATOM     11  C   UNL     1      -7.377   0.494   0.996  1.00  0.00     0.000 A 
ATOM     12  C   UNL     1      -5.590   1.401  -0.341  1.00  0.00     0.006 A 
ATOM     13  C   UNL     1      -6.773   1.581   0.373  1.00  0.00     0.000 A 
ATOM     14  C   UNL     1      -5.010  -2.349   0.135  1.00  0.00     0.044 C 
ENDBRANCH   7   8
ENDBRANCH   4   7
ENDBRANCH   1   3
BRANCH   1  15
ATOM     15  N   UNL     1       1.072  -0.043  -0.300  1.00  0.00    -0.350 N 
ATOM     16  H   UNL     1       1.211   0.165  -1.289  1.00  0.00     0.163 HD
BRANCH  15  17
ATOM     17  C   UNL     1       2.199  -0.184   0.429  1.00  0.00     0.183 A 
ATOM     18  N   UNL     1       3.381  -0.151  -0.139  1.00  0.00    -0.220 NA
ATOM     19  S   UNL     1       2.239  -0.453   2.131  1.00  0.00    -0.105 S 
ATOM     20  C   UNL     1       4.394  -0.336   0.791  1.00  0.00     0.083 A 
ATOM     21  C   UNL     1       3.950  -0.508   2.086  1.00  0.00     0.097 A 
BRANCH  20  22
ATOM     22  C   UNL     1       5.797  -0.319   0.383  1.00  0.00     0.001 A 
ATOM     23  C   UNL     1       6.143   0.241  -0.859  1.00  0.00     0.013 A 
ATOM     24  C   UNL     1       6.819  -0.853   1.187  1.00  0.00     0.013 A 
ATOM     25  C   UNL     1       7.473   0.279  -1.284  1.00  0.00     0.040 A 
ATOM     26  C   UNL     1       8.151  -0.815   0.760  1.00  0.00     0.040 A 
ATOM     27  C   UNL     1       8.465  -0.249  -0.468  1.00  0.00     0.123 A 
ATOM     28  F   UNL     1       9.742  -0.214  -0.872  1.00  0.00    -0.207 F 
ENDBRANCH  20  22
ENDBRANCH  15  17
ENDBRANCH   1  15
TORSDOF 6
