REMARK SMILES O=C(O)CCCCNc1nccc(-c2c[nH]c3ccccc23)n1
REMARK SMILES IDX 6 1 5 2 4 3 2 4 1 5 3 6 7 8 8 9 9 11 10 12 23 13 11 14 13 15
REMARK SMILES IDX 12 16 14 17 15 18 22 19 16 20 21 21 17 22 20 23 18 24 19 25
REMARK H PARENT 3 7 8 10 16 26
ROOT
ATOM      1  C   UNL     1       2.954   0.865   0.774  1.00  0.00     0.022 C 
ENDROOT
BRANCH   1   2
ATOM      2  C   UNL     1       3.928  -0.144   1.396  1.00  0.00     0.013 C 
BRANCH   2   3
ATOM      3  C   UNL     1       5.262   0.495   1.775  1.00  0.00     0.122 C 
BRANCH   3   4
ATOM      4  C   UNL     1       6.056   0.944   0.580  1.00  0.00     0.303 C 
ATOM      5  O   UNL     1       6.412   2.086   0.342  1.00  0.00    -0.252 OA
BRANCH   4   6
ATOM      6  O   UNL     1       6.389  -0.068  -0.242  1.00  0.00    -0.481 OA
ATOM      7  H   UNL     1       6.890   0.366  -0.964  1.00  0.00     0.296 HD
ENDBRANCH   4   6
ENDBRANCH   3   4
ENDBRANCH   2   3
ENDBRANCH   1   2
BRANCH   1   8
ATOM      8  C   UNL     1       1.578   0.260   0.481  1.00  0.00     0.116 C 
BRANCH   8   9
ATOM      9  N   UNL     1       1.659  -0.659  -0.639  1.00  0.00    -0.354 N 
ATOM     10  H   UNL     1       2.349  -1.398  -0.571  1.00  0.00     0.163 HD
BRANCH   9  11
ATOM     11  C   UNL     1       0.466  -1.300  -0.950  1.00  0.00     0.223 A 
ATOM     12  N   UNL     1       0.595  -2.540  -1.436  1.00  0.00    -0.222 NA
ATOM     13  N   UNL     1      -0.708  -0.691  -0.753  1.00  0.00    -0.213 NA
ATOM     14  C   UNL     1      -0.539  -3.186  -1.759  1.00  0.00     0.117 A 
ATOM     15  C   UNL     1      -1.825  -1.367  -1.093  1.00  0.00     0.078 A 
ATOM     16  C   UNL     1      -1.789  -2.643  -1.610  1.00  0.00     0.049 A 
BRANCH  15  17
ATOM     17  C   UNL     1      -3.087  -0.665  -0.873  1.00  0.00     0.026 A 
ATOM     18  C   UNL     1      -4.225  -0.867  -1.635  1.00  0.00     0.093 A 
ATOM     19  C   UNL     1      -3.414   0.341   0.098  1.00  0.00     0.009 A 
ATOM     20  N   UNL     1      -5.211  -0.040  -1.165  1.00  0.00    -0.360 N 
ATOM     21  C   UNL     1      -2.707   0.975   1.142  1.00  0.00     0.011 A 
ATOM     22  C   UNL     1      -4.747   0.703  -0.106  1.00  0.00     0.046 A 
ATOM     23  C   UNL     1      -3.346   1.938   1.932  1.00  0.00     0.001 A 
ATOM     24  C   UNL     1      -5.403   1.664   0.674  1.00  0.00     0.027 A 
ATOM     25  C   UNL     1      -4.676   2.275   1.699  1.00  0.00     0.002 A 
ATOM     26  H   UNL     1      -6.145   0.028  -1.544  1.00  0.00     0.166 HD
ENDBRANCH  15  17
ENDBRANCH   9  11
ENDBRANCH   8   9
ENDBRANCH   1   8
TORSDOF 8
