REMARK SMILES Cc1cc(Nc2cc(N3CCC[C@H](Cl)C3)c(CCO)c(C)n2)n[nH]1
REMARK SMILES IDX 6 1 7 2 8 3 16 4 20 5 21 6 22 7 5 8 4 10 2 11 3 12 24 13
REMARK SMILES IDX 23 14 1 15 9 17 10 18 15 19 11 20 13 21 12 22 14 23 17 24
REMARK SMILES IDX 18 25 19 26
REMARK H PARENT 5 9 24 16 19 27
ROOT
ATOM      1  C   UNL     1       1.682  -0.738  -0.607  1.00  0.00     0.133 A 
ATOM      2  C   UNL     1       0.622   0.051  -0.203  1.00  0.00     0.073 A 
ATOM      3  C   UNL     1      -0.706  -0.383  -0.360  1.00  0.00     0.045 A 
ATOM      4  C   UNL     1      -0.939  -1.646  -0.934  1.00  0.00    -0.001 A 
ATOM      5  C   UNL     1       0.194  -2.372  -1.353  1.00  0.00     0.045 A 
ATOM      6  C   UNL     1       0.099  -3.690  -2.070  1.00  0.00     0.067 C 
ATOM      7  N   UNL     1       1.469  -1.937  -1.181  1.00  0.00    -0.236 NA
ENDROOT
BRANCH   1   8
ATOM      8  N   UNL     1       3.025  -0.389  -0.482  1.00  0.00    -0.323 N 
ATOM      9  H   UNL     1       3.566  -1.159  -0.855  1.00  0.00     0.170 HD
BRANCH   8  10
ATOM     10  C   UNL     1       3.652   0.699   0.006  1.00  0.00     0.153 A 
ATOM     11  C   UNL     1       5.369   2.005   0.578  1.00  0.00     0.034 A 
ATOM     12  C   UNL     1       5.069   0.781   0.021  1.00  0.00     0.071 A 
ATOM     13  N   UNL     1       4.160   2.572   0.857  1.00  0.00    -0.281 N 
ATOM     14  N   UNL     1       3.114   1.808   0.517  1.00  0.00    -0.158 NA
ATOM     15  C   UNL     1       6.652   2.678   0.869  1.00  0.00     0.066 C 
ATOM     16  H   UNL     1       3.973   3.477   1.276  1.00  0.00     0.190 HD
ENDBRANCH   8  10
ENDBRANCH   1   8
BRANCH   3  17
ATOM     17  N   UNL     1      -1.688   0.531   0.033  1.00  0.00    -0.370 N 
ATOM     18  C   UNL     1      -2.570   0.172   1.136  1.00  0.00     0.116 C 
ATOM     19  C   UNL     1      -2.249   1.352  -1.051  1.00  0.00     0.136 C 
ATOM     20  C   UNL     1      -3.021   1.452   1.848  1.00  0.00     0.023 C 
ATOM     21  C   UNL     1      -3.362   2.293  -0.550  1.00  0.00     0.100 C 
ATOM     22  C   UNL     1      -3.159   2.667   0.918  1.00  0.00     0.023 C 
ATOM     23  Cl  UNL     1      -4.986   1.554  -0.780  1.00  0.00    -0.121 Cl
ENDBRANCH   3  17
BRANCH   4  24
ATOM     24  C   UNL     1      -2.331  -2.210  -1.150  1.00  0.00     0.068 C 
BRANCH  24  25
ATOM     25  C   UNL     1      -2.712  -3.340  -0.185  1.00  0.00     0.161 C 
BRANCH  25  26
ATOM     26  O   UNL     1      -3.125  -2.835   1.079  1.00  0.00    -0.396 OA
ATOM     27  H   UNL     1      -3.268  -3.601   1.660  1.00  0.00     0.210 HD
ENDBRANCH  25  26
ENDBRANCH  24  25
ENDBRANCH   4  24
TORSDOF 6
