MODEL        3USER    Run = 3USERUSER    Estimated Free Energy of Binding    = -10.05 kcal/mol  [=(1)+(2)+(3)-(4)]USERUSER    (1) Final Intermolecular Energy     = -13.04 kcal/molUSER        vdW + Hbond + desolv Energy     = -12.77 kcal/molUSER        Electrostatic Energy            =  -0.27 kcal/molUSER        Moving Ligand-Fixed Receptor    = -13.04 kcal/molUSER        Moving Ligand-Moving Receptor   =  +0.00 kcal/molUSER    (2) Final Total Internal Energy     =  -1.94 kcal/molUSER    (3) Torsional Free Energy           =  +2.98 kcal/molUSER    (4) Unbound System's Energy         =  -1.94 kcal/molUSERUSERREMARK SMILES CCCCC(=CN=Cc1n[nH]cc1NC(=O)N1CCNC[C@H]1C)c1cccc(Cl)c1REMARK SMILES IDX 6 1 5 2 4 3 3 4 2 5 1 6 24 7 25 8 30 9 26 10 28 11 27 12REMARK SMILES IDX 29 13 7 14 8 15 9 16 10 17 13 18 11 19 12 20 14 22 15 23REMARK SMILES IDX 16 25 17 26 18 27 22 28 19 29 21 30 20 31 23 32REMARK H PARENT 11 21 14 24 20 33USER                              x       y       z     vdW  Elec       q    TypeUSER                           _______ _______ _______ _____ _____    ______ ____ROOTATOM      1  C   UNL     1      40.318  46.773  15.163 -0.43 -0.01    +0.115 C  ENDROOTBRANCH   1   2ATOM      2  C   UNL     1      40.515  47.603  16.206 -0.58 +0.00    -0.022 C  BRANCH   2   3ATOM      3  C   UNL     1      40.476  49.106  16.035 -0.62 -0.01    +0.038 C  BRANCH   3   4ATOM      4  C   UNL     1      40.807  49.529  14.597 -0.60 -0.00    +0.005 C  BRANCH   4   5ATOM      5  C   UNL     1      42.123  50.302  14.484 -0.75 +0.00    -0.003 C  ATOM      6  C   UNL     1      42.798  50.161  13.132 -0.76 -0.00    +0.004 C  ENDBRANCH   4   5ENDBRANCH   3   4ENDBRANCH   2   3BRANCH   2   7ATOM      7  C   UNL     1      40.740  47.088  17.573 -0.51 +0.00    -0.019 A  ATOM      8  C   UNL     1      41.901  47.430  18.278 -0.51 -0.00    +0.008 A  ATOM      9  C   UNL     1      39.794  46.251  18.182 -0.43 -0.00    +0.029 A  ATOM     10  C   UNL     1      42.117  46.948  19.571 -0.45 +0.00    +0.002 A  ATOM     11  C   UNL     1      40.015  45.770  19.470 -0.38 -0.00    +0.041 A  ATOM     12  C   UNL     1      41.171  46.113  20.167 -0.35 +0.00    +0.020 A  ATOM     13  Cl  UNL     1      38.847  44.736  20.209 -0.51 +0.00    -0.084 Cl ENDBRANCH   2   7ENDBRANCH   1   2BRANCH   1  14ATOM     14  N   UNL     1      39.423  45.739  15.143 -0.14 +0.05    -0.262 NA BRANCH  14  15ATOM     15  C   UNL     1      38.634  45.553  14.118 -0.23 -0.03    +0.143 C  BRANCH  15  16ATOM     16  C   UNL     1      37.589  46.421  13.554 -0.37 -0.04    +0.127 A  ATOM     17  N   UNL     1      37.753  47.110  12.407 -0.82 +0.03    -0.172 NA ATOM     18  C   UNL     1      36.314  46.750  14.135 -0.39 -0.06    +0.089 A  ATOM     19  N   UNL     1      36.656  47.860  12.286 -0.43 +0.10    -0.283 N  ATOM     20  C   UNL     1      35.787  47.723  13.318 -0.18 -0.09    +0.132 A  ATOM     21  H   UNL     1      36.576  48.461  11.476 -0.29 -0.08    +0.189 HD BRANCH  18  22ATOM     22  N   UNL     1      35.646  46.329  15.276 -0.17 +0.27    -0.304 N  ATOM     23  C   UNL     1      35.645  45.037  15.745 -0.17 -0.18    +0.322 C  ATOM     24  H   UNL     1      34.841  46.879  15.525 +0.08 -0.30    +0.172 HD ATOM     25  O   UNL     1      36.093  44.089  15.101 -0.29 +0.10    -0.248 OA BRANCH  23  26ATOM     26  N   UNL     1      35.086  44.865  17.007 -0.09 +0.16    -0.319 N  ATOM     27  C   UNL     1      33.825  45.562  17.301 -0.32 -0.10    +0.137 C  ATOM     28  C   UNL     1      35.634  44.030  18.099 -0.31 -0.03    +0.097 C  ATOM     29  C   UNL     1      32.924  44.786  18.277 -0.33 -0.03    +0.102 C  ATOM     30  C   UNL     1      35.027  44.433  19.468 -0.38 -0.02    +0.105 C  ATOM     31  N   UNL     1      33.562  44.367  19.537 -0.25 +0.06    -0.313 NA ATOM     32  C   UNL     1      35.426  42.538  17.811 -0.41 -0.01    +0.032 C  ATOM     33  H   UNL     1      33.233  44.947  20.307 -0.39 -0.05    +0.122 HD ENDBRANCH  23  26ENDBRANCH  18  22ENDBRANCH  15  16ENDBRANCH  14  15ENDBRANCH   1  14TORSDOF 10TERENDMDL