MODEL        2USER    Run = 2USERUSER    Estimated Free Energy of Binding    = -10.37 kcal/mol  [=(1)+(2)+(3)-(4)]USERUSER    (1) Final Intermolecular Energy     = -12.16 kcal/molUSER        vdW + Hbond + desolv Energy     = -12.13 kcal/molUSER        Electrostatic Energy            =  -0.03 kcal/molUSER        Moving Ligand-Fixed Receptor    = -12.16 kcal/molUSER        Moving Ligand-Moving Receptor   =  +0.00 kcal/molUSER    (2) Final Total Internal Energy     =  -1.15 kcal/molUSER    (3) Torsional Free Energy           =  +1.79 kcal/molUSER    (4) Unbound System's Energy         =  -1.15 kcal/molUSERUSERREMARK SMILES Cc1ccccc1/C=C/C(=O)NC1=C2C=C[C@H](c3cccc([N+](=O)[O-])c3C)N[C@H]21REMARK SMILES IDX 10 1 11 2 12 3 9 5 8 6 7 7 2 8 3 9 4 10 6 11 5 12 1 13 13 14REMARK SMILES IDX 14 15 29 16 15 17 28 18 16 19 17 20 18 22 19 23 26 24 20 25REMARK SMILES IDX 22 26 21 27 27 28 23 29 24 30 25 31REMARK H PARENT 12 4 28 21USER                              x       y       z     vdW  Elec       q    TypeUSER                           _______ _______ _______ _____ _____    ______ ____ROOTATOM      1  C   UNL     1      38.230  43.065  22.549 -0.24 +0.02    +0.248 C  ATOM      2  O   UNL     1      39.373  42.662  22.726 -0.21 -0.02    -0.270 OA ATOM      3  N   UNL     1      37.835  43.975  21.597 -0.17 -0.01    -0.324 N  ATOM      4  H   UNL     1      36.851  44.169  21.484 +0.09 +0.01    +0.170 HD ENDROOTBRANCH   1   5ATOM      5  C   UNL     1      37.128  42.504  23.371 -0.44 +0.01    +0.072 C  BRANCH   5   6ATOM      6  C   UNL     1      37.289  42.033  24.617 -0.41 -0.00    +0.014 C  BRANCH   6   7ATOM      7  C   UNL     1      36.376  42.387  25.715 -0.40 +0.00    -0.023 A  ATOM      8  C   UNL     1      36.358  43.688  26.258 -0.36 +0.00    -0.044 A  ATOM      9  C   UNL     1      35.490  43.970  27.326 -0.49 -0.00    +0.004 A  ATOM     10  C   UNL     1      34.654  42.985  27.849 -0.58 -0.00    +0.000 A  ATOM     11  C   UNL     1      35.534  41.403  26.256 -0.49 -0.00    +0.008 A  ATOM     12  C   UNL     1      34.675  41.701  27.315 -0.59 -0.00    +0.001 A  ATOM     13  C   UNL     1      37.244  44.784  25.729 -0.35 -0.00    +0.045 C  ENDBRANCH   6   7ENDBRANCH   5   6ENDBRANCH   1   5BRANCH   3  14ATOM     14  C   UNL     1      38.680  44.587  20.760 -0.38 +0.00    +0.045 C  ATOM     15  C   UNL     1      39.865  44.394  20.261 -0.38 -0.00    -0.004 C  ATOM     16  C   UNL     1      38.831  45.727  20.034 -0.11 -0.00    +0.134 C  ATOM     17  C   UNL     1      40.964  44.722  19.402 -0.46 +0.00    +0.005 C  ATOM     18  N   UNL     1      38.380  45.877  18.648 -0.18 +0.05    -0.295 NA ATOM     19  C   UNL     1      40.774  45.241  18.177 -0.50 +0.00    -0.003 C  ATOM     20  C   UNL     1      39.403  45.592  17.635 -0.40 -0.02    +0.108 C  ATOM     21  H   UNL     1      37.538  45.334  18.468 +0.07 -0.02    +0.124 HD BRANCH  20  22ATOM     22  C   UNL     1      39.448  46.687  16.565 -0.45 +0.00    -0.017 A  ATOM     23  C   UNL     1      40.527  47.604  16.632 -0.53 -0.00    +0.006 A  ATOM     24  C   UNL     1      38.485  46.840  15.533 -0.40 -0.01    +0.032 A  ATOM     25  C   UNL     1      40.680  48.635  15.704 -0.60 -0.00    +0.007 A  ATOM     26  C   UNL     1      38.693  47.872  14.588 -0.30 -0.11    +0.272 A  ATOM     27  C   UNL     1      39.765  48.770  14.672 -0.42 -0.03    +0.086 A  ATOM     28  C   UNL     1      37.306  45.908  15.406 -0.40 -0.02    +0.052 C  BRANCH  26  29ATOM     29  N   UNL     1      37.790  48.051  13.459 -0.52 -0.02    +0.062 N  ATOM     30  O   UNL     1      36.905  48.911  13.580 -0.62 +0.13    -0.258 OA ATOM     31  O   UNL     1      37.981  47.351  12.456 -0.91 +0.02    -0.258 OA ENDBRANCH  26  29ENDBRANCH  20  22ENDBRANCH   3  14TORSDOF 6TERENDMDL