MODEL        5USER    Run = 5USERUSER    Estimated Free Energy of Binding    =  -8.25 kcal/mol  [=(1)+(2)+(3)-(4)]USERUSER    (1) Final Intermolecular Energy     = -10.63 kcal/molUSER        vdW + Hbond + desolv Energy     = -10.10 kcal/molUSER        Electrostatic Energy            =  -0.53 kcal/molUSER        Moving Ligand-Fixed Receptor    = -10.63 kcal/molUSER        Moving Ligand-Moving Receptor   =  +0.00 kcal/molUSER    (2) Final Total Internal Energy     =  -1.15 kcal/molUSER    (3) Torsional Free Energy           =  +2.39 kcal/molUSER    (4) Unbound System's Energy         =  -1.15 kcal/molUSERUSERREMARK SMILES O=C(O)CCCCNc1nccc(-c2c[nH]c3ccccc23)n1REMARK SMILES IDX 6 1 5 2 4 3 2 4 1 5 3 6 7 8 8 9 9 11 10 12 23 13 11 14 13 15REMARK SMILES IDX 12 16 14 17 15 18 22 19 16 20 21 21 17 22 20 23 18 24 19 25REMARK H PARENT 3 7 8 10 16 26USER                              x       y       z     vdW  Elec       q    TypeUSER                           _______ _______ _______ _____ _____    ______ ____ROOTATOM      1  C   UNL     1      36.133  43.772  17.976 -0.36 -0.01    +0.022 C  ENDROOTBRANCH   1   2ATOM      2  C   UNL     1      35.244  44.521  16.974 -0.36 -0.01    +0.013 C  BRANCH   2   3ATOM      3  C   UNL     1      35.122  46.007  17.303 -0.35 -0.10    +0.122 C  BRANCH   3   4ATOM      4  C   UNL     1      33.999  46.304  18.258 -0.35 -0.23    +0.303 C  ATOM      5  O   UNL     1      33.238  45.487  18.748 -0.35 +0.11    -0.252 OA BRANCH   4   6ATOM      6  O   UNL     1      33.906  47.609  18.572 -0.87 +0.44    -0.481 OA ATOM      7  H   UNL     1      33.687  48.044  17.722 -0.32 -0.75    +0.296 HD ENDBRANCH   4   6ENDBRANCH   3   4ENDBRANCH   2   3ENDBRANCH   1   2BRANCH   1   8ATOM      8  C   UNL     1      36.636  44.670  19.110 -0.31 -0.02    +0.116 C  BRANCH   8   9ATOM      9  N   UNL     1      38.076  44.556  19.243 -0.15 +0.03    -0.354 N  ATOM     10  H   UNL     1      38.474  43.636  19.095 +0.10 -0.01    +0.163 HD BRANCH   9  11ATOM     11  C   UNL     1      38.804  45.406  18.418 -0.26 -0.03    +0.223 A  ATOM     12  N   UNL     1      40.091  45.559  18.751 -0.29 +0.01    -0.222 NA ATOM     13  N   UNL     1      38.224  46.001  17.371 -0.26 +0.06    -0.213 NA ATOM     14  C   UNL     1      40.822  46.384  17.981 -0.42 -0.01    +0.117 A  ATOM     15  C   UNL     1      38.987  46.826  16.623 -0.38 -0.02    +0.078 A  ATOM     16  C   UNL     1      40.318  47.053  16.896 -0.47 -0.01    +0.049 A  BRANCH  15  17ATOM     17  C   UNL     1      38.316  47.466  15.494 -0.44 -0.01    +0.026 A  ATOM     18  C   UNL     1      38.202  48.837  15.341 -0.41 -0.07    +0.093 A  ATOM     19  C   UNL     1      37.648  46.868  14.373 -0.44 -0.00    +0.009 A  ATOM     20  N   UNL     1      37.508  49.085  14.186 -0.16 +0.24    -0.360 N  ATOM     21  C   UNL     1      37.416  45.541  13.952 -0.43 -0.00    +0.011 A  ATOM     22  C   UNL     1      37.163  47.905  13.573 -0.54 -0.02    +0.046 A  ATOM     23  C   UNL     1      36.713  45.299  12.765 -0.52 -0.00    +0.001 A  ATOM     24  C   UNL     1      36.458  47.682  12.383 -0.66 -0.01    +0.027 A  ATOM     25  C   UNL     1      36.242  46.358  11.993 -0.66 -0.00    +0.002 A  ATOM     26  H   UNL     1      37.270  50.002  13.834 -0.44 -0.12    +0.166 HD ENDBRANCH  15  17ENDBRANCH   9  11ENDBRANCH   8   9ENDBRANCH   1   8TORSDOF 8TERENDMDL