REMARK SMILES O=[N+]([O-])c1ccc(-c2ccc3[nH]c4c(c3c2)CN[C@H]4CCCO)cc1
REMARK SMILES IDX 20 1 19 2 8 3 9 4 16 5 10 6 15 7 11 8 14 9 12 10 13 11 17 12
REMARK SMILES IDX 18 13 7 16 4 17 5 18 25 19 6 20 24 21 2 22 1 23 3 24 21 25
REMARK SMILES IDX 22 26 23 27
REMARK H PARENT 12 14 18 15 23 28
ROOT
ATOM      1  C   UNL     1       4.494  -0.145  -0.879  1.00  0.00     0.028 C 
ENDROOT
BRANCH   1   2
ATOM      2  C   UNL     1       3.399  -1.211  -0.769  1.00  0.00     0.101 C 
ATOM      3  C   UNL     1      -2.325  -0.104   0.712  1.00  0.00    -0.018 A 
ATOM      4  C   UNL     1      -1.765   0.431   1.884  1.00  0.00     0.011 A 
ATOM      5  C   UNL     1      -1.465  -0.638  -0.268  1.00  0.00     0.019 A 
ATOM      6  C   UNL     1      -0.382   0.451   2.110  1.00  0.00     0.027 A 
ATOM      7  C   UNL     1      -0.071  -0.629  -0.070  1.00  0.00     0.005 A 
ATOM      8  C   UNL     1       0.444  -0.085   1.118  1.00  0.00     0.046 A 
ATOM      9  C   UNL     1       1.041  -1.068  -0.805  1.00  0.00    -0.004 A 
ATOM     10  N   UNL     1       1.827  -0.206   1.080  1.00  0.00    -0.357 N 
ATOM     11  C   UNL     1       2.165  -0.778  -0.098  1.00  0.00     0.038 A 
ATOM     12  C   UNL     1       1.379  -1.743  -2.062  1.00  0.00     0.120 C 
ATOM     13  N   UNL     1       2.872  -1.549  -2.147  1.00  0.00    -0.304 NA
ATOM     14  H   UNL     1       2.449   0.081   1.822  1.00  0.00     0.166 HD
ATOM     15  H   UNL     1       3.004  -0.719  -2.725  1.00  0.00     0.123 HD
BRANCH   3  16
ATOM     16  C   UNL     1      -3.784  -0.109   0.510  1.00  0.00    -0.018 A 
ATOM     17  C   UNL     1      -6.572  -0.119   0.123  1.00  0.00     0.269 A 
ATOM     18  C   UNL     1      -5.740   0.478  -0.830  1.00  0.00     0.086 A 
ATOM     19  C   UNL     1      -6.027  -0.713   1.267  1.00  0.00     0.086 A 
ATOM     20  C   UNL     1      -4.356   0.479  -0.632  1.00  0.00     0.016 A 
ATOM     21  C   UNL     1      -4.641  -0.704   1.454  1.00  0.00     0.016 A 
BRANCH  17  22
ATOM     22  N   UNL     1      -8.026  -0.124  -0.079  1.00  0.00     0.062 N 
ATOM     23  O   UNL     1      -8.466   0.396  -1.114  1.00  0.00    -0.258 OA
ATOM     24  O   UNL     1      -8.729  -0.647   0.798  1.00  0.00    -0.258 OA
ENDBRANCH  17  22
ENDBRANCH   3  16
ENDBRANCH   1   2
BRANCH   1  25
ATOM     25  C   UNL     1       5.240   0.085   0.442  1.00  0.00     0.030 C 
BRANCH  25  26
ATOM     26  C   UNL     1       6.370   1.101   0.303  1.00  0.00     0.156 C 
BRANCH  26  27
ATOM     27  O   UNL     1       7.423   0.583  -0.496  1.00  0.00    -0.396 OA
ATOM     28  H   UNL     1       7.128   0.587  -1.422  1.00  0.00     0.210 HD
ENDBRANCH  26  27
ENDBRANCH  25  26
ENDBRANCH   1  25
TORSDOF 6
