REMARK SMILES Cc1ccccc1/C=C/C(=O)NC1=C2C=C[C@H](c3cccc([N+](=O)[O-])c3C)N[C@H]21
REMARK SMILES IDX 10 1 11 2 12 3 9 5 8 6 7 7 2 8 3 9 4 10 6 11 5 12 1 13 13 14
REMARK SMILES IDX 14 15 29 16 15 17 28 18 16 19 17 20 18 22 19 23 26 24 20 25
REMARK SMILES IDX 22 26 21 27 27 28 23 29 24 30 25 31
REMARK H PARENT 12 4 28 21
ROOT
ATOM      1  C   UNL     1       1.673   1.197  -0.846  1.00  0.00     0.248 C 
ATOM      2  O   UNL     1       0.871   2.097  -1.065  1.00  0.00    -0.270 OA
ATOM      3  N   UNL     1       1.366  -0.134  -0.691  1.00  0.00    -0.324 N 
ATOM      4  H   UNL     1       2.117  -0.803  -0.601  1.00  0.00     0.170 HD
ENDROOT
BRANCH   1   5
ATOM      5  C   UNL     1       3.123   1.513  -0.797  1.00  0.00     0.072 C 
BRANCH   5   6
ATOM      6  C   UNL     1       3.995   0.900   0.018  1.00  0.00     0.014 C 
BRANCH   6   7
ATOM      7  C   UNL     1       5.419   1.266   0.062  1.00  0.00    -0.023 A 
ATOM      8  C   UNL     1       6.428   0.296  -0.108  1.00  0.00    -0.044 A 
ATOM      9  C   UNL     1       7.774   0.689  -0.027  1.00  0.00     0.004 A 
ATOM     10  C   UNL     1       8.119   2.018   0.218  1.00  0.00     0.000 A 
ATOM     11  C   UNL     1       5.781   2.599   0.316  1.00  0.00     0.008 A 
ATOM     12  C   UNL     1       7.123   2.973   0.390  1.00  0.00     0.001 A 
ATOM     13  C   UNL     1       6.105  -1.150  -0.372  1.00  0.00     0.045 C 
ENDBRANCH   6   7
ENDBRANCH   5   6
ENDBRANCH   1   5
BRANCH   3  14
ATOM     14  C   UNL     1       0.118  -0.615  -0.708  1.00  0.00     0.045 C 
ATOM     15  C   UNL     1      -0.481  -1.767  -0.649  1.00  0.00    -0.004 C 
ATOM     16  C   UNL     1      -1.177  -0.228  -0.856  1.00  0.00     0.134 C 
ATOM     17  C   UNL     1      -1.638  -2.610  -0.582  1.00  0.00     0.005 C 
ATOM     18  N   UNL     1      -2.043   0.167   0.258  1.00  0.00    -0.295 NA
ATOM     19  C   UNL     1      -2.733  -2.254   0.112  1.00  0.00    -0.003 C 
ATOM     20  C   UNL     1      -2.866  -0.916   0.811  1.00  0.00     0.108 C 
ATOM     21  H   UNL     1      -1.515   0.627   0.997  1.00  0.00     0.124 HD
BRANCH  20  22
ATOM     22  C   UNL     1      -4.323  -0.476   0.983  1.00  0.00    -0.017 A 
ATOM     23  C   UNL     1      -4.864  -0.549   2.291  1.00  0.00     0.006 A 
ATOM     24  C   UNL     1      -5.151  -0.014  -0.074  1.00  0.00     0.032 A 
ATOM     25  C   UNL     1      -6.175  -0.162   2.572  1.00  0.00     0.007 A 
ATOM     26  C   UNL     1      -6.462   0.406   0.254  1.00  0.00     0.272 A 
ATOM     27  C   UNL     1      -6.979   0.324   1.553  1.00  0.00     0.086 A 
ATOM     28  C   UNL     1      -4.646   0.081  -1.492  1.00  0.00     0.052 C 
BRANCH  26  29
ATOM     29  N   UNL     1      -7.350   0.958  -0.760  1.00  0.00     0.062 N 
ATOM     30  O   UNL     1      -8.422   0.365  -0.949  1.00  0.00    -0.258 OA
ATOM     31  O   UNL     1      -6.984   1.987  -1.342  1.00  0.00    -0.258 OA
ENDBRANCH  26  29
ENDBRANCH  20  22
ENDBRANCH   3  14
TORSDOF 6
