REMARK SMILES CCCCC(=CN=Cc1n[nH]cc1NC(=O)N1CCNC[C@H]1C)c1cccc(Cl)c1
REMARK SMILES IDX 6 1 5 2 4 3 3 4 2 5 1 6 24 7 25 8 30 9 26 10 28 11 27 12
REMARK SMILES IDX 29 13 7 14 8 15 9 16 10 17 13 18 11 19 12 20 14 22 15 23
REMARK SMILES IDX 16 25 17 26 18 27 22 28 19 29 21 30 20 31 23 32
REMARK H PARENT 11 21 14 24 20 33
ROOT
ATOM      1  C   UNL     1       2.113  -0.181   1.339  1.00  0.00     0.115 C 
ENDROOT
BRANCH   1   2
ATOM      2  C   UNL     1       3.275  -0.554   0.767  1.00  0.00    -0.022 C 
BRANCH   2   3
ATOM      3  C   UNL     1       4.574   0.149   1.094  1.00  0.00     0.038 C 
BRANCH   3   4
ATOM      4  C   UNL     1       5.063   1.023  -0.069  1.00  0.00     0.005 C 
BRANCH   4   5
ATOM      5  C   UNL     1       6.259   1.904   0.301  1.00  0.00    -0.003 C 
ATOM      6  C   UNL     1       7.507   1.118   0.659  1.00  0.00     0.004 C 
ENDBRANCH   4   5
ENDBRANCH   3   4
ENDBRANCH   2   3
BRANCH   2   7
ATOM      7  C   UNL     1       3.344  -1.690  -0.176  1.00  0.00    -0.019 A 
ATOM      8  C   UNL     1       4.074  -2.840   0.151  1.00  0.00     0.008 A 
ATOM      9  C   UNL     1       2.680  -1.631  -1.409  1.00  0.00     0.029 A 
ATOM     10  C   UNL     1       4.140  -3.917  -0.735  1.00  0.00     0.002 A 
ATOM     11  C   UNL     1       2.751  -2.707  -2.291  1.00  0.00     0.041 A 
ATOM     12  C   UNL     1       3.477  -3.848  -1.962  1.00  0.00     0.020 A 
ATOM     13  Cl  UNL     1       1.934  -2.623  -3.810  1.00  0.00    -0.084 Cl
ENDBRANCH   2   7
ENDBRANCH   1   2
BRANCH   1  14
ATOM     14  N   UNL     1       0.912  -0.808   1.153  1.00  0.00    -0.262 NA
BRANCH  14  15
ATOM     15  C   UNL     1      -0.167  -0.124   0.876  1.00  0.00     0.143 C 
BRANCH  15  16
ATOM     16  C   UNL     1      -0.354   1.324   0.697  1.00  0.00     0.127 A 
ATOM     17  N   UNL     1       0.636   2.217   0.895  1.00  0.00    -0.172 NA
ATOM     18  C   UNL     1      -1.575   2.020   0.391  1.00  0.00     0.089 A 
ATOM     19  N   UNL     1       0.065   3.415   0.755  1.00  0.00    -0.283 N 
ATOM     20  C   UNL     1      -1.267   3.356   0.505  1.00  0.00     0.132 A 
ATOM     21  H   UNL     1       0.646   4.236   0.863  1.00  0.00     0.189 HD
BRANCH  18  22
ATOM     22  N   UNL     1      -2.864   1.602   0.090  1.00  0.00    -0.304 N 
ATOM     23  C   UNL     1      -3.170   0.439  -0.575  1.00  0.00     0.322 C 
ATOM     24  H   UNL     1      -3.541   2.342  -0.001  1.00  0.00     0.172 HD
ATOM     25  O   UNL     1      -2.321  -0.262  -1.125  1.00  0.00    -0.248 OA
BRANCH  23  26
ATOM     26  N   UNL     1      -4.520   0.107  -0.598  1.00  0.00    -0.319 N 
ATOM     27  C   UNL     1      -4.924  -1.080  -1.366  1.00  0.00     0.137 C 
ATOM     28  C   UNL     1      -5.610   0.833   0.092  1.00  0.00     0.097 C 
ATOM     29  C   UNL     1      -6.141  -1.801  -0.762  1.00  0.00     0.102 C 
ATOM     30  C   UNL     1      -6.991   0.476  -0.517  1.00  0.00     0.105 C 
ATOM     31  N   UNL     1      -7.319  -0.955  -0.504  1.00  0.00    -0.313 NA
ATOM     32  C   UNL     1      -5.579   0.571   1.602  1.00  0.00     0.032 C 
ATOM     33  H   UNL     1      -8.043  -1.142  -1.196  1.00  0.00     0.122 HD
ENDBRANCH  23  26
ENDBRANCH  18  22
ENDBRANCH  15  16
ENDBRANCH  14  15
ENDBRANCH   1  14
TORSDOF 10
