REMARK SMILES c1ccc(-c2cnn3c2CNC[C@H]3c2ccsc2C2CC2)cc1
REMARK SMILES IDX 5 1 6 2 7 3 8 4 9 5 10 6 11 7 12 8 13 9 4 11 1 12 2 13 23 14
REMARK SMILES IDX 3 15 22 16 14 17 15 18 18 19 16 20 17 21 19 22 20 23 21 24
REMARK H PARENT 11 10
ROOT
ATOM      1  C   UNL     1      -1.741   0.835  -0.442  1.00  0.00     0.024 A 
ATOM      2  C   UNL     1      -0.755   1.805  -0.732  1.00  0.00     0.144 A 
ATOM      3  N   UNL     1       0.425   1.523  -0.176  1.00  0.00    -0.180 NA
ATOM      4  N   UNL     1       0.216   0.323   0.407  1.00  0.00    -0.259 N 
ATOM      5  C   UNL     1      -1.086  -0.110   0.326  1.00  0.00     0.061 A 
ATOM      6  C   UNL     1      -1.532  -1.357   0.999  1.00  0.00     0.137 C 
ATOM      7  N   UNL     1      -0.412  -2.236   1.348  1.00  0.00    -0.309 NA
ATOM      8  C   UNL     1       0.672  -1.485   2.007  1.00  0.00     0.113 C 
ATOM      9  C   UNL     1       1.290  -0.382   1.113  1.00  0.00     0.152 C 
ATOM     10  H   UNL     1      -0.750  -2.973   1.966  1.00  0.00     0.123 HD
ENDROOT
BRANCH   1  11
ATOM     11  C   UNL     1      -3.134   0.785  -0.833  1.00  0.00    -0.015 A 
ATOM     12  C   UNL     1      -5.822   0.708  -1.614  1.00  0.00     0.000 A 
ATOM     13  C   UNL     1      -4.818   0.805  -2.577  1.00  0.00     0.001 A 
ATOM     14  C   UNL     1      -5.487   0.655  -0.262  1.00  0.00     0.001 A 
ATOM     15  C   UNL     1      -3.478   0.846  -2.188  1.00  0.00     0.009 A 
ATOM     16  C   UNL     1      -4.147   0.694   0.129  1.00  0.00     0.009 A 
ENDBRANCH   1  11
BRANCH   9  17
ATOM     17  C   UNL     1       2.320  -0.924   0.136  1.00  0.00    -0.008 A 
ATOM     18  C   UNL     1       2.030  -1.867  -0.916  1.00  0.00     0.018 A 
ATOM     19  C   UNL     1       3.668  -0.609   0.118  1.00  0.00     0.013 A 
ATOM     20  C   UNL     1       3.143  -2.230  -1.640  1.00  0.00     0.065 A 
ATOM     21  S   UNL     1       4.550  -1.457  -1.067  1.00  0.00    -0.148 S 
BRANCH  19  22
ATOM     22  C   UNL     1       4.357   0.386   1.111  1.00  0.00     0.030 C 
ATOM     23  C   UNL     1       3.976   1.844   1.068  1.00  0.00     0.010 C 
ATOM     24  C   UNL     1       5.328   1.414   0.588  1.00  0.00     0.010 C 
ENDBRANCH  19  22
ENDBRANCH   9  17
TORSDOF 3
