MODEL        8USER    Run = 8USERUSER    Estimated Free Energy of Binding    =  -8.30 kcal/mol  [=(1)+(2)+(3)-(4)]USERUSER    (1) Final Intermolecular Energy     = -10.09 kcal/molUSER        vdW + Hbond + desolv Energy     = -10.03 kcal/molUSER        Electrostatic Energy            =  -0.06 kcal/molUSER        Moving Ligand-Fixed Receptor    = -10.09 kcal/molUSER        Moving Ligand-Moving Receptor   =  +0.00 kcal/molUSER    (2) Final Total Internal Energy     =  -2.65 kcal/molUSER    (3) Torsional Free Energy           =  +1.79 kcal/molUSER    (4) Unbound System's Energy         =  -2.65 kcal/molUSERUSERREMARK SMILES Cc1ccccc1CNC(=O)[C@H](C)Nc1nc(-c2ccc(F)cc2)cs1REMARK SMILES IDX 12 1 13 2 10 3 9 4 11 6 8 7 7 8 2 9 3 10 4 11 6 12 5 13 1 14REMARK SMILES IDX 14 15 15 17 16 18 26 19 17 20 25 21 18 22 19 23 24 24 20 25REMARK SMILES IDX 23 26 21 27 22 28REMARK H PARENT 9 5 14 16USER                              x       y       z     vdW  Elec       q    TypeUSER                           _______ _______ _______ _____ _____    ______ ____ROOTATOM      1  C   UNL     1      41.070  47.591  18.013 -0.41 -0.01    +0.167 C  ATOM      2  C   UNL     1      42.542  47.784  18.366 -0.48 +0.00    +0.041 C  ENDROOTBRANCH   1   3ATOM      3  C   UNL     1      40.784  48.373  16.710 -0.38 -0.04    +0.242 C  ATOM      4  N   UNL     1      39.515  48.196  16.202 -0.23 +0.13    -0.350 N  ATOM      5  H   UNL     1      38.933  47.447  16.553 +0.11 -0.06    +0.163 HD ATOM      6  O   UNL     1      41.608  49.126  16.192 -0.99 -0.02    -0.273 OA BRANCH   4   7ATOM      7  C   UNL     1      39.128  48.819  14.957 -0.38 -0.08    +0.152 C  BRANCH   7   8ATOM      8  C   UNL     1      38.178  47.929  14.194 -0.51 +0.01    -0.026 A  ATOM      9  C   UNL     1      38.400  46.545  14.037 -0.40 +0.01    -0.046 A  ATOM     10  C   UNL     1      37.460  45.776  13.332 -0.44 -0.00    +0.004 A  ATOM     11  C   UNL     1      36.308  46.359  12.805 -0.60 -0.00    +0.000 A  ATOM     12  C   UNL     1      37.005  48.498  13.666 -0.55 -0.00    +0.006 A  ATOM     13  C   UNL     1      36.079  47.720  12.974 -0.59 -0.00    +0.000 A  ATOM     14  C   UNL     1      39.627  45.871  14.586 -0.35 -0.01    +0.044 C  ENDBRANCH   7   8ENDBRANCH   4   7ENDBRANCH   1   3BRANCH   1  15ATOM     15  N   UNL     1      40.754  46.182  17.799 -0.23 +0.02    -0.350 N  ATOM     16  H   UNL     1      41.576  45.578  17.804 +0.04 +0.00    +0.163 HD BRANCH  15  17ATOM     17  C   UNL     1      39.600  45.598  18.181 -0.31 -0.02    +0.183 A  ATOM     18  N   UNL     1      38.478  45.835  17.544 -0.26 +0.05    -0.220 NA ATOM     19  S   UNL     1      39.438  44.532  19.526 -0.45 +0.00    -0.105 S  ATOM     20  C   UNL     1      37.417  45.148  18.116 -0.30 -0.02    +0.083 A  ATOM     21  C   UNL     1      37.763  44.377  19.207 -0.29 -0.01    +0.097 A  BRANCH  20  22ATOM     22  C   UNL     1      36.070  45.250  17.557 -0.33 -0.00    +0.001 A  ATOM     23  C   UNL     1      35.860  44.910  16.209 -0.32 -0.01    +0.013 A  ATOM     24  C   UNL     1      34.973  45.686  18.319 -0.40 -0.01    +0.013 A  ATOM     25  C   UNL     1      34.588  44.991  15.639 -0.29 -0.03    +0.040 A  ATOM     26  C   UNL     1      33.699  45.768  17.746 -0.39 -0.03    +0.040 A  ATOM     27  C   UNL     1      33.518  45.419  16.415 -0.20 -0.11    +0.123 A  ATOM     28  F   UNL     1      32.296  45.498  15.871 -0.07 +0.15    -0.207 F  ENDBRANCH  20  22ENDBRANCH  15  17ENDBRANCH   1  15TORSDOF 6TERENDMDL