REMARK SMILES CC(=O)Nc1cc(C)c2c(C)cc(-c3c(C)cc(O)cc3O)c-2c(O)c1O
REMARK SMILES IDX 5 1 6 2 7 3 8 4 9 5 10 6 11 7 12 8 13 9 23 10 24 11 26 12
REMARK SMILES IDX 4 13 2 14 1 15 3 16 27 18 25 20 14 22 15 23 21 24 17 25
REMARK SMILES IDX 20 26 18 27 16 28 22 29 19 31
REMARK H PARENT 4 17 27 19 25 21 22 30 19 32
ROOT
ATOM      1  C   UNL     1       2.765   0.166   0.064  1.00  0.00     0.087 A 
ATOM      2  C   UNL     1       2.669  -1.157  -0.203  1.00  0.00     0.034 A 
ATOM      3  C   UNL     1       1.638  -2.160   0.096  1.00  0.00    -0.041 A 
ATOM      4  C   UNL     1       2.196  -3.563   0.057  1.00  0.00     0.045 C 
ATOM      5  C   UNL     1       0.321  -1.871   0.199  1.00  0.00    -0.008 A 
ATOM      6  C   UNL     1      -0.820  -2.774   0.020  1.00  0.00    -0.042 A 
ATOM      7  C   UNL     1      -0.835  -4.251  -0.129  1.00  0.00     0.045 C 
ATOM      8  C   UNL     1      -1.907  -1.990  -0.075  1.00  0.00     0.013 A 
ATOM      9  C   UNL     1      -1.557  -0.592   0.138  1.00  0.00    -0.002 A 
ATOM     10  C   UNL     1      -0.225  -0.509   0.388  1.00  0.00     0.036 A 
ATOM     11  C   UNL     1       0.477   0.601   0.994  1.00  0.00     0.168 A 
ATOM     12  C   UNL     1       1.785   0.877   0.886  1.00  0.00     0.182 A 
ENDROOT
BRANCH   1  13
ATOM     13  N   UNL     1       3.872   0.800  -0.505  1.00  0.00    -0.323 N 
ATOM     14  C   UNL     1       4.224   2.132  -0.561  1.00  0.00     0.221 C 
ATOM     15  C   UNL     1       5.471   2.382  -1.369  1.00  0.00     0.114 C 
ATOM     16  O   UNL     1       3.638   3.049   0.006  1.00  0.00    -0.275 OA
ATOM     17  H   UNL     1       4.487   0.190  -1.032  1.00  0.00     0.170 HD
ENDBRANCH   1  13
BRANCH  12  18
ATOM     18  O   UNL     1       2.253   1.892   1.722  1.00  0.00    -0.503 OA
ATOM     19  H   UNL     1       2.869   2.439   1.188  1.00  0.00     0.293 HD
ENDBRANCH  12  18
BRANCH  11  20
ATOM     20  O   UNL     1      -0.275   1.329   1.912  1.00  0.00    -0.504 OA
ATOM     21  H   UNL     1       0.357   1.988   2.271  1.00  0.00     0.293 HD
ENDBRANCH  11  20
BRANCH   9  22
ATOM     22  C   UNL     1      -2.561   0.491   0.141  1.00  0.00     0.027 A 
ATOM     23  C   UNL     1      -2.955   1.095  -1.074  1.00  0.00    -0.036 A 
ATOM     24  C   UNL     1      -3.218   0.874   1.326  1.00  0.00     0.127 A 
ATOM     25  C   UNL     1      -4.001   2.035  -1.068  1.00  0.00     0.050 A 
ATOM     26  C   UNL     1      -4.261   1.796   1.322  1.00  0.00     0.093 A 
ATOM     27  C   UNL     1      -4.644   2.370   0.119  1.00  0.00     0.119 A 
ATOM     28  C   UNL     1      -2.305   0.740  -2.384  1.00  0.00     0.045 C 
BRANCH  24  29
ATOM     29  O   UNL     1      -2.843   0.383   2.550  1.00  0.00    -0.507 OA
ATOM     30  H   UNL     1      -1.868   0.295   2.498  1.00  0.00     0.293 HD
ENDBRANCH  24  29
BRANCH  27  31
ATOM     31  O   UNL     1      -5.656   3.283   0.058  1.00  0.00    -0.508 OA
ATOM     32  H   UNL     1      -5.998   3.417   0.958  1.00  0.00     0.293 HD
ENDBRANCH  27  31
ENDBRANCH   9  22
TORSDOF 6
