MODEL        4USER    Run = 4USERUSER    Estimated Free Energy of Binding    =  -9.83 kcal/mol  [=(1)+(2)+(3)-(4)]USERUSER    (1) Final Intermolecular Energy     = -11.62 kcal/molUSER        vdW + Hbond + desolv Energy     = -11.47 kcal/molUSER        Electrostatic Energy            =  -0.15 kcal/molUSER        Moving Ligand-Fixed Receptor    = -11.62 kcal/molUSER        Moving Ligand-Moving Receptor   =  +0.00 kcal/molUSER    (2) Final Total Internal Energy     =  -1.00 kcal/molUSER    (3) Torsional Free Energy           =  +1.79 kcal/molUSER    (4) Unbound System's Energy         =  -1.00 kcal/molUSERUSERREMARK SMILES Cc1cc(Nc2cc(N3CCC[C@H](Cl)C3)c(CCO)c(C)n2)n[nH]1REMARK SMILES IDX 6 1 7 2 8 3 16 4 20 5 21 6 22 7 5 8 4 10 2 11 3 12 24 13REMARK SMILES IDX 23 14 1 15 9 17 10 18 15 19 11 20 13 21 12 22 14 23 17 24REMARK SMILES IDX 18 25 19 26REMARK H PARENT 5 9 24 16 19 27USER                              x       y       z     vdW  Elec       q    TypeUSER                           _______ _______ _______ _____ _____    ______ ____ROOTATOM      1  C   UNL     1      41.004  49.192  15.779 -0.52 -0.02    +0.133 A  ATOM      2  C   UNL     1      39.884  48.599  15.230 -0.51 -0.03    +0.073 A  ATOM      3  C   UNL     1      39.288  47.477  15.833 -0.46 -0.01    +0.045 A  ATOM      4  C   UNL     1      39.853  46.969  17.017 -0.49 +0.00    -0.001 A  ATOM      5  C   UNL     1      41.017  47.608  17.491 -0.49 -0.01    +0.045 A  ATOM      6  C   UNL     1      41.787  47.120  18.686 -0.55 +0.00    +0.067 C  ATOM      7  N   UNL     1      41.568  48.698  16.897 -0.83 -0.01    -0.236 NA ENDROOTBRANCH   1   8ATOM      8  N   UNL     1      41.651  50.308  15.252 -0.42 +0.06    -0.323 N  ATOM      9  H   UNL     1      41.605  51.035  15.955 -0.38 -0.06    +0.170 HD BRANCH   8  10ATOM     10  C   UNL     1      42.265  50.547  14.077 -0.49 -0.04    +0.153 A  ATOM     11  C   UNL     1      43.697  51.501  12.656 -0.42 -0.02    +0.034 A  ATOM     12  C   UNL     1      43.301  51.512  13.975 -0.19 -0.02    +0.071 A  ATOM     13  N   UNL     1      42.908  50.563  12.057 -0.39 +0.14    -0.281 N  ATOM     14  N   UNL     1      42.043  49.973  12.892 -0.47 +0.04    -0.158 NA ATOM     15  C   UNL     1      44.722  52.269  11.919 -0.42 -0.03    +0.066 C  ATOM     16  H   UNL     1      42.905  50.273  11.085 -0.39 -0.12    +0.190 HD ENDBRANCH   8  10ENDBRANCH   1   8BRANCH   3  17ATOM     17  N   UNL     1      38.197  46.934  15.149 -0.14 +0.15    -0.370 N  ATOM     18  C   UNL     1      38.344  45.619  14.538 -0.37 -0.03    +0.116 C  ATOM     19  C   UNL     1      37.337  47.912  14.465 -0.48 -0.08    +0.136 C  ATOM     20  C   UNL     1      36.974  44.933  14.501 -0.44 -0.01    +0.023 C  ATOM     21  C   UNL     1      36.191  47.235  13.689 -0.51 -0.06    +0.100 C  ATOM     22  C   UNL     1      35.796  45.903  14.324 -0.47 -0.01    +0.023 C  ATOM     23  Cl  UNL     1      36.637  46.988  11.963 -0.93 +0.05    -0.121 Cl ENDBRANCH   3  17BRANCH   4  24ATOM     24  C   UNL     1      39.292  45.764  17.748 -0.44 -0.01    +0.068 C  BRANCH  24  25ATOM     25  C   UNL     1      37.776  45.812  17.975 -0.28 -0.04    +0.161 C  BRANCH  25  26ATOM     26  O   UNL     1      37.254  44.533  18.317 -0.14 +0.08    -0.396 OA ATOM     27  H   UNL     1      37.141  44.039  17.488 +0.14 -0.05    +0.210 HD ENDBRANCH  25  26ENDBRANCH  24  25ENDBRANCH   4  24TORSDOF 6TERENDMDL