MODEL        2USER    Run = 2USERUSER    Estimated Free Energy of Binding    =  -9.96 kcal/mol  [=(1)+(2)+(3)-(4)]USERUSER    (1) Final Intermolecular Energy     = -11.75 kcal/molUSER        vdW + Hbond + desolv Energy     = -11.67 kcal/molUSER        Electrostatic Energy            =  -0.08 kcal/molUSER        Moving Ligand-Fixed Receptor    = -11.75 kcal/molUSER        Moving Ligand-Moving Receptor   =  +0.00 kcal/molUSER    (2) Final Total Internal Energy     =  -0.59 kcal/molUSER    (3) Torsional Free Energy           =  +1.79 kcal/molUSER    (4) Unbound System's Energy         =  -0.59 kcal/molUSERUSERREMARK SMILES O=[N+]([O-])c1ccc(-c2ccc3[nH]c4c(c3c2)CN[C@H]4CCCO)cc1REMARK SMILES IDX 20 1 19 2 8 3 9 4 16 5 10 6 15 7 11 8 14 9 12 10 13 11 17 12REMARK SMILES IDX 18 13 7 16 4 17 5 18 25 19 6 20 24 21 2 22 1 23 3 24 21 25REMARK SMILES IDX 22 26 23 27REMARK H PARENT 12 14 18 15 23 28USER                              x       y       z     vdW  Elec       q    TypeUSER                           _______ _______ _______ _____ _____    ______ ____ROOTATOM      1  C   UNL     1      41.167  50.350  15.158 -0.65 -0.01    +0.028 C  ENDROOTBRANCH   1   2ATOM      2  C   UNL     1      40.704  48.893  15.063 -0.61 -0.02    +0.101 C  ATOM      3  C   UNL     1      39.661  45.314  19.784 -0.38 +0.00    -0.018 A  ATOM      4  C   UNL     1      41.000  45.591  20.104 -0.39 +0.00    +0.011 A  ATOM      5  C   UNL     1      39.106  45.895  18.626 -0.39 -0.00    +0.019 A  ATOM      6  C   UNL     1      41.801  46.425  19.312 -0.46 +0.00    +0.027 A  ATOM      7  C   UNL     1      39.886  46.740  17.813 -0.45 -0.00    +0.005 A  ATOM      8  C   UNL     1      41.221  46.987  18.171 -0.49 -0.00    +0.046 A  ATOM      9  C   UNL     1      39.668  47.456  16.626 -0.48 +0.00    -0.004 A  ATOM     10  N   UNL     1      41.773  47.828  17.213 -0.09 +0.03    -0.357 N  ATOM     11  C   UNL     1      40.812  48.117  16.306 -0.52 -0.01    +0.038 A  ATOM     12  C   UNL     1      38.627  47.707  15.624 -0.45 -0.06    +0.120 C  ATOM     13  N   UNL     1      39.211  48.844  14.823 -0.25 +0.15    -0.304 NA ATOM     14  H   UNL     1      42.732  48.145  17.211 -0.38 +0.01    +0.166 HD ATOM     15  H   UNL     1      38.818  49.692  15.232 -0.40 -0.10    +0.123 HD BRANCH   3  16ATOM     16  C   UNL     1      38.850  44.431  20.640 -0.34 -0.00    -0.018 A  ATOM     17  C   UNL     1      37.301  42.743  22.275 -0.25 +0.02    +0.269 A  ATOM     18  C   UNL     1      36.819  43.130  21.020 -0.37 +0.00    +0.086 A  ATOM     19  C   UNL     1      38.550  43.189  22.722 -0.26 +0.01    +0.086 A  ATOM     20  C   UNL     1      37.593  43.968  20.212 -0.36 -0.00    +0.016 A  ATOM     21  C   UNL     1      39.315  44.028  21.905 -0.28 +0.00    +0.016 A  BRANCH  17  22ATOM     22  N   UNL     1      36.493  41.863  23.127 -0.49 +0.00    +0.062 N  ATOM     23  O   UNL     1      36.551  42.036  24.353 -0.36 +0.00    -0.258 OA ATOM     24  O   UNL     1      35.800  40.998  22.572 -0.42 -0.00    -0.258 OA ENDBRANCH  17  22ENDBRANCH   3  16ENDBRANCH   1   2BRANCH   1  25ATOM     25  C   UNL     1      42.541  50.585  14.516 -0.66 -0.00    +0.030 C  BRANCH  25  26ATOM     26  C   UNL     1      42.535  50.318  13.013 -0.62 -0.05    +0.156 C  BRANCH  26  27ATOM     27  O   UNL     1      43.271  49.144  12.703 -0.47 +0.08    -0.396 OA ATOM     28  H   UNL     1      43.628  49.242  11.805 -0.39 -0.13    +0.210 HD ENDBRANCH  26  27ENDBRANCH  25  26ENDBRANCH   1  25TORSDOF 6TERENDMDL