MODEL        5USER    Run = 5USERUSER    Estimated Free Energy of Binding    = -11.20 kcal/mol  [=(1)+(2)+(3)-(4)]USERUSER    (1) Final Intermolecular Energy     = -13.29 kcal/molUSER        vdW + Hbond + desolv Energy     = -13.32 kcal/molUSER        Electrostatic Energy            =  +0.04 kcal/molUSER        Moving Ligand-Fixed Receptor    = -13.29 kcal/molUSER        Moving Ligand-Moving Receptor   =  +0.00 kcal/molUSER    (2) Final Total Internal Energy     =  -2.50 kcal/molUSER    (3) Torsional Free Energy           =  +2.09 kcal/molUSER    (4) Unbound System's Energy         =  -2.50 kcal/molUSERUSERREMARK SMILES CC(=O)NC[C@@H]1C(=O)N[C@@H](c2c(Cl)cccc2Cl)N1C(=O)CN1CCC(c2cccc3c2CCC3)CC1REMARK SMILES IDX 6 1 7 2 8 3 9 4 10 5 19 6 5 8 4 9 2 10 1 11 3 12 20 14 21 15REMARK SMILES IDX 22 16 23 17 24 18 37 19 25 20 36 21 26 22 27 23 28 24 32 25REMARK SMILES IDX 29 26 31 27 33 28 30 29 35 30 34 31 11 32 12 33 17 34 14 35REMARK SMILES IDX 16 36 15 37 13 38 18 39REMARK H PARENT 9 7 4 13USER                              x       y       z     vdW  Elec       q    TypeUSER                           _______ _______ _______ _____ _____    ______ ____ROOTATOM      1  C   UNL     1      40.143  45.977  22.895 -0.20 +0.01    +0.196 C  ATOM      2  C   UNL     1      38.807  46.448  23.442 -0.24 +0.03    +0.246 C  ATOM      3  O   UNL     1      38.449  47.605  23.595 -0.34 -0.05    -0.273 OA ATOM      4  N   UNL     1      38.057  45.360  23.812 -0.15 -0.04    -0.330 N  ATOM      5  C   UNL     1      38.694  44.130  23.496 -0.19 +0.01    +0.216 C  ATOM      6  N   UNL     1      39.951  44.515  22.890 -0.07 -0.01    -0.303 N  ATOM      7  H   UNL     1      37.127  45.465  24.194 +0.07 +0.05    +0.166 HD ENDROOTBRANCH   1   8ATOM      8  C   UNL     1      41.235  46.485  23.853 -0.15 +0.01    +0.151 C  BRANCH   8   9ATOM      9  N   UNL     1      42.551  46.545  23.231 -0.04 -0.05    -0.354 N  ATOM     10  C   UNL     1      43.122  47.762  22.930 -0.27 +0.04    +0.216 C  ATOM     11  C   UNL     1      44.443  47.648  22.214 -0.24 +0.04    +0.114 C  ATOM     12  O   UNL     1      42.604  48.842  23.189 -0.93 -0.08    -0.275 OA ATOM     13  H   UNL     1      42.852  45.743  22.679 +0.07 +0.03    +0.163 HD ENDBRANCH   8   9ENDBRANCH   1   8BRANCH   6  14ATOM     14  C   UNL     1      40.987  43.692  22.495 -0.20 +0.01    +0.239 C  ATOM     15  O   UNL     1      41.205  42.642  23.107 -0.21 +0.00    -0.273 OA BRANCH  14  16ATOM     16  C   UNL     1      41.814  44.102  21.255 -0.27 +0.02    +0.185 C  BRANCH  16  17ATOM     17  N   UNL     1      41.066  44.972  20.329 -0.19 -0.03    -0.294 NA ATOM     18  C   UNL     1      40.978  44.432  18.971 -0.37 +0.01    +0.085 C  ATOM     19  C   UNL     1      41.571  46.350  20.370 -0.34 +0.01    +0.085 C  ATOM     20  C   UNL     1      40.009  45.271  18.132 -0.47 -0.00    +0.024 C  ATOM     21  C   UNL     1      41.564  47.073  19.021 -0.46 +0.00    +0.024 C  ATOM     22  C   UNL     1      40.274  46.788  18.242 -0.48 -0.00    +0.022 C  BRANCH  22  23ATOM     23  C   UNL     1      40.287  47.485  16.895 -0.49 +0.01    -0.041 A  ATOM     24  C   UNL     1      41.293  48.415  16.573 -0.46 -0.00    +0.004 A  ATOM     25  C   UNL     1      39.307  47.257  15.930 -0.45 +0.01    -0.041 A  ATOM     26  C   UNL     1      41.311  49.082  15.336 -0.59 -0.00    +0.001 A  ATOM     27  C   UNL     1      39.325  47.932  14.697 -0.48 +0.01    -0.045 A  ATOM     28  C   UNL     1      38.096  46.369  16.007 -0.42 -0.01    +0.036 C  ATOM     29  C   UNL     1      40.317  48.847  14.390 -0.48 -0.00    +0.004 A  ATOM     30  C   UNL     1      38.145  47.557  13.855 -0.55 -0.01    +0.036 C  ATOM     31  C   UNL     1      37.707  46.252  14.528 -0.47 -0.00    +0.010 C  ENDBRANCH  22  23ENDBRANCH  16  17ENDBRANCH  14  16ENDBRANCH   6  14BRANCH   5  32ATOM     32  C   UNL     1      37.742  43.258  22.694 -0.35 +0.00    +0.032 A  ATOM     33  C   UNL     1      37.087  42.170  23.325 -0.42 +0.00    +0.049 A  ATOM     34  C   UNL     1      37.406  43.500  21.343 -0.36 +0.00    +0.049 A  ATOM     35  C   UNL     1      36.175  41.361  22.636 -0.47 +0.00    +0.021 A  ATOM     36  C   UNL     1      36.495  42.678  20.661 -0.44 -0.00    +0.021 A  ATOM     37  C   UNL     1      35.875  41.615  21.304 -0.46 +0.00    +0.003 A  ATOM     38  Cl  UNL     1      37.359  41.763  24.991 -0.34 +0.00    -0.084 Cl ATOM     39  Cl  UNL     1      38.051  44.813  20.424 -0.40 +0.00    -0.084 Cl ENDBRANCH   5  32TORSDOF 7TERENDMDL