MODEL        8USER    Run = 8USERUSER    Estimated Free Energy of Binding    =  -7.03 kcal/mol  [=(1)+(2)+(3)-(4)]USERUSER    (1) Final Intermolecular Energy     =  -8.82 kcal/molUSER        vdW + Hbond + desolv Energy     =  -8.57 kcal/molUSER        Electrostatic Energy            =  -0.24 kcal/molUSER        Moving Ligand-Fixed Receptor    =  -8.82 kcal/molUSER        Moving Ligand-Moving Receptor   =  +0.00 kcal/molUSER    (2) Final Total Internal Energy     =  -2.48 kcal/molUSER    (3) Torsional Free Energy           =  +1.79 kcal/molUSER    (4) Unbound System's Energy         =  -2.48 kcal/molUSERUSERREMARK SMILES CC(=O)Nc1cc(C)c2c(C)cc(-c3c(C)cc(O)cc3O)c-2c(O)c1OREMARK SMILES IDX 5 1 6 2 7 3 8 4 9 5 10 6 11 7 12 8 13 9 23 10 24 11 26 12REMARK SMILES IDX 4 13 2 14 1 15 3 16 27 18 25 20 14 22 15 23 21 24 17 25REMARK SMILES IDX 20 26 18 27 16 28 22 29 19 31REMARK H PARENT 4 17 27 19 25 21 22 30 19 32USER                              x       y       z     vdW  Elec       q    TypeUSER                           _______ _______ _______ _____ _____    ______ ____ROOTATOM      1  C   UNL     1      34.775  42.793  18.314 -0.32 -0.02    +0.087 A  ATOM      2  C   UNL     1      35.159  42.824  19.611 -0.41 -0.00    +0.034 A  ATOM      3  C   UNL     1      36.449  43.093  20.260 -0.40 +0.00    -0.041 A  ATOM      4  C   UNL     1      36.503  42.517  21.656 -0.50 +0.00    +0.045 C  ATOM      5  C   UNL     1      37.389  43.916  19.744 -0.35 +0.00    -0.008 A  ATOM      6  C   UNL     1      38.456  44.629  20.454 -0.34 +0.00    -0.042 A  ATOM      7  C   UNL     1      38.900  44.493  21.864 -0.34 +0.00    +0.045 C  ATOM      8  C   UNL     1      38.939  45.538  19.590 -0.35 -0.00    +0.013 A  ATOM      9  C   UNL     1      38.308  45.397  18.284 -0.39 +0.00    -0.002 A  ATOM     10  C   UNL     1      37.427  44.365  18.335 -0.32 -0.01    +0.036 A  ATOM     11  C   UNL     1      36.857  43.654  17.211 -0.08 -0.04    +0.168 A  ATOM     12  C   UNL     1      35.723  42.938  17.208 -0.23 -0.06    +0.182 A  ENDROOTBRANCH   1  13ATOM     13  N   UNL     1      33.405  42.612  18.113 -0.13 +0.08    -0.323 N  ATOM     14  C   UNL     1      32.334  42.779  18.964 -0.27 -0.02    +0.221 C  ATOM     15  C   UNL     1      31.019  42.372  18.351 -0.14 -0.01    +0.114 C  ATOM     16  O   UNL     1      32.390  43.247  20.098 -0.80 -0.03    -0.275 OA ATOM     17  H   UNL     1      33.156  42.219  17.211 +0.06 -0.07    +0.170 HD ENDBRANCH   1  13BRANCH  12  18ATOM     18  O   UNL     1      35.491  42.191  16.052 -0.16 +0.22    -0.503 OA ATOM     19  H   UNL     1      36.366  41.883  15.732 +0.13 -0.12    +0.293 HD ENDBRANCH  12  18BRANCH  11  20ATOM     20  O   UNL     1      37.682  43.584  16.093 +0.01 +0.13    -0.504 OA ATOM     21  H   UNL     1      37.059  43.539  15.337 +0.20 -0.09    +0.293 HD ENDBRANCH  11  20BRANCH   9  22ATOM     22  C   UNL     1      38.680  46.231  17.124 -0.39 -0.01    +0.027 A  ATOM     23  C   UNL     1      37.676  46.858  16.352 -0.35 +0.02    -0.036 A  ATOM     24  C   UNL     1      40.028  46.502  16.821 -0.38 -0.02    +0.127 A  ATOM     25  C   UNL     1      38.050  47.749  15.330 -0.45 -0.03    +0.050 A  ATOM     26  C   UNL     1      40.389  47.394  15.816 -0.43 -0.02    +0.093 A  ATOM     27  C   UNL     1      39.392  48.012  15.076 -0.44 -0.04    +0.119 A  ATOM     28  C   UNL     1      36.212  46.623  16.612 -0.38 -0.04    +0.045 C  BRANCH  24  29ATOM     29  O   UNL     1      41.055  45.877  17.480 -0.13 +0.02    -0.507 OA ATOM     30  H   UNL     1      41.861  46.364  17.209 -0.21 -0.05    +0.293 HD ENDBRANCH  24  29BRANCH  27  31ATOM     31  O   UNL     1      39.689  48.890  14.076 -0.14 +0.19    -0.508 OA ATOM     32  H   UNL     1      38.995  49.571  14.053 -0.16 -0.24    +0.293 HD ENDBRANCH  27  31ENDBRANCH   9  22TORSDOF 6TERENDMDL