REMARK SMILES Cc1ncccc1NC(=O)c1ccc(F)c(-c2n[nH]c3cc(O)ccc23)c1N
REMARK SMILES IDX 11 1 12 2 13 3 14 4 15 5 16 6 27 7 9 8 8 9 10 11 7 12 2 13
REMARK SMILES IDX 3 14 4 15 6 16 5 17 1 18 28 19 17 22 18 23 26 24 19 25 25 26
REMARK SMILES IDX 20 27 24 28 21 29 22 30 23 32
REMARK H PARENT 8 10 28 20 28 21 19 31 23 33
ROOT
ATOM      1  C   UNL     1      -0.824   0.557  -0.321  1.00  0.00     0.064 A 
ATOM      2  C   UNL     1      -0.871   1.345  -1.481  1.00  0.00     0.019 A 
ATOM      3  C   UNL     1       0.248   1.429  -2.300  1.00  0.00     0.041 A 
ATOM      4  C   UNL     1       1.409   0.741  -1.954  1.00  0.00     0.134 A 
ATOM      5  F   UNL     1       2.456   0.841  -2.788  1.00  0.00    -0.206 F 
ATOM      6  C   UNL     1       1.492  -0.035  -0.786  1.00  0.00     0.062 A 
ATOM      7  C   UNL     1       0.356  -0.124   0.060  1.00  0.00     0.057 A 
ENDROOT
BRANCH   1   8
ATOM      8  C   UNL     1      -2.042   0.479   0.530  1.00  0.00     0.257 C 
ATOM      9  N   UNL     1      -3.188   0.122  -0.157  1.00  0.00    -0.320 N 
ATOM     10  H   UNL     1      -3.056  -0.167  -1.117  1.00  0.00     0.170 HD
ATOM     11  O   UNL     1      -1.931   0.717   1.727  1.00  0.00    -0.269 OA
BRANCH   9  12
ATOM     12  C   UNL     1      -4.503   0.013   0.358  1.00  0.00     0.062 A 
ATOM     13  C   UNL     1      -5.547  -0.457  -0.463  1.00  0.00     0.061 A 
ATOM     14  N   UNL     1      -6.834  -0.573  -0.038  1.00  0.00    -0.259 NA
ATOM     15  C   UNL     1      -7.104  -0.220   1.235  1.00  0.00     0.111 A 
ATOM     16  C   UNL     1      -4.837   0.370   1.665  1.00  0.00     0.029 A 
ATOM     17  C   UNL     1      -6.151   0.252   2.114  1.00  0.00     0.022 A 
ATOM     18  C   UNL     1      -5.315  -0.873  -1.887  1.00  0.00     0.069 C 
ENDBRANCH   9  12
ENDBRANCH   1   8
BRANCH   7  19
ATOM     19  N   UNL     1       0.321  -1.018   1.152  1.00  0.00    -0.397 N 
ATOM     20  H   UNL     1      -0.254  -0.697   1.933  1.00  0.00     0.156 HD
ATOM     21  H   UNL     1       1.237  -1.379   1.422  1.00  0.00     0.156 HD
ENDBRANCH   7  19
BRANCH   6  22
ATOM     22  C   UNL     1       2.765  -0.686  -0.450  1.00  0.00     0.105 A 
ATOM     23  N   UNL     1       2.808  -1.967  -0.040  1.00  0.00    -0.174 NA
ATOM     24  C   UNL     1       4.079  -0.110  -0.444  1.00  0.00     0.028 A 
ATOM     25  N   UNL     1       4.112  -2.216   0.151  1.00  0.00    -0.277 N 
ATOM     26  C   UNL     1       4.642   1.156  -0.711  1.00  0.00     0.016 A 
ATOM     27  C   UNL     1       4.927  -1.140  -0.050  1.00  0.00     0.069 A 
ATOM     28  C   UNL     1       6.027   1.334  -0.587  1.00  0.00     0.047 A 
ATOM     29  C   UNL     1       6.311  -0.991   0.079  1.00  0.00     0.074 A 
ATOM     30  C   UNL     1       6.836   0.270  -0.200  1.00  0.00     0.117 A 
ATOM     31  H   UNL     1       4.385  -3.149   0.438  1.00  0.00     0.190 HD
BRANCH  30  32
ATOM     32  O   UNL     1       8.187   0.422  -0.074  1.00  0.00    -0.508 OA
ATOM     33  H   UNL     1       8.419   1.337  -0.302  1.00  0.00     0.293 HD
ENDBRANCH  30  32
ENDBRANCH   6  22
TORSDOF 5
