MODEL        5USER    Run = 5USERUSER    Estimated Free Energy of Binding    =  -8.53 kcal/mol  [=(1)+(2)+(3)-(4)]USERUSER    (1) Final Intermolecular Energy     =  -9.42 kcal/molUSER        vdW + Hbond + desolv Energy     =  -9.34 kcal/molUSER        Electrostatic Energy            =  -0.08 kcal/molUSER        Moving Ligand-Fixed Receptor    =  -9.42 kcal/molUSER        Moving Ligand-Moving Receptor   =  +0.00 kcal/molUSER    (2) Final Total Internal Energy     =  -1.21 kcal/molUSER    (3) Torsional Free Energy           =  +0.89 kcal/molUSER    (4) Unbound System's Energy         =  -1.21 kcal/molUSERUSERREMARK SMILES c1ccc(-c2cnn3c2CNC[C@H]3c2ccsc2C2CC2)cc1REMARK SMILES IDX 5 1 6 2 7 3 8 4 9 5 10 6 11 7 12 8 13 9 4 11 1 12 2 13 23 14REMARK SMILES IDX 3 15 22 16 14 17 15 18 18 19 16 20 17 21 19 22 20 23 21 24REMARK H PARENT 11 10USER                              x       y       z     vdW  Elec       q    TypeUSER                           _______ _______ _______ _____ _____    ______ ____ROOTATOM      1  C   UNL     1      35.480  45.970  16.407 -0.33 -0.02    +0.024 A  ATOM      2  C   UNL     1      35.045  46.608  17.590 -0.26 -0.14    +0.144 A  ATOM      3  N   UNL     1      34.657  45.743  18.530 -0.36 +0.09    -0.180 NA ATOM      4  N   UNL     1      34.920  44.541  17.974 -0.14 +0.10    -0.259 N  ATOM      5  C   UNL     1      35.363  44.619  16.675 -0.27 -0.03    +0.061 A  ATOM      6  C   UNL     1      35.605  43.398  15.863 -0.36 -0.05    +0.137 C  ATOM      7  N   UNL     1      35.741  42.195  16.689 -0.22 +0.13    -0.309 NA ATOM      8  C   UNL     1      34.667  42.113  17.696 -0.40 -0.04    +0.113 C  ATOM      9  C   UNL     1      34.672  43.292  18.700 -0.32 -0.03    +0.152 C  ATOM     10  H   UNL     1      35.714  41.374  16.085 -0.38 -0.08    +0.123 HD ENDROOTBRANCH   1  11ATOM     11  C   UNL     1      35.953  46.545  15.165 -0.36 +0.01    -0.015 A  ATOM     12  C   UNL     1      36.860  47.630  12.748 -0.64 -0.00    +0.000 A  ATOM     13  C   UNL     1      35.773  46.757  12.757 -0.62 -0.00    +0.001 A  ATOM     14  C   UNL     1      37.499  47.958  13.943 -0.55 -0.00    +0.001 A  ATOM     15  C   UNL     1      35.322  46.214  13.961 -0.43 -0.01    +0.009 A  ATOM     16  C   UNL     1      37.048  47.417  15.149 -0.43 -0.01    +0.009 A  ENDBRANCH   1  11BRANCH   9  17ATOM     17  C   UNL     1      35.678  43.105  19.823 -0.43 +0.00    -0.008 A  ATOM     18  C   UNL     1      35.486  42.232  20.955 -0.37 +0.00    +0.018 A  ATOM     19  C   UNL     1      36.902  43.743  19.932 -0.38 -0.00    +0.013 A  ATOM     20  C   UNL     1      36.529  42.270  21.852 -0.46 +0.00    +0.065 A  ATOM     21  S   UNL     1      37.747  43.356  21.360 -0.42 -0.00    -0.148 S  BRANCH  19  22ATOM     22  C   UNL     1      37.462  44.766  18.888 -0.39 -0.00    +0.030 C  ATOM     23  C   UNL     1      38.648  44.375  18.043 -0.37 -0.00    +0.010 C  ATOM     24  C   UNL     1      38.807  45.408  19.116 -0.44 -0.00    +0.010 C  ENDBRANCH  19  22ENDBRANCH   9  17TORSDOF 3TERENDMDL