MODEL        10USER    Run = 10USERUSER    Estimated Free Energy of Binding    = -10.56 kcal/mol  [=(1)+(2)+(3)-(4)]USERUSER    (1) Final Intermolecular Energy     = -13.55 kcal/molUSER        vdW + Hbond + desolv Energy     = -13.32 kcal/molUSER        Electrostatic Energy            =  -0.23 kcal/molUSER        Moving Ligand-Fixed Receptor    = -13.55 kcal/molUSER        Moving Ligand-Moving Receptor   =  +0.00 kcal/molUSER    (2) Final Total Internal Energy     =  -3.41 kcal/molUSER    (3) Torsional Free Energy           =  +2.98 kcal/molUSER    (4) Unbound System's Energy         =  -3.41 kcal/molUSERUSERREMARK SMILES COc1ccc(O)c(C(=O)c2ccc(C(=O)N[C@H]3CCN(CC(=O)N4CCOCC4)C[C@@H]3NC(=O)c3ccncc3)cc2)c1FREMARK SMILES IDX 11 1 12 2 13 3 14 4 42 5 43 6 9 7 10 8 8 9 3 10 4 11 44 12REMARK SMILES IDX 5 13 6 14 45 15 2 16 1 17 7 18 15 20 17 21 16 22 18 24 19 25REMARK SMILES IDX 32 26 20 27 31 28 21 29 33 30 34 31 35 33 36 34 37 35 41 36REMARK SMILES IDX 38 37 40 38 39 39 22 40 23 41 25 42 26 43 30 44 27 45 29 46REMARK SMILES IDX 28 47 24 48REMARK H PARENT 7 19 17 23 33 32USER                              x       y       z     vdW  Elec       q    TypeUSER                           _______ _______ _______ _____ _____    ______ ____ROOTATOM      1  C   UNL     1      36.995  43.475  21.815 -0.39 +0.00    +0.023 A  ATOM      2  C   UNL     1      36.336  44.385  20.980 -0.22 +0.00    +0.013 A  ATOM      3  C   UNL     1      35.562  43.915  19.915 -0.40 -0.00    +0.014 A  ATOM      4  C   UNL     1      35.434  42.539  19.682 -0.42 -0.00    +0.039 A  ATOM      5  C   UNL     1      36.058  41.630  20.546 -0.32 -0.00    +0.014 A  ATOM      6  C   UNL     1      36.834  42.099  21.611 -0.51 +0.00    +0.013 A  ENDROOTBRANCH   1   7ATOM      7  C   UNL     1      37.810  43.929  22.967 -0.28 +0.02    +0.199 C  ATOM      8  O   UNL     1      39.005  44.173  22.794 -0.14 -0.01    -0.288 OA BRANCH   7   9ATOM      9  C   UNL     1      37.267  44.052  24.338 -0.27 +0.01    +0.104 A  ATOM     10  C   UNL     1      36.093  43.127  26.264 -0.31 -0.02    +0.155 A  ATOM     11  C   UNL     1      36.278  44.329  26.950 -0.36 -0.01    +0.053 A  ATOM     12  C   UNL     1      36.585  43.003  24.957 -0.25 +0.00    +0.179 A  ATOM     13  C   UNL     1      36.929  45.397  26.328 -0.30 -0.01    +0.051 A  ATOM     14  C   UNL     1      37.405  45.263  25.027 -0.23 +0.01    +0.130 A  ATOM     15  F   UNL     1      36.367  41.857  24.292 -0.15 +0.01    -0.202 F  BRANCH  10  16ATOM     16  O   UNL     1      35.456  42.020  26.759 -0.18 +0.12    -0.494 OA ATOM     17  C   UNL     1      36.242  41.093  27.498 -0.42 -0.10    +0.278 C  ENDBRANCH  10  16BRANCH  14  18ATOM     18  O   UNL     1      38.004  46.365  24.479 -0.47 -0.09    -0.507 OA ATOM     19  H   UNL     1      38.644  46.054  23.797 +0.14 +0.04    +0.293 HD ENDBRANCH  14  18ENDBRANCH   7   9ENDBRANCH   1   7BRANCH   4  20ATOM     20  C   UNL     1      34.607  42.103  18.526 -0.29 -0.05    +0.251 C  ATOM     21  N   UNL     1      33.272  41.863  18.763 -0.17 +0.03    -0.347 N  ATOM     22  O   UNL     1      35.122  41.959  17.420 -0.37 +0.11    -0.269 OA ATOM     23  H   UNL     1      32.877  42.035  19.678 +0.09 +0.02    +0.164 HD BRANCH  21  24ATOM     24  C   UNL     1      32.353  41.452  17.694 -0.35 -0.03    +0.107 C  ATOM     25  C   UNL     1      31.133  40.749  18.287 -0.36 -0.00    +0.042 C  ATOM     26  C   UNL     1      31.919  42.636  16.793 -0.28 -0.05    +0.118 C  ATOM     27  C   UNL     1      30.168  40.309  17.189 -0.36 -0.00    +0.087 C  ATOM     28  C   UNL     1      30.865  42.148  15.770 -0.25 -0.06    +0.112 C  ATOM     29  N   UNL     1      29.721  41.465  16.402 -0.17 +0.08    -0.292 NA BRANCH  26  30ATOM     30  N   UNL     1      33.075  43.241  16.120 -0.13 +0.17    -0.346 N  ATOM     31  C   UNL     1      33.239  44.604  16.020 -0.21 -0.15    +0.251 C  ATOM     32  H   UNL     1      33.793  42.598  15.796 -0.15 -0.09    +0.164 HD ATOM     33  O   UNL     1      32.402  45.400  16.435 -0.47 +0.17    -0.269 OA BRANCH  31  34ATOM     34  C   UNL     1      34.476  45.114  15.361 -0.29 -0.03    +0.042 A  ATOM     35  C   UNL     1      34.481  46.155  14.432 -0.25 -0.03    +0.034 A  ATOM     36  C   UNL     1      35.686  44.500  15.694 -0.33 -0.02    +0.034 A  ATOM     37  C   UNL     1      35.696  46.542  13.892 -0.39 -0.08    +0.112 A  ATOM     38  C   UNL     1      36.846  44.960  15.098 -0.30 -0.05    +0.112 A  ATOM     39  N   UNL     1      36.878  45.973  14.208 -0.21 +0.12    -0.265 NA ENDBRANCH  31  34ENDBRANCH  26  30BRANCH  29  40ATOM     40  C   UNL     1      28.737  41.070  15.365 -0.27 -0.07    +0.185 C  BRANCH  40  41ATOM     41  C   UNL     1      27.279  41.037  15.875 -0.22 -0.04    +0.236 C  ATOM     42  N   UNL     1      26.688  42.276  16.110 -0.07 +0.10    -0.337 N  ATOM     43  C   UNL     1      27.329  43.577  15.895 -0.21 -0.07    +0.148 C  ATOM     44  C   UNL     1      25.335  42.328  16.670 -0.23 -0.01    +0.148 C  ATOM     45  C   UNL     1      26.283  44.684  15.721 -0.23 -0.02    +0.181 C  ATOM     46  C   UNL     1      25.148  43.579  17.534 -0.28 -0.00    +0.181 C  ATOM     47  O   UNL     1      25.390  44.810  16.834 -0.57 -0.07    -0.378 OA ATOM     48  O   UNL     1      26.653  39.992  16.066 -0.53 -0.07    -0.273 OA ENDBRANCH  40  41ENDBRANCH  29  40ENDBRANCH  21  24ENDBRANCH   4  20TORSDOF 10TERENDMDL