MODEL        5USER    Run = 5USERUSER    Estimated Free Energy of Binding    = -13.52 kcal/mol  [=(1)+(2)+(3)-(4)]USERUSER    (1) Final Intermolecular Energy     = -15.91 kcal/molUSER        vdW + Hbond + desolv Energy     = -15.67 kcal/molUSER        Electrostatic Energy            =  -0.24 kcal/molUSER        Moving Ligand-Fixed Receptor    = -15.91 kcal/molUSER        Moving Ligand-Moving Receptor   =  +0.00 kcal/molUSER    (2) Final Total Internal Energy     =  -2.56 kcal/molUSER    (3) Torsional Free Energy           =  +2.39 kcal/molUSER    (4) Unbound System's Energy         =  -2.56 kcal/molUSERUSERREMARK SMILES CN1C[CH]N(c2ccc(-c3nc4cccnc4nc3-c3ccc(CN4CCC(n5c(O)nc6ncccc65)CC4)cc3)cn2)C[C@H]1OREMARK SMILES IDX 20 1 21 2 22 3 23 4 41 5 42 6 19 7 10 8 11 9 12 10 18 11REMARK SMILES IDX 13 12 17 13 14 14 16 15 15 16 9 17 6 18 7 19 44 20 8 21REMARK SMILES IDX 43 22 5 23 2 24 3 25 46 26 4 27 45 28 1 29 47 30 24 32 25 33REMARK SMILES IDX 26 34 40 35 27 36 39 37 28 38 29 39 30 40 38 41 32 42 37 43REMARK SMILES IDX 33 44 36 45 34 46 35 47 31 48REMARK H PARENT 47 31 31 49USER                              x       y       z     vdW  Elec       q    TypeUSER                           _______ _______ _______ _____ _____    ______ ____ROOTATOM      1  C   UNL     1      35.967  44.565  17.861 -0.32 -0.00    +0.002 A  ATOM      2  C   UNL     1      35.703  45.940  17.772 -0.33 -0.01    +0.011 A  ATOM      3  C   UNL     1      35.502  46.554  16.531 -0.29 -0.01    +0.006 A  ATOM      4  C   UNL     1      35.571  45.813  15.343 -0.34 +0.03    -0.034 A  ATOM      5  C   UNL     1      35.833  44.440  15.423 -0.35 -0.00    +0.006 A  ATOM      6  C   UNL     1      36.014  43.824  16.667 -0.36 -0.00    +0.011 A  ENDROOTBRANCH   1   7ATOM      7  C   UNL     1      36.150  43.896  19.160 -0.30 -0.02    +0.099 A  ATOM      8  C   UNL     1      35.275  42.946  19.699 -0.36 -0.01    +0.099 A  ATOM      9  N   UNL     1      35.569  42.324  20.872 -0.31 -0.01    -0.242 NA ATOM     10  C   UNL     1      36.700  42.705  21.501 -0.38 +0.00    +0.108 A  ATOM     11  N   UNL     1      37.287  44.267  19.813 -0.23 +0.02    -0.224 NA ATOM     12  C   UNL     1      37.037  42.126  22.715 -0.47 +0.00    +0.034 A  ATOM     13  C   UNL     1      37.572  43.689  20.981 -0.26 +0.00    +0.178 A  ATOM     14  C   UNL     1      38.191  42.512  23.387 -0.31 +0.00    +0.022 A  ATOM     15  N   UNL     1      38.685  44.067  21.620 -0.18 -0.01    -0.235 NA ATOM     16  C   UNL     1      38.979  43.482  22.800 -0.21 +0.01    +0.114 A  BRANCH   8  17ATOM     17  C   UNL     1      33.974  42.570  19.136 -0.39 -0.00    +0.021 A  ATOM     18  C   UNL     1      31.437  42.019  18.038 -0.22 -0.02    +0.129 A  ATOM     19  C   UNL     1      32.554  41.268  17.664 -0.33 -0.02    +0.047 A  ATOM     20  N   UNL     1      31.582  43.005  18.957 -0.16 +0.01    -0.239 NA ATOM     21  C   UNL     1      33.815  41.545  18.205 -0.34 -0.00    +0.016 A  ATOM     22  C   UNL     1      32.816  43.264  19.461 -0.34 -0.00    +0.124 A  BRANCH  18  23ATOM     23  N   UNL     1      30.157  41.791  17.484 -0.07 +0.06    -0.346 N  ATOM     24  N   UNL     1      27.607  41.266  16.164 -0.13 +0.06    -0.278 NA ATOM     25  C   UNL     1      28.004  40.456  17.332 -0.24 +0.01    +0.114 C  ATOM     26  C   UNL     1      28.065  42.641  16.391 -0.16 -0.07    +0.204 C  ATOM     27  C   UNL     1      29.414  40.663  17.802 -0.23 -0.00    +0.122 C  ATOM     28  C   UNL     1      29.597  42.808  16.575 -0.22 -0.06    +0.166 C  ATOM     29  C   UNL     1      28.155  40.682  14.936 -0.25 -0.04    +0.108 C  BRANCH  26  30ATOM     30  O   UNL     1      27.604  43.468  15.332 -0.10 +0.30    -0.377 OA ATOM     31  H   UNL     1      28.412  43.615  14.807 +0.05 -0.32    +0.212 HD ENDBRANCH  26  30ENDBRANCH  18  23ENDBRANCH   8  17ENDBRANCH   1   7BRANCH   4  32ATOM     32  C   UNL     1      35.331  46.486  14.006 -0.41 -0.09    +0.120 C  BRANCH  32  33ATOM     33  N   UNL     1      36.576  46.958  13.388 -0.30 +0.15    -0.299 NA ATOM     34  C   UNL     1      36.963  48.298  13.827 -0.56 -0.05    +0.087 C  ATOM     35  C   UNL     1      37.668  45.975  13.453 -0.44 -0.03    +0.087 C  ATOM     36  C   UNL     1      37.594  48.333  15.216 -0.55 -0.03    +0.041 C  ATOM     37  C   UNL     1      38.959  46.502  14.089 -0.38 -0.01    +0.041 C  ATOM     38  C   UNL     1      38.631  47.217  15.407 -0.45 -0.04    +0.095 C  BRANCH  38  39ATOM     39  N   UNL     1      39.800  47.679  16.143 -0.28 +0.08    -0.289 N  ATOM     40  C   UNL     1      40.575  48.774  15.869 -0.34 -0.07    +0.296 A  ATOM     41  C   UNL     1      40.315  47.112  17.287 -0.44 -0.01    +0.091 A  ATOM     42  N   UNL     1      41.586  48.917  16.684 -0.94 -0.01    -0.175 NA ATOM     43  C   UNL     1      39.942  46.040  18.106 -0.44 -0.00    +0.032 A  ATOM     44  C   UNL     1      41.437  47.892  17.576 -0.35 -0.01    +0.181 A  ATOM     45  C   UNL     1      40.764  45.813  19.209 -0.44 +0.00    +0.022 A  ATOM     46  N   UNL     1      42.249  47.665  18.632 -0.42 -0.00    -0.235 NA ATOM     47  C   UNL     1      41.875  46.629  19.415 -0.40 +0.01    +0.114 A  BRANCH  40  48ATOM     48  O   UNL     1      40.348  49.635  14.897 -0.18 +0.22    -0.480 OA ATOM     49  H   UNL     1      39.675  50.214  15.304 -0.19 -0.24    +0.296 HD ENDBRANCH  40  48ENDBRANCH  38  39ENDBRANCH  32  33ENDBRANCH   4  32TORSDOF 8TERENDMDL