MODEL        7USER    Run = 7USERUSER    Estimated Free Energy of Binding    =  -8.55 kcal/mol  [=(1)+(2)+(3)-(4)]USERUSER    (1) Final Intermolecular Energy     = -10.34 kcal/molUSER        vdW + Hbond + desolv Energy     = -10.03 kcal/molUSER        Electrostatic Energy            =  -0.31 kcal/molUSER        Moving Ligand-Fixed Receptor    = -10.34 kcal/molUSER        Moving Ligand-Moving Receptor   =  +0.00 kcal/molUSER    (2) Final Total Internal Energy     =  -1.17 kcal/molUSER    (3) Torsional Free Energy           =  +1.79 kcal/molUSER    (4) Unbound System's Energy         =  -1.17 kcal/molUSERUSERREMARK SMILES COc1ccc(O)c(C(=O)c2ccc(C(=O)N[C@@H]3CCCN(C)C3)cc2)c1REMARK SMILES IDX 11 1 12 2 13 3 14 4 25 5 26 6 9 7 10 8 8 9 3 10 4 11 27 12REMARK SMILES IDX 5 13 6 14 2 15 1 16 7 17 15 19 17 20 16 21 18 23 19 24 24 25REMARK SMILES IDX 20 26 22 27 21 28 23 29REMARK H PARENT 7 18 17 22USER                              x       y       z     vdW  Elec       q    TypeUSER                           _______ _______ _______ _____ _____    ______ ____ROOTATOM      1  C   UNL     1      38.497  45.467  17.968 -0.38 -0.00    +0.023 A  ATOM      2  C   UNL     1      37.341  45.501  17.179 -0.35 -0.00    +0.013 A  ATOM      3  C   UNL     1      36.153  44.947  17.663 -0.32 -0.01    +0.014 A  ATOM      4  C   UNL     1      36.113  44.349  18.931 -0.34 -0.01    +0.039 A  ATOM      5  C   UNL     1      37.280  44.281  19.701 -0.36 -0.00    +0.014 A  ATOM      6  C   UNL     1      38.469  44.837  19.219 -0.37 -0.00    +0.013 A  ENDROOTBRANCH   1   7ATOM      7  C   UNL     1      39.784  46.020  17.486 -0.37 -0.03    +0.196 C  ATOM      8  O   UNL     1      40.830  45.641  18.016 -0.30 +0.01    -0.288 OA BRANCH   7   9ATOM      9  C   UNL     1      39.871  47.001  16.374 -0.44 -0.01    +0.068 A  ATOM     10  C   UNL     1      39.072  47.899  14.258 -0.38 -0.04    +0.119 A  ATOM     11  C   UNL     1      40.075  48.869  14.293 -0.37 -0.02    +0.050 A  ATOM     12  C   UNL     1      38.969  46.972  15.301 -0.41 -0.02    +0.062 A  ATOM     13  C   UNL     1      40.959  48.923  15.373 -0.58 -0.01    +0.051 A  ATOM     14  C   UNL     1      40.848  48.004  16.412 -0.43 -0.02    +0.127 A  BRANCH  10  15ATOM     15  O   UNL     1      38.137  47.747  13.272 -0.53 +0.10    -0.497 OA ATOM     16  C   UNL     1      36.779  47.630  13.683 -0.40 -0.15    +0.278 C  ENDBRANCH  10  15BRANCH  14  17ATOM     17  O   UNL     1      41.734  48.142  17.447 -0.48 +0.01    -0.507 OA ATOM     18  H   UNL     1      42.182  47.275  17.574 -0.31 -0.05    +0.293 HD ENDBRANCH  14  17ENDBRANCH   7   9ENDBRANCH   1   7BRANCH   4  19ATOM     19  C   UNL     1      34.822  43.766  19.396 -0.28 -0.04    +0.251 C  ATOM     20  N   UNL     1      33.777  43.796  18.496 -0.10 +0.08    -0.348 N  ATOM     21  O   UNL     1      34.742  43.269  20.513 -0.49 -0.02    -0.269 OA ATOM     22  H   UNL     1      33.990  43.983  17.526 +0.13 -0.06    +0.164 HD BRANCH  20  23ATOM     23  C   UNL     1      32.496  43.146  18.793 -0.36 -0.01    +0.096 C  ATOM     24  C   UNL     1      32.725  41.673  19.181 -0.40 +0.00    +0.027 C  ATOM     25  C   UNL     1      31.505  43.273  17.601 -0.27 -0.02    +0.109 C  ATOM     26  C   UNL     1      32.626  40.771  17.955 -0.47 -0.00    +0.018 C  ATOM     27  N   UNL     1      30.561  42.147  17.558 -0.09 +0.06    -0.304 NA ATOM     28  C   UNL     1      31.248  40.878  17.284 -0.32 -0.02    +0.084 C  ATOM     29  C   UNL     1      29.494  42.386  16.589 -0.26 -0.03    +0.105 C  ENDBRANCH  20  23ENDBRANCH   4  19TORSDOF 6TERENDMDL