MODEL        8USER    Run = 8USERUSER    Estimated Free Energy of Binding    =  -7.88 kcal/mol  [=(1)+(2)+(3)-(4)]USERUSER    (1) Final Intermolecular Energy     =  -9.67 kcal/molUSER        vdW + Hbond + desolv Energy     =  -9.44 kcal/molUSER        Electrostatic Energy            =  -0.22 kcal/molUSER        Moving Ligand-Fixed Receptor    =  -9.67 kcal/molUSER        Moving Ligand-Moving Receptor   =  +0.00 kcal/molUSER    (2) Final Total Internal Energy     =  -2.06 kcal/molUSER    (3) Torsional Free Energy           =  +1.79 kcal/molUSER    (4) Unbound System's Energy         =  -2.06 kcal/molUSERUSERREMARK SMILES COc1ccc(O)c(C(=O)c2ccc(C(=O)N[C@@H]3CCCNC3)nc2)c1FREMARK SMILES IDX 11 1 12 2 13 3 14 4 24 5 25 6 9 7 10 8 8 9 3 10 4 11 26 12REMARK SMILES IDX 5 13 6 14 27 15 2 16 1 17 7 18 15 20 17 21 16 22 18 24 19 25REMARK SMILES IDX 23 26 20 27 22 28 21 29REMARK H PARENT 7 19 17 23 22 30USER                              x       y       z     vdW  Elec       q    TypeUSER                           _______ _______ _______ _____ _____    ______ ____ROOTATOM      1  C   UNL     1      42.022  46.848  19.292 -0.46 +0.00    +0.041 A  ATOM      2  C   UNL     1      41.019  45.877  19.233 -0.44 +0.00    +0.016 A  ATOM      3  C   UNL     1      40.120  45.888  18.166 -0.44 -0.00    +0.035 A  ATOM      4  C   UNL     1      40.251  46.881  17.202 -0.41 -0.02    +0.128 A  ATOM      5  N   UNL     1      41.202  47.858  17.242 -0.43 +0.03    -0.250 NA ATOM      6  C   UNL     1      42.058  47.817  18.293 -0.38 -0.00    +0.124 A  ENDROOTBRANCH   1   7ATOM      7  C   UNL     1      42.995  46.937  20.398 -0.34 +0.06    +0.201 C  ATOM      8  O   UNL     1      44.122  47.371  20.158 -0.40 -0.17    -0.288 OA BRANCH   7   9ATOM      9  C   UNL     1      42.672  46.584  21.798 -0.26 +0.02    +0.104 A  ATOM     10  C   UNL     1      42.020  44.962  23.499 -0.08 +0.01    +0.155 A  ATOM     11  C   UNL     1      42.053  45.967  24.466 -0.08 +0.00    +0.053 A  ATOM     12  C   UNL     1      42.339  45.281  22.170 -0.15 +0.03    +0.179 A  ATOM     13  C   UNL     1      42.419  47.269  24.111 -0.18 +0.01    +0.051 A  ATOM     14  C   UNL     1      42.741  47.569  22.789 -0.25 +0.02    +0.130 A  ATOM     15  F   UNL     1      42.341  44.299  21.254 -0.08 -0.04    -0.202 F  BRANCH  10  16ATOM     16  O   UNL     1      41.695  43.652  23.726 -0.03 -0.01    -0.494 OA ATOM     17  C   UNL     1      40.445  43.193  23.226 -0.16 +0.01    +0.278 C  ENDBRANCH  10  16BRANCH  14  18ATOM     18  O   UNL     1      43.119  48.859  22.534 -0.62 -0.12    -0.507 OA ATOM     19  H   UNL     1      43.652  48.862  21.706 -0.43 -0.06    +0.293 HD ENDBRANCH  14  18ENDBRANCH   7   9ENDBRANCH   1   7BRANCH   4  20ATOM     20  C   UNL     1      39.300  46.930  16.045 -0.32 -0.08    +0.270 C  ATOM     21  N   UNL     1      39.309  48.123  15.353 -0.24 +0.13    -0.347 N  ATOM     22  O   UNL     1      38.575  45.981  15.769 -0.23 +0.08    -0.268 OA ATOM     23  H   UNL     1      39.856  48.868  15.782 +0.11 -0.06    +0.164 HD BRANCH  21  24ATOM     24  C   UNL     1      38.328  48.438  14.327 -0.51 -0.05    +0.096 C  ATOM     25  C   UNL     1      36.917  48.498  14.935 -0.49 -0.03    +0.027 C  ATOM     26  C   UNL     1      38.409  47.419  13.162 -0.23 -0.02    +0.105 C  ATOM     27  C   UNL     1      36.147  47.212  14.657 -0.40 -0.01    +0.017 C  ATOM     28  N   UNL     1      37.184  47.374  12.355 -0.91 +0.08    -0.315 NA ATOM     29  C   UNL     1      36.025  46.954  13.150 -0.60 -0.05    +0.081 C  ATOM     30  H   UNL     1      37.012  48.307  11.978 -0.02 -0.01    +0.122 HD ENDBRANCH  21  24ENDBRANCH   4  20TORSDOF 6TERENDMDL