MODEL        9USER    Run = 9USERUSER    Estimated Free Energy of Binding    =  -8.32 kcal/mol  [=(1)+(2)+(3)-(4)]USERUSER    (1) Final Intermolecular Energy     = -10.11 kcal/molUSER        vdW + Hbond + desolv Energy     =  -9.88 kcal/molUSER        Electrostatic Energy            =  -0.23 kcal/molUSER        Moving Ligand-Fixed Receptor    = -10.11 kcal/molUSER        Moving Ligand-Moving Receptor   =  +0.00 kcal/molUSER    (2) Final Total Internal Energy     =  -1.48 kcal/molUSER    (3) Torsional Free Energy           =  +1.79 kcal/molUSER    (4) Unbound System's Energy         =  -1.48 kcal/molUSERUSERREMARK SMILES COc1ccc(O)c(C(=O)c2ccc(C(=O)N[C@H]3CCCN(C)C3)cc2)c1FREMARK SMILES IDX 11 1 12 2 13 3 14 4 25 5 26 6 9 7 10 8 8 9 3 10 4 11 27 12REMARK SMILES IDX 5 13 6 14 28 15 2 16 1 17 7 18 15 20 17 21 16 22 18 24 19 25REMARK SMILES IDX 24 26 20 27 22 28 21 29 23 30REMARK H PARENT 7 19 17 23USER                              x       y       z     vdW  Elec       q    TypeUSER                           _______ _______ _______ _____ _____    ______ ____ROOTATOM      1  C   UNL     1      33.649  42.902  17.798 -0.33 -0.01    +0.023 A  ATOM      2  C   UNL     1      33.701  44.289  17.603 -0.30 -0.01    +0.013 A  ATOM      3  C   UNL     1      34.691  44.850  16.790 -0.30 -0.01    +0.014 A  ATOM      4  C   UNL     1      35.640  44.025  16.173 -0.34 -0.02    +0.039 A  ATOM      5  C   UNL     1      35.609  42.643  16.402 -0.44 -0.01    +0.014 A  ATOM      6  C   UNL     1      34.619  42.080  17.213 -0.37 -0.01    +0.013 A  ENDROOTBRANCH   1   7ATOM      7  C   UNL     1      32.601  42.357  18.692 -0.29 -0.02    +0.199 C  ATOM      8  O   UNL     1      32.507  42.800  19.837 -0.68 -0.03    -0.288 OA BRANCH   7   9ATOM      9  C   UNL     1      31.689  41.261  18.295 -0.29 -0.01    +0.104 A  ATOM     10  C   UNL     1      29.979  40.325  16.830 -0.28 -0.01    +0.155 A  ATOM     11  C   UNL     1      29.989  39.146  17.578 -0.28 +0.01    +0.053 A  ATOM     12  C   UNL     1      30.827  41.379  17.203 -0.21 -0.05    +0.179 A  ATOM     13  C   UNL     1      30.823  39.031  18.692 -0.38 +0.01    +0.051 A  ATOM     14  C   UNL     1      31.654  40.087  19.056 -0.31 +0.01    +0.130 A  ATOM     15  F   UNL     1      30.780  42.523  16.502 -0.05 +0.08    -0.202 F  BRANCH  10  16ATOM     16  O   UNL     1      29.195  40.563  15.733 -0.20 +0.07    -0.494 OA ATOM     17  C   UNL     1      28.077  41.423  15.904 -0.19 -0.09    +0.278 C  ENDBRANCH  10  16BRANCH  14  18ATOM     18  O   UNL     1      32.414  39.904  20.180 -0.74 -0.27    -0.507 OA ATOM     19  H   UNL     1      32.946  40.721  20.321 +0.26 +0.15    +0.293 HD ENDBRANCH  14  18ENDBRANCH   7   9ENDBRANCH   1   7BRANCH   4  20ATOM     20  C   UNL     1      36.717  44.574  15.305 -0.25 -0.10    +0.251 C  ATOM     21  N   UNL     1      36.320  45.088  14.088 -0.16 +0.15    -0.348 N  ATOM     22  O   UNL     1      37.886  44.530  15.671 -0.19 +0.08    -0.269 OA ATOM     23  H   UNL     1      35.379  44.912  13.766 +0.13 -0.08    +0.164 HD BRANCH  21  24ATOM     24  C   UNL     1      37.296  45.601  13.124 -0.47 -0.03    +0.096 C  ATOM     25  C   UNL     1      36.596  46.462  12.071 -0.73 -0.01    +0.027 C  ATOM     26  C   UNL     1      38.438  46.408  13.808 -0.36 -0.03    +0.109 C  ATOM     27  C   UNL     1      36.075  47.779  12.658 -0.69 -0.01    +0.018 C  ATOM     28  N   UNL     1      38.256  47.878  13.778 -0.41 +0.10    -0.304 NA ATOM     29  C   UNL     1      36.849  48.246  13.897 -0.54 -0.05    +0.084 C  ATOM     30  C   UNL     1      39.071  48.517  14.808 -0.51 -0.05    +0.105 C  ENDBRANCH  21  24ENDBRANCH   4  20TORSDOF 6TERENDMDL