REMARK SMILES COc1ccc(O)c(C(=O)c2ccc(C(=O)N[C@@H]3CCCNC3)cn2)c1F
REMARK SMILES IDX 11 1 12 2 13 3 14 4 24 5 25 6 9 7 10 8 8 9 3 10 4 11 26 12
REMARK SMILES IDX 5 13 6 14 27 15 2 16 1 17 7 18 15 20 17 21 16 22 18 24 19 25
REMARK SMILES IDX 23 26 20 27 22 28 21 29
REMARK H PARENT 7 19 17 23 22 30
ROOT
ATOM      1  C   UNL     1       1.384  -0.010   1.288  1.00  0.00     0.111 A 
ATOM      2  C   UNL     1       0.243   0.559   1.845  1.00  0.00     0.033 A 
ATOM      3  C   UNL     1      -0.848   0.816   1.013  1.00  0.00     0.018 A 
ATOM      4  C   UNL     1      -0.771   0.480  -0.341  1.00  0.00     0.058 A 
ATOM      5  C   UNL     1       0.412  -0.087  -0.804  1.00  0.00     0.125 A 
ATOM      6  N   UNL     1       1.486  -0.356  -0.019  1.00  0.00    -0.252 NA
ENDROOT
BRANCH   1   7
ATOM      7  C   UNL     1       2.540  -0.330   2.163  1.00  0.00     0.218 C 
ATOM      8  O   UNL     1       2.368  -0.566   3.361  1.00  0.00    -0.287 OA
BRANCH   7   9
ATOM      9  C   UNL     1       3.908  -0.447   1.622  1.00  0.00     0.105 A 
ATOM     10  C   UNL     1       5.676   0.302   0.123  1.00  0.00     0.155 A 
ATOM     11  C   UNL     1       6.502  -0.721   0.596  1.00  0.00     0.053 A 
ATOM     12  C   UNL     1       4.383   0.434   0.649  1.00  0.00     0.180 A 
ATOM     13  C   UNL     1       6.048  -1.582   1.600  1.00  0.00     0.051 A 
ATOM     14  C   UNL     1       4.765  -1.433   2.121  1.00  0.00     0.130 A 
ATOM     15  F   UNL     1       3.618   1.461   0.242  1.00  0.00    -0.202 F 
BRANCH  10  16
ATOM     16  O   UNL     1       6.024   1.226  -0.826  1.00  0.00    -0.494 OA
ATOM     17  C   UNL     1       7.306   1.093  -1.426  1.00  0.00     0.278 C 
ENDBRANCH  10  16
BRANCH  14  18
ATOM     18  O   UNL     1       4.411  -2.284   3.134  1.00  0.00    -0.507 OA
ATOM     19  H   UNL     1       3.601  -1.925   3.559  1.00  0.00     0.293 HD
ENDBRANCH  14  18
ENDBRANCH   7   9
ENDBRANCH   1   7
BRANCH   4  20
ATOM     20  C   UNL     1      -1.873   0.715  -1.306  1.00  0.00     0.253 C 
ATOM     21  N   UNL     1      -3.137   0.870  -0.774  1.00  0.00    -0.348 N 
ATOM     22  O   UNL     1      -1.637   0.737  -2.508  1.00  0.00    -0.269 OA
ATOM     23  H   UNL     1      -3.301   0.453   0.134  1.00  0.00     0.164 HD
BRANCH  21  24
ATOM     24  C   UNL     1      -4.315   0.865  -1.647  1.00  0.00     0.096 C 
ATOM     25  C   UNL     1      -5.452   1.678  -1.006  1.00  0.00     0.027 C 
ATOM     26  C   UNL     1      -4.759  -0.590  -1.905  1.00  0.00     0.105 C 
ATOM     27  C   UNL     1      -6.579   0.798  -0.462  1.00  0.00     0.017 C 
ATOM     28  N   UNL     1      -5.151  -1.267  -0.657  1.00  0.00    -0.315 NA
ATOM     29  C   UNL     1      -6.050  -0.478   0.188  1.00  0.00     0.081 C 
ATOM     30  H   UNL     1      -5.583  -2.163  -0.888  1.00  0.00     0.122 HD
ENDBRANCH  21  24
ENDBRANCH   4  20
TORSDOF 6
