REMARK SMILES COc1ccc(O)c(C(=O)c2ccc(C(=O)N[C@H]3CCCN(C)C3)cc2)c1F
REMARK SMILES IDX 11 1 12 2 13 3 14 4 25 5 26 6 9 7 10 8 8 9 3 10 4 11 27 12
REMARK SMILES IDX 5 13 6 14 28 15 2 16 1 17 7 18 15 20 17 21 16 22 18 24 19 25
REMARK SMILES IDX 24 26 20 27 22 28 21 29 23 30
REMARK H PARENT 7 19 17 23
ROOT
ATOM      1  C   UNL     1       0.902   1.974  -0.441  1.00  0.00     0.023 A 
ATOM      2  C   UNL     1      -0.349   1.789   0.162  1.00  0.00     0.013 A 
ATOM      3  C   UNL     1      -0.993   0.550   0.084  1.00  0.00     0.014 A 
ATOM      4  C   UNL     1      -0.389  -0.510  -0.605  1.00  0.00     0.039 A 
ATOM      5  C   UNL     1       0.844  -0.310  -1.240  1.00  0.00     0.014 A 
ATOM      6  C   UNL     1       1.489   0.928  -1.162  1.00  0.00     0.013 A 
ENDROOT
BRANCH   1   7
ATOM      7  C   UNL     1       1.531   3.313  -0.358  1.00  0.00     0.199 C 
ATOM      8  O   UNL     1       0.814   4.312  -0.426  1.00  0.00    -0.288 OA
BRANCH   7   9
ATOM      9  C   UNL     1       2.993   3.515  -0.251  1.00  0.00     0.104 A 
ATOM     10  C   UNL     1       5.199   2.816   0.518  1.00  0.00     0.155 A 
ATOM     11  C   UNL     1       5.763   3.939  -0.090  1.00  0.00     0.053 A 
ATOM     12  C   UNL     1       3.812   2.619   0.438  1.00  0.00     0.179 A 
ATOM     13  C   UNL     1       4.948   4.860  -0.753  1.00  0.00     0.051 A 
ATOM     14  C   UNL     1       3.572   4.656  -0.818  1.00  0.00     0.130 A 
ATOM     15  F   UNL     1       3.275   1.557   1.061  1.00  0.00    -0.202 F 
BRANCH  10  16
ATOM     16  O   UNL     1       5.890   1.857   1.210  1.00  0.00    -0.494 OA
ATOM     17  C   UNL     1       7.295   2.030   1.338  1.00  0.00     0.278 C 
ENDBRANCH  10  16
BRANCH  14  18
ATOM     18  O   UNL     1       2.843   5.623  -1.457  1.00  0.00    -0.507 OA
ATOM     19  H   UNL     1       1.893   5.473  -1.247  1.00  0.00     0.293 HD
ENDBRANCH  14  18
ENDBRANCH   7   9
ENDBRANCH   1   7
BRANCH   4  20
ATOM     20  C   UNL     1      -1.036  -1.845  -0.722  1.00  0.00     0.251 C 
ATOM     21  N   UNL     1      -1.866  -2.216   0.316  1.00  0.00    -0.348 N 
ATOM     22  O   UNL     1      -0.800  -2.561  -1.688  1.00  0.00    -0.269 OA
ATOM     23  H   UNL     1      -1.859  -1.672   1.167  1.00  0.00     0.164 HD
BRANCH  21  24
ATOM     24  C   UNL     1      -2.511  -3.531   0.341  1.00  0.00     0.096 C 
ATOM     25  C   UNL     1      -3.056  -3.825   1.740  1.00  0.00     0.027 C 
ATOM     26  C   UNL     1      -3.646  -3.656  -0.717  1.00  0.00     0.109 C 
ATOM     27  C   UNL     1      -4.250  -2.930   2.092  1.00  0.00     0.018 C 
ATOM     28  N   UNL     1      -5.011  -3.437  -0.185  1.00  0.00    -0.304 NA
ATOM     29  C   UNL     1      -5.019  -2.424   0.866  1.00  0.00     0.084 C 
ATOM     30  C   UNL     1      -5.936  -3.103  -1.265  1.00  0.00     0.105 C 
ENDBRANCH  21  24
ENDBRANCH   4  20
TORSDOF 6
