MODEL        2USER    Run = 2USERUSER    Estimated Free Energy of Binding    =  -8.73 kcal/mol  [=(1)+(2)+(3)-(4)]USERUSER    (1) Final Intermolecular Energy     = -10.52 kcal/molUSER        vdW + Hbond + desolv Energy     = -10.19 kcal/molUSER        Electrostatic Energy            =  -0.33 kcal/molUSER        Moving Ligand-Fixed Receptor    = -10.52 kcal/molUSER        Moving Ligand-Moving Receptor   =  +0.00 kcal/molUSER    (2) Final Total Internal Energy     =  -1.19 kcal/molUSER    (3) Torsional Free Energy           =  +1.79 kcal/molUSER    (4) Unbound System's Energy         =  -1.19 kcal/molUSERUSERREMARK SMILES COc1ccc(O)c(C(=O)c2ccc(C(=O)N[C@H]3CNC[C@@H](F)C3)cc2)c1FREMARK SMILES IDX 11 1 12 2 13 3 14 4 25 5 26 6 9 7 10 8 8 9 3 10 4 11 27 12REMARK SMILES IDX 5 13 6 14 28 15 2 16 1 17 7 18 15 20 17 21 16 22 18 24 19 25REMARK SMILES IDX 24 26 20 27 22 28 21 29 23 31REMARK H PARENT 7 19 17 23 20 30USER                              x       y       z     vdW  Elec       q    TypeUSER                           _______ _______ _______ _____ _____    ______ ____ROOTATOM      1  C   UNL     1      42.136  47.030  19.106 -0.51 +0.00    +0.023 A  ATOM      2  C   UNL     1      42.124  48.097  18.200 -0.37 -0.00    +0.013 A  ATOM      3  C   UNL     1      41.269  48.063  17.090 -0.48 -0.00    +0.014 A  ATOM      4  C   UNL     1      40.407  46.975  16.900 -0.48 -0.01    +0.039 A  ATOM      5  C   UNL     1      40.419  45.913  17.814 -0.47 -0.00    +0.014 A  ATOM      6  C   UNL     1      41.270  45.946  18.920 -0.47 +0.00    +0.013 A  ENDROOTBRANCH   1   7ATOM      7  C   UNL     1      43.001  47.041  20.309 -0.35 +0.05    +0.199 C  ATOM      8  O   UNL     1      44.187  47.353  20.181 -0.41 -0.19    -0.288 OA BRANCH   7   9ATOM      9  C   UNL     1      42.531  46.640  21.653 -0.27 +0.02    +0.104 A  ATOM     10  C   UNL     1      41.606  44.993  23.198 -0.10 +0.01    +0.155 A  ATOM     11  C   UNL     1      41.666  45.931  24.231 -0.10 +0.00    +0.053 A  ATOM     12  C   UNL     1      42.035  45.361  21.913 -0.17 +0.03    +0.179 A  ATOM     13  C   UNL     1      42.132  47.224  23.976 -0.19 +0.01    +0.051 A  ATOM     14  C   UNL     1      42.546  47.577  22.694 -0.24 +0.02    +0.130 A  ATOM     15  F   UNL     1      41.940  44.461  20.922 -0.08 -0.04    -0.202 F  BRANCH  10  16ATOM     16  O   UNL     1      41.158  43.705  23.322 -0.03 -0.01    -0.494 OA ATOM     17  C   UNL     1      39.875  43.406  22.788 -0.16 +0.01    +0.278 C  ENDBRANCH  10  16BRANCH  14  18ATOM     18  O   UNL     1      42.960  48.871  22.526 -0.66 -0.11    -0.507 OA ATOM     19  H   UNL     1      43.567  48.896  21.750 -0.42 -0.05    +0.293 HD ENDBRANCH  14  18ENDBRANCH   7   9ENDBRANCH   1   7BRANCH   4  20ATOM     20  C   UNL     1      39.485  46.892  15.735 -0.34 -0.06    +0.251 C  ATOM     21  N   UNL     1      38.270  47.533  15.866 -0.18 +0.18    -0.348 N  ATOM     22  O   UNL     1      39.809  46.259  14.737 -0.32 +0.04    -0.269 OA ATOM     23  H   UNL     1      38.005  47.925  16.759 +0.10 -0.12    +0.164 HD BRANCH  21  24ATOM     24  C   UNL     1      37.274  47.504  14.798 -0.46 -0.06    +0.099 C  ATOM     25  C   UNL     1      37.857  48.007  13.462 -0.45 -0.03    +0.106 C  ATOM     26  C   UNL     1      36.672  46.096  14.645 -0.42 -0.03    +0.065 C  ATOM     27  N   UNL     1      36.871  48.098  12.376 -0.92 +0.08    -0.312 NA ATOM     28  C   UNL     1      36.245  45.796  13.213 -0.42 -0.08    +0.182 C  ATOM     29  C   UNL     1      35.828  47.061  12.460 -0.60 -0.07    +0.118 C  ATOM     30  H   UNL     1      37.367  47.999  11.488 -0.12 +0.00    +0.122 HD ATOM     31  F   UNL     1      37.310  45.241  12.558 -0.10 +0.08    -0.246 F  ENDBRANCH  21  24ENDBRANCH   4  20TORSDOF 6TERENDMDL