
     RDKit          3D

 42 43  0  0  0  0  0  0  0  0999 V2000
    8.1462    0.0922   -0.6271 C   0  0  0  0  0  0  0  0  0  0  0  0
    7.4519    0.3681    0.6977 C   0  0  0  0  0  0  0  0  0  0  0  0
    6.3921    1.3524    0.5659 N   0  0  0  0  0  0  0  0  0  0  0  0
    5.1631    0.9791    0.0417 C   0  0  0  0  0  0  0  0  0  0  0  0
    4.9284   -0.1409   -0.3939 O   0  0  0  0  0  0  0  0  0  0  0  0
    4.3146    2.0704   -0.0077 N   0  0  0  0  0  0  0  0  0  0  0  0
    2.9484    2.0462   -0.1472 C   0  0  0  0  0  0  0  0  0  0  0  0
    2.2225    0.9872   -0.0395 N   0  0  0  0  0  0  0  0  0  0  0  0
    0.8902    1.2219   -0.2134 N   0  0  0  0  0  0  0  0  0  0  0  0
   -0.0072    0.1927    0.1635 C   0  0  0  0  0  0  0  0  0  0  0  0
    0.3595   -0.8384    1.0369 C   0  0  0  0  0  0  0  0  0  0  0  0
   -0.5751   -1.7854    1.4613 C   0  0  0  0  0  0  0  0  0  0  0  0
   -1.9017   -1.7041    1.0339 C   0  0  0  0  0  0  0  0  0  0  0  0
   -2.2971   -0.6656    0.1907 C   0  0  0  0  0  0  0  0  0  0  0  0
   -3.5607   -0.4540   -0.2908 O   0  0  0  0  0  0  0  0  0  0  0  0
   -4.5871   -1.3278    0.1740 C   0  0  0  0  0  0  0  0  0  0  0  0
   -5.8858   -0.8712   -0.4407 C   0  0  0  0  0  0  0  0  0  0  0  0
   -6.2646   -1.3762   -1.6943 C   0  0  0  0  0  0  0  0  0  0  0  0
   -7.4474   -0.9388   -2.2734 C   0  0  0  0  0  0  0  0  0  0  0  0
   -8.2714   -0.0395   -1.7010 N   0  0  0  0  0  0  0  0  0  0  0  0
   -7.8819    0.4532   -0.5005 C   0  0  0  0  0  0  0  0  0  0  0  0
   -6.7159    0.0801    0.1598 C   0  0  0  0  0  0  0  0  0  0  0  0
   -6.3580    0.8080    1.6815 Cl  0  0  0  0  0  0  0  0  0  0  0  0
   -1.3503    0.2774   -0.2309 C   0  0  0  0  0  0  0  0  0  0  0  0
    8.9593   -0.6267   -0.4866 H   0  0  0  0  0  0  0  0  0  0  0  0
    7.4527   -0.3193   -1.3700 H   0  0  0  0  0  0  0  0  0  0  0  0
    8.5702    1.0137   -1.0430 H   0  0  0  0  0  0  0  0  0  0  0  0
    7.0375   -0.5586    1.1158 H   0  0  0  0  0  0  0  0  0  0  0  0
    8.1758    0.7743    1.4160 H   0  0  0  0  0  0  0  0  0  0  0  0
    6.3309    2.0231    1.3187 H   0  0  0  0  0  0  0  0  0  0  0  0
    4.7719    2.9691   -0.0529 H   0  0  0  0  0  0  0  0  0  0  0  0
    2.5278    3.0544   -0.3315 H   0  0  0  0  0  0  0  0  0  0  0  0
    0.6178    1.6434   -1.1013 H   0  0  0  0  0  0  0  0  0  0  0  0
    1.3857   -0.9083    1.3904 H   0  0  0  0  0  0  0  0  0  0  0  0
   -0.2643   -2.5835    2.1315 H   0  0  0  0  0  0  0  0  0  0  0  0
   -2.5946   -2.4602    1.3873 H   0  0  0  0  0  0  0  0  0  0  0  0
   -4.6525   -1.3207    1.2701 H   0  0  0  0  0  0  0  0  0  0  0  0
   -4.3828   -2.3600   -0.1447 H   0  0  0  0  0  0  0  0  0  0  0  0
   -5.6423   -2.0958   -2.2216 H   0  0  0  0  0  0  0  0  0  0  0  0
   -7.7678   -1.3111   -3.2450 H   0  0  0  0  0  0  0  0  0  0  0  0
   -8.5614    1.1866   -0.0695 H   0  0  0  0  0  0  0  0  0  0  0  0
   -1.6765    1.0927   -0.8731 H   0  0  0  0  0  0  0  0  0  0  0  0
  1  2  1  0
  2  3  1  0
  3  4  1  0
  4  5  2  0
  4  6  1  0
  6  7  1  0
  7  8  2  3
  8  9  1  0
  9 10  1  0
 10 11  2  0
 11 12  1  0
 12 13  2  0
 13 14  1  0
 14 15  1  0
 15 16  1  0
 16 17  1  0
 17 18  2  0
 18 19  1  0
 19 20  2  0
 20 21  1  0
 21 22  2  0
 22 23  1  0
 14 24  2  0
 24 10  1  0
 22 17  1  0
  1 25  1  0
  1 26  1  0
  1 27  1  0
  2 28  1  0
  2 29  1  0
  3 30  1  0
  6 31  1  0
  7 32  1  0
  9 33  1  0
 11 34  1  0
 12 35  1  0
 13 36  1  0
 16 37  1  0
 16 38  1  0
 18 39  1  0
 19 40  1  0
 21 41  1  0
 24 42  1  0
M  END
$$$$
