
     RDKit          3D

 44 45  0  0  0  0  0  0  0  0999 V2000
   -5.0852    3.4562    3.7238 O   0  0  0  0  0  0  0  0  0  0  0  0
   -4.7082    3.6725    2.5835 C   0  0  0  0  0  0  0  0  0  0  0  0
   -5.2508    4.6896    1.8831 O   0  0  0  0  0  0  0  0  0  0  0  0
   -3.6526    2.9261    1.8153 C   0  0  0  0  0  0  0  0  0  0  0  0
   -3.9037    1.4235    1.8778 C   0  0  0  0  0  0  0  0  0  0  0  0
   -2.9027    0.6634    1.0101 C   0  0  0  0  0  0  0  0  0  0  0  0
   -3.1600   -0.8371    0.9989 C   0  0  0  0  0  0  0  0  0  0  0  0
   -4.1408   -1.3441    1.5550 O   0  0  0  0  0  0  0  0  0  0  0  0
   -2.2012   -1.7379    0.3051 C   0  0  0  0  0  0  0  0  0  0  0  0
   -1.1858   -1.2626   -0.4282 C   0  0  0  0  0  0  0  0  0  0  0  0
   -0.0807   -1.9945   -1.0669 C   0  0  0  0  0  0  0  0  0  0  0  0
    0.3337   -3.1731   -0.5363 C   0  0  0  0  0  0  0  0  0  0  0  0
    1.6150   -3.5965   -0.4383 C   0  0  0  0  0  0  0  0  0  0  0  0
    2.8535   -2.6793   -0.6986 C   0  0  0  0  0  0  0  0  0  0  0  0
    3.9552   -2.9674   -1.5193 C   0  0  0  0  0  0  0  0  0  0  0  0
    4.8085   -1.9374   -1.6330 N   0  0  0  0  0  0  0  0  0  0  0  0
    4.1784   -0.9534   -0.8963 N   0  0  0  0  0  0  0  0  0  0  0  0
    4.5992    0.4376   -0.9656 C   0  0  0  0  0  0  0  0  0  0  0  0
    6.4240    0.6212   -0.8333 S   0  0  0  0  0  0  0  0  0  0  0  0
    3.0752   -1.4031   -0.2311 C   0  0  0  0  0  0  0  0  0  0  0  0
    2.1499   -0.5142    0.6816 C   0  0  0  0  0  0  0  0  0  0  0  0
    1.3153    0.4641    0.2483 N   0  0  0  0  0  0  0  0  0  0  0  0
    1.3309    0.8509   -1.1735 N   0  0  0  0  0  0  0  0  0  0  0  0
    1.0384   -0.1138   -2.0929 C   0  0  0  0  0  0  0  0  0  0  0  0
    0.5984   -1.4000   -2.0821 C   0  0  0  0  0  0  0  0  0  0  0  0
    1.0785   -2.2048   -3.1346 O   0  0  0  0  0  0  0  0  0  0  0  0
   -5.8856    5.0772    2.5188 H   0  0  0  0  0  0  0  0  0  0  0  0
   -2.6731    3.1881    2.2302 H   0  0  0  0  0  0  0  0  0  0  0  0
   -3.6694    3.2583    0.7714 H   0  0  0  0  0  0  0  0  0  0  0  0
   -4.9266    1.2032    1.5489 H   0  0  0  0  0  0  0  0  0  0  0  0
   -3.8382    1.0795    2.9167 H   0  0  0  0  0  0  0  0  0  0  0  0
   -1.8896    0.8409    1.3931 H   0  0  0  0  0  0  0  0  0  0  0  0
   -2.9691    1.0261   -0.0212 H   0  0  0  0  0  0  0  0  0  0  0  0
   -2.3563   -2.7939    0.4704 H   0  0  0  0  0  0  0  0  0  0  0  0
   -1.0696   -0.1832   -0.5587 H   0  0  0  0  0  0  0  0  0  0  0  0
   -0.3557   -3.7396    0.0798 H   0  0  0  0  0  0  0  0  0  0  0  0
    1.8080   -4.5171    0.0966 H   0  0  0  0  0  0  0  0  0  0  0  0
    4.1597   -3.8758   -2.0667 H   0  0  0  0  0  0  0  0  0  0  0  0
    4.2826    0.8151   -1.9426 H   0  0  0  0  0  0  0  0  0  0  0  0
    4.1330    1.0266   -0.1746 H   0  0  0  0  0  0  0  0  0  0  0  0
    6.6537   -0.4316   -1.6339 H   0  0  0  0  0  0  0  0  0  0  0  0
    2.1408   -0.7899    1.7322 H   0  0  0  0  0  0  0  0  0  0  0  0
    1.3978    0.1722   -3.0845 H   0  0  0  0  0  0  0  0  0  0  0  0
    1.9754   -1.8335   -3.2286 H   0  0  0  0  0  0  0  0  0  0  0  0
  1  2  2  0
  2  3  1  0
  2  4  1  0
  4  5  1  0
  5  6  1  0
  6  7  1  0
  7  8  2  0
  7  9  1  0
  9 10  2  3
 10 11  1  0
 11 12  2  0
 12 13  1  0
 13 14  2  0
 14 15  1  0
 15 16  2  0
 16 17  1  0
 17 18  1  0
 18 19  1  0
 17 20  1  0
 20 21  2  0
 21 22  1  0
 22 23  2  0
 23 24  1  0
 24 25  2  0
 25 26  1  0
 25 11  1  0
 20 14  1  0
  3 27  1  0
  4 28  1  0
  4 29  1  0
  5 30  1  0
  5 31  1  0
  6 32  1  0
  6 33  1  0
  9 34  1  0
 10 35  1  0
 12 36  1  0
 13 37  1  0
 15 38  1  0
 18 39  1  0
 18 40  1  0
 19 41  1  0
 21 42  1  0
 24 43  1  0
 26 44  1  0
M  END
$$$$
