
     RDKit          3D

 51 55  0  0  0  0  0  0  0  0999 V2000
   -5.2005   -2.1488   -0.6813 N   0  0  0  0  0  0  0  0  0  0  0  0
   -4.4494   -2.8857    0.2515 C   0  0  0  0  0  0  0  0  0  0  0  0
   -5.0070   -4.0574    0.6128 N   0  0  0  0  0  0  0  0  0  0  0  0
   -4.3125   -4.8334    1.4512 C   0  0  0  0  0  0  0  0  0  0  0  0
   -3.1071   -4.5541    1.9525 N   0  0  0  0  0  0  0  0  0  0  0  0
   -2.5815   -3.3748    1.5574 C   0  0  0  0  0  0  0  0  0  0  0  0
   -3.1941   -2.4684    0.7002 C   0  0  0  0  0  0  0  0  0  0  0  0
   -2.5399   -1.2016    0.3481 C   0  0  0  0  0  0  0  0  0  0  0  0
   -1.2203   -1.0991    0.6339 N   0  0  0  0  0  0  0  0  0  0  0  0
   -0.5349    0.0520    0.3419 C   0  0  0  0  0  0  0  0  0  0  0  0
    0.8994    0.0984    0.6768 C   0  0  0  0  0  0  0  0  0  0  0  0
    1.7906    1.0207    0.0971 C   0  0  0  0  0  0  0  0  0  0  0  0
    3.1512    1.0398    0.4309 C   0  0  0  0  0  0  0  0  0  0  0  0
    3.6568    0.1173    1.3439 C   0  0  0  0  0  0  0  0  0  0  0  0
    4.9729    0.1028    1.7429 O   0  0  0  0  0  0  0  0  0  0  0  0
    5.9330    0.1806    0.7598 C   0  0  0  0  0  0  0  0  0  0  0  0
    6.9954    1.0576    0.9795 C   0  0  0  0  0  0  0  0  0  0  0  0
    8.0209    1.1569    0.0384 C   0  0  0  0  0  0  0  0  0  0  0  0
    7.9892    0.3696   -1.1132 C   0  0  0  0  0  0  0  0  0  0  0  0
    6.9374   -0.5237   -1.3213 C   0  0  0  0  0  0  0  0  0  0  0  0
    5.9116   -0.6265   -0.3808 C   0  0  0  0  0  0  0  0  0  0  0  0
    2.8005   -0.7956    1.9489 C   0  0  0  0  0  0  0  0  0  0  0  0
    1.4426   -0.8085    1.6107 C   0  0  0  0  0  0  0  0  0  0  0  0
   -1.2493    1.1086   -0.2413 C   0  0  0  0  0  0  0  0  0  0  0  0
   -0.9139    2.3864   -0.6471 N   0  0  0  0  0  0  0  0  0  0  0  0
   -2.0253    2.9112   -1.1149 C   0  0  0  0  0  0  0  0  0  0  0  0
   -3.0703    2.0368   -1.0240 N   0  0  0  0  0  0  0  0  0  0  0  0
   -4.4295    2.2903   -1.4390 C   0  0  0  0  0  0  0  0  0  0  0  0
   -5.3443    2.6266   -0.2685 C   0  0  0  0  0  0  0  0  0  0  0  0
   -6.6500    2.9406   -0.7395 O   0  0  0  0  0  0  0  0  0  0  0  0
   -2.5971    0.8773   -0.4744 C   0  0  0  0  0  0  0  0  0  0  0  0
   -3.2989   -0.2349   -0.2108 N   0  0  0  0  0  0  0  0  0  0  0  0
   -5.2415   -1.1791   -0.3682 H   0  0  0  0  0  0  0  0  0  0  0  0
   -4.6991   -2.1331   -1.5647 H   0  0  0  0  0  0  0  0  0  0  0  0
   -4.7683   -5.7721    1.7450 H   0  0  0  0  0  0  0  0  0  0  0  0
   -1.5996   -3.1719    1.9812 H   0  0  0  0  0  0  0  0  0  0  0  0
    1.4433    1.7487   -0.6333 H   0  0  0  0  0  0  0  0  0  0  0  0
    3.8012    1.7813   -0.0257 H   0  0  0  0  0  0  0  0  0  0  0  0
    7.0220    1.6643    1.8805 H   0  0  0  0  0  0  0  0  0  0  0  0
    8.8460    1.8445    0.2050 H   0  0  0  0  0  0  0  0  0  0  0  0
    8.7896    0.4457   -1.8451 H   0  0  0  0  0  0  0  0  0  0  0  0
    6.9205   -1.1459   -2.2125 H   0  0  0  0  0  0  0  0  0  0  0  0
    5.1067   -1.3384   -0.5402 H   0  0  0  0  0  0  0  0  0  0  0  0
    3.1847   -1.5021    2.6795 H   0  0  0  0  0  0  0  0  0  0  0  0
    0.8003   -1.5409    2.0972 H   0  0  0  0  0  0  0  0  0  0  0  0
   -2.1236    3.9098   -1.5231 H   0  0  0  0  0  0  0  0  0  0  0  0
   -4.4210    3.1116   -2.1656 H   0  0  0  0  0  0  0  0  0  0  0  0
   -4.7951    1.4078   -1.9773 H   0  0  0  0  0  0  0  0  0  0  0  0
   -5.4308    1.7748    0.4142 H   0  0  0  0  0  0  0  0  0  0  0  0
   -4.9658    3.4767    0.3097 H   0  0  0  0  0  0  0  0  0  0  0  0
   -6.6456    3.8574   -1.0663 H   0  0  0  0  0  0  0  0  0  0  0  0
  1  2  1  0
  2  3  2  0
  3  4  1  0
  4  5  2  0
  5  6  1  0
  6  7  2  0
  7  8  1  0
  8  9  2  0
  9 10  1  0
 10 11  1  0
 11 12  2  0
 12 13  1  0
 13 14  2  0
 14 15  1  0
 15 16  1  0
 16 17  2  0
 17 18  1  0
 18 19  2  0
 19 20  1  0
 20 21  2  0
 14 22  1  0
 22 23  2  0
 10 24  2  0
 24 25  1  0
 25 26  2  0
 26 27  1  0
 27 28  1  0
 28 29  1  0
 29 30  1  0
 27 31  1  0
 31 32  2  0
  7  2  1  0
 32  8  1  0
 23 11  1  0
 31 24  1  0
 21 16  1  0
  1 33  1  0
  1 34  1  0
  4 35  1  0
  6 36  1  0
 12 37  1  0
 13 38  1  0
 17 39  1  0
 18 40  1  0
 19 41  1  0
 20 42  1  0
 21 43  1  0
 22 44  1  0
 23 45  1  0
 26 46  1  0
 28 47  1  0
 28 48  1  0
 29 49  1  0
 29 50  1  0
 30 51  1  0
M  END
$$$$
