
     RDKit          3D

 53 55  0  0  0  0  0  0  0  0999 V2000
   -3.8158   -3.1727    0.6162 C   0  0  0  0  0  0  0  0  0  0  0  0
   -3.5596   -1.6835    0.4217 C   0  0  0  0  0  0  0  0  0  0  0  0
   -2.6476   -1.1283    1.5168 C   0  0  0  0  0  0  0  0  0  0  0  0
   -2.1909    0.2490    1.2935 N   0  0  0  0  0  0  0  0  0  0  0  0
   -3.2071    1.3058    1.2453 C   0  0  0  0  0  0  0  0  0  0  0  0
   -3.7800    1.5204   -0.1442 C   0  0  0  0  0  0  0  0  0  0  0  0
   -5.1490    1.6493   -0.3132 C   0  0  0  0  0  0  0  0  0  0  0  0
   -5.5883    1.8807   -1.5990 C   0  0  0  0  0  0  0  0  0  0  0  0
   -4.7667    1.9953   -2.6573 N   0  0  0  0  0  0  0  0  0  0  0  0
   -3.4580    1.8672   -2.3905 C   0  0  0  0  0  0  0  0  0  0  0  0
   -2.9165    1.6310   -1.1842 N   0  0  0  0  0  0  0  0  0  0  0  0
   -0.8995    0.6306    1.6405 C   0  0  0  0  0  0  0  0  0  0  0  0
   -0.6480    1.7114    2.1707 O   0  0  0  0  0  0  0  0  0  0  0  0
    0.0971   -0.2988    1.3697 N   0  0  0  0  0  0  0  0  0  0  0  0
    0.1848   -0.8626    0.0115 C   0  0  0  0  0  0  0  0  0  0  0  0
    1.0160    0.0509   -0.9188 C   0  0  0  0  0  0  0  0  0  0  0  0
    2.3555    0.3824   -0.3586 N   0  0  0  0  0  0  0  0  0  0  0  0
    3.3070   -0.5752   -0.5434 C   0  0  0  0  0  0  0  0  0  0  0  0
    3.1364   -1.8784   -0.5786 N   0  0  0  0  0  0  0  0  0  0  0  0
    4.3812   -2.4192   -0.7759 C   0  0  0  0  0  0  0  0  0  0  0  0
    5.3267   -1.4308   -0.8928 C   0  0  0  0  0  0  0  0  0  0  0  0
    4.6293   -0.2553   -0.7602 N   0  0  0  0  0  0  0  0  0  0  0  0
    5.2004    1.0648   -0.9371 C   0  0  0  0  0  0  0  0  0  0  0  0
    6.0385    1.5102    0.2490 C   0  0  0  0  0  0  0  0  0  0  0  0
    2.2485    0.9060    1.0314 C   0  0  0  0  0  0  0  0  0  0  0  0
    1.4218   -0.0350    1.9334 C   0  0  0  0  0  0  0  0  0  0  0  0
   -4.4899   -3.5432   -0.1620 H   0  0  0  0  0  0  0  0  0  0  0  0
   -2.8819   -3.7435    0.5547 H   0  0  0  0  0  0  0  0  0  0  0  0
   -4.2763   -3.3674    1.5898 H   0  0  0  0  0  0  0  0  0  0  0  0
   -4.5231   -1.1638    0.4349 H   0  0  0  0  0  0  0  0  0  0  0  0
   -3.1141   -1.5217   -0.5660 H   0  0  0  0  0  0  0  0  0  0  0  0
   -3.1793   -1.1366    2.4760 H   0  0  0  0  0  0  0  0  0  0  0  0
   -1.7912   -1.7947    1.6567 H   0  0  0  0  0  0  0  0  0  0  0  0
   -2.7940    2.2709    1.5555 H   0  0  0  0  0  0  0  0  0  0  0  0
   -3.9948    1.0536    1.9635 H   0  0  0  0  0  0  0  0  0  0  0  0
   -5.8456    1.5688    0.5109 H   0  0  0  0  0  0  0  0  0  0  0  0
   -6.6465    1.9906   -1.8187 H   0  0  0  0  0  0  0  0  0  0  0  0
   -2.7748    1.9679   -3.2254 H   0  0  0  0  0  0  0  0  0  0  0  0
   -0.8057   -0.9877   -0.4322 H   0  0  0  0  0  0  0  0  0  0  0  0
    0.6342   -1.8560    0.1038 H   0  0  0  0  0  0  0  0  0  0  0  0
    0.4764    0.9955   -1.0709 H   0  0  0  0  0  0  0  0  0  0  0  0
    1.1156   -0.4115   -1.9102 H   0  0  0  0  0  0  0  0  0  0  0  0
    4.5279   -3.4904   -0.8317 H   0  0  0  0  0  0  0  0  0  0  0  0
    6.3929   -1.4608   -1.0691 H   0  0  0  0  0  0  0  0  0  0  0  0
    5.8230    1.0240   -1.8386 H   0  0  0  0  0  0  0  0  0  0  0  0
    4.3954    1.7793   -1.1330 H   0  0  0  0  0  0  0  0  0  0  0  0
    5.4430    1.5550    1.1664 H   0  0  0  0  0  0  0  0  0  0  0  0
    6.8716    0.8200    0.4259 H   0  0  0  0  0  0  0  0  0  0  0  0
    6.4564    2.5031    0.0643 H   0  0  0  0  0  0  0  0  0  0  0  0
    1.7795    1.8944    0.9871 H   0  0  0  0  0  0  0  0  0  0  0  0
    3.2390    1.0495    1.4743 H   0  0  0  0  0  0  0  0  0  0  0  0
    1.9254   -1.0020    2.0362 H   0  0  0  0  0  0  0  0  0  0  0  0
    1.3208    0.3913    2.9372 H   0  0  0  0  0  0  0  0  0  0  0  0
  1  2  1  0
  2  3  1  0
  3  4  1  0
  4  5  1  0
  5  6  1  0
  6  7  2  0
  7  8  1  0
  8  9  2  0
  9 10  1  0
 10 11  2  0
  4 12  1  0
 12 13  2  0
 12 14  1  0
 14 15  1  0
 15 16  1  0
 16 17  1  0
 17 18  1  0
 18 19  2  0
 19 20  1  0
 20 21  2  0
 21 22  1  0
 22 23  1  0
 23 24  1  0
 17 25  1  0
 25 26  1  0
 11  6  1  0
 26 14  1  0
 22 18  1  0
  1 27  1  0
  1 28  1  0
  1 29  1  0
  2 30  1  0
  2 31  1  0
  3 32  1  0
  3 33  1  0
  5 34  1  0
  5 35  1  0
  7 36  1  0
  8 37  1  0
 10 38  1  0
 15 39  1  0
 15 40  1  0
 16 41  1  0
 16 42  1  0
 20 43  1  0
 21 44  1  0
 23 45  1  0
 23 46  1  0
 24 47  1  0
 24 48  1  0
 24 49  1  0
 25 50  1  0
 25 51  1  0
 26 52  1  0
 26 53  1  0
M  END
$$$$
