
     RDKit          3D

 30 32  0  0  0  0  0  0  0  0999 V2000
   -4.1151    0.2809    0.6474 C   0  0  0  0  0  0  0  0  0  0  0  0
   -3.1707   -0.0209   -0.5056 C   0  0  0  0  0  0  0  0  0  0  0  0
   -3.1390   -1.5227   -0.8686 C   0  0  0  0  0  0  0  0  0  0  0  0
   -1.7544   -1.9078   -1.2209 N   0  0  0  0  0  0  0  0  0  0  0  0
   -0.9783   -0.8678   -0.6438 C   0  0  0  0  0  0  0  0  0  0  0  0
    0.4051   -0.8560   -0.5781 C   0  0  0  0  0  0  0  0  0  0  0  0
    1.0631    0.2564   -0.0227 C   0  0  0  0  0  0  0  0  0  0  0  0
    2.5315    0.2877    0.0815 C   0  0  0  0  0  0  0  0  0  0  0  0
    3.2361   -0.7567    0.6918 C   0  0  0  0  0  0  0  0  0  0  0  0
    4.6184   -0.6833    0.7687 C   0  0  0  0  0  0  0  0  0  0  0  0
    5.3441    0.3450    0.2835 N   0  0  0  0  0  0  0  0  0  0  0  0
    4.6541    1.3436   -0.3042 C   0  0  0  0  0  0  0  0  0  0  0  0
    3.2730    1.3611   -0.4259 C   0  0  0  0  0  0  0  0  0  0  0  0
    0.2821    1.3443    0.4316 C   0  0  0  0  0  0  0  0  0  0  0  0
   -1.1135    1.3365    0.3336 C   0  0  0  0  0  0  0  0  0  0  0  0
   -1.7271    0.2205   -0.2074 C   0  0  0  0  0  0  0  0  0  0  0  0
   -3.8289   -0.2596    1.5567 H   0  0  0  0  0  0  0  0  0  0  0  0
   -5.1402   -0.0050    0.3901 H   0  0  0  0  0  0  0  0  0  0  0  0
   -4.1142    1.3498    0.8861 H   0  0  0  0  0  0  0  0  0  0  0  0
   -3.4520    0.5652   -1.3893 H   0  0  0  0  0  0  0  0  0  0  0  0
   -3.8198   -1.7421   -1.6989 H   0  0  0  0  0  0  0  0  0  0  0  0
   -3.4557   -2.1421   -0.0195 H   0  0  0  0  0  0  0  0  0  0  0  0
   -1.6012   -1.8905   -2.2289 H   0  0  0  0  0  0  0  0  0  0  0  0
    0.9657   -1.7078   -0.9516 H   0  0  0  0  0  0  0  0  0  0  0  0
    2.7190   -1.6130    1.1136 H   0  0  0  0  0  0  0  0  0  0  0  0
    5.1937   -1.4752    1.2394 H   0  0  0  0  0  0  0  0  0  0  0  0
    5.2589    2.1586   -0.6914 H   0  0  0  0  0  0  0  0  0  0  0  0
    2.7884    2.1957   -0.9218 H   0  0  0  0  0  0  0  0  0  0  0  0
    0.7680    2.2131    0.8728 H   0  0  0  0  0  0  0  0  0  0  0  0
   -1.6912    2.1921    0.6677 H   0  0  0  0  0  0  0  0  0  0  0  0
  1  2  1  0
  2  3  1  0
  3  4  1  0
  4  5  1  0
  5  6  2  0
  6  7  1  0
  7  8  1  0
  8  9  2  0
  9 10  1  0
 10 11  2  0
 11 12  1  0
 12 13  2  0
  7 14  2  0
 14 15  1  0
 15 16  2  0
 16  2  1  0
 16  5  1  0
 13  8  1  0
  1 17  1  0
  1 18  1  0
  1 19  1  0
  2 20  1  0
  3 21  1  0
  3 22  1  0
  4 23  1  0
  6 24  1  0
  9 25  1  0
 10 26  1  0
 12 27  1  0
 13 28  1  0
 14 29  1  0
 15 30  1  0
M  END
$$$$
