REMARK SMILES O=C1Nc2ccc(C(F)(F)F)cc2/C1=C/N1COc2ccc(-n3cc(CC4CC4)nn3)cc2[C@H](O)C1
REMARK SMILES IDX 17 1 16 2 15 3 14 4 2 5 3 6 4 7 13 8 5 9 12 10 6 11 7 12
REMARK SMILES IDX 1 13 8 15 9 16 10 17 11 18 36 19 18 21 19 22 20 23 33 24
REMARK SMILES IDX 21 25 32 26 22 27 34 28 35 30 23 32 24 33 31 34 25 35 30 36
REMARK SMILES IDX 26 37 27 38 28 39 29 40
REMARK H PARENT 3 14 35 31
REMARK Flexibility Score:  105.900
ROOT
ATOM      1  C   UNL     1      -1.653   0.294   1.478  1.00  0.00     0.351 C 
ENDROOT
BRANCH   1   2
ATOM      2  N   UNL     1      -2.247  -0.048   0.178  1.00  0.00    -0.342 N 
BRANCH   2   3
ATOM      3  C   UNL     1      -3.623  -0.135  -0.026  1.00  0.00     0.098 C 
BRANCH   3   4
ATOM      4  C   UNL     1      -4.680   0.551   0.434  1.00  0.00     0.065 C 
ATOM      5  C   UNL     1      -4.714   1.774   1.319  1.00  0.00     0.257 C 
ATOM      6  N   UNL     1      -6.061   2.075   1.463  1.00  0.00    -0.321 N 
ATOM      7  C   UNL     1      -6.862   1.190   0.753  1.00  0.00     0.049 A 
ATOM      8  C   UNL     1      -6.079   0.238   0.098  1.00  0.00     0.013 A 
ATOM      9  C   UNL     1      -8.239   1.206   0.673  1.00  0.00     0.027 A 
ATOM     10  C   UNL     1      -6.678  -0.748  -0.668  1.00  0.00     0.024 A 
ATOM     11  C   UNL     1      -8.849   0.215  -0.101  1.00  0.00     0.015 A 
ATOM     12  C   UNL     1      -8.083  -0.769  -0.769  1.00  0.00     0.056 A 
ATOM     13  O   UNL     1      -3.794   2.395   1.811  1.00  0.00    -0.269 OA
ATOM     14  H   UNL     1      -6.381   2.861   2.007  1.00  0.00     0.170 HD
BRANCH  12  15
ATOM     15  C   UNL     1      -8.758  -1.829  -1.611  1.00  0.00     0.416 C 
ATOM     16  F   UNL     1     -10.091  -1.953  -1.359  1.00  0.00    -0.166 F 
ATOM     17  F   UNL     1      -8.647  -1.578  -2.944  1.00  0.00    -0.166 F 
ATOM     18  F   UNL     1      -8.225  -3.068  -1.417  1.00  0.00    -0.166 F 
ENDBRANCH  12  15
ENDBRANCH   3   4
ENDBRANCH   2   3
BRANCH   2  19
ATOM     19  C   UNL     1      -1.304  -0.756  -0.724  1.00  0.00     0.156 CG0
ATOM     20  G   UNL     1      -0.136   0.152  -1.174  1.00  0.00     0.000 G0
ENDBRANCH   2  19
ENDBRANCH   1   2
BRANCH   1  21
ATOM     21  O   UNL     1      -0.795   1.429   1.361  1.00  0.00    -0.473 OA
BRANCH  21  22
ATOM     22  C   UNL     1       0.498   1.059   1.115  1.00  0.00     0.127 A 
ATOM     23  C   UNL     1       1.444   1.375   2.089  1.00  0.00     0.049 A 
ATOM     24  C   UNL     1       0.873   0.446  -0.087  1.00  0.00     0.027 A 
ATOM     25  C   UNL     1       2.783   1.037   1.897  1.00  0.00     0.032 A 
ATOM     26  C   UNL     1       2.231   0.129  -0.283  1.00  0.00     0.038 A 
ATOM     27  C   UNL     1       3.186   0.409   0.710  1.00  0.00     0.067 A 
BRANCH  24  28
ATOM     28  C   UNL     1      -0.136   0.152  -1.174  1.00  0.00     0.167 CG0
ATOM     29  G   UNL     1      -1.304  -0.756  -0.724  1.00  0.00     0.000 G0
BRANCH  28  30
ATOM     30  O   UNL     1      -0.639   1.384  -1.694  1.00  0.00    -0.386 OA
ATOM     31  H   UNL     1      -1.299   1.675  -1.028  1.00  0.00     0.211 HD
ENDBRANCH  28  30
ENDBRANCH  24  28
BRANCH  27  32
ATOM     32  N   UNL     1       4.551   0.061   0.533  1.00  0.00    -0.220 N 
ATOM     33  C   UNL     1       5.164  -0.508  -0.560  1.00  0.00     0.140 A 
ATOM     34  N   UNL     1       5.468   0.242   1.515  1.00  0.00    -0.062 NA
ATOM     35  C   UNL     1       6.478  -0.679  -0.183  1.00  0.00     0.083 A 
ATOM     36  N   UNL     1       6.637  -0.220   1.094  1.00  0.00    -0.135 NA
BRANCH  35  37
ATOM     37  C   UNL     1       7.613  -1.268  -0.941  1.00  0.00     0.063 C 
BRANCH  37  38
ATOM     38  C   UNL     1       8.771  -0.334  -1.158  1.00  0.00    -0.005 C 
ATOM     39  C   UNL     1      10.110  -0.874  -1.587  1.00  0.00     0.004 C 
ATOM     40  C   UNL     1       9.936  -0.322  -0.199  1.00  0.00     0.004 C 
ENDBRANCH  37  38
ENDBRANCH  35  37
ENDBRANCH  27  32
ENDBRANCH  21  22
ENDBRANCH   1  21
TORSDOF 7
