REMARK SMILES Fc1n[nH]c2ccc(-c3cc4c(-c5ccc(-n6ccnn6)c(CN6CCOCC6)c5)n[nH]c4cn3)cc12
REMARK SMILES IDX 9 1 10 2 11 3 12 4 31 5 32 6 33 7 34 8 35 9 8 11 2 12 3 13
REMARK SMILES IDX 37 14 4 15 36 16 5 17 6 18 7 19 1 20 13 22 14 23 30 24 15 25
REMARK SMILES IDX 22 26 16 27 23 28 24 29 25 30 29 31 26 32 28 33 27 34 17 35
REMARK SMILES IDX 18 36 21 37 19 38 20 39
REMARK H PARENT 32 10 4 21
ROOT
ATOM      1  C   UNL     1       3.530   0.098  -0.679  1.00  0.00     0.071 A 
ATOM      2  C   UNL     1       2.295  -0.551  -0.723  1.00  0.00     0.041 A 
ATOM      3  C   UNL     1       2.172  -1.662  -1.571  1.00  0.00     0.031 A 
ATOM      4  C   UNL     1       1.141  -2.588  -1.930  1.00  0.00     0.100 A 
ATOM      5  N   UNL     1       1.608  -3.517  -2.781  1.00  0.00    -0.174 NA
ATOM      6  N   UNL     1       2.885  -3.163  -2.995  1.00  0.00    -0.276 N 
ATOM      7  C   UNL     1       3.284  -2.062  -2.296  1.00  0.00     0.084 A 
ATOM      8  C   UNL     1       4.492  -1.394  -2.231  1.00  0.00     0.140 A 
ATOM      9  N   UNL     1       4.592  -0.311  -1.423  1.00  0.00    -0.254 NA
ATOM     10  H   UNL     1       3.435  -3.726  -3.634  1.00  0.00     0.190 HD
ENDROOT
BRANCH   1  11
ATOM     11  C   UNL     1       3.764   1.291   0.164  1.00  0.00     0.001 A 
ATOM     12  C   UNL     1       5.582   4.653   0.405  1.00  0.00     0.240 A 
ATOM     13  N   UNL     1       5.439   5.458   1.459  1.00  0.00    -0.144 NA
ATOM     14  C   UNL     1       4.835   3.462   0.505  1.00  0.00     0.057 A 
ATOM     15  N   UNL     1       4.592   4.774   2.248  1.00  0.00    -0.275 N 
ATOM     16  C   UNL     1       4.625   2.316  -0.284  1.00  0.00     0.025 A 
ATOM     17  C   UNL     1       4.191   3.567   1.732  1.00  0.00     0.068 A 
ATOM     18  C   UNL     1       3.341   2.578   2.228  1.00  0.00     0.029 A 
ATOM     19  C   UNL     1       3.148   1.445   1.423  1.00  0.00     0.012 A 
ATOM     20  F   UNL     1       6.359   4.957  -0.643  1.00  0.00    -0.182 F 
ATOM     21  H   UNL     1       4.322   5.187   3.134  1.00  0.00     0.190 HD
ENDBRANCH   1  11
BRANCH   4  22
ATOM     22  C   UNL     1      -0.246  -2.616  -1.470  1.00  0.00     0.003 A 
ATOM     23  C   UNL     1      -0.857  -3.825  -1.141  1.00  0.00     0.013 A 
ATOM     24  C   UNL     1      -0.985  -1.434  -1.337  1.00  0.00     0.017 A 
ATOM     25  C   UNL     1      -2.173  -3.850  -0.668  1.00  0.00     0.029 A 
ATOM     26  C   UNL     1      -2.313  -1.427  -0.845  1.00  0.00    -0.007 A 
ATOM     27  C   UNL     1      -2.920  -2.663  -0.518  1.00  0.00     0.071 A 
BRANCH  26  28
ATOM     28  C   UNL     1      -2.939  -0.060  -0.615  1.00  0.00     0.122 C 
BRANCH  28  29
ATOM     29  N   UNL     1      -3.040   0.259   0.819  1.00  0.00    -0.294 NA
ATOM     30  C   UNL     1      -1.751   0.626   1.440  1.00  0.00     0.113 C 
ATOM     31  C   UNL     1      -3.999   1.361   1.054  1.00  0.00     0.113 C 
ATOM     32  C   UNL     1      -1.244   2.027   1.056  1.00  0.00     0.175 C 
ATOM     33  C   UNL     1      -3.457   2.746   0.663  1.00  0.00     0.175 C 
ATOM     34  O   UNL     1      -2.223   3.033   1.335  1.00  0.00    -0.379 OA
ENDBRANCH  28  29
ENDBRANCH  26  28
BRANCH  27  35
ATOM     35  N   UNL     1      -4.269  -2.773  -0.060  1.00  0.00    -0.220 N 
ATOM     36  C   UNL     1      -4.878  -3.860   0.539  1.00  0.00     0.137 A 
ATOM     37  N   UNL     1      -5.202  -1.809  -0.244  1.00  0.00    -0.062 NA
ATOM     38  C   UNL     1      -6.187  -3.487   0.713  1.00  0.00     0.157 A 
ATOM     39  N   UNL     1      -6.367  -2.233   0.226  1.00  0.00    -0.139 NA
ENDBRANCH  27  35
ENDBRANCH   4  22
TORSDOF 5
