REMARK SMILES Cn1ncc2cc(-c3ccnc(Nc4ccc(N)c(-c5nc(N6CCOCC6)no5)c4)n3)ccc21
REMARK SMILES IDX 13 1 12 3 8 4 9 5 32 6 10 7 11 8 7 9 2 10 3 11 35 12 4 13
REMARK SMILES IDX 34 14 5 15 33 16 6 17 1 18 14 19 15 20 31 21 16 22 19 23
REMARK SMILES IDX 17 24 20 25 21 26 30 27 22 28 29 29 23 30 24 31 28 32 25 33
REMARK SMILES IDX 27 34 26 35 18 36
REMARK H PARENT 13 2 18 37 18 38
ROOT
ATOM      1  N   UNL     1       0.337   0.687  -1.450  1.00  0.00    -0.324 N 
ATOM      2  H   UNL     1      -0.325   1.031  -2.130  1.00  0.00     0.170 HD
ENDROOT
BRANCH   1   3
ATOM      3  C   UNL     1       1.623   1.010  -1.874  1.00  0.00     0.227 A 
ATOM      4  C   UNL     1       3.923   1.046  -1.624  1.00  0.00     0.076 A 
ATOM      5  C   UNL     1       4.066   1.727  -2.815  1.00  0.00     0.049 A 
ATOM      6  N   UNL     1       2.706   0.696  -1.153  1.00  0.00    -0.213 NA
ATOM      7  C   UNL     1       2.905   2.016  -3.485  1.00  0.00     0.117 A 
ATOM      8  N   UNL     1       1.685   1.671  -3.040  1.00  0.00    -0.221 NA
BRANCH   4   9
ATOM      9  C   UNL     1       5.069   0.666  -0.772  1.00  0.00     0.001 A 
ATOM     10  N   UNL     1       8.068  -0.331   1.917  1.00  0.00    -0.268 N 
ATOM     11  N   UNL     1       7.504  -0.164   3.130  1.00  0.00    -0.181 NA
ATOM     12  C   UNL     1       7.229  -0.047   0.866  1.00  0.00     0.068 A 
ATOM     13  C   UNL     1       6.260   0.228   2.842  1.00  0.00     0.143 A 
ATOM     14  C   UNL     1       7.404  -0.083  -0.521  1.00  0.00     0.029 A 
ATOM     15  C   UNL     1       6.025   0.323   1.454  1.00  0.00     0.021 A 
ATOM     16  C   UNL     1       6.306   0.277  -1.319  1.00  0.00     0.012 A 
ATOM     17  C   UNL     1       4.938   0.677   0.634  1.00  0.00     0.022 A 
ATOM     18  C   UNL     1       9.443  -0.762   1.826  1.00  0.00     0.174 C 
ENDBRANCH   4   9
ENDBRANCH   1   3
BRANCH   1  19
ATOM     19  C   UNL     1      -0.171  -0.056  -0.381  1.00  0.00     0.042 A 
ATOM     20  C   UNL     1       0.618  -0.749   0.533  1.00  0.00     0.028 A 
ATOM     21  C   UNL     1      -1.560  -0.093  -0.186  1.00  0.00     0.042 A 
ATOM     22  C   UNL     1       0.042  -1.454   1.596  1.00  0.00     0.028 A 
ATOM     23  C   UNL     1      -2.166  -0.792   0.884  1.00  0.00     0.065 A 
ATOM     24  C   UNL     1      -1.342  -1.453   1.817  1.00  0.00     0.044 A 
BRANCH  23  25
ATOM     25  C   UNL     1      -3.627  -0.762   0.954  1.00  0.00     0.261 A 
ATOM     26  N   UNL     1      -4.499  -0.322   0.071  1.00  0.00    -0.171 NA
ATOM     27  O   UNL     1      -4.219  -1.198   2.102  1.00  0.00    -0.332 OA
ATOM     28  C   UNL     1      -5.699  -0.517   0.701  1.00  0.00     0.266 A 
ATOM     29  N   UNL     1      -5.589  -1.039   1.931  1.00  0.00    -0.038 NA
BRANCH  28  30
ATOM     30  N   UNL     1      -6.838  -0.175   0.062  1.00  0.00    -0.334 N 
ATOM     31  C   UNL     1      -6.824   0.372  -1.293  1.00  0.00     0.148 C 
ATOM     32  C   UNL     1      -8.140  -0.269   0.721  1.00  0.00     0.148 C 
ATOM     33  C   UNL     1      -8.187   0.142  -1.965  1.00  0.00     0.181 C 
ATOM     34  C   UNL     1      -9.086   0.806   0.162  1.00  0.00     0.181 C 
ATOM     35  O   UNL     1      -9.292   0.724  -1.257  1.00  0.00    -0.378 OA
ENDBRANCH  28  30
ENDBRANCH  23  25
BRANCH  24  36
ATOM     36  N   UNL     1      -1.835  -2.298   2.826  1.00  0.00    -0.398 N 
ATOM     37  H   UNL     1      -1.189  -2.455   3.594  1.00  0.00     0.156 HD
ATOM     38  H   UNL     1      -2.771  -2.075   3.156  1.00  0.00     0.156 HD
ENDBRANCH  24  36
ENDBRANCH   1  19
TORSDOF 6
