MODEL        10USER    Run = 10USERUSER    Estimated Free Energy of Binding    =  -7.95 kcal/mol  [=(1)+(2)+(3)-(4)]USERUSER    (1) Final Intermolecular Energy     = -11.53 kcal/molUSER        vdW + Hbond + desolv Energy     = -11.89 kcal/molUSER        Electrostatic Energy            =  -0.16 kcal/molUSER        Moving Ligand-Fixed Receptor    = -12.05 kcal/molUSER        Moving Ligand-Moving Receptor   =  +0.52 kcal/molUSER    (2) Final Total Internal Energy     =  -1.87 kcal/molUSER    (3) Torsional Free Energy           =  +3.58 kcal/molUSER    (4) Unbound System's Energy         =  -1.87 kcal/molUSERUSERREMARK SMILES O=C1Nc2ccc(C(F)(F)F)cc2/C1=C/N1COc2ccc(-n3cc(CC4CC4)nn3)cc2[C@H](O)C1REMARK SMILES IDX 17 1 16 2 15 3 14 4 2 5 3 6 4 7 13 8 5 9 12 10 6 11 7 12REMARK SMILES IDX 1 13 8 15 9 16 10 17 11 18 36 19 18 21 19 22 20 23 33 24REMARK SMILES IDX 21 25 32 26 22 27 34 28 35 30 23 32 24 33 31 34 25 35 30 36REMARK SMILES IDX 26 37 27 38 28 39 29 40REMARK H PARENT 3 14 35 31REMARK Flexibility Score:  105.900USER                              x       y       z     vdW  Elec       q    TypeUSER                           _______ _______ _______ _____ _____    ______ ____ROOTATOM      1  C   UNL     1      41.685  45.836  20.024 -0.21 +0.05    +0.351 C  ENDROOTBRANCH   1   2ATOM      2  N   UNL     1      40.697  46.135  18.977 -0.23 +0.00    -0.342 N  BRANCH   2   3ATOM      3  C   UNL     1      41.005  46.873  17.835 -0.51 -0.01    +0.098 C  BRANCH   3   4ATOM      4  C   UNL     1      40.272  47.525  16.920 -0.53 -0.01    +0.065 C  ATOM      5  C   UNL     1      40.530  48.861  16.265 -0.38 -0.06    +0.257 C  ATOM      6  N   UNL     1      39.470  49.041  15.388 -0.26 +0.16    -0.321 N  ATOM      7  C   UNL     1      38.597  47.961  15.412 -0.46 -0.02    +0.049 A  ATOM      8  C   UNL     1      39.034  46.998  16.323 -0.44 -0.00    +0.013 A  ATOM      9  C   UNL     1      37.449  47.811  14.661 -0.49 -0.02    +0.027 A  ATOM     10  C   UNL     1      38.305  45.835  16.510 -0.36 -0.01    +0.024 A  ATOM     11  C   UNL     1      36.712  46.638  14.843 -0.40 -0.01    +0.015 A  ATOM     12  C   UNL     1      37.123  45.648  15.766 -0.32 -0.03    +0.056 A  ATOM     13  O   UNL     1      41.450  49.636  16.431 -1.10 -0.00    -0.269 OA ATOM     14  H   UNL     1      39.387  49.859  14.805 -0.25 -0.15    +0.170 HD BRANCH  12  15ATOM     15  C   UNL     1      36.319  44.379  15.944 -0.14 -0.16    +0.416 C  ATOM     16  F   UNL     1      34.973  44.590  15.968 -0.07 +0.09    -0.166 F  ATOM     17  F   UNL     1      36.543  43.481  14.946 -0.15 +0.05    -0.166 F  ATOM     18  F   UNL     1      36.616  43.731  17.106 -0.09 +0.05    -0.166 F  ENDBRANCH  12  15ENDBRANCH   3   4ENDBRANCH   2   3BRANCH   2  19ATOM     19  C   UNL     1      39.295  46.030  19.453 -0.15 -0.01    +0.156 CG0ATOM     20  G   UNL     1      38.906  44.575  19.804 +0.00 +0.00    +0.000 G0 ENDBRANCH   2  19ENDBRANCH   1   2BRANCH   1  21ATOM     21  O   UNL     1      41.785  44.428  20.239 -0.11 -0.08    -0.473 OA BRANCH  21  22ATOM     22  C   UNL     1      40.937  44.009  21.227 -0.24 +0.01    +0.127 A  ATOM     23  C   UNL     1      41.517  43.474  22.376 -0.29 +0.00    +0.049 A  ATOM     24  C   UNL     1      39.546  44.054  21.072 -0.22 +0.00    +0.027 A  ATOM     25  C   UNL     1      40.710  43.016  23.417 -0.23 +0.00    +0.032 A  ATOM     26  C   UNL     1      38.738  43.569  22.118 -0.28 +0.00    +0.038 A  ATOM     27  C   UNL     1      39.314  43.063  23.297 -0.23 +0.00    +0.067 A  BRANCH  24  28ATOM     28  C   UNL     1      38.907  44.579  19.806 -0.31 -0.01    +0.167 CG0ATOM     29  G   UNL     1      39.301  46.032  19.454 +0.00 +0.00    +0.000 G0 BRANCH  28  30ATOM     30  O   UNL     1      39.225  43.704  18.722 -0.02 +0.02    -0.386 OA ATOM     31  H   UNL     1      40.203  43.627  18.753 +0.13 +0.00    +0.211 HD ENDBRANCH  28  30ENDBRANCH  24  28BRANCH  27  32ATOM     32  N   UNL     1      38.506  42.604  24.369 -0.17 -0.02    -0.220 N  ATOM     33  C   UNL     1      37.133  42.531  24.449 -0.30 +0.00    +0.140 A  ATOM     34  N   UNL     1      39.043  42.178  25.538 -0.21 -0.00    -0.062 NA ATOM     35  C   UNL     1      36.874  42.066  25.719 -0.34 -0.01    +0.083 A  ATOM     36  N   UNL     1      38.059  41.865  26.369 -0.27 +0.01    -0.135 NA BRANCH  35  37ATOM     37  C   UNL     1      35.571  41.807  26.386 -0.53 -0.02    +0.063 C  BRANCH  37  38ATOM     38  C   UNL     1      35.327  42.630  27.620 -0.63 +0.00    -0.005 C  ATOM     39  C   UNL     1      34.470  43.867  27.549 -0.54 -0.00    +0.004 C  ATOM     40  C   UNL     1      35.953  43.995  27.767 -0.56 -0.00    +0.004 C  ENDBRANCH  37  38ENDBRANCH  35  37ENDBRANCH  27  32ENDBRANCH  21  22ENDBRANCH   1  21TORSDOF 7TERENDMDL