MODEL        4USER    Run = 4USERUSER    Estimated Free Energy of Binding    = -11.51 kcal/mol  [=(1)+(2)+(3)-(4)]USERUSER    (1) Final Intermolecular Energy     = -13.30 kcal/molUSER        vdW + Hbond + desolv Energy     = -13.16 kcal/molUSER        Electrostatic Energy            =  -0.14 kcal/molUSER        Moving Ligand-Fixed Receptor    = -13.30 kcal/molUSER        Moving Ligand-Moving Receptor   =  +0.00 kcal/molUSER    (2) Final Total Internal Energy     =  -2.01 kcal/molUSER    (3) Torsional Free Energy           =  +1.79 kcal/molUSER    (4) Unbound System's Energy         =  -2.01 kcal/molUSERUSERREMARK SMILES Cn1ncc2cc(-c3ccnc(Nc4ccc(N)c(-c5nc(N6CCOCC6)no5)c4)n3)ccc21REMARK SMILES IDX 13 1 12 3 8 4 9 5 32 6 10 7 11 8 7 9 2 10 3 11 35 12 4 13REMARK SMILES IDX 34 14 5 15 33 16 6 17 1 18 14 19 15 20 31 21 16 22 19 23REMARK SMILES IDX 17 24 20 25 21 26 30 27 22 28 29 29 23 30 24 31 28 32 25 33REMARK SMILES IDX 27 34 26 35 18 36REMARK H PARENT 13 2 18 37 18 38USER                              x       y       z     vdW  Elec       q    TypeUSER                           _______ _______ _______ _____ _____    ______ ____ROOTATOM      1  N   UNL     1      38.214  48.705  14.574 -0.26 +0.19    -0.324 N  ATOM      2  H   UNL     1      38.037  49.654  14.280 -0.44 -0.15    +0.170 HD ENDROOTBRANCH   1   3ATOM      3  C   UNL     1      37.250  47.874  14.009 -0.36 -0.12    +0.227 A  ATOM      4  C   UNL     1      35.636  46.220  14.127 -0.39 -0.05    +0.076 A  ATOM      5  C   UNL     1      35.419  46.302  12.767 -0.43 -0.03    +0.049 A  ATOM      6  N   UNL     1      36.552  46.999  14.743 -0.26 +0.15    -0.213 NA ATOM      7  C   UNL     1      36.182  47.219  12.091 -0.56 -0.06    +0.117 A  ATOM      8  N   UNL     1      37.094  48.008  12.684 -0.98 +0.05    -0.221 NA BRANCH   4   9ATOM      9  C   UNL     1      34.908  45.279  15.002 -0.30 -0.00    +0.001 A  ATOM     10  N   UNL     1      33.189  42.456  17.511 -0.18 +0.09    -0.268 N  ATOM     11  N   UNL     1      34.210  41.649  17.862 -0.34 +0.06    -0.181 NA ATOM     12  C   UNL     1      33.549  43.477  16.665 -0.29 -0.03    +0.068 A  ATOM     13  C   UNL     1      35.258  42.181  17.228 -0.26 -0.06    +0.143 A  ATOM     14  C   UNL     1      32.822  44.513  16.069 -0.31 -0.02    +0.029 A  ATOM     15  C   UNL     1      34.915  43.318  16.465 -0.39 -0.01    +0.021 A  ATOM     16  C   UNL     1      33.527  45.402  15.242 -0.28 -0.01    +0.012 A  ATOM     17  C   UNL     1      35.600  44.223  15.635 -0.33 -0.01    +0.022 A  ATOM     18  C   UNL     1      31.864  42.187  18.019 -0.26 -0.03    +0.174 C  ENDBRANCH   4   9ENDBRANCH   1   3BRANCH   1  19ATOM     19  C   UNL     1      39.254  48.500  15.484 -0.50 -0.02    +0.042 A  ATOM     20  C   UNL     1      40.429  49.246  15.508 -0.60 -0.01    +0.028 A  ATOM     21  C   UNL     1      39.109  47.502  16.460 -0.42 -0.02    +0.042 A  ATOM     22  C   UNL     1      41.421  49.001  16.465 -0.35 +0.00    +0.028 A  ATOM     23  C   UNL     1      40.092  47.241  17.442 -0.42 -0.01    +0.065 A  ATOM     24  C   UNL     1      41.255  48.036  17.468 -0.45 -0.00    +0.044 A  BRANCH  23  25ATOM     25  C   UNL     1      39.817  46.157  18.386 -0.27 -0.03    +0.261 A  ATOM     26  N   UNL     1      38.665  45.735  18.864 -0.29 +0.02    -0.171 NA ATOM     27  O   UNL     1      40.880  45.486  18.914 -0.26 -0.01    -0.332 OA ATOM     28  C   UNL     1      39.036  44.733  19.720 -0.21 -0.01    +0.266 A  ATOM     29  N   UNL     1      40.361  44.542  19.792 -0.37 -0.00    -0.038 NA BRANCH  28  30ATOM     30  N   UNL     1      38.080  44.058  20.393 -0.14 +0.01    -0.334 N  ATOM     31  C   UNL     1      38.329  43.487  21.715 -0.27 +0.01    +0.148 C  ATOM     32  C   UNL     1      36.766  43.804  19.803 -0.34 -0.01    +0.148 C  ATOM     33  C   UNL     1      37.000  43.296  22.462 -0.33 +0.02    +0.181 C  ATOM     34  C   UNL     1      36.196  42.485  20.348 -0.39 -0.00    +0.181 C  ATOM     35  O   UNL     1      36.062  42.451  21.777 -0.25 -0.03    -0.378 OA ENDBRANCH  28  30ENDBRANCH  23  25BRANCH  24  36ATOM     36  N   UNL     1      42.359  47.771  18.297 -0.28 +0.00    -0.398 N  ATOM     37  H   UNL     1      42.136  47.242  19.135 +0.08 +0.01    +0.156 HD ATOM     38  H   UNL     1      43.177  47.401  17.820 -0.49 -0.02    +0.156 HD ENDBRANCH  24  36ENDBRANCH   1  19TORSDOF 6TERENDMDL