MODEL        4USER    Run = 4USERUSER    Estimated Free Energy of Binding    =  -7.20 kcal/mol  [=(1)+(2)+(3)-(4)]USERUSER    (1) Final Intermolecular Energy     =  -9.89 kcal/molUSER        vdW + Hbond + desolv Energy     =  -9.43 kcal/molUSER        Electrostatic Energy            =  -0.46 kcal/molUSER        Moving Ligand-Fixed Receptor    =  -9.89 kcal/molUSER        Moving Ligand-Moving Receptor   =  +0.00 kcal/molUSER    (2) Final Total Internal Energy     =  -1.72 kcal/molUSER    (3) Torsional Free Energy           =  +2.68 kcal/molUSER    (4) Unbound System's Energy         =  -1.72 kcal/molUSERUSERREMARK SMILES NS(=O)(=O)C=Cc1ccc(N2CCC(C(F)(F)F)CC2)ccn[nH]c1SC(=O)OREMARK SMILES IDX 7 1 8 2 9 3 10 4 21 5 22 6 23 7 24 8 25 9 6 11 5 12 2 13REMARK SMILES IDX 3 14 4 15 1 16 26 19 27 20 28 21 29 22 11 24 12 25 20 26REMARK SMILES IDX 13 27 19 28 14 29 15 30 16 31 17 32 18 33REMARK H PARENT 24 10 1 17 1 18 29 23USER                              x       y       z     vdW  Elec       q    TypeUSER                           _______ _______ _______ _____ _____    ______ ____ROOTATOM      1  C   UNL     1      38.852  59.679   5.894 -0.32 -0.00    +0.007 A  ATOM      2  C   UNL     1      39.954  59.787   6.669 -0.21 -0.01    +0.013 A  ATOM      3  C   UNL     1      40.706  60.680   7.324 -0.18 -0.03    +0.026 A  ATOM      4  C   UNL     1      40.805  61.940   7.804 -0.24 -0.05    +0.038 A  ATOM      5  C   UNL     1      39.889  62.922   7.945 -0.34 -0.05    +0.048 A  ATOM      6  C   UNL     1      38.600  63.112   7.629 -0.24 -0.10    +0.135 A  ATOM      7  N   UNL     1      37.674  62.522   6.867 -0.40 +0.13    -0.183 NA ATOM      8  N   UNL     1      38.325  62.020   5.672 -0.28 +0.24    -0.271 N  ATOM      9  C   UNL     1      38.101  60.691   5.386 -0.37 -0.08    +0.107 A  ATOM     10  H   UNL     1      37.975  62.591   4.907 -0.34 -0.20    +0.191 HD ENDROOTBRANCH   1  11ATOM     11  C   UNL     1      38.509  58.287   5.536 -0.41 -0.01    +0.024 C  BRANCH  11  12ATOM     12  C   UNL     1      39.147  57.623   4.560 -0.34 -0.08    +0.123 C  BRANCH  12  13ATOM     13  S   UNL     1      39.058  58.184   2.942 -0.51 -0.09    +0.231 S  ATOM     14  O   UNL     1      39.117  59.633   2.904 -0.38 +0.08    -0.208 OA ATOM     15  O   UNL     1      38.052  57.468   2.183 -1.44 -0.03    -0.208 OA BRANCH  13  16ATOM     16  N   UNL     1      40.512  57.686   2.241 -0.61 +0.20    -0.225 NA ATOM     17  H   UNL     1      40.739  56.752   2.582 -0.35 -0.35    +0.137 HD ATOM     18  H   UNL     1      41.234  58.379   2.450 +0.06 -0.09    +0.137 HD ENDBRANCH  13  16ENDBRANCH  12  13ENDBRANCH  11  12ENDBRANCH   1  11BRANCH   9  19ATOM     19  S   UNL     1      36.799  60.333   4.216 -0.65 -0.01    +0.013 SA BRANCH  19  20ATOM     20  C   UNL     1      35.557  61.329   4.925 -0.37 -0.20    +0.371 C  ATOM     21  O   UNL     1      34.618  60.887   5.578 -0.57 +0.12    -0.238 OA BRANCH  20  22ATOM     22  O   UNL     1      35.686  62.670   4.791 -0.18 +0.27    -0.473 OA ATOM     23  H   UNL     1      36.626  62.820   5.008 -0.21 -0.24    +0.297 HD ENDBRANCH  20  22ENDBRANCH  19  20ENDBRANCH   9  19BRANCH   4  24ATOM     24  N   UNL     1      42.115  62.239   8.353 -0.08 +0.43    -0.371 N  ATOM     25  C   UNL     1      42.728  63.544   8.054 -0.12 -0.16    +0.117 C  ATOM     26  C   UNL     1      42.716  61.429   9.418 -0.12 -0.09    +0.117 C  ATOM     27  C   UNL     1      43.498  64.071   9.259 -0.12 -0.03    +0.034 C  ATOM     28  C   UNL     1      44.226  61.627   9.414 -0.05 -0.02    +0.034 C  ATOM     29  C   UNL     1      44.594  63.092   9.719 -0.03 -0.06    +0.098 C  BRANCH  29  30ATOM     30  C   UNL     1      45.939  63.430   9.095 +0.01 -0.20    +0.391 C  ATOM     31  F   UNL     1      46.000  62.992   7.816 -0.00 +0.10    -0.171 F  ATOM     32  F   UNL     1      46.954  62.833   9.770 +0.00 +0.06    -0.171 F  ATOM     33  F   UNL     1      46.184  64.758   9.085 +0.00 +0.08    -0.171 F  ENDBRANCH  29  30ENDBRANCH   4  24TORSDOF 9TERENDMDL