REMARK SMILES NS(=O)(=O)C=Cc1ccc(N2CCC(C(F)(F)F)CC2)ccn[nH]c1SC(=O)O
REMARK SMILES IDX 7 1 8 2 9 3 10 4 21 5 22 6 23 7 24 8 25 9 6 11 5 12 2 13
REMARK SMILES IDX 3 14 4 15 1 16 26 19 27 20 28 21 29 22 11 24 12 25 20 26
REMARK SMILES IDX 13 27 19 28 14 29 15 30 16 31 17 32 18 33
REMARK H PARENT 24 10 1 17 1 18 29 23
ROOT
ATOM      1  C   UNL     1      -2.320  -0.704   0.618  1.00  0.00     0.007 A 
ATOM      2  C   UNL     1      -0.978  -0.863   0.587  1.00  0.00     0.013 A 
ATOM      3  C   UNL     1       0.164  -0.195   0.378  1.00  0.00     0.026 A 
ATOM      4  C   UNL     1       0.763   1.010   0.256  1.00  0.00     0.038 A 
ATOM      5  C   UNL     1       0.325   2.261   0.514  1.00  0.00     0.048 A 
ATOM      6  C   UNL     1      -0.824   2.838   0.895  1.00  0.00     0.135 A 
ATOM      7  N   UNL     1      -2.110   2.492   1.009  1.00  0.00    -0.183 NA
ATOM      8  N   UNL     1      -2.437   1.598  -0.085  1.00  0.00    -0.271 N 
ATOM      9  C   UNL     1      -3.025   0.406   0.278  1.00  0.00     0.107 A 
ATOM     10  H   UNL     1      -3.073   2.117  -0.684  1.00  0.00     0.191 HD
ENDROOT
BRANCH   1  11
ATOM     11  C   UNL     1      -3.055  -1.924   1.011  1.00  0.00     0.024 C 
BRANCH  11  12
ATOM     12  C   UNL     1      -3.195  -2.290   2.295  1.00  0.00     0.123 C 
BRANCH  12  13
ATOM     13  S   UNL     1      -4.119  -3.679   2.694  1.00  0.00     0.231 S 
ATOM     14  O   UNL     1      -3.248  -4.775   3.074  1.00  0.00    -0.208 OA
ATOM     15  O   UNL     1      -5.200  -3.890   1.751  1.00  0.00    -0.208 OA
BRANCH  13  16
ATOM     16  N   UNL     1      -4.916  -3.261   4.123  1.00  0.00    -0.225 NA
ATOM     17  H   UNL     1      -4.993  -4.091   4.712  1.00  0.00     0.137 HD
ATOM     18  H   UNL     1      -5.821  -2.848   3.888  1.00  0.00     0.137 HD
ENDBRANCH  13  16
ENDBRANCH  12  13
ENDBRANCH  11  12
ENDBRANCH   1  11
BRANCH   9  19
ATOM     19  S   UNL     1      -4.809   0.338   0.199  1.00  0.00     0.013 SA
BRANCH  19  20
ATOM     20  C   UNL     1      -4.966   0.116  -1.522  1.00  0.00     0.371 C 
ATOM     21  O   UNL     1      -5.054  -0.981  -2.063  1.00  0.00    -0.238 OA
BRANCH  20  22
ATOM     22  O   UNL     1      -5.059   1.230  -2.285  1.00  0.00    -0.473 OA
ATOM     23  H   UNL     1      -5.069   0.871  -3.193  1.00  0.00     0.297 HD
ENDBRANCH  20  22
ENDBRANCH  19  20
ENDBRANCH   9  19
BRANCH   4  24
ATOM     24  N   UNL     1       2.160   0.916  -0.127  1.00  0.00    -0.371 N 
ATOM     25  C   UNL     1       2.496   0.377  -1.455  1.00  0.00     0.117 C 
ATOM     26  C   UNL     1       3.220   1.598   0.623  1.00  0.00     0.117 C 
ATOM     27  C   UNL     1       3.691   1.112  -2.052  1.00  0.00     0.034 C 
ATOM     28  C   UNL     1       4.555   0.919   0.344  1.00  0.00     0.034 C 
ATOM     29  C   UNL     1       4.933   1.030  -1.145  1.00  0.00     0.098 C 
BRANCH  29  30
ATOM     30  C   UNL     1       5.835  -0.128  -1.540  1.00  0.00     0.391 C 
ATOM     31  F   UNL     1       6.944  -0.160  -0.764  1.00  0.00    -0.171 F 
ATOM     32  F   UNL     1       6.252  -0.006  -2.826  1.00  0.00    -0.171 F 
ATOM     33  F   UNL     1       5.220  -1.325  -1.424  1.00  0.00    -0.171 F 
ENDBRANCH  29  30
ENDBRANCH   4  24
TORSDOF 9
