MODEL        8USER    Run = 8USERUSER    Estimated Free Energy of Binding    =  -8.79 kcal/mol  [=(1)+(2)+(3)-(4)]USERUSER    (1) Final Intermolecular Energy     =  -9.69 kcal/molUSER        vdW + Hbond + desolv Energy     =  -9.68 kcal/molUSER        Electrostatic Energy            =  -0.01 kcal/molUSER        Moving Ligand-Fixed Receptor    =  -9.69 kcal/molUSER        Moving Ligand-Moving Receptor   =  +0.00 kcal/molUSER    (2) Final Total Internal Energy     =  -0.64 kcal/molUSER    (3) Torsional Free Energy           =  +0.89 kcal/molUSER    (4) Unbound System's Energy         =  -0.64 kcal/molUSERUSERREMARK SMILES CO[C@@H]1CC=C(F)C=C1[C@H]1c2cc(-c3n[nH]c4ccccc34)[nH]c21REMARK SMILES IDX 3 1 4 2 5 3 6 4 7 5 8 6 9 7 2 8 1 9 10 10 11 11 24 12 12 13REMARK SMILES IDX 23 14 13 15 14 17 15 18 22 19 16 20 21 21 17 22 20 23 18 24REMARK SMILES IDX 19 25REMARK H PARENT 23 16 16 26USER                              x       y       z     vdW  Elec       q    TypeUSER                           _______ _______ _______ _____ _____    ______ ____ROOTATOM      1  C   UNL     1      37.565  46.461  13.205 -0.43 -0.05    +0.149 C  ATOM      2  C   UNL     1      36.182  45.765  13.095 -0.52 -0.03    +0.067 C  ATOM      3  C   UNL     1      35.302  45.904  14.304 -0.45 -0.01    +0.015 C  ATOM      4  C   UNL     1      35.786  46.329  15.475 -0.34 -0.10    +0.119 C  ATOM      5  F   UNL     1      34.975  46.417  16.546 -0.05 +0.26    -0.207 F  ATOM      6  C   UNL     1      37.173  46.658  15.656 -0.43 -0.02    +0.042 C  ATOM      7  C   UNL     1      38.045  46.722  14.629 -0.48 +0.01    -0.025 C  ENDROOTBRANCH   1   8ATOM      8  O   UNL     1      37.511  47.744  12.556 -0.93 +0.05    -0.377 OA ATOM      9  C   UNL     1      36.180  48.200  12.350 -0.43 -0.09    +0.195 C  ENDBRANCH   1   8BRANCH   7  10ATOM     10  C   UNL     1      39.461  47.099  14.772 -0.46 -0.02    +0.097 C  ATOM     11  C   UNL     1      39.907  47.749  15.985 -0.52 +0.00    -0.012 A  ATOM     12  C   UNL     1      40.281  46.372  15.733 -0.41 -0.00    +0.031 A  ATOM     13  C   UNL     1      40.473  48.080  17.199 -0.35 -0.01    +0.035 A  ATOM     14  N   UNL     1      41.018  46.031  16.804 -0.13 +0.01    -0.356 N  ATOM     15  C   UNL     1      41.158  47.023  17.711 -0.44 -0.01    +0.067 A  ATOM     16  H   UNL     1      41.441  45.124  16.945 +0.07 +0.01    +0.166 HD BRANCH  15  17ATOM     17  C   UNL     1      41.962  46.862  19.028 -0.43 +0.01    +0.116 A  ATOM     18  N   UNL     1      42.943  47.736  19.293 -0.43 -0.01    -0.173 NA ATOM     19  C   UNL     1      41.816  45.885  20.051 -0.37 +0.00    +0.029 A  ATOM     20  N   UNL     1      43.421  47.323  20.477 -0.25 -0.08    -0.277 N  ATOM     21  C   UNL     1      40.996  44.770  20.310 -0.36 +0.00    +0.013 A  ATOM     22  C   UNL     1      42.792  46.220  20.986 -0.28 +0.02    +0.066 A  ATOM     23  C   UNL     1      41.186  44.040  21.491 -0.32 +0.00    +0.001 A  ATOM     24  C   UNL     1      43.000  45.506  22.172 -0.22 +0.01    +0.028 A  ATOM     25  C   UNL     1      42.173  44.403  22.406 -0.24 +0.00    +0.002 A  ATOM     26  H   UNL     1      44.186  47.840  20.892 -0.46 +0.04    +0.190 HD ENDBRANCH  15  17ENDBRANCH   7  10TORSDOF 3TERENDMDL