MODEL        10USER    Run = 10USERUSER    Estimated Free Energy of Binding    =  -8.06 kcal/mol  [=(1)+(2)+(3)-(4)]USERUSER    (1) Final Intermolecular Energy     =  -9.85 kcal/molUSER        vdW + Hbond + desolv Energy     =  -9.73 kcal/molUSER        Electrostatic Energy            =  -0.12 kcal/molUSER        Moving Ligand-Fixed Receptor    =  -9.85 kcal/molUSER        Moving Ligand-Moving Receptor   =  +0.00 kcal/molUSER    (2) Final Total Internal Energy     =  -1.22 kcal/molUSER    (3) Torsional Free Energy           =  +1.79 kcal/molUSER    (4) Unbound System's Energy         =  -1.22 kcal/molUSERUSERREMARK SMILES COc1ccc(O)c(C(=O)c2ccc(C(=O)N[C@@H]3CCCNC3)cn2)c1FREMARK SMILES IDX 11 1 12 2 13 3 14 4 24 5 25 6 9 7 10 8 8 9 3 10 4 11 26 12REMARK SMILES IDX 5 13 6 14 27 15 2 16 1 17 7 18 15 20 17 21 16 22 18 24 19 25REMARK SMILES IDX 23 26 20 27 22 28 21 29REMARK H PARENT 7 19 17 23 22 30USER                              x       y       z     vdW  Elec       q    TypeUSER                           _______ _______ _______ _____ _____    ______ ____ROOTATOM      1  C   UNL     1      42.041  49.689  14.748 -0.38 -0.01    +0.111 A  ATOM      2  C   UNL     1      42.213  49.107  13.496 -0.02 -0.00    +0.033 A  ATOM      3  C   UNL     1      42.909  49.821  12.519 -0.51 -0.01    +0.018 A  ATOM      4  C   UNL     1      43.425  51.082  12.829 -0.42 -0.03    +0.058 A  ATOM      5  C   UNL     1      43.202  51.578  14.109 +0.02 -0.03    +0.125 A  ATOM      6  N   UNL     1      42.537  50.905  15.082 -0.39 +0.02    -0.252 NA ENDROOTBRANCH   1   7ATOM      7  C   UNL     1      41.340  48.929  15.814 -0.40 -0.01    +0.218 C  ATOM      8  O   UNL     1      41.653  49.083  16.997 -0.93 -0.03    -0.287 OA BRANCH   7   9ATOM      9  C   UNL     1      40.211  48.030  15.506 -0.47 -0.02    +0.105 A  ATOM     10  C   UNL     1      38.300  47.407  14.130 -0.37 -0.05    +0.155 A  ATOM     11  C   UNL     1      38.057  46.319  14.972 -0.37 -0.02    +0.053 A  ATOM     12  C   UNL     1      39.385  48.252  14.403 -0.34 -0.06    +0.180 A  ATOM     13  C   UNL     1      38.904  46.066  16.056 -0.36 -0.01    +0.051 A  ATOM     14  C   UNL     1      39.985  46.908  16.309 -0.39 -0.02    +0.130 A  ATOM     15  F   UNL     1      39.656  49.256  13.552 +0.12 +0.08    -0.202 F  BRANCH  10  16ATOM     16  O   UNL     1      37.564  47.730  13.021 -0.72 +0.12    -0.494 OA ATOM     17  C   UNL     1      36.850  46.679  12.384 -0.49 -0.10    +0.278 C  ENDBRANCH  10  16BRANCH  14  18ATOM     18  O   UNL     1      40.795  46.567  17.359 -0.15 +0.05    -0.507 OA ATOM     19  H   UNL     1      41.691  46.928  17.176 -0.22 -0.05    +0.293 HD ENDBRANCH  14  18ENDBRANCH   7   9ENDBRANCH   1   7BRANCH   4  20ATOM     20  C   UNL     1      44.175  51.919  11.861 -0.30 -0.13    +0.253 C  ATOM     21  N   UNL     1      45.550  51.807  11.884 -0.19 +0.16    -0.348 N  ATOM     22  O   UNL     1      43.570  52.679  11.114 -0.34 +0.18    -0.269 OA ATOM     23  H   UNL     1      45.965  51.491  12.751 -0.50 -0.09    +0.164 HD BRANCH  21  24ATOM     24  C   UNL     1      46.384  52.759  11.143 -0.27 -0.03    +0.096 C  ATOM     25  C   UNL     1      46.499  52.328   9.671 -0.33 -0.01    +0.027 C  ATOM     26  C   UNL     1      47.778  52.843  11.800 -0.19 -0.02    +0.105 C  ATOM     27  C   UNL     1      47.875  51.755   9.325 -0.37 -0.00    +0.017 C  ATOM     28  N   UNL     1      48.475  51.546  11.762 -0.15 +0.05    -0.315 NA ATOM     29  C   UNL     1      48.439  50.893  10.452 -0.36 -0.02    +0.081 C  ATOM     30  H   UNL     1      49.442  51.681  12.060 +0.03 -0.02    +0.122 HD ENDBRANCH  21  24ENDBRANCH   4  20TORSDOF 6TERENDMDL