MODEL        4USER    Run = 4USERUSER    Estimated Free Energy of Binding    =  -8.22 kcal/mol  [=(1)+(2)+(3)-(4)]USERUSER    (1) Final Intermolecular Energy     = -10.01 kcal/molUSER        vdW + Hbond + desolv Energy     =  -9.63 kcal/molUSER        Electrostatic Energy            =  -0.39 kcal/molUSER        Moving Ligand-Fixed Receptor    = -10.01 kcal/molUSER        Moving Ligand-Moving Receptor   =  +0.00 kcal/molUSER    (2) Final Total Internal Energy     =  -1.40 kcal/molUSER    (3) Torsional Free Energy           =  +1.79 kcal/molUSER    (4) Unbound System's Energy         =  -1.40 kcal/molUSERUSERREMARK SMILES COc1ccc(O)c(C(=O)c2ccc(C(=O)N[C@H]3CCCNC3)cc2)c1FREMARK SMILES IDX 11 1 12 2 13 3 14 4 24 5 25 6 9 7 10 8 8 9 3 10 4 11 26 12REMARK SMILES IDX 5 13 6 14 27 15 2 16 1 17 7 18 15 20 17 21 16 22 18 24 19 25REMARK SMILES IDX 23 26 20 27 22 28 21 29REMARK H PARENT 7 19 17 23 22 30USER                              x       y       z     vdW  Elec       q    TypeUSER                           _______ _______ _______ _____ _____    ______ ____ROOTATOM      1  C   UNL     1      27.960  41.168  16.952 -0.23 -0.00    +0.023 A  ATOM      2  C   UNL     1      29.214  40.596  17.188 -0.30 -0.00    +0.013 A  ATOM      3  C   UNL     1      30.364  41.387  17.113 -0.30 -0.00    +0.014 A  ATOM      4  C   UNL     1      30.273  42.746  16.780 -0.25 -0.01    +0.039 A  ATOM      5  C   UNL     1      29.015  43.315  16.540 -0.25 -0.00    +0.014 A  ATOM      6  C   UNL     1      27.864  42.524  16.615 -0.22 -0.00    +0.013 A  ENDROOTBRANCH   1   7ATOM      7  C   UNL     1      26.717  40.363  16.983 -0.21 +0.02    +0.199 C  ATOM      8  O   UNL     1      26.309  39.861  15.935 -0.67 -0.07    -0.288 OA BRANCH   7   9ATOM      9  C   UNL     1      25.964  40.079  18.225 -0.22 -0.00    +0.104 A  ATOM     10  C   UNL     1      25.344  40.621  20.521 -0.26 -0.03    +0.155 A  ATOM     11  C   UNL     1      24.527  39.488  20.563 -0.31 -0.03    +0.053 A  ATOM     12  C   UNL     1      26.051  40.909  19.345 -0.16 -0.02    +0.179 A  ATOM     13  C   UNL     1      24.406  38.670  19.437 -0.24 -0.04    +0.051 A  ATOM     14  C   UNL     1      25.108  38.973  18.274 -0.30 -0.03    +0.130 A  ATOM     15  F   UNL     1      26.803  42.021  19.302 -0.03 +0.03    -0.202 F  BRANCH  10  16ATOM     16  O   UNL     1      25.527  41.504  21.550 -0.42 +0.07    -0.494 OA ATOM     17  C   UNL     1      24.507  42.470  21.772 -0.48 -0.08    +0.278 C  ENDBRANCH  10  16BRANCH  14  18ATOM     18  O   UNL     1      24.908  38.139  17.207 -0.59 -0.03    -0.507 OA ATOM     19  H   UNL     1      24.559  38.681  16.462 -0.09 -0.09    +0.293 HD ENDBRANCH  14  18ENDBRANCH   7   9ENDBRANCH   1   7BRANCH   4  20ATOM     20  C   UNL     1      31.531  43.538  16.715 -0.19 -0.09    +0.251 C  ATOM     21  N   UNL     1      32.702  42.828  16.555 -0.11 +0.16    -0.348 N  ATOM     22  O   UNL     1      31.494  44.759  16.824 -0.65 +0.06    -0.269 OA ATOM     23  H   UNL     1      32.682  41.822  16.493 -0.42 -0.11    +0.164 HD BRANCH  21  24ATOM     24  C   UNL     1      33.990  43.506  16.391 -0.34 -0.04    +0.096 C  ATOM     25  C   UNL     1      34.177  44.589  17.465 -0.36 -0.01    +0.027 C  ATOM     26  C   UNL     1      35.159  42.500  16.441 -0.43 -0.04    +0.105 C  ATOM     27  C   UNL     1      35.019  44.113  18.653 -0.40 -0.00    +0.017 C  ATOM     28  N   UNL     1      35.307  41.811  17.734 -0.29 +0.11    -0.315 NA ATOM     29  C   UNL     1      34.895  42.611  18.887 -0.41 -0.01    +0.081 C  ATOM     30  H   UNL     1      34.770  40.944  17.714 -0.49 -0.07    +0.122 HD ENDBRANCH  21  24ENDBRANCH   4  20TORSDOF 6TERENDMDL