REMARK SMILES CO[C@@H]1CC=C(F)C=C1[C@H]1c2cc(-c3n[nH]c4ccccc34)[nH]c21
REMARK SMILES IDX 3 1 4 2 5 3 6 4 7 5 8 6 9 7 2 8 1 9 10 10 11 11 24 12 12 13
REMARK SMILES IDX 23 14 13 15 14 17 15 18 22 19 16 20 21 21 17 22 20 23 18 24
REMARK SMILES IDX 19 25
REMARK H PARENT 23 16 16 26
ROOT
ATOM      1  C   UNL     1      -3.717   0.440   0.382  1.00  0.00     0.149 C 
ATOM      2  C   UNL     1      -4.710   0.613  -0.798  1.00  0.00     0.067 C 
ATOM      3  C   UNL     1      -4.967  -0.630  -1.601  1.00  0.00     0.015 C 
ATOM      4  C   UNL     1      -4.181  -1.705  -1.493  1.00  0.00     0.119 C 
ATOM      5  F   UNL     1      -4.424  -2.794  -2.248  1.00  0.00    -0.207 F 
ATOM      6  C   UNL     1      -3.037  -1.734  -0.625  1.00  0.00     0.042 C 
ATOM      7  C   UNL     1      -2.772  -0.751   0.261  1.00  0.00    -0.025 C 
ENDROOT
BRANCH   1   8
ATOM      8  O   UNL     1      -4.450   0.250   1.605  1.00  0.00    -0.377 OA
ATOM      9  C   UNL     1      -4.723   1.472   2.277  1.00  0.00     0.195 C 
ENDBRANCH   1   8
BRANCH   7  10
ATOM     10  C   UNL     1      -1.635  -0.769   1.196  1.00  0.00     0.097 C 
ATOM     11  C   UNL     1      -0.315  -1.103   0.708  1.00  0.00    -0.012 A 
ATOM     12  C   UNL     1      -0.616   0.266   1.074  1.00  0.00     0.031 A 
ATOM     13  C   UNL     1       0.999  -1.103   0.287  1.00  0.00     0.035 A 
ATOM     14  N   UNL     1       0.529   0.929   0.837  1.00  0.00    -0.356 N 
ATOM     15  C   UNL     1       1.525   0.149   0.362  1.00  0.00     0.067 A 
ATOM     16  H   UNL     1       0.662   1.919   0.991  1.00  0.00     0.166 HD
BRANCH  15  17
ATOM     17  C   UNL     1       2.935   0.692   0.012  1.00  0.00     0.116 A 
ATOM     18  N   UNL     1       3.183   1.997   0.188  1.00  0.00    -0.173 NA
ATOM     19  C   UNL     1       4.064  -0.010  -0.492  1.00  0.00     0.029 A 
ATOM     20  N   UNL     1       4.461   2.130  -0.199  1.00  0.00    -0.277 N 
ATOM     21  C   UNL     1       4.385  -1.332  -0.856  1.00  0.00     0.013 A 
ATOM     22  C   UNL     1       5.048   0.967  -0.618  1.00  0.00     0.066 A 
ATOM     23  C   UNL     1       5.673  -1.619  -1.329  1.00  0.00     0.001 A 
ATOM     24  C   UNL     1       6.340   0.704  -1.087  1.00  0.00     0.028 A 
ATOM     25  C   UNL     1       6.633  -0.616  -1.442  1.00  0.00     0.002 A 
ATOM     26  H   UNL     1       4.883   3.049  -0.154  1.00  0.00     0.190 HD
ENDBRANCH  15  17
ENDBRANCH   7  10
TORSDOF 3
