REMARK SMILES COc1ccc(O)c(C(=O)c2ccc(C(=O)N[C@@H]3CCCN[C@@H]3C)cc2)c1F
REMARK SMILES IDX 11 1 12 2 13 3 14 4 25 5 26 6 9 7 10 8 8 9 3 10 4 11 27 12
REMARK SMILES IDX 5 13 6 14 28 15 2 16 1 17 7 18 15 20 17 21 16 22 18 24 19 25
REMARK SMILES IDX 23 26 20 27 22 28 21 29 24 30
REMARK H PARENT 7 19 17 23 22 31
ROOT
ATOM      1  C   UNL     1       1.927   0.141   1.308  1.00  0.00     0.023 A 
ATOM      2  C   UNL     1       1.773   0.833   0.102  1.00  0.00     0.013 A 
ATOM      3  C   UNL     1       0.575   0.727  -0.612  1.00  0.00     0.014 A 
ATOM      4  C   UNL     1      -0.481  -0.049  -0.115  1.00  0.00     0.039 A 
ATOM      5  C   UNL     1      -0.325  -0.738   1.095  1.00  0.00     0.014 A 
ATOM      6  C   UNL     1       0.872  -0.632   1.809  1.00  0.00     0.013 A 
ENDROOT
BRANCH   1   7
ATOM      7  C   UNL     1       3.163   0.253   2.118  1.00  0.00     0.199 C 
ATOM      8  O   UNL     1       3.061   0.334   3.344  1.00  0.00    -0.288 OA
BRANCH   7   9
ATOM      9  C   UNL     1       4.517   0.329   1.527  1.00  0.00     0.104 A 
ATOM     10  C   UNL     1       6.129  -0.242  -0.211  1.00  0.00     0.155 A 
ATOM     11  C   UNL     1       7.099   0.522   0.441  1.00  0.00     0.053 A 
ATOM     12  C   UNL     1       4.844  -0.336   0.345  1.00  0.00     0.179 A 
ATOM     13  C   UNL     1       6.792   1.165   1.643  1.00  0.00     0.051 A 
ATOM     14  C   UNL     1       5.514   1.056   2.188  1.00  0.00     0.130 A 
ATOM     15  F   UNL     1       3.931  -1.105  -0.270  1.00  0.00    -0.202 F 
BRANCH  10  16
ATOM     16  O   UNL     1       6.315  -0.930  -1.380  1.00  0.00    -0.494 OA
ATOM     17  C   UNL     1       7.612  -0.889  -1.963  1.00  0.00     0.278 C 
ENDBRANCH  10  16
BRANCH  14  18
ATOM     18  O   UNL     1       5.307   1.690   3.383  1.00  0.00    -0.507 OA
ATOM     19  H   UNL     1       4.457   1.359   3.756  1.00  0.00     0.293 HD
ENDBRANCH  14  18
ENDBRANCH   7   9
ENDBRANCH   1   7
BRANCH   4  20
ATOM     20  C   UNL     1      -1.738  -0.126  -0.912  1.00  0.00     0.251 C 
ATOM     21  N   UNL     1      -2.897  -0.372  -0.201  1.00  0.00    -0.348 N 
ATOM     22  O   UNL     1      -1.709   0.061  -2.122  1.00  0.00    -0.269 OA
ATOM     23  H   UNL     1      -2.868  -0.208   0.796  1.00  0.00     0.164 HD
BRANCH  21  24
ATOM     24  C   UNL     1      -4.203  -0.326  -0.852  1.00  0.00     0.099 C 
ATOM     25  C   UNL     1      -4.712   1.116  -0.953  1.00  0.00     0.028 C 
ATOM     26  C   UNL     1      -5.277  -1.241  -0.176  1.00  0.00     0.073 C 
ATOM     27  C   UNL     1      -6.062   1.188  -1.673  1.00  0.00     0.017 C 
ATOM     28  N   UNL     1      -6.672  -0.931  -0.566  1.00  0.00    -0.312 NA
ATOM     29  C   UNL     1      -6.744  -0.174  -1.813  1.00  0.00     0.081 C 
ATOM     30  C   UNL     1      -5.211  -1.242   1.357  1.00  0.00     0.026 C 
ATOM     31  H   UNL     1      -7.128  -0.389   0.169  1.00  0.00     0.123 HD
ENDBRANCH  21  24
ENDBRANCH   4  20
TORSDOF 6
