REMARK SMILES COc1ccc(O)c(C(=O)c2ccc(C(=O)N[C@H]3CCCNC3)cc2)c1F
REMARK SMILES IDX 11 1 12 2 13 3 14 4 24 5 25 6 9 7 10 8 8 9 3 10 4 11 26 12
REMARK SMILES IDX 5 13 6 14 27 15 2 16 1 17 7 18 15 20 17 21 16 22 18 24 19 25
REMARK SMILES IDX 23 26 20 27 22 28 21 29
REMARK H PARENT 7 19 17 23 22 30
ROOT
ATOM      1  C   UNL     1       1.340  -0.078   1.270  1.00  0.00     0.023 A 
ATOM      2  C   UNL     1       1.353  -1.168   0.394  1.00  0.00     0.013 A 
ATOM      3  C   UNL     1       0.207  -1.482  -0.342  1.00  0.00     0.014 A 
ATOM      4  C   UNL     1      -0.965  -0.726  -0.192  1.00  0.00     0.039 A 
ATOM      5  C   UNL     1      -0.976   0.363   0.689  1.00  0.00     0.014 A 
ATOM      6  C   UNL     1       0.171   0.678   1.426  1.00  0.00     0.013 A 
ENDROOT
BRANCH   1   7
ATOM      7  C   UNL     1       2.517   0.272   2.099  1.00  0.00     0.199 C 
ATOM      8  O   UNL     1       2.336   0.627   3.265  1.00  0.00    -0.288 OA
BRANCH   7   9
ATOM      9  C   UNL     1       3.911   0.161   1.617  1.00  0.00     0.104 A 
ATOM     10  C   UNL     1       5.574   0.272  -0.164  1.00  0.00     0.155 A 
ATOM     11  C   UNL     1       6.571  -0.077   0.750  1.00  0.00     0.053 A 
ATOM     12  C   UNL     1       4.250   0.395   0.283  1.00  0.00     0.179 A 
ATOM     13  C   UNL     1       6.248  -0.280   2.095  1.00  0.00     0.051 A 
ATOM     14  C   UNL     1       4.931  -0.147   2.525  1.00  0.00     0.130 A 
ATOM     15  F   UNL     1       3.306   0.769  -0.596  1.00  0.00    -0.202 F 
BRANCH  10  16
ATOM     16  O   UNL     1       5.770   0.513  -1.497  1.00  0.00    -0.494 OA
ATOM     17  C   UNL     1       7.102   0.426  -1.988  1.00  0.00     0.278 C 
ENDBRANCH  10  16
BRANCH  14  18
ATOM     18  O   UNL     1       4.706  -0.330   3.863  1.00  0.00    -0.507 OA
ATOM     19  H   UNL     1       3.801   0.002   4.065  1.00  0.00     0.293 HD
ENDBRANCH  14  18
ENDBRANCH   7   9
ENDBRANCH   1   7
BRANCH   4  20
ATOM     20  C   UNL     1      -2.154  -1.108  -1.002  1.00  0.00     0.251 C 
ATOM     21  N   UNL     1      -3.389  -0.811  -0.466  1.00  0.00    -0.348 N 
ATOM     22  O   UNL     1      -2.006  -1.677  -2.078  1.00  0.00    -0.269 OA
ATOM     23  H   UNL     1      -3.458  -0.362   0.434  1.00  0.00     0.164 HD
BRANCH  21  24
ATOM     24  C   UNL     1      -4.625  -1.061  -1.212  1.00  0.00     0.096 C 
ATOM     25  C   UNL     1      -5.832  -1.124  -0.262  1.00  0.00     0.027 C 
ATOM     26  C   UNL     1      -4.853   0.019  -2.290  1.00  0.00     0.105 C 
ATOM     27  C   UNL     1      -6.603   0.198  -0.187  1.00  0.00     0.017 C 
ATOM     28  N   UNL     1      -5.056   1.375  -1.752  1.00  0.00    -0.315 NA
ATOM     29  C   UNL     1      -5.708   1.406  -0.443  1.00  0.00     0.081 C 
ATOM     30  H   UNL     1      -4.155   1.849  -1.693  1.00  0.00     0.122 HD
ENDBRANCH  21  24
ENDBRANCH   4  20
TORSDOF 6
