MODEL        7USER    Run = 7USERUSER    Estimated Free Energy of Binding    =  -8.62 kcal/mol  [=(1)+(2)+(3)-(4)]USERUSER    (1) Final Intermolecular Energy     = -10.41 kcal/molUSER        vdW + Hbond + desolv Energy     = -10.08 kcal/molUSER        Electrostatic Energy            =  -0.34 kcal/molUSER        Moving Ligand-Fixed Receptor    = -10.41 kcal/molUSER        Moving Ligand-Moving Receptor   =  +0.00 kcal/molUSER    (2) Final Total Internal Energy     =  -1.36 kcal/molUSER    (3) Torsional Free Energy           =  +1.79 kcal/molUSER    (4) Unbound System's Energy         =  -1.36 kcal/molUSERUSERREMARK SMILES COc1ccc(O)c(C(=O)c2ccc(C(=O)N[C@@H]3CCCN[C@@H]3C)cc2)c1FREMARK SMILES IDX 11 1 12 2 13 3 14 4 25 5 26 6 9 7 10 8 8 9 3 10 4 11 27 12REMARK SMILES IDX 5 13 6 14 28 15 2 16 1 17 7 18 15 20 17 21 16 22 18 24 19 25REMARK SMILES IDX 23 26 20 27 22 28 21 29 24 30REMARK H PARENT 7 19 17 23 22 31USER                              x       y       z     vdW  Elec       q    TypeUSER                           _______ _______ _______ _____ _____    ______ ____ROOTATOM      1  C   UNL     1      42.219  46.722  19.837 -0.43 +0.00    +0.023 A  ATOM      2  C   UNL     1      42.192  47.741  18.879 -0.38 +0.00    +0.013 A  ATOM      3  C   UNL     1      41.478  47.560  17.691 -0.46 -0.00    +0.014 A  ATOM      4  C   UNL     1      40.769  46.373  17.463 -0.46 -0.00    +0.039 A  ATOM      5  C   UNL     1      40.795  45.355  18.425 -0.45 -0.00    +0.014 A  ATOM      6  C   UNL     1      41.508  45.536  19.614 -0.40 +0.00    +0.013 A  ENDROOTBRANCH   1   7ATOM      7  C   UNL     1      42.930  46.883  21.127 -0.31 +0.05    +0.199 C  ATOM      8  O   UNL     1      44.123  46.577  21.187 -0.48 -0.24    -0.288 OA BRANCH   7   9ATOM      9  C   UNL     1      42.268  47.342  22.368 -0.20 +0.02    +0.104 A  ATOM     10  C   UNL     1      40.401  47.307  23.936 -0.20 +0.02    +0.155 A  ATOM     11  C   UNL     1      41.064  48.234  24.742 -0.28 +0.01    +0.053 A  ATOM     12  C   UNL     1      41.010  46.873  22.748 -0.07 +0.02    +0.179 A  ATOM     13  C   UNL     1      42.309  48.735  24.354 -0.35 +0.01    +0.051 A  ATOM     14  C   UNL     1      42.898  48.302  23.168 -0.30 +0.03    +0.130 A  ATOM     15  F   UNL     1      40.345  46.012  21.961 -0.07 -0.01    -0.202 F  BRANCH  10  16ATOM     16  O   UNL     1      39.174  46.760  24.200 -0.09 -0.05    -0.494 OA ATOM     17  C   UNL     1      38.190  47.610  24.778 -0.26 +0.04    +0.278 C  ENDBRANCH  10  16BRANCH  14  18ATOM     18  O   UNL     1      44.103  48.866  22.846 -0.41 -0.15    -0.507 OA ATOM     19  H   UNL     1      44.320  48.605  21.921 -0.46 +0.01    +0.293 HD ENDBRANCH  14  18ENDBRANCH   7   9ENDBRANCH   1   7BRANCH   4  20ATOM     20  C   UNL     1      40.021  46.230  16.182 -0.30 -0.03    +0.251 C  ATOM     21  N   UNL     1      38.674  46.536  16.225 -0.16 +0.11    -0.348 N  ATOM     22  O   UNL     1      40.610  45.895  15.162 -0.41 -0.00    -0.269 OA ATOM     23  H   UNL     1      38.352  47.084  17.011 +0.09 -0.07    +0.164 HD BRANCH  21  24ATOM     24  C   UNL     1      37.872  46.573  15.006 -0.40 -0.04    +0.099 C  ATOM     25  C   UNL     1      37.706  48.012  14.505 -0.58 -0.02    +0.028 C  ATOM     26  C   UNL     1      36.478  45.877  15.148 -0.39 -0.04    +0.073 C  ATOM     27  C   UNL     1      36.903  48.066  13.202 -0.66 -0.01    +0.017 C  ATOM     28  N   UNL     1      35.513  46.225  14.079 -0.22 +0.22    -0.312 NA ATOM     29  C   UNL     1      36.172  46.759  12.889 -0.62 -0.04    +0.081 C  ATOM     30  C   UNL     1      35.792  46.135  16.496 -0.41 -0.02    +0.026 C  ATOM     31  H   UNL     1      34.849  46.920  14.421 +0.03 -0.14    +0.123 HD ENDBRANCH  21  24ENDBRANCH   4  20TORSDOF 6TERENDMDL