MODEL        2USER    Run = 2USERUSER    Estimated Free Energy of Binding    =  -8.96 kcal/mol  [=(1)+(2)+(3)-(4)]USERUSER    (1) Final Intermolecular Energy     = -11.05 kcal/molUSER        vdW + Hbond + desolv Energy     = -10.84 kcal/molUSER        Electrostatic Energy            =  -0.21 kcal/molUSER        Moving Ligand-Fixed Receptor    = -11.05 kcal/molUSER        Moving Ligand-Moving Receptor   =  +0.00 kcal/molUSER    (2) Final Total Internal Energy     =  -1.80 kcal/molUSER    (3) Torsional Free Energy           =  +2.09 kcal/molUSER    (4) Unbound System's Energy         =  -1.80 kcal/molUSERUSERREMARK SMILES COc1ccc(O)c(C(=O)c2ccc(C(=O)N[C@@H]3CCCNC3)cc2N)c1FREMARK SMILES IDX 11 1 12 2 13 3 14 4 24 5 25 6 9 7 10 8 8 9 3 10 4 11 27 12REMARK SMILES IDX 5 13 6 14 28 15 2 16 1 17 7 18 26 20 15 23 17 24 16 25 18 27REMARK SMILES IDX 19 28 23 29 20 30 22 31 21 32REMARK H PARENT 7 19 26 21 26 22 17 26 22 33USER                              x       y       z     vdW  Elec       q    TypeUSER                           _______ _______ _______ _____ _____    ______ ____ROOTATOM      1  C   UNL     1      41.585  46.611  19.911 -0.33 +0.00    +0.046 A  ATOM      2  C   UNL     1      40.393  45.879  19.795 -0.38 +0.00    +0.015 A  ATOM      3  C   UNL     1      39.707  45.848  18.580 -0.43 -0.00    +0.015 A  ATOM      4  C   UNL     1      40.215  46.544  17.478 -0.46 -0.01    +0.041 A  ATOM      5  C   UNL     1      41.382  47.310  17.610 -0.42 -0.00    +0.040 A  ATOM      6  C   UNL     1      42.051  47.397  18.837 -0.47 +0.00    +0.043 A  ENDROOTBRANCH   1   7ATOM      7  C   UNL     1      42.310  46.624  21.204 -0.28 +0.04    +0.201 C  ATOM      8  O   UNL     1      43.504  46.310  21.220 -0.25 -0.15    -0.288 OA BRANCH   7   9ATOM      9  C   UNL     1      41.679  47.039  22.479 -0.15 +0.01    +0.104 A  ATOM     10  C   UNL     1      40.005  46.766  24.235 -0.17 +0.01    +0.155 A  ATOM     11  C   UNL     1      40.517  47.884  24.896 -0.24 +0.01    +0.053 A  ATOM     12  C   UNL     1      40.596  46.351  23.031 -0.14 +0.02    +0.179 A  ATOM     13  C   UNL     1      41.616  48.565  24.368 -0.34 +0.01    +0.051 A  ATOM     14  C   UNL     1      42.197  48.138  23.176 -0.26 +0.02    +0.130 A  ATOM     15  F   UNL     1      40.107  45.257  22.424 -0.04 -0.01    -0.202 F  BRANCH  10  16ATOM     16  O   UNL     1      38.941  46.013  24.657 -0.06 -0.04    -0.494 OA ATOM     17  C   UNL     1      37.994  46.646  25.510 -0.21 +0.02    +0.278 C  ENDBRANCH  10  16BRANCH  14  18ATOM     18  O   UNL     1      43.283  48.853  22.746 -0.66 -0.14    -0.507 OA ATOM     19  H   UNL     1      43.628  48.418  21.933 -0.37 +0.01    +0.293 HD ENDBRANCH  14  18ENDBRANCH   7   9ENDBRANCH   1   7BRANCH   6  20ATOM     20  N   UNL     1      43.283  48.080  18.890 -0.07 -0.01    -0.398 N  ATOM     21  H   UNL     1      43.783  47.886  19.762 -0.44 +0.02    +0.156 HD ATOM     22  H   UNL     1      43.203  49.078  18.724 -0.46 -0.01    +0.156 HD ENDBRANCH   6  20BRANCH   4  23ATOM     23  C   UNL     1      39.534  46.517  16.155 -0.33 -0.05    +0.251 C  ATOM     24  N   UNL     1      38.263  47.056  16.118 -0.17 +0.16    -0.348 N  ATOM     25  O   UNL     1      40.092  46.011  15.190 -0.32 +0.03    -0.269 OA ATOM     26  H   UNL     1      37.786  47.177  17.003 +0.09 -0.09    +0.164 HD BRANCH  24  27ATOM     27  C   UNL     1      37.440  46.969  14.914 -0.42 -0.05    +0.096 C  ATOM     28  C   UNL     1      37.127  45.505  14.552 -0.44 -0.01    +0.027 C  ATOM     29  C   UNL     1      38.114  47.675  13.719 -0.49 -0.03    +0.105 C  ATOM     30  C   UNL     1      36.935  45.292  13.049 -0.57 -0.01    +0.017 C  ATOM     31  N   UNL     1      37.307  47.695  12.495 -0.93 +0.06    -0.315 NA ATOM     32  C   UNL     1      36.406  46.548  12.367 -0.67 -0.04    +0.081 C  ATOM     33  H   UNL     1      37.927  47.743  11.686 +0.04 +0.02    +0.122 HD ENDBRANCH  24  27ENDBRANCH   4  23TORSDOF 7TERENDMDL