MODEL        4USER    Run = 4USERUSER    Estimated Free Energy of Binding    =  -8.35 kcal/mol  [=(1)+(2)+(3)-(4)]USERUSER    (1) Final Intermolecular Energy     = -10.14 kcal/molUSER        vdW + Hbond + desolv Energy     =  -9.86 kcal/molUSER        Electrostatic Energy            =  -0.28 kcal/molUSER        Moving Ligand-Fixed Receptor    = -10.14 kcal/molUSER        Moving Ligand-Moving Receptor   =  +0.00 kcal/molUSER    (2) Final Total Internal Energy     =  -1.46 kcal/molUSER    (3) Torsional Free Energy           =  +1.79 kcal/molUSER    (4) Unbound System's Energy         =  -1.46 kcal/molUSERUSERREMARK SMILES COc1ccc(O)c(C(=O)c2ccc(C(=O)N[C@H]3CCCNC3)cc2)c1FREMARK SMILES IDX 11 1 12 2 13 3 14 4 24 5 25 6 9 7 10 8 8 9 3 10 4 11 26 12REMARK SMILES IDX 5 13 6 14 27 15 2 16 1 17 7 18 15 20 17 21 16 22 18 24 19 25REMARK SMILES IDX 23 26 20 27 22 28 21 29REMARK H PARENT 7 19 17 23 22 30USER                              x       y       z     vdW  Elec       q    TypeUSER                           _______ _______ _______ _____ _____    ______ ____ROOTATOM      1  C   UNL     1      27.679  41.233  16.609 -0.24 -0.00    +0.023 A  ATOM      2  C   UNL     1      27.697  42.562  16.174 -0.23 -0.01    +0.013 A  ATOM      3  C   UNL     1      28.894  43.284  16.193 -0.25 -0.01    +0.014 A  ATOM      4  C   UNL     1      30.075  42.693  16.666 -0.25 -0.01    +0.039 A  ATOM      5  C   UNL     1      30.053  41.363  17.105 -0.29 -0.00    +0.014 A  ATOM      6  C   UNL     1      28.855  40.639  17.086 -0.29 -0.00    +0.013 A  ENDROOTBRANCH   1   7ATOM      7  C   UNL     1      26.429  40.439  16.644 -0.24 +0.01    +0.199 C  ATOM      8  O   UNL     1      26.108  39.795  15.643 -0.79 -0.06    -0.288 OA BRANCH   7   9ATOM      9  C   UNL     1      25.570  40.330  17.843 -0.22 -0.00    +0.104 A  ATOM     10  C   UNL     1      24.602  41.271  19.874 -0.28 -0.03    +0.155 A  ATOM     11  C   UNL     1      23.938  40.065  20.112 -0.33 -0.02    +0.053 A  ATOM     12  C   UNL     1      25.408  41.393  18.732 -0.17 -0.02    +0.179 A  ATOM     13  C   UNL     1      24.066  39.005  19.210 -0.34 -0.03    +0.051 A  ATOM     14  C   UNL     1      24.864  39.144  18.078 -0.30 -0.03    +0.130 A  ATOM     15  F   UNL     1      26.010  42.569  18.492 -0.05 +0.03    -0.202 F  BRANCH  10  16ATOM     16  O   UNL     1      24.539  42.381  20.672 -0.19 +0.16    -0.494 OA ATOM     17  C   UNL     1      24.168  42.189  22.031 -0.50 -0.06    +0.278 C  ENDBRANCH  10  16BRANCH  14  18ATOM     18  O   UNL     1      24.908  38.071  17.229 -0.56 -0.03    -0.507 OA ATOM     19  H   UNL     1      24.610  38.375  16.341 -0.20 -0.10    +0.293 HD ENDBRANCH  14  18ENDBRANCH   7   9ENDBRANCH   1   7BRANCH   4  20ATOM     20  C   UNL     1      31.318  43.511  16.663 -0.19 -0.09    +0.251 C  ATOM     21  N   UNL     1      32.508  42.826  16.536 -0.11 +0.16    -0.348 N  ATOM     22  O   UNL     1      31.252  44.728  16.790 -0.65 +0.05    -0.269 OA ATOM     23  H   UNL     1      32.511  41.821  16.457 -0.44 -0.11    +0.164 HD BRANCH  21  24ATOM     24  C   UNL     1      33.788  43.532  16.432 -0.34 -0.04    +0.096 C  ATOM     25  C   UNL     1      33.943  44.550  17.574 -0.36 -0.01    +0.027 C  ATOM     26  C   UNL     1      34.972  42.543  16.438 -0.42 -0.04    +0.105 C  ATOM     27  C   UNL     1      34.776  44.015  18.743 -0.40 -0.00    +0.017 C  ATOM     28  N   UNL     1      35.113  41.778  17.688 -0.29 +0.12    -0.315 NA ATOM     29  C   UNL     1      34.673  42.500  18.882 -0.42 -0.01    +0.081 C  ATOM     30  H   UNL     1      34.591  40.906  17.607 -0.51 -0.07    +0.122 HD ENDBRANCH  21  24ENDBRANCH   4  20TORSDOF 6TERENDMDL