MODEL        8USER    Run = 8USERUSER    Estimated Free Energy of Binding    = -10.09 kcal/mol  [=(1)+(2)+(3)-(4)]USERUSER    (1) Final Intermolecular Energy     = -12.47 kcal/molUSER        vdW + Hbond + desolv Energy     = -12.44 kcal/molUSER        Electrostatic Energy            =  -0.03 kcal/molUSER        Moving Ligand-Fixed Receptor    = -12.47 kcal/molUSER        Moving Ligand-Moving Receptor   =  +0.00 kcal/molUSER    (2) Final Total Internal Energy     =  -2.32 kcal/molUSER    (3) Torsional Free Energy           =  +2.39 kcal/molUSER    (4) Unbound System's Energy         =  -2.32 kcal/molUSERUSERREMARK SMILES Cc1[nH]c2ccccc2c1C=Cc1nc(N2C=NC(CC(=O)NCC(C)C)=CC2)no1REMARK SMILES IDX 16 1 17 2 18 3 19 4 28 5 29 6 15 7 13 8 14 9 31 10 30 11REMARK SMILES IDX 12 12 11 13 10 14 2 15 3 16 4 17 9 18 5 19 8 20 6 21 7 22REMARK SMILES IDX 1 23 20 25 21 26 23 27 22 28 24 30 25 31 26 32 27 33REMARK H PARENT 3 24 23 29USER                              x       y       z     vdW  Elec       q    TypeUSER                           _______ _______ _______ _____ _____    ______ ____ROOTATOM      1  N   UNL     1      41.141  46.706  18.497 -0.30 +0.01    -0.294 N  ATOM      2  C   UNL     1      40.316  45.616  18.560 -0.38 -0.01    +0.202 C  ATOM      3  N   UNL     1      40.312  44.668  19.446 -0.25 -0.00    -0.243 NA ATOM      4  C   UNL     1      41.266  44.765  20.432 -0.38 +0.01    +0.049 C  ATOM      5  C   UNL     1      42.124  45.794  20.513 -0.37 +0.00    +0.019 C  ATOM      6  C   UNL     1      42.150  46.910  19.518 -0.42 +0.02    +0.156 C  ENDROOTBRANCH   1   7ATOM      7  C   UNL     1      41.044  47.593  17.475 -0.31 -0.03    +0.271 A  ATOM      8  C   UNL     1      40.294  48.440  15.660 -0.37 -0.06    +0.252 A  ATOM      9  N   UNL     1      40.113  47.418  16.481 -0.37 +0.04    -0.172 NA ATOM     10  O   UNL     1      41.320  49.239  16.114 -0.93 +0.01    -0.333 OA ATOM     11  N   UNL     1      41.794  48.690  17.298 -0.90 -0.00    -0.037 NA BRANCH   8  12ATOM     12  C   UNL     1      39.546  48.653  14.468 -0.45 -0.03    +0.072 C  BRANCH  12  13ATOM     13  C   UNL     1      38.246  48.364  14.288 -0.59 -0.01    +0.016 C  BRANCH  13  14ATOM     14  C   UNL     1      37.628  47.086  14.162 -0.47 -0.00    +0.003 A  ATOM     15  C   UNL     1      37.192  46.516  12.980 -0.54 -0.01    +0.020 A  ATOM     16  N   UNL     1      36.635  45.301  13.305 -0.20 +0.14    -0.358 N  ATOM     17  C   UNL     1      36.667  45.095  14.667 -0.36 -0.02    +0.046 A  ATOM     18  C   UNL     1      37.291  46.206  15.235 -0.38 -0.00    +0.007 A  ATOM     19  C   UNL     1      36.194  44.019  15.430 -0.37 -0.01    +0.027 A  ATOM     20  C   UNL     1      37.459  46.241  16.634 -0.37 -0.01    +0.011 A  ATOM     21  C   UNL     1      36.367  44.079  16.816 -0.34 -0.00    +0.002 A  ATOM     22  C   UNL     1      36.993  45.172  17.412 -0.35 -0.00    +0.001 A  ATOM     23  C   UNL     1      37.236  46.992  11.571 -0.62 -0.02    +0.065 C  ATOM     24  H   UNL     1      36.236  44.649  12.643 +0.12 -0.06    +0.166 HD ENDBRANCH  13  14ENDBRANCH  12  13ENDBRANCH   8  12ENDBRANCH   1   7BRANCH   4  25ATOM     25  C   UNL     1      41.281  43.647  21.441 -0.28 +0.01    +0.155 C  BRANCH  25  26ATOM     26  C   UNL     1      40.033  43.750  22.303 -0.18 +0.01    +0.226 C  ATOM     27  N   UNL     1      38.861  43.947  21.585 -0.09 -0.01    -0.356 N  ATOM     28  O   UNL     1      40.080  43.661  23.531 -0.12 -0.01    -0.275 OA ATOM     29  H   UNL     1      38.896  43.721  20.594 +0.10 +0.00    +0.163 HD BRANCH  27  30ATOM     30  C   UNL     1      37.567  43.925  22.234 -0.35 +0.01    +0.118 C  BRANCH  30  31ATOM     31  C   UNL     1      36.639  42.820  21.698 -0.50 +0.00    +0.002 C  ATOM     32  C   UNL     1      37.215  41.445  22.040 -0.61 +0.00    +0.009 C  ATOM     33  C   UNL     1      36.438  42.935  20.181 -0.48 -0.00    +0.009 C  ENDBRANCH  30  31ENDBRANCH  27  30ENDBRANCH  25  26ENDBRANCH   4  25TORSDOF 8TERENDMDL