MODEL        7USER    Run = 7USERUSER    Estimated Free Energy of Binding    = -10.34 kcal/mol  [=(1)+(2)+(3)-(4)]USERUSER    (1) Final Intermolecular Energy     = -12.12 kcal/molUSER        vdW + Hbond + desolv Energy     = -11.92 kcal/molUSER        Electrostatic Energy            =  -0.20 kcal/molUSER        Moving Ligand-Fixed Receptor    = -12.12 kcal/molUSER        Moving Ligand-Moving Receptor   =  +0.00 kcal/molUSER    (2) Final Total Internal Energy     =  -1.93 kcal/molUSER    (3) Torsional Free Energy           =  +1.79 kcal/molUSER    (4) Unbound System's Energy         =  -1.93 kcal/molUSERUSERREMARK SMILES CC(C)NC(=O)Nc1ccc(-c2cncc(-c3ccc4c(N)n[nH]c4c3)n2)cc1NREMARK SMILES IDX 8 1 9 2 10 3 11 4 28 5 29 6 7 7 4 8 5 9 6 11 2 13 1 14 3 15REMARK SMILES IDX 30 16 12 19 13 20 27 21 14 22 16 23 15 24 17 25 18 26 26 27REMARK SMILES IDX 19 28 25 29 20 30 24 31 21 32 23 33 22 35REMARK H PARENT 4 10 7 12 30 17 30 18 24 34 22 36 22 37USER                              x       y       z     vdW  Elec       q    TypeUSER                           _______ _______ _______ _____ _____    ______ ____ROOTATOM      1  C   UNL     1      36.541  42.187  22.526 -0.45 +0.00    +0.065 A  ATOM      2  C   UNL     1      35.818  41.476  21.552 -0.40 +0.00    +0.029 A  ATOM      3  C   UNL     1      35.753  41.911  20.223 -0.37 -0.00    +0.013 A  ATOM      4  C   UNL     1      36.390  43.090  19.817 -0.39 -0.00    +0.004 A  ATOM      5  C   UNL     1      37.094  43.804  20.803 -0.38 -0.00    +0.038 A  ATOM      6  C   UNL     1      37.224  43.353  22.132 -0.36 +0.00    +0.056 A  ENDROOTBRANCH   1   7ATOM      7  N   UNL     1      36.462  41.649  23.835 -0.27 +0.00    -0.306 N  ATOM      8  N   UNL     1      36.311  41.380  26.076 -0.17 +0.10    -0.336 N  ATOM      9  C   UNL     1      36.569  42.274  25.053 -0.24 -0.02    +0.319 C  ATOM     10  H   UNL     1      35.651  40.652  25.846 -0.34 -0.10    +0.165 HD ATOM     11  O   UNL     1      36.866  43.442  25.258 -0.25 -0.00    -0.248 OA ATOM     12  H   UNL     1      36.528  40.645  23.898 +0.02 -0.03    +0.171 HD BRANCH   8  13ATOM     13  C   UNL     1      36.315  41.820  27.468 -0.53 -0.02    +0.077 C  ATOM     14  C   UNL     1      35.239  42.880  27.677 -0.62 -0.01    +0.030 C  ATOM     15  C   UNL     1      37.688  42.360  27.865 -0.40 -0.01    +0.030 C  ENDBRANCH   8  13ENDBRANCH   1   7BRANCH   6  16ATOM     16  N   UNL     1      37.845  44.251  23.026 -0.12 -0.03    -0.397 N  ATOM     17  H   UNL     1      37.146  44.775  23.543 +0.07 +0.03    +0.156 HD ATOM     18  H   UNL     1      38.405  43.734  23.717 +0.09 +0.01    +0.156 HD ENDBRANCH   6  16BRANCH   4  19ATOM     19  C   UNL     1      36.319  43.587  18.433 -0.23 -0.02    +0.089 A  ATOM     20  C   UNL     1      35.501  43.025  17.455 -0.27 -0.04    +0.140 A  ATOM     21  N   UNL     1      37.109  44.652  18.133 -0.19 +0.06    -0.245 NA ATOM     22  N   UNL     1      35.423  43.495  16.187 -0.23 +0.10    -0.260 NA ATOM     23  C   UNL     1      37.069  45.139  16.863 -0.29 -0.03    +0.089 A  ATOM     24  C   UNL     1      36.220  44.558  15.922 -0.26 -0.06    +0.140 A  BRANCH  23  25ATOM     25  C   UNL     1      37.947  46.295  16.580 -0.38 -0.00    +0.004 A  ATOM     26  C   UNL     1      37.526  47.376  15.780 -0.41 -0.01    +0.011 A  ATOM     27  C   UNL     1      39.255  46.330  17.110 -0.41 -0.01    +0.038 A  ATOM     28  C   UNL     1      38.354  48.481  15.513 -0.48 -0.01    +0.015 A  ATOM     29  C   UNL     1      40.067  47.437  16.834 -0.45 -0.01    +0.068 A  ATOM     30  C   UNL     1      39.650  48.507  16.055 -0.48 -0.02    +0.044 A  ATOM     31  N   UNL     1      41.348  47.745  17.205 -0.33 +0.03    -0.276 N  ATOM     32  C   UNL     1      40.763  49.389  16.034 -0.45 -0.03    +0.153 A  ATOM     33  N   UNL     1      41.793  48.920  16.733 -0.89 -0.03    -0.157 NA ATOM     34  H   UNL     1      41.972  47.191  17.780 -0.17 -0.02    +0.190 HD BRANCH  32  35ATOM     35  N   UNL     1      40.800  50.559  15.377 -0.22 +0.17    -0.382 N  ATOM     36  H   UNL     1      41.615  51.151  15.472 -0.25 -0.05    +0.158 HD ATOM     37  H   UNL     1      39.930  51.081  15.384 -0.43 -0.14    +0.158 HD ENDBRANCH  32  35ENDBRANCH  23  25ENDBRANCH   4  19TORSDOF 6TERENDMDL