MODEL        5USER    Run = 5USERUSER    Estimated Free Energy of Binding    =  -8.01 kcal/mol  [=(1)+(2)+(3)-(4)]USERUSER    (1) Final Intermolecular Energy     =  -9.50 kcal/molUSER        vdW + Hbond + desolv Energy     =  -9.51 kcal/molUSER        Electrostatic Energy            =  +0.01 kcal/molUSER        Moving Ligand-Fixed Receptor    =  -9.50 kcal/molUSER        Moving Ligand-Moving Receptor   =  +0.00 kcal/molUSER    (2) Final Total Internal Energy     =  -0.71 kcal/molUSER    (3) Torsional Free Energy           =  +1.49 kcal/molUSER    (4) Unbound System's Energy         =  -0.71 kcal/molUSERUSERREMARK SMILES CSC=C1C=C(Nc2nc(-c3ccncc3)cs2)C=C1CREMARK SMILES IDX 4 1 5 2 6 3 19 4 20 5 21 6 3 7 2 8 1 9 7 10 8 12 9 13 18 14REMARK SMILES IDX 10 15 17 16 11 17 12 18 16 19 13 20 15 21 14 22REMARK H PARENT 7 11USER                              x       y       z     vdW  Elec       q    TypeUSER                           _______ _______ _______ _____ _____    ______ ____ROOTATOM      1  C   UNL     1      39.430  47.925  15.259 -0.59 +0.00    -0.014 C  ATOM      2  C   UNL     1      39.298  46.841  16.221 -0.49 -0.01    +0.035 C  ATOM      3  C   UNL     1      40.262  46.973  17.150 -0.54 -0.01    +0.041 C  ATOM      4  C   UNL     1      41.044  48.161  16.802 -0.60 -0.00    +0.030 C  ATOM      5  C   UNL     1      40.565  48.735  15.684 -0.65 +0.01    -0.041 C  ATOM      6  C   UNL     1      41.072  49.952  15.001 -0.68 -0.01    +0.045 C  ENDROOTBRANCH   1   7ATOM      7  C   UNL     1      38.668  48.158  14.179 -0.55 -0.02    +0.048 C  BRANCH   7   8ATOM      8  S   UNL     1      36.967  47.822  14.094 -0.67 +0.08    -0.137 SA ATOM      9  C   UNL     1      36.810  47.358  12.354 -0.68 -0.03    +0.090 C  ENDBRANCH   7   8ENDBRANCH   1   7BRANCH   3  10ATOM     10  N   UNL     1      40.600  46.251  18.262 -0.25 +0.02    -0.332 N  ATOM     11  H   UNL     1      41.599  46.205  18.429 +0.08 +0.00    +0.169 HD BRANCH  10  12ATOM     12  C   UNL     1      39.888  45.578  19.198 -0.30 -0.01    +0.187 A  ATOM     13  N   UNL     1      38.657  45.190  18.937 -0.26 +0.02    -0.220 NA ATOM     14  S   UNL     1      40.430  45.145  20.774 -0.43 -0.01    -0.105 S  ATOM     15  C   UNL     1      38.097  44.508  20.009 -0.31 -0.00    +0.084 A  ATOM     16  C   UNL     1      38.928  44.400  21.104 -0.28 +0.00    +0.097 A  BRANCH  15  17ATOM     17  C   UNL     1      36.734  43.989  19.936 -0.40 -0.00    +0.004 A  ATOM     18  C   UNL     1      35.690  44.700  19.339 -0.32 -0.01    +0.030 A  ATOM     19  C   UNL     1      36.448  42.737  20.491 -0.42 -0.00    +0.030 A  ATOM     20  C   UNL     1      34.426  44.131  19.315 -0.32 -0.02    +0.111 A  ATOM     21  C   UNL     1      35.153  42.252  20.417 -0.28 +0.00    +0.111 A  ATOM     22  N   UNL     1      34.135  42.922  19.839 -0.58 -0.01    -0.265 NA ENDBRANCH  15  17ENDBRANCH  10  12ENDBRANCH   3  10TORSDOF 5TERENDMDL