MODEL        10USER    Run = 10USERUSER    Estimated Free Energy of Binding    =  -8.72 kcal/mol  [=(1)+(2)+(3)-(4)]USERUSER    (1) Final Intermolecular Energy     =  -9.62 kcal/molUSER        vdW + Hbond + desolv Energy     =  -9.46 kcal/molUSER        Electrostatic Energy            =  -0.16 kcal/molUSER        Moving Ligand-Fixed Receptor    =  -9.62 kcal/molUSER        Moving Ligand-Moving Receptor   =  +0.00 kcal/molUSER    (2) Final Total Internal Energy     =  -0.45 kcal/molUSER    (3) Torsional Free Energy           =  +0.89 kcal/molUSER    (4) Unbound System's Energy         =  -0.45 kcal/molUSERUSERREMARK SMILES CN1CCOc2cnnc(-c3ccnc(Nc4ccc(F)cc4)n3)c21REMARK SMILES IDX 11 1 12 2 13 3 14 4 15 5 24 6 10 7 2 8 3 9 25 10 4 11 6 12REMARK SMILES IDX 5 13 9 14 7 15 8 16 1 17 16 18 17 20 18 21 23 22 19 23 22 24REMARK SMILES IDX 20 25 21 26REMARK H PARENT 16 19USER                              x       y       z     vdW  Elec       q    TypeUSER                           _______ _______ _______ _____ _____    ______ ____ROOTATOM      1  C   UNL     1      39.592  47.956  15.371 -0.46 -0.03    +0.098 A  ATOM      2  C   UNL     1      39.952  49.274  15.179 -0.37 -0.02    +0.051 A  ATOM      3  C   UNL     1      40.977  49.726  15.966 -0.49 -0.02    +0.117 A  ATOM      4  N   UNL     1      41.606  48.961  16.876 -0.88 -0.02    -0.221 NA ATOM      5  C   UNL     1      41.186  47.697  17.022 -0.23 -0.03    +0.227 A  ATOM      6  N   UNL     1      40.200  47.163  16.287 -0.32 +0.04    -0.211 NA ENDROOTBRANCH   1   7ATOM      7  C   UNL     1      38.504  47.349  14.600 -0.37 -0.05    +0.139 A  ATOM      8  N   UNL     1      37.718  45.699  16.340 -0.11 +0.13    -0.366 N  ATOM      9  C   UNL     1      36.640  44.716  16.552 -0.29 -0.06    +0.158 C  ATOM     10  C   UNL     1      37.700  46.274  15.037 -0.31 -0.05    +0.111 A  ATOM     11  C   UNL     1      36.483  43.834  15.326 -0.25 -0.09    +0.251 C  ATOM     12  C   UNL     1      36.867  45.727  14.037 -0.31 -0.07    +0.165 A  ATOM     13  O   UNL     1      36.065  44.619  14.207 -0.03 +0.20    -0.488 OA ATOM     14  N   UNL     1      38.415  47.873  13.342 -0.64 +0.03    -0.146 NA ATOM     15  C   UNL     1      36.800  46.309  12.782 -0.44 -0.07    +0.184 A  ATOM     16  N   UNL     1      37.545  47.368  12.433 -1.05 +0.03    -0.154 NA ATOM     17  C   UNL     1      37.914  46.600  17.482 -0.10 -0.05    +0.144 C  ENDBRANCH   1   7BRANCH   5  18ATOM     18  N   UNL     1      41.758  46.828  17.946 -0.25 +0.02    -0.324 N  ATOM     19  H   UNL     1      42.727  46.688  17.695 -0.44 -0.05    +0.170 HD BRANCH  18  20ATOM     20  C   UNL     1      41.256  46.052  18.995 -0.45 +0.00    +0.041 A  ATOM     21  C   UNL     1      40.231  45.109  18.848 -0.43 -0.00    +0.029 A  ATOM     22  C   UNL     1      41.785  46.248  20.285 -0.38 +0.00    +0.029 A  ATOM     23  C   UNL     1      39.758  44.377  19.943 -0.31 +0.00    +0.041 A  ATOM     24  C   UNL     1      41.316  45.520  21.382 -0.28 +0.00    +0.041 A  ATOM     25  C   UNL     1      40.305  44.589  21.199 -0.24 +0.01    +0.123 A  ATOM     26  F   UNL     1      39.852  43.889  22.248 -0.03 -0.01    -0.207 F  ENDBRANCH  18  20ENDBRANCH   5  18TORSDOF 3TERENDMDL