MODEL        10USER    Run = 10USERUSER    Estimated Free Energy of Binding    =  -9.57 kcal/mol  [=(1)+(2)+(3)-(4)]USERUSER    (1) Final Intermolecular Energy     = -11.06 kcal/molUSER        vdW + Hbond + desolv Energy     = -10.91 kcal/molUSER        Electrostatic Energy            =  -0.15 kcal/molUSER        Moving Ligand-Fixed Receptor    = -11.06 kcal/molUSER        Moving Ligand-Moving Receptor   =  +0.00 kcal/molUSER    (2) Final Total Internal Energy     =  -1.32 kcal/molUSER    (3) Torsional Free Energy           =  +1.49 kcal/molUSER    (4) Unbound System's Energy         =  -1.32 kcal/molUSERUSERREMARK SMILES CC(=O)N[C@H]1CCN(c2ccc(N3Cc4nccn4C3)c(-c3cc(C(C)C)no3)n2)C1REMARK SMILES IDX 9 1 10 2 11 3 12 4 21 5 30 6 8 7 5 8 6 9 31 10 7 11 4 12REMARK SMILES IDX 2 13 1 14 3 15 22 17 23 18 29 19 24 20 28 21 25 22 26 23REMARK SMILES IDX 27 24 13 25 14 26 20 27 15 28 19 29 16 30 18 31 17 32REMARK H PARENT 4 16USER                              x       y       z     vdW  Elec       q    TypeUSER                           _______ _______ _______ _____ _____    ______ ____ROOTATOM      1  C   UNL     1      36.050  45.432  16.132 -0.26 -0.07    +0.129 A  ATOM      2  C   UNL     1      36.553  46.087  15.018 -0.35 -0.03    +0.049 A  ATOM      3  C   UNL     1      37.891  46.486  14.978 -0.39 -0.01    +0.032 A  ATOM      4  C   UNL     1      38.746  46.240  16.056 -0.36 -0.02    +0.069 A  ATOM      5  C   UNL     1      38.171  45.545  17.136 -0.29 -0.04    +0.134 A  ATOM      6  N   UNL     1      36.861  45.161  17.172 -0.19 +0.08    -0.225 NA ENDROOTBRANCH   1   7ATOM      7  N   UNL     1      34.749  45.004  16.207 -0.09 +0.23    -0.354 N  ATOM      8  C   UNL     1      32.450  44.816  16.630 -0.30 -0.05    +0.103 C  ATOM      9  C   UNL     1      33.078  43.436  16.807 -0.35 -0.02    +0.048 C  ATOM     10  C   UNL     1      33.661  45.742  16.841 -0.15 -0.14    +0.143 C  ATOM     11  C   UNL     1      34.454  43.572  16.147 -0.33 -0.05    +0.120 C  BRANCH   8  12ATOM     12  N   UNL     1      31.885  44.969  15.291 -0.15 +0.21    -0.352 N  ATOM     13  C   UNL     1      31.090  46.041  14.964 -0.40 -0.13    +0.217 C  ATOM     14  C   UNL     1      30.505  45.979  13.580 -0.55 -0.08    +0.114 C  ATOM     15  O   UNL     1      30.890  46.989  15.716 -0.87 +0.10    -0.275 OA ATOM     16  H   UNL     1      31.842  44.132  14.719 +0.10 -0.10    +0.163 HD ENDBRANCH   8  12ENDBRANCH   1   7BRANCH   5  17ATOM     17  C   UNL     1      38.879  45.148  18.351 -0.28 -0.02    +0.187 A  ATOM     18  C   UNL     1      38.508  45.052  19.674 -0.31 -0.00    +0.080 A  ATOM     19  O   UNL     1      40.171  44.732  18.237 -0.23 +0.01    -0.354 OA ATOM     20  C   UNL     1      39.655  44.561  20.339 -0.29 +0.00    +0.087 A  ATOM     21  N   UNL     1      40.661  44.361  19.477 -0.36 -0.00    -0.084 NA BRANCH  20  22ATOM     22  C   UNL     1      39.840  44.264  21.796 -0.30 +0.00    +0.035 C  ATOM     23  C   UNL     1      38.678  43.440  22.353 -0.34 +0.00    +0.014 C  ATOM     24  C   UNL     1      41.171  43.559  22.064 -0.35 +0.00    +0.014 C  ENDBRANCH  20  22ENDBRANCH   5  17BRANCH   4  25ATOM     25  N   UNL     1      40.098  46.622  16.032 -0.20 +0.05    -0.344 N  ATOM     26  C   UNL     1      40.558  47.636  17.043 -0.44 -0.03    +0.194 C  ATOM     27  C   UNL     1      40.506  47.140  14.681 -0.15 -0.02    +0.244 C  ATOM     28  C   UNL     1      41.041  48.784  16.240 -0.47 -0.01    +0.129 A  ATOM     29  N   UNL     1      41.015  48.471  14.918 -0.31 +0.04    -0.315 N  ATOM     30  N   UNL     1      41.455  50.009  16.437 -0.92 +0.01    -0.240 NA ATOM     31  C   UNL     1      41.428  49.524  14.195 -0.54 -0.02    +0.109 A  ATOM     32  C   UNL     1      41.710  50.479  15.159 -0.49 -0.03    +0.131 A  ENDBRANCH   4  25TORSDOF 5TERENDMDL