MODEL        10USER    Run = 10USERUSER    Estimated Free Energy of Binding    = -11.43 kcal/mol  [=(1)+(2)+(3)-(4)]USERUSER    (1) Final Intermolecular Energy     = -12.92 kcal/molUSER        vdW + Hbond + desolv Energy     = -12.87 kcal/molUSER        Electrostatic Energy            =  -0.05 kcal/molUSER        Moving Ligand-Fixed Receptor    = -12.92 kcal/molUSER        Moving Ligand-Moving Receptor   =  +0.00 kcal/molUSER    (2) Final Total Internal Energy     =  -1.16 kcal/molUSER    (3) Torsional Free Energy           =  +1.49 kcal/molUSER    (4) Unbound System's Energy         =  -1.16 kcal/molUSERUSERREMARK SMILES CN1CCN(c2cccc(-c3ccc(-c4nc(C5CCCC5)cnc4N)cc3)c2)CC1REMARK SMILES IDX 11 1 12 2 13 3 14 4 27 5 28 6 10 7 6 8 7 9 29 10 8 11 9 12REMARK SMILES IDX 5 13 2 14 3 15 31 16 4 17 30 18 1 19 15 20 16 21 25 22 17 23REMARK SMILES IDX 24 24 23 25 26 26 18 29 19 30 22 31 20 32 21 33REMARK H PARENT 26 27 26 28USER                              x       y       z     vdW  Elec       q    TypeUSER                           _______ _______ _______ _____ _____    ______ ____ROOTATOM      1  C   UNL     1      38.071  44.382  20.274 -0.36 +0.00    -0.018 A  ATOM      2  C   UNL     1      39.307  45.019  20.450 -0.36 +0.00    +0.009 A  ATOM      3  C   UNL     1      39.819  45.885  19.475 -0.37 -0.00    +0.011 A  ATOM      4  C   UNL     1      39.113  46.154  18.290 -0.39 -0.00    +0.004 A  ATOM      5  C   UNL     1      37.881  45.504  18.114 -0.36 -0.00    +0.011 A  ATOM      6  C   UNL     1      37.368  44.637  19.089 -0.35 -0.00    +0.009 A  ENDROOTBRANCH   1   7ATOM      7  C   UNL     1      37.534  43.468  21.295 -0.37 -0.00    -0.016 A  ATOM      8  C   UNL     1      36.916  43.040  23.656 -0.36 +0.00    +0.037 A  ATOM      9  C   UNL     1      36.506  41.758  23.260 -0.46 +0.00    +0.026 A  ATOM     10  C   UNL     1      37.428  43.871  22.644 -0.35 +0.00    +0.034 A  ATOM     11  C   UNL     1      36.598  41.329  21.933 -0.58 +0.00    +0.003 A  ATOM     12  C   UNL     1      37.108  42.180  20.957 -0.33 +0.00    +0.009 A  BRANCH   8  13ATOM     13  N   UNL     1      36.819  43.463  24.971 -0.13 -0.01    -0.369 N  ATOM     14  N   UNL     1      36.562  44.374  27.820 -0.23 +0.07    -0.303 NA ATOM     15  C   UNL     1      37.577  44.883  26.873 -0.30 -0.01    +0.105 C  ATOM     16  C   UNL     1      35.656  43.405  27.165 -0.49 -0.02    +0.105 C  ATOM     17  C   UNL     1      37.188  44.830  25.375 -0.30 +0.00    +0.132 C  ATOM     18  C   UNL     1      36.318  42.578  26.036 -0.39 -0.01    +0.132 C  ATOM     19  C   UNL     1      35.796  45.459  28.428 -0.36 -0.03    +0.105 C  ENDBRANCH   8  13ENDBRANCH   1   7BRANCH   4  20ATOM     20  C   UNL     1      39.674  47.068  17.274 -0.37 -0.03    +0.113 A  ATOM     21  N   UNL     1      38.841  47.334  16.226 -0.26 +0.10    -0.247 NA ATOM     22  C   UNL     1      40.968  47.624  17.327 -0.40 -0.02    +0.150 A  ATOM     23  C   UNL     1      39.287  48.185  15.268 -0.49 -0.02    +0.063 A  ATOM     24  N   UNL     1      41.415  48.468  16.376 -0.79 +0.01    -0.236 NA ATOM     25  C   UNL     1      40.558  48.735  15.361 -0.49 -0.03    +0.137 A  BRANCH  22  26ATOM     26  N   UNL     1      41.887  47.369  18.347 -0.30 +0.01    -0.382 N  ATOM     27  H   UNL     1      42.758  47.007  17.974 -0.46 -0.02    +0.158 HD ATOM     28  H   UNL     1      42.016  48.241  18.855 +0.05 -0.00    +0.158 HD ENDBRANCH  22  26BRANCH  23  29ATOM     29  C   UNL     1      38.327  48.453  14.131 -0.54 -0.02    +0.040 C  ATOM     30  C   UNL     1      36.910  48.731  14.641 -0.51 -0.01    +0.010 C  ATOM     31  C   UNL     1      38.109  47.318  13.124 -0.49 -0.00    +0.010 C  ATOM     32  C   UNL     1      36.272  47.351  14.745 -0.41 -0.00    +0.001 C  ATOM     33  C   UNL     1      36.882  46.540  13.605 -0.57 -0.00    +0.001 C  ENDBRANCH  23  29ENDBRANCH   4  20TORSDOF 5TERENDMDL