REMARK SMILES Oc1nc2ccccc2n1C1CCN(Cc2ccc(-c3nc4ccccc4nc3-c3ccc(F)cc3)cc2)CC1
REMARK SMILES IDX 15 1 14 2 11 3 12 4 40 5 13 6 39 7 10 8 2 9 3 10 4 11 9 12
REMARK SMILES IDX 5 13 8 14 6 15 7 16 1 17 16 19 17 20 38 21 18 22 37 23 19 24
REMARK SMILES IDX 20 25 21 26 29 27 22 28 28 29 23 30 27 31 24 32 26 33 25 34
REMARK SMILES IDX 30 35 31 36 36 37 32 38 35 39 33 40 34 41
REMARK H PARENT 1 18
ROOT
ATOM      1  C   UNL     1       1.200  -1.848   1.942  1.00  0.00     0.120 C 
ENDROOT
BRANCH   1   2
ATOM      2  N   UNL     1       2.077  -1.518   0.806  1.00  0.00    -0.299 NA
ATOM      3  C   UNL     1       4.016  -0.857  -1.073  1.00  0.00     0.095 C 
ATOM      4  C   UNL     1       2.982   0.211  -0.675  1.00  0.00     0.041 C 
ATOM      5  C   UNL     1       4.505  -1.654   0.139  1.00  0.00     0.041 C 
ATOM      6  C   UNL     1       2.327  -0.083   0.678  1.00  0.00     0.087 C 
ATOM      7  C   UNL     1       3.329  -2.288   0.891  1.00  0.00     0.087 C 
BRANCH   3   8
ATOM      8  N   UNL     1       5.115  -0.319  -1.865  1.00  0.00    -0.291 N 
ATOM      9  C   UNL     1       5.413  -0.687  -3.149  1.00  0.00     0.295 A 
ATOM     10  N   UNL     1       6.455  -0.073  -3.637  1.00  0.00    -0.195 NA
ATOM     11  C   UNL     1       6.871   0.750  -2.619  1.00  0.00     0.092 A 
ATOM     12  C   UNL     1       6.055   0.620  -1.491  1.00  0.00     0.072 A 
ATOM     13  C   UNL     1       7.952   1.647  -2.591  1.00  0.00     0.031 A 
ATOM     14  C   UNL     1       6.278   1.359  -0.321  1.00  0.00     0.029 A 
ATOM     15  C   UNL     1       8.185   2.392  -1.430  1.00  0.00     0.002 A 
ATOM     16  C   UNL     1       7.360   2.248  -0.315  1.00  0.00     0.002 A 
BRANCH   9  17
ATOM     17  O   UNL     1       4.739  -1.574  -3.852  1.00  0.00    -0.480 OA
ATOM     18  H   UNL     1       5.229  -1.562  -4.695  1.00  0.00     0.296 HD
ENDBRANCH   9  17
ENDBRANCH   3   8
ENDBRANCH   1   2
BRANCH   1  19
ATOM     19  C   UNL     1      -0.227  -1.376   1.759  1.00  0.00    -0.034 A 
ATOM     20  C   UNL     1      -1.013  -1.871   0.711  1.00  0.00     0.006 A 
ATOM     21  C   UNL     1      -0.794  -0.456   2.649  1.00  0.00     0.006 A 
ATOM     22  C   UNL     1      -2.340  -1.453   0.555  1.00  0.00     0.011 A 
ATOM     23  C   UNL     1      -2.118  -0.035   2.485  1.00  0.00     0.011 A 
ATOM     24  C   UNL     1      -2.913  -0.515   1.430  1.00  0.00     0.002 A 
BRANCH  24  25
ATOM     25  C   UNL     1      -4.309  -0.058   1.285  1.00  0.00     0.097 A 
ATOM     26  N   UNL     1      -5.036  -0.144   2.436  1.00  0.00    -0.244 NA
ATOM     27  C   UNL     1      -4.891   0.413   0.097  1.00  0.00     0.097 A 
ATOM     28  C   UNL     1      -6.332   0.206   2.384  1.00  0.00     0.089 A 
ATOM     29  N   UNL     1      -6.212   0.749   0.046  1.00  0.00    -0.244 NA
ATOM     30  C   UNL     1      -7.109   0.131   3.534  1.00  0.00     0.030 A 
ATOM     31  C   UNL     1      -6.925   0.649   1.181  1.00  0.00     0.089 A 
ATOM     32  C   UNL     1      -8.460   0.483   3.523  1.00  0.00     0.002 A 
ATOM     33  C   UNL     1      -8.271   0.994   1.180  1.00  0.00     0.030 A 
ATOM     34  C   UNL     1      -9.044   0.915   2.340  1.00  0.00     0.002 A 
BRANCH  27  35
ATOM     35  C   UNL     1      -4.179   0.627  -1.177  1.00  0.00     0.003 A 
ATOM     36  C   UNL     1      -2.998   1.390  -1.249  1.00  0.00     0.013 A 
ATOM     37  C   UNL     1      -4.692   0.092  -2.376  1.00  0.00     0.013 A 
ATOM     38  C   UNL     1      -2.341   1.586  -2.467  1.00  0.00     0.040 A 
ATOM     39  C   UNL     1      -4.037   0.288  -3.594  1.00  0.00     0.040 A 
ATOM     40  C   UNL     1      -2.865   1.032  -3.627  1.00  0.00     0.123 A 
ATOM     41  F   UNL     1      -2.236   1.224  -4.794  1.00  0.00    -0.207 F 
ENDBRANCH  27  35
ENDBRANCH  24  25
ENDBRANCH   1  19
TORSDOF 6
