MODEL        6USER    Run = 6USERUSER    Estimated Free Energy of Binding    =  -9.15 kcal/mol  [=(1)+(2)+(3)-(4)]USERUSER    (1) Final Intermolecular Energy     = -10.94 kcal/molUSER        vdW + Hbond + desolv Energy     = -10.43 kcal/molUSER        Electrostatic Energy            =  -0.51 kcal/molUSER        Moving Ligand-Fixed Receptor    = -10.94 kcal/molUSER        Moving Ligand-Moving Receptor   =  +0.00 kcal/molUSER    (2) Final Total Internal Energy     =  -1.00 kcal/molUSER    (3) Torsional Free Energy           =  +1.79 kcal/molUSER    (4) Unbound System's Energy         =  -1.00 kcal/molUSERUSERREMARK SMILES Cc1cccc(-c2nnc3sc(C(=O)NCCCO)cn23)c1REMARK SMILES IDX 16 1 15 2 13 3 14 4 12 6 7 7 8 8 21 9 9 10 20 11 10 12 11 13REMARK SMILES IDX 6 14 2 15 3 16 22 17 4 18 5 19 1 20 17 21 18 22 19 23REMARK H PARENT 15 5 19 24USER                              x       y       z     vdW  Elec       q    TypeUSER                           _______ _______ _______ _____ _____    ______ ____ROOTATOM      1  C   UNL     1      31.979  44.688  16.330 -0.30 -0.05    +0.118 C  ENDROOTBRANCH   1   2ATOM      2  N   UNL     1      33.051  45.429  15.696 -0.11 +0.31    -0.351 N  ATOM      3  C   UNL     1      34.351  44.994  15.691 -0.19 -0.18    +0.263 C  ATOM      4  O   UNL     1      34.725  43.947  16.210 -0.21 +0.12    -0.268 OA ATOM      5  H   UNL     1      32.824  46.318  15.263 -0.38 -0.25    +0.163 HD BRANCH   3   6ATOM      6  C   UNL     1      35.318  45.890  15.010 -0.29 -0.09    +0.112 A  ATOM      7  C   UNL     1      38.387  47.761  14.642 -0.38 -0.07    +0.169 A  ATOM      8  N   UNL     1      38.451  48.370  13.458 -0.56 +0.03    -0.128 NA ATOM      9  N   UNL     1      37.191  47.089  14.696 -0.22 +0.16    -0.272 N  ATOM     10  N   UNL     1      37.277  48.130  12.753 -1.03 +0.02    -0.118 NA ATOM     11  C   UNL     1      36.503  46.247  15.539 -0.29 -0.08    +0.120 A  ATOM     12  C   UNL     1      36.559  47.369  13.525 -0.39 -0.12    +0.217 A  ATOM     13  S   UNL     1      35.013  46.596  13.420 -0.57 +0.07    -0.089 S  BRANCH   7  14ATOM     14  C   UNL     1      39.427  47.768  15.668 -0.50 -0.01    +0.020 A  ATOM     15  C   UNL     1      40.440  46.696  17.618 -0.47 +0.01    -0.050 A  ATOM     16  C   UNL     1      41.406  47.705  17.661 -0.52 -0.00    +0.003 A  ATOM     17  C   UNL     1      39.466  46.727  16.609 -0.45 -0.00    +0.015 A  ATOM     18  C   UNL     1      41.391  48.735  16.721 -0.41 -0.00    +0.001 A  ATOM     19  C   UNL     1      40.409  48.765  15.728 -0.59 -0.00    +0.012 A  ATOM     20  C   UNL     1      40.480  45.560  18.596 -0.49 -0.00    +0.044 C  ENDBRANCH   7  14ENDBRANCH   3   6ENDBRANCH   1   2BRANCH   1  21ATOM     21  C   UNL     1      30.630  44.881  15.639 -0.40 -0.02    +0.049 C  BRANCH  21  22ATOM     22  C   UNL     1      30.615  46.047  14.659 -0.46 -0.08    +0.158 C  BRANCH  22  23ATOM     23  O   UNL     1      30.903  47.260  15.341 -0.79 +0.15    -0.396 OA ATOM     24  H   UNL     1      31.870  47.374  15.324 -0.41 -0.41    +0.210 HD ENDBRANCH  22  23ENDBRANCH  21  22ENDBRANCH   1  21TORSDOF 6TERENDMDL