MODEL        9USER    Run = 9USERUSER    Estimated Free Energy of Binding    =  -7.03 kcal/mol  [=(1)+(2)+(3)-(4)]USERUSER    (1) Final Intermolecular Energy     = -11.21 kcal/molUSER        vdW + Hbond + desolv Energy     = -10.65 kcal/molUSER        Electrostatic Energy            =  -0.82 kcal/molUSER        Moving Ligand-Fixed Receptor    = -11.47 kcal/molUSER        Moving Ligand-Moving Receptor   =  +0.26 kcal/molUSER    (2) Final Total Internal Energy     =  -1.92 kcal/molUSER    (3) Torsional Free Energy           =  +4.18 kcal/molUSER    (4) Unbound System's Energy         =  -1.92 kcal/molUSERUSERREMARK SMILES COc1ccc(O)c(C(=O)c2ccc(C(=O)N[C@@H]3CCCN(C)C[C@H]3NC(=O)c3ccncc3)cc2)c1FREMARK SMILES IDX 15 1 16 2 17 3 14 5 11 6 12 7 36 8 13 9 35 10 9 11 10 12REMARK SMILES IDX 8 13 3 14 4 15 37 16 5 17 6 18 38 19 2 20 1 21 7 22 18 24REMARK SMILES IDX 19 25 25 27 24 28 22 29 23 30 21 31 20 32 26 34 27 35 28 37REMARK SMILES IDX 29 38 30 39 34 40 31 41 33 42 32 43REMARK H PARENT 17 4 7 23 26 36REMARK Flexibility Score:   88.900USER                              x       y       z     vdW  Elec       q    TypeUSER                           _______ _______ _______ _____ _____    ______ ____ROOTATOM      1  C   UNL     1      28.042  38.677  19.203 -0.18 +0.03    +0.251 C  ATOM      2  O   UNL     1      29.136  38.993  18.747 -0.21 -0.06    -0.269 OA ATOM      3  N   UNL     1      26.866  39.321  18.880 -0.08 -0.01    -0.347 N  ATOM      4  H   UNL     1      25.989  38.934  19.201 +0.09 -0.04    +0.164 HD ENDROOTBRANCH   1   5ATOM      5  C   UNL     1      27.928  37.524  20.136 -0.28 -0.00    +0.039 A  ATOM      6  C   UNL     1      27.652  35.312  21.833 -0.34 -0.01    +0.023 A  ATOM      7  C   UNL     1      26.858  35.415  20.686 -0.07 -0.01    +0.013 A  ATOM      8  C   UNL     1      28.611  36.295  22.109 -0.35 -0.00    +0.013 A  ATOM      9  C   UNL     1      26.996  36.519  19.841 -0.26 -0.01    +0.014 A  ATOM     10  C   UNL     1      28.748  37.401  21.265 -0.28 -0.00    +0.014 A  BRANCH   6  11ATOM     11  C   UNL     1      27.564  34.142  22.736 -0.32 +0.01    +0.199 C  ATOM     12  O   UNL     1      26.917  34.246  23.779 -0.51 -0.24    -0.288 OA BRANCH  11  13ATOM     13  C   UNL     1      28.258  32.863  22.474 -0.37 +0.00    +0.104 A  ATOM     14  C   UNL     1      29.989  31.223  22.989 -0.37 +0.01    +0.155 A  ATOM     15  C   UNL     1      29.537  30.420  21.940 -0.21 -0.02    +0.053 A  ATOM     16  C   UNL     1      29.346  32.444  23.242 -0.27 +0.06    +0.179 A  ATOM     17  C   UNL     1      28.469  30.844  21.145 -0.01 -0.04    +0.051 A  ATOM     18  C   UNL     1      27.846  32.063  21.402 -0.30 -0.08    +0.130 A  ATOM     19  F   UNL     1      29.815  33.226  24.229 +0.17 -0.21    -0.202 F  BRANCH  14  20ATOM     20  O   UNL     1      31.033  30.924  23.822 -0.25 -0.15    -0.494 OA ATOM     21  C   UNL     1      32.058  30.082  23.310 -0.43 +0.03    +0.278 C  ENDBRANCH  14  20BRANCH  18  22ATOM     22  O   UNL     1      26.830  32.416  20.556 -0.10 +0.64    -0.507 OA ATOM     23  H   UNL     1      25.996  32.019  20.899 -0.24 -0.78    +0.293 HD ENDBRANCH  18  22ENDBRANCH  11  13ENDBRANCH   6  11ENDBRANCH   1   5BRANCH   3  24ATOM     24  C   UNL     1      26.839  40.479  17.988 -0.22 +0.00    +0.106 C  BRANCH  24  25ATOM     25  C   UNL     1      27.632  40.224  16.695 -0.30 +0.00    +0.028 CG0ATOM     26  G   UNL     1      27.172  40.928  15.420 +0.00 +0.00    +0.000 G0 ENDBRANCH  24  25BRANCH  24  27ATOM     27  C   UNL     1      27.190  41.814  18.706 -0.10 -0.01    +0.118 C  BRANCH  27  28ATOM     28  C   UNL     1      27.299  43.056  17.784 -0.22 -0.01    +0.111 C  BRANCH  28  29ATOM     29  N   UNL     1      26.512  43.126  16.551 -0.08 +0.06    -0.304 NA ATOM     30  C   UNL     1      25.088  42.898  16.720 -0.28 -0.00    +0.105 C  BRANCH  29  31ATOM     31  C   UNL     1      27.120  42.455  15.413 -0.22 -0.05    +0.084 C  BRANCH  31  32ATOM     32  C   UNL     1      27.172  40.930  15.420 -0.38 -0.00    +0.018 CG0ATOM     33  G   UNL     1      27.634  40.227  16.695 +0.00 +0.00    +0.000 G0 ENDBRANCH  31  32ENDBRANCH  29  31ENDBRANCH  28  29ENDBRANCH  27  28BRANCH  27  34ATOM     34  N   UNL     1      26.319  42.063  19.863 -0.13 +0.06    -0.346 N  ATOM     35  C   UNL     1      25.103  41.428  20.000 -0.27 -0.05    +0.251 C  ATOM     36  H   UNL     1      26.585  42.779  20.525 -0.09 -0.05    +0.164 HD ATOM     37  O   UNL     1      24.648  40.659  19.162 -0.19 +0.05    -0.269 OA BRANCH  35  38ATOM     38  C   UNL     1      24.319  41.738  21.225 -0.53 -0.01    +0.042 A  ATOM     39  C   UNL     1      23.744  40.675  21.924 -0.43 -0.01    +0.034 A  ATOM     40  C   UNL     1      24.176  43.039  21.708 -0.45 -0.01    +0.034 A  ATOM     41  C   UNL     1      23.023  40.963  23.066 -0.24 -0.03    +0.112 A  ATOM     42  C   UNL     1      23.436  43.220  22.863 -0.55 -0.04    +0.112 A  ATOM     43  N   UNL     1      22.853  42.212  23.547 -0.79 +0.14    -0.265 NA ENDBRANCH  35  38ENDBRANCH  27  34ENDBRANCH  24  27ENDBRANCH   3  24TORSDOF 8TERENDMDL