REMARK SMILES CC(C)NC(=O)Nc1ccc(-c2cncc(-c3ccc4c(N)n[nH]c4c3)n2)cc1N
REMARK SMILES IDX 8 1 9 2 10 3 11 4 28 5 29 6 7 7 4 8 5 9 6 11 2 13 1 14 3 15
REMARK SMILES IDX 30 16 12 19 13 20 27 21 14 22 16 23 15 24 17 25 18 26 26 27
REMARK SMILES IDX 19 28 25 29 20 30 24 31 21 32 23 33 22 35
REMARK H PARENT 4 10 7 12 30 17 30 18 24 34 22 36 22 37
ROOT
ATOM      1  C   UNL     1      -2.722   0.922   0.298  1.00  0.00     0.065 A 
ATOM      2  C   UNL     1      -2.384   1.916   1.233  1.00  0.00     0.029 A 
ATOM      3  C   UNL     1      -1.086   2.433   1.317  1.00  0.00     0.013 A 
ATOM      4  C   UNL     1      -0.065   1.961   0.484  1.00  0.00     0.004 A 
ATOM      5  C   UNL     1      -0.409   0.953  -0.434  1.00  0.00     0.038 A 
ATOM      6  C   UNL     1      -1.722   0.461  -0.578  1.00  0.00     0.056 A 
ENDROOT
BRANCH   1   7
ATOM      7  N   UNL     1      -4.060   0.462   0.378  1.00  0.00    -0.306 N 
ATOM      8  N   UNL     1      -6.021  -0.613   0.033  1.00  0.00    -0.336 N 
ATOM      9  C   UNL     1      -4.784  -0.303  -0.503  1.00  0.00     0.319 C 
ATOM     10  H   UNL     1      -6.037  -0.702   1.038  1.00  0.00     0.165 HD
ATOM     11  O   UNL     1      -4.439  -0.668  -1.618  1.00  0.00    -0.248 OA
ATOM     12  H   UNL     1      -4.633   0.909   1.078  1.00  0.00     0.171 HD
BRANCH   8  13
ATOM     13  C   UNL     1      -6.957  -1.462  -0.697  1.00  0.00     0.077 C 
ATOM     14  C   UNL     1      -8.374  -1.229  -0.182  1.00  0.00     0.030 C 
ATOM     15  C   UNL     1      -6.572  -2.935  -0.568  1.00  0.00     0.030 C 
ENDBRANCH   8  13
ENDBRANCH   1   7
BRANCH   6  16
ATOM     16  N   UNL     1      -1.871  -0.641  -1.446  1.00  0.00    -0.397 N 
ATOM     17  H   UNL     1      -1.693  -1.509  -0.950  1.00  0.00     0.156 HD
ATOM     18  H   UNL     1      -2.837  -0.689  -1.797  1.00  0.00     0.156 HD
ENDBRANCH   6  16
BRANCH   4  19
ATOM     19  C   UNL     1       1.316   2.467   0.566  1.00  0.00     0.089 A 
ATOM     20  C   UNL     1       1.634   3.788   0.875  1.00  0.00     0.140 A 
ATOM     21  N   UNL     1       2.304   1.566   0.319  1.00  0.00    -0.245 NA
ATOM     22  N   UNL     1       2.905   4.247   0.968  1.00  0.00    -0.260 NA
ATOM     23  C   UNL     1       3.593   1.998   0.387  1.00  0.00     0.089 A 
ATOM     24  C   UNL     1       3.865   3.324   0.720  1.00  0.00     0.140 A 
BRANCH  23  25
ATOM     25  C   UNL     1       4.635   0.986   0.107  1.00  0.00     0.004 A 
ATOM     26  C   UNL     1       5.903   1.339  -0.397  1.00  0.00     0.011 A 
ATOM     27  C   UNL     1       4.367  -0.381   0.337  1.00  0.00     0.038 A 
ATOM     28  C   UNL     1       6.900   0.382  -0.658  1.00  0.00     0.015 A 
ATOM     29  C   UNL     1       5.371  -1.320   0.070  1.00  0.00     0.068 A 
ATOM     30  C   UNL     1       6.623  -0.974  -0.417  1.00  0.00     0.044 A 
ATOM     31  N   UNL     1       5.402  -2.683   0.196  1.00  0.00    -0.276 N 
ATOM     32  C   UNL     1       7.313  -2.209  -0.540  1.00  0.00     0.153 A 
ATOM     33  N   UNL     1       6.566  -3.245  -0.168  1.00  0.00    -0.157 NA
ATOM     34  H   UNL     1       4.658  -3.288   0.524  1.00  0.00     0.190 HD
BRANCH  32  35
ATOM     35  N   UNL     1       8.570  -2.342  -0.993  1.00  0.00    -0.382 N 
ATOM     36  H   UNL     1       8.941  -1.645  -1.625  1.00  0.00     0.158 HD
ATOM     37  H   UNL     1       8.834  -3.288  -1.248  1.00  0.00     0.158 HD
ENDBRANCH  32  35
ENDBRANCH  23  25
ENDBRANCH   4  19
TORSDOF 6
