REMARK SMILES CN1CCN(c2cccc(-c3ccc(-c4nc(C5CCCC5)cnc4N)cc3)c2)CC1
REMARK SMILES IDX 11 1 12 2 13 3 14 4 27 5 28 6 10 7 6 8 7 9 29 10 8 11 9 12
REMARK SMILES IDX 5 13 2 14 3 15 31 16 4 17 30 18 1 19 15 20 16 21 25 22 17 23
REMARK SMILES IDX 24 24 23 25 26 26 18 29 19 30 22 31 20 32 21 33
REMARK H PARENT 26 27 26 28
ROOT
ATOM      1  C   UNL     1       0.649  -1.056   0.954  1.00  0.00    -0.018 A 
ATOM      2  C   UNL     1      -0.352  -0.395   1.678  1.00  0.00     0.009 A 
ATOM      3  C   UNL     1      -1.677  -0.373   1.224  1.00  0.00     0.011 A 
ATOM      4  C   UNL     1      -2.055  -1.017   0.033  1.00  0.00     0.004 A 
ATOM      5  C   UNL     1      -1.045  -1.667  -0.694  1.00  0.00     0.011 A 
ATOM      6  C   UNL     1       0.281  -1.689  -0.241  1.00  0.00     0.009 A 
ENDROOT
BRANCH   1   7
ATOM      7  C   UNL     1       2.043  -1.076   1.427  1.00  0.00    -0.016 A 
ATOM      8  C   UNL     1       4.442  -0.623   1.004  1.00  0.00     0.037 A 
ATOM      9  C   UNL     1       4.704  -1.091   2.300  1.00  0.00     0.026 A 
ATOM     10  C   UNL     1       3.095  -0.631   0.598  1.00  0.00     0.034 A 
ATOM     11  C   UNL     1       3.684  -1.539   3.145  1.00  0.00     0.003 A 
ATOM     12  C   UNL     1       2.362  -1.530   2.711  1.00  0.00     0.009 A 
BRANCH   8  13
ATOM     13  N   UNL     1       5.454  -0.176   0.171  1.00  0.00    -0.369 N 
ATOM     14  N   UNL     1       7.646   0.836  -1.613  1.00  0.00    -0.303 NA
ATOM     15  C   UNL     1       6.638  -0.166  -2.021  1.00  0.00     0.105 C 
ATOM     16  C   UNL     1       7.397   1.316  -0.236  1.00  0.00     0.105 C 
ATOM     17  C   UNL     1       5.277  -0.090  -1.288  1.00  0.00     0.132 C 
ATOM     18  C   UNL     1       6.757   0.262   0.699  1.00  0.00     0.132 C 
ATOM     19  C   UNL     1       7.701   1.960  -2.544  1.00  0.00     0.105 C 
ENDBRANCH   8  13
ENDBRANCH   1   7
BRANCH   4  20
ATOM     20  C   UNL     1      -3.458  -0.977  -0.428  1.00  0.00     0.113 A 
ATOM     21  N   UNL     1      -4.067   0.237  -0.289  1.00  0.00    -0.247 NA
ATOM     22  C   UNL     1      -4.159  -2.081  -0.952  1.00  0.00     0.150 A 
ATOM     23  C   UNL     1      -5.351   0.349  -0.714  1.00  0.00     0.063 A 
ATOM     24  N   UNL     1      -5.435  -1.974  -1.373  1.00  0.00    -0.236 NA
ATOM     25  C   UNL     1      -6.007  -0.752  -1.247  1.00  0.00     0.137 A 
BRANCH  22  26
ATOM     26  N   UNL     1      -3.613  -3.359  -1.090  1.00  0.00    -0.382 N 
ATOM     27  H   UNL     1      -3.210  -3.682  -0.217  1.00  0.00     0.158 HD
ATOM     28  H   UNL     1      -4.360  -3.966  -1.419  1.00  0.00     0.158 HD
ENDBRANCH  22  26
BRANCH  23  29
ATOM     29  C   UNL     1      -5.981   1.712  -0.544  1.00  0.00     0.040 C 
ATOM     30  C   UNL     1      -6.554   1.898   0.864  1.00  0.00     0.010 C 
ATOM     31  C   UNL     1      -7.178   2.042  -1.444  1.00  0.00     0.010 C 
ATOM     32  C   UNL     1      -7.971   1.347   0.768  1.00  0.00     0.001 C 
ATOM     33  C   UNL     1      -8.433   1.672  -0.650  1.00  0.00     0.001 C 
ENDBRANCH  23  29
ENDBRANCH   4  20
TORSDOF 5
