REMARK SMILES CN1CCOc2cnnc(-c3ccnc(Nc4ccc(F)cc4)n3)c21
REMARK SMILES IDX 11 1 12 2 13 3 14 4 15 5 24 6 10 7 2 8 3 9 25 10 4 11 6 12
REMARK SMILES IDX 5 13 9 14 7 15 8 16 1 17 16 18 17 20 18 21 23 22 19 23 22 24
REMARK SMILES IDX 20 25 21 26
REMARK H PARENT 16 19
ROOT
ATOM      1  C   UNL     1      -0.627  -0.105  -1.235  1.00  0.00     0.098 A 
ATOM      2  C   UNL     1      -0.513  -1.324  -1.870  1.00  0.00     0.051 A 
ATOM      3  C   UNL     1       0.708  -1.934  -1.763  1.00  0.00     0.117 A 
ATOM      4  N   UNL     1       1.746  -1.402  -1.093  1.00  0.00    -0.221 NA
ATOM      5  C   UNL     1       1.567  -0.204  -0.520  1.00  0.00     0.227 A 
ATOM      6  N   UNL     1       0.404   0.462  -0.561  1.00  0.00    -0.211 NA
ENDROOT
BRANCH   1   7
ATOM      7  C   UNL     1      -1.877   0.658  -1.279  1.00  0.00     0.139 A 
ATOM      8  N   UNL     1      -3.069  -0.509   0.614  1.00  0.00    -0.366 N 
ATOM      9  C   UNL     1      -4.320  -0.408   1.388  1.00  0.00     0.158 C 
ATOM     10  C   UNL     1      -3.006   0.416  -0.467  1.00  0.00     0.111 A 
ATOM     11  C   UNL     1      -5.505  -0.238   0.454  1.00  0.00     0.251 C 
ATOM     12  C   UNL     1      -4.159   1.140  -0.843  1.00  0.00     0.165 A 
ATOM     13  O   UNL     1      -5.397   0.998  -0.255  1.00  0.00    -0.488 OA
ATOM     14  N   UNL     1      -1.875   1.583  -2.284  1.00  0.00    -0.146 NA
ATOM     15  C   UNL     1      -4.098   2.080  -1.858  1.00  0.00     0.184 A 
ATOM     16  N   UNL     1      -2.982   2.315  -2.563  1.00  0.00    -0.154 NA
ATOM     17  C   UNL     1      -1.876  -0.657   1.457  1.00  0.00     0.144 C 
ENDBRANCH   1   7
BRANCH   5  18
ATOM     18  N   UNL     1       2.581   0.441   0.182  1.00  0.00    -0.324 N 
ATOM     19  H   UNL     1       2.246   1.353   0.460  1.00  0.00     0.170 HD
BRANCH  18  20
ATOM     20  C   UNL     1       3.925   0.154   0.437  1.00  0.00     0.041 A 
ATOM     21  C   UNL     1       4.564  -1.023   0.026  1.00  0.00     0.029 A 
ATOM     22  C   UNL     1       4.679   1.083   1.179  1.00  0.00     0.029 A 
ATOM     23  C   UNL     1       5.909  -1.261   0.330  1.00  0.00     0.041 A 
ATOM     24  C   UNL     1       6.023   0.850   1.485  1.00  0.00     0.041 A 
ATOM     25  C   UNL     1       6.626  -0.322   1.056  1.00  0.00     0.123 A 
ATOM     26  F   UNL     1       7.913  -0.550   1.348  1.00  0.00    -0.207 F 
ENDBRANCH  18  20
ENDBRANCH   5  18
TORSDOF 3
