REMARK SMILES Cc1[nH]c2ccccc2c1C=Cc1nc(N2C=NC(CC(=O)NCC(C)C)=CC2)no1
REMARK SMILES IDX 16 1 17 2 18 3 19 4 28 5 29 6 15 7 13 8 14 9 31 10 30 11
REMARK SMILES IDX 12 12 11 13 10 14 2 15 3 16 4 17 9 18 5 19 8 20 6 21 7 22
REMARK SMILES IDX 1 23 20 25 21 26 23 27 22 28 24 30 25 31 26 32 27 33
REMARK H PARENT 3 24 23 29
ROOT
ATOM      1  N   UNL     1       0.194  -0.916   0.776  1.00  0.00    -0.294 N 
ATOM      2  C   UNL     1       1.167  -1.392  -0.061  1.00  0.00     0.202 C 
ATOM      3  N   UNL     1       2.404  -1.662   0.224  1.00  0.00    -0.243 NA
ATOM      4  C   UNL     1       2.785  -1.424   1.524  1.00  0.00     0.049 C 
ATOM      5  C   UNL     1       1.931  -0.984   2.462  1.00  0.00     0.019 C 
ATOM      6  C   UNL     1       0.497  -0.674   2.173  1.00  0.00     0.156 C 
ENDROOT
BRANCH   1   7
ATOM      7  C   UNL     1      -1.051  -0.644   0.311  1.00  0.00     0.271 A 
ATOM      8  C   UNL     1      -2.631  -0.476  -1.120  1.00  0.00     0.252 A 
ATOM      9  N   UNL     1      -1.364  -0.840  -1.012  1.00  0.00    -0.172 NA
ATOM     10  O   UNL     1      -3.110  -0.050   0.099  1.00  0.00    -0.333 OA
ATOM     11  N   UNL     1      -2.083  -0.173   1.025  1.00  0.00    -0.037 NA
BRANCH   8  12
ATOM     12  C   UNL     1      -3.371  -0.500  -2.336  1.00  0.00     0.072 C 
BRANCH  12  13
ATOM     13  C   UNL     1      -4.698  -0.329  -2.457  1.00  0.00     0.016 C 
BRANCH  13  14
ATOM     14  C   UNL     1      -5.666  -0.127  -1.430  1.00  0.00     0.003 A 
ATOM     15  C   UNL     1      -6.062  -1.072  -0.501  1.00  0.00     0.020 A 
ATOM     16  N   UNL     1      -7.026  -0.481   0.282  1.00  0.00    -0.358 N 
ATOM     17  C   UNL     1      -7.286   0.803  -0.145  1.00  0.00     0.046 A 
ATOM     18  C   UNL     1      -6.439   1.055  -1.224  1.00  0.00     0.007 A 
ATOM     19  C   UNL     1      -8.199   1.749   0.340  1.00  0.00     0.027 A 
ATOM     20  C   UNL     1      -6.501   2.319  -1.846  1.00  0.00     0.011 A 
ATOM     21  C   UNL     1      -8.245   2.993  -0.296  1.00  0.00     0.002 A 
ATOM     22  C   UNL     1      -7.407   3.278  -1.373  1.00  0.00     0.001 A 
ATOM     23  C   UNL     1      -5.637  -2.479  -0.271  1.00  0.00     0.065 C 
ATOM     24  H   UNL     1      -7.500  -0.927   1.056  1.00  0.00     0.166 HD
ENDBRANCH  13  14
ENDBRANCH  12  13
ENDBRANCH   8  12
ENDBRANCH   1   7
BRANCH   4  25
ATOM     25  C   UNL     1       4.229  -1.706   1.845  1.00  0.00     0.155 C 
BRANCH  25  26
ATOM     26  C   UNL     1       5.055  -0.478   1.496  1.00  0.00     0.226 C 
ATOM     27  N   UNL     1       5.650  -0.530   0.243  1.00  0.00    -0.356 N 
ATOM     28  O   UNL     1       5.171   0.471   2.273  1.00  0.00    -0.275 OA
ATOM     29  H   UNL     1       5.265  -1.207  -0.411  1.00  0.00     0.163 HD
BRANCH  27  30
ATOM     30  C   UNL     1       6.352   0.611  -0.306  1.00  0.00     0.118 C 
BRANCH  30  31
ATOM     31  C   UNL     1       7.740   0.828   0.323  1.00  0.00     0.002 C 
ATOM     32  C   UNL     1       8.337   2.145  -0.176  1.00  0.00     0.009 C 
ATOM     33  C   UNL     1       8.695  -0.329   0.003  1.00  0.00     0.009 C 
ENDBRANCH  30  31
ENDBRANCH  27  30
ENDBRANCH  25  26
ENDBRANCH   4  25
TORSDOF 8
