MODEL        8USER    Run = 8USERUSER    Estimated Free Energy of Binding    = -12.59 kcal/mol  [=(1)+(2)+(3)-(4)]USERUSER    (1) Final Intermolecular Energy     = -14.38 kcal/molUSER        vdW + Hbond + desolv Energy     = -14.26 kcal/molUSER        Electrostatic Energy            =  -0.12 kcal/molUSER        Moving Ligand-Fixed Receptor    = -14.38 kcal/molUSER        Moving Ligand-Moving Receptor   =  +0.00 kcal/molUSER    (2) Final Total Internal Energy     =  -1.51 kcal/molUSER    (3) Torsional Free Energy           =  +1.79 kcal/molUSER    (4) Unbound System's Energy         =  -1.51 kcal/molUSERUSERREMARK SMILES Oc1nc2ccccc2n1C1CCN(Cc2ccc(-c3nc4ccccc4nc3-c3ccc(F)cc3)cc2)CC1REMARK SMILES IDX 15 1 14 2 11 3 12 4 40 5 13 6 39 7 10 8 2 9 3 10 4 11 9 12REMARK SMILES IDX 5 13 8 14 6 15 7 16 1 17 16 19 17 20 38 21 18 22 37 23 19 24REMARK SMILES IDX 20 25 21 26 29 27 22 28 28 29 23 30 27 31 24 32 26 33 25 34REMARK SMILES IDX 30 35 31 36 36 37 32 38 35 39 33 40 34 41REMARK H PARENT 1 18USER                              x       y       z     vdW  Elec       q    TypeUSER                           _______ _______ _______ _____ _____    ______ ____ROOTATOM      1  C   UNL     1      41.038  44.052  20.912 -0.30 +0.01    +0.120 C  ENDROOTBRANCH   1   2ATOM      2  N   UNL     1      40.799  44.698  19.611 -0.21 -0.02    -0.299 NA ATOM      3  C   UNL     1      40.306  46.249  17.357 -0.47 -0.01    +0.095 C  ATOM      4  C   UNL     1      39.183  45.340  17.885 -0.44 -0.01    +0.041 C  ATOM      5  C   UNL     1      41.057  46.945  18.495 -0.53 -0.00    +0.041 C  ATOM      6  C   UNL     1      39.383  44.955  19.354 -0.40 -0.00    +0.087 C  ATOM      7  C   UNL     1      41.608  45.923  19.496 -0.43 +0.01    +0.087 C  BRANCH   3   8ATOM      8  N   UNL     1      39.850  47.185  16.337 -0.27 +0.07    -0.291 N  ATOM      9  C   UNL     1      40.483  48.350  15.999 -0.33 -0.06    +0.295 A  ATOM     10  N   UNL     1      39.869  49.024  15.067 -0.38 +0.08    -0.195 NA ATOM     11  C   UNL     1      38.766  48.261  14.768 -0.45 -0.04    +0.092 A  ATOM     12  C   UNL     1      38.721  47.101  15.548 -0.40 -0.03    +0.072 A  ATOM     13  C   UNL     1      37.749  48.503  13.829 -0.49 -0.01    +0.031 A  ATOM     14  C   UNL     1      37.688  46.161  15.426 -0.36 -0.01    +0.029 A  ATOM     15  C   UNL     1      36.713  47.572  13.696 -0.56 -0.00    +0.002 A  ATOM     16  C   UNL     1      36.686  46.422  14.483 -0.42 -0.00    +0.002 A  BRANCH   9  17ATOM     17  O   UNL     1      41.602  48.783  16.544 -0.75 -0.03    -0.480 OA ATOM     18  H   UNL     1      42.153  47.979  16.513 -0.29 -0.01    +0.296 HD ENDBRANCH   9  17ENDBRANCH   3   8ENDBRANCH   1   2BRANCH   1  19ATOM     19  C   UNL     1      40.220  44.646  22.040 -0.24 -0.00    -0.034 A  ATOM     20  C   UNL     1      39.101  43.971  22.541 -0.27 +0.00    +0.006 A  ATOM     21  C   UNL     1      40.583  45.869  22.617 -0.24 +0.00    +0.006 A  ATOM     22  C   UNL     1      38.358  44.508  23.599 -0.28 +0.00    +0.011 A  ATOM     23  C   UNL     1      39.833  46.406  23.669 -0.26 +0.00    +0.011 A  ATOM     24  C   UNL     1      38.700  45.743  24.173 -0.28 +0.00    +0.002 A  BRANCH  24  25ATOM     25  C   UNL     1      37.931  46.330  25.288 -0.25 +0.01    +0.097 A  ATOM     26  N   UNL     1      37.560  47.625  25.075 -0.60 -0.03    -0.244 NA ATOM     27  C   UNL     1      37.601  45.671  26.483 -0.27 -0.01    +0.097 A  ATOM     28  C   UNL     1      36.897  48.255  26.059 -0.38 -0.00    +0.089 A  ATOM     29  N   UNL     1      36.944  46.322  27.486 -0.23 +0.05    -0.244 NA ATOM     30  C   UNL     1      36.502  49.576  25.884 -0.44 -0.00    +0.030 A  ATOM     31  C   UNL     1      36.593  47.602  27.274 -0.28 -0.02    +0.089 A  ATOM     32  C   UNL     1      35.814  50.268  26.882 -0.28 +0.00    +0.002 A  ATOM     33  C   UNL     1      35.910  48.300  28.263 -0.33 -0.00    +0.030 A  ATOM     34  C   UNL     1      35.518  49.627  28.078 -0.25 +0.00    +0.002 A  BRANCH  27  35ATOM     35  C   UNL     1      37.876  44.253  26.781 -0.27 -0.00    +0.003 A  ATOM     36  C   UNL     1      36.860  43.279  26.760 -0.36 -0.00    +0.013 A  ATOM     37  C   UNL     1      39.177  43.841  27.134 -0.20 -0.00    +0.013 A  ATOM     38  C   UNL     1      37.139  41.941  27.051 -0.41 -0.01    +0.040 A  ATOM     39  C   UNL     1      39.457  42.504  27.426 -0.26 -0.00    +0.040 A  ATOM     40  C   UNL     1      38.435  41.566  27.379 -0.33 -0.01    +0.123 A  ATOM     41  F   UNL     1      38.701  40.284  27.662 -0.09 -0.01    -0.207 F  ENDBRANCH  27  35ENDBRANCH  24  25ENDBRANCH   1  19TORSDOF 6TERENDMDL