REMARK SMILES CC(=O)N[C@H]1CCN(c2ccc(N3Cc4nccn4C3)c(-c3cc(C(C)C)no3)n2)C1
REMARK SMILES IDX 9 1 10 2 11 3 12 4 21 5 30 6 8 7 5 8 6 9 31 10 7 11 4 12
REMARK SMILES IDX 2 13 1 14 3 15 22 17 23 18 29 19 24 20 28 21 25 22 26 23
REMARK SMILES IDX 27 24 13 25 14 26 20 27 15 28 19 29 16 30 18 31 17 32
REMARK H PARENT 4 16
ROOT
ATOM      1  C   UNL     1       1.446  -0.549   0.224  1.00  0.00     0.129 A 
ATOM      2  C   UNL     1       1.389  -1.933   0.297  1.00  0.00     0.049 A 
ATOM      3  C   UNL     1       0.161  -2.582   0.447  1.00  0.00     0.032 A 
ATOM      4  C   UNL     1      -1.030  -1.855   0.529  1.00  0.00     0.069 A 
ATOM      5  C   UNL     1      -0.894  -0.459   0.416  1.00  0.00     0.134 A 
ATOM      6  N   UNL     1       0.309   0.171   0.275  1.00  0.00    -0.225 NA
ENDROOT
BRANCH   1   7
ATOM      7  N   UNL     1       2.626   0.129   0.057  1.00  0.00    -0.354 N 
ATOM      8  C   UNL     1       4.888   0.734  -0.080  1.00  0.00     0.103 C 
ATOM      9  C   UNL     1       4.121   1.905   0.529  1.00  0.00     0.048 C 
ATOM     10  C   UNL     1       3.955  -0.449   0.232  1.00  0.00     0.143 C 
ATOM     11  C   UNL     1       2.655   1.583   0.222  1.00  0.00     0.120 C 
BRANCH   8  12
ATOM     12  N   UNL     1       5.064   0.914  -1.520  1.00  0.00    -0.352 N 
ATOM     13  C   UNL     1       6.087   1.677  -2.029  1.00  0.00     0.217 C 
ATOM     14  C   UNL     1       6.050   1.845  -3.523  1.00  0.00     0.114 C 
ATOM     15  O   UNL     1       6.977   2.163  -1.339  1.00  0.00    -0.275 OA
ATOM     16  H   UNL     1       4.257   0.721  -2.103  1.00  0.00     0.163 HD
ENDBRANCH   8  12
ENDBRANCH   1   7
BRANCH   5  17
ATOM     17  C   UNL     1      -1.999   0.497   0.438  1.00  0.00     0.187 A 
ATOM     18  C   UNL     1      -2.066   1.863   0.600  1.00  0.00     0.080 A 
ATOM     19  O   UNL     1      -3.260   0.029   0.221  1.00  0.00    -0.354 OA
ATOM     20  C   UNL     1      -3.438   2.178   0.473  1.00  0.00     0.087 A 
ATOM     21  N   UNL     1      -4.164   1.076   0.239  1.00  0.00    -0.084 NA
BRANCH  20  22
ATOM     22  C   UNL     1      -4.107   3.516   0.564  1.00  0.00     0.035 C 
ATOM     23  C   UNL     1      -3.973   4.116   1.965  1.00  0.00     0.014 C 
ATOM     24  C   UNL     1      -3.570   4.489  -0.487  1.00  0.00     0.014 C 
ENDBRANCH  20  22
ENDBRANCH   5  17
BRANCH   4  25
ATOM     25  N   UNL     1      -2.277  -2.488   0.667  1.00  0.00    -0.344 N 
ATOM     26  C   UNL     1      -2.362  -3.677   1.584  1.00  0.00     0.194 C 
ATOM     27  C   UNL     1      -2.829  -2.925  -0.661  1.00  0.00     0.244 C 
ATOM     28  C   UNL     1      -2.778  -4.802   0.714  1.00  0.00     0.129 A 
ATOM     29  N   UNL     1      -3.048  -4.347  -0.537  1.00  0.00    -0.315 N 
ATOM     30  N   UNL     1      -2.931  -6.098   0.799  1.00  0.00    -0.240 NA
ATOM     31  C   UNL     1      -3.398  -5.375  -1.327  1.00  0.00     0.109 A 
ATOM     32  C   UNL     1      -3.330  -6.466  -0.475  1.00  0.00     0.131 A 
ENDBRANCH   4  25
TORSDOF 5
