MODEL        7USER    Run = 7USERUSER    Estimated Free Energy of Binding    =  -9.72 kcal/mol  [=(1)+(2)+(3)-(4)]USERUSER    (1) Final Intermolecular Energy     = -13.00 kcal/molUSER        vdW + Hbond + desolv Energy     = -12.72 kcal/molUSER        Electrostatic Energy            =  -0.29 kcal/molUSER        Moving Ligand-Fixed Receptor    = -13.00 kcal/molUSER        Moving Ligand-Moving Receptor   =  +0.00 kcal/molUSER    (2) Final Total Internal Energy     =  -3.53 kcal/molUSER    (3) Torsional Free Energy           =  +3.28 kcal/molUSER    (4) Unbound System's Energy         =  -3.53 kcal/molUSERUSERREMARK SMILES COc1ccc(O)c(C(=O)c2ccc(C(=O)N[C@@H]3CCN(CCO)C[C@@H]3NC(=O)c3ccncc3)cc2)c1FREMARK SMILES IDX 15 1 16 2 17 3 14 5 11 6 12 7 37 8 13 9 36 10 9 11 10 12REMARK SMILES IDX 8 13 3 14 4 15 38 16 5 17 6 18 39 19 2 20 1 21 7 22 18 24REMARK SMILES IDX 19 25 26 26 20 27 25 28 21 29 27 30 28 31 29 33 30 34 31 35REMARK SMILES IDX 35 36 32 37 34 38 33 39 22 40 23 41 24 42REMARK H PARENT 17 4 7 23 27 32 24 43USER                              x       y       z     vdW  Elec       q    TypeUSER                           _______ _______ _______ _____ _____    ______ ____ROOTATOM      1  C   UNL     1      40.924  47.578  17.145 -0.38 -0.03    +0.251 C  ATOM      2  O   UNL     1      41.309  48.520  16.461 -0.83 +0.01    -0.269 OA ATOM      3  N   UNL     1      39.845  46.791  16.807 -0.22 +0.07    -0.347 N  ATOM      4  H   UNL     1      39.707  45.903  17.288 +0.11 -0.02    +0.164 HD ENDROOTBRANCH   1   5ATOM      5  C   UNL     1      41.650  47.211  18.393 -0.50 -0.00    +0.039 A  ATOM      6  C   UNL     1      42.962  46.433  20.747 -0.29 +0.01    +0.023 A  ATOM      7  C   UNL     1      43.570  47.344  19.876 -0.27 +0.00    +0.013 A  ATOM      8  C   UNL     1      41.693  45.926  20.451 -0.36 +0.00    +0.013 A  ATOM      9  C   UNL     1      42.918  47.726  18.698 -0.48 +0.00    +0.014 A  ATOM     10  C   UNL     1      41.046  46.302  19.271 -0.44 +0.00    +0.014 A  BRANCH   6  11ATOM     11  C   UNL     1      43.601  46.036  22.022 -0.20 +0.09    +0.199 C  ATOM     12  O   UNL     1      43.750  44.837  22.266 -0.14 -0.11    -0.288 OA BRANCH  11  13ATOM     13  C   UNL     1      44.012  47.010  23.057 -0.20 +0.03    +0.104 A  ATOM     14  C   UNL     1      43.529  48.877  24.549 -0.26 +0.03    +0.155 A  ATOM     15  C   UNL     1      44.835  48.820  25.038 -0.21 +0.01    +0.053 A  ATOM     16  C   UNL     1      43.130  47.970  23.557 -0.24 +0.04    +0.179 A  ATOM     17  C   UNL     1      45.737  47.885  24.519 -0.12 +0.01    +0.051 A  ATOM     18  C   UNL     1      45.331  47.000  23.525 -0.13 +0.05    +0.130 A  ATOM     19  F   UNL     1      41.883  48.058  23.069 -0.09 -0.03    -0.202 F  BRANCH  14  20ATOM     20  O   UNL     1      42.567  49.760  24.959 -0.28 -0.12    -0.494 OA ATOM     21  C   UNL     1      41.513  49.254  25.768 -0.22 +0.04    +0.278 C  ENDBRANCH  14  20BRANCH  18  22ATOM     22  O   UNL     1      46.285  46.140  23.049 -0.11 -0.34    -0.507 OA ATOM     23  H   UNL     1      45.834  45.302  22.794 +0.08 +0.21    +0.293 HD ENDBRANCH  18  22ENDBRANCH  11  13ENDBRANCH   6  11ENDBRANCH   1   5BRANCH   3  24ATOM     24  C   UNL     1      39.075  47.004  15.586 -0.44 -0.03    +0.107 C  ATOM     25  C   UNL     1      38.117  48.194  15.719 -0.48 -0.03    +0.042 C  ATOM     26  C   UNL     1      38.282  45.743  15.163 -0.35 -0.04    +0.118 C  ATOM     27  C   UNL     1      37.288  48.392  14.445 -0.54 -0.06    +0.087 C  ATOM     28  C   UNL     1      37.550  46.055  13.844 -0.43 -0.04    +0.111 C  ATOM     29  N   UNL     1      36.582  47.164  14.027 -0.24 +0.18    -0.299 NA BRANCH  26  30ATOM     30  N   UNL     1      37.297  45.321  16.172 -0.11 +0.13    -0.346 N  ATOM     31  C   UNL     1      37.634  44.715  17.357 -0.24 -0.06    +0.251 C  ATOM     32  H   UNL     1      36.348  45.622  15.989 +0.12 -0.09    +0.164 HD ATOM     33  O   UNL     1      38.788  44.420  17.649 -0.23 +0.04    -0.269 OA BRANCH  31  34ATOM     34  C   UNL     1      36.532  44.434  18.309 -0.31 -0.01    +0.042 A  ATOM     35  C   UNL     1      36.820  43.657  19.431 -0.33 -0.00    +0.034 A  ATOM     36  C   UNL     1      35.247  44.947  18.134 -0.33 -0.01    +0.034 A  ATOM     37  C   UNL     1      35.798  43.404  20.326 -0.35 -0.00    +0.112 A  ATOM     38  C   UNL     1      34.296  44.639  19.089 -0.33 -0.03    +0.112 A  ATOM     39  N   UNL     1      34.541  43.874  20.176 -0.30 +0.01    -0.265 NA ENDBRANCH  31  34ENDBRANCH  26  30BRANCH  29  40ATOM     40  C   UNL     1      35.823  47.364  12.770 -0.59 -0.07    +0.112 C  BRANCH  40  41ATOM     41  C   UNL     1      36.428  46.698  11.519 -0.44 -0.08    +0.171 C  BRANCH  41  42ATOM     42  O   UNL     1      37.610  47.358  11.075 -0.70 +0.06    -0.395 OA ATOM     43  H   UNL     1      37.340  48.122  10.538 -0.31 -0.10    +0.210 HD ENDBRANCH  41  42ENDBRANCH  40  41ENDBRANCH  29  40ENDBRANCH   3  24TORSDOF 11TERENDMDL