REMARK SMILES COc1ccc(O)c(C(=O)c2ccc(C(=O)N[C@@H]3CCN(CCO)C[C@@H]3NC(=O)c3ccncc3)cc2)c1F
REMARK SMILES IDX 15 1 16 2 17 3 14 5 11 6 12 7 37 8 13 9 36 10 9 11 10 12
REMARK SMILES IDX 8 13 3 14 4 15 38 16 5 17 6 18 39 19 2 20 1 21 7 22 18 24
REMARK SMILES IDX 19 25 26 26 20 27 25 28 21 29 27 30 28 31 29 33 30 34 31 35
REMARK SMILES IDX 35 36 32 37 34 38 33 39 22 40 23 41 24 42
REMARK H PARENT 17 4 7 23 27 32 24 43
ROOT
ATOM      1  C   UNL     1      -0.172  -2.433   0.709  1.00  0.00     0.251 C 
ATOM      2  O   UNL     1      -0.455  -3.597   0.447  1.00  0.00    -0.269 OA
ATOM      3  N   UNL     1      -1.118  -1.462   0.949  1.00  0.00    -0.347 N 
ATOM      4  H   UNL     1      -0.830  -0.580   1.372  1.00  0.00     0.164 HD
ENDROOT
BRANCH   1   5
ATOM      5  C   UNL     1       1.254  -2.014   0.817  1.00  0.00     0.039 A 
ATOM      6  C   UNL     1       3.966  -1.323   1.002  1.00  0.00     0.023 A 
ATOM      7  C   UNL     1       3.013  -0.342   0.707  1.00  0.00     0.013 A 
ATOM      8  C   UNL     1       3.562  -2.644   1.223  1.00  0.00     0.013 A 
ATOM      9  C   UNL     1       1.661  -0.689   0.607  1.00  0.00     0.014 A 
ATOM     10  C   UNL     1       2.213  -2.991   1.116  1.00  0.00     0.014 A 
BRANCH   6  11
ATOM     11  C   UNL     1       5.400  -0.989   1.156  1.00  0.00     0.199 C 
ATOM     12  O   UNL     1       6.040  -1.515   2.068  1.00  0.00    -0.288 OA
BRANCH  11  13
ATOM     13  C   UNL     1       6.093   0.004   0.306  1.00  0.00     0.104 A 
ATOM     14  C   UNL     1       6.417   1.139  -1.827  1.00  0.00     0.155 A 
ATOM     15  C   UNL     1       7.424   1.919  -1.256  1.00  0.00     0.053 A 
ATOM     16  C   UNL     1       5.762   0.183  -1.038  1.00  0.00     0.179 A 
ATOM     17  C   UNL     1       7.788   1.724   0.080  1.00  0.00     0.051 A 
ATOM     18  C   UNL     1       7.138   0.762   0.848  1.00  0.00     0.130 A 
ATOM     19  F   UNL     1       4.821  -0.585  -1.608  1.00  0.00    -0.202 F 
BRANCH  14  20
ATOM     20  O   UNL     1       5.992   1.221  -3.126  1.00  0.00    -0.494 OA
ATOM     21  C   UNL     1       6.682   2.119  -3.986  1.00  0.00     0.278 C 
ENDBRANCH  14  20
BRANCH  18  22
ATOM     22  O   UNL     1       7.578   0.612   2.136  1.00  0.00    -0.507 OA
ATOM     23  H   UNL     1       7.191  -0.222   2.491  1.00  0.00     0.293 HD
ENDBRANCH  18  22
ENDBRANCH  11  13
ENDBRANCH   6  11
ENDBRANCH   1   5
BRANCH   3  24
ATOM     24  C   UNL     1      -2.550  -1.744   0.929  1.00  0.00     0.107 C 
ATOM     25  C   UNL     1      -3.075  -1.914  -0.501  1.00  0.00     0.042 C 
ATOM     26  C   UNL     1      -3.375  -0.656   1.660  1.00  0.00     0.118 C 
ATOM     27  C   UNL     1      -4.585  -2.178  -0.517  1.00  0.00     0.087 C 
ATOM     28  C   UNL     1      -4.858  -1.073   1.627  1.00  0.00     0.111 C 
ATOM     29  N   UNL     1      -5.350  -1.160   0.231  1.00  0.00    -0.299 NA
BRANCH  26  30
ATOM     30  N   UNL     1      -3.235   0.675   1.048  1.00  0.00    -0.346 N 
ATOM     31  C   UNL     1      -2.132   1.475   1.212  1.00  0.00     0.251 C 
ATOM     32  H   UNL     1      -3.964   0.916   0.388  1.00  0.00     0.164 HD
ATOM     33  O   UNL     1      -1.189   1.170   1.935  1.00  0.00    -0.269 OA
BRANCH  31  34
ATOM     34  C   UNL     1      -2.104   2.751   0.455  1.00  0.00     0.042 A 
ATOM     35  C   UNL     1      -1.386   3.817   0.996  1.00  0.00     0.034 A 
ATOM     36  C   UNL     1      -2.736   2.898  -0.780  1.00  0.00     0.034 A 
ATOM     37  C   UNL     1      -1.348   5.002   0.287  1.00  0.00     0.112 A 
ATOM     38  C   UNL     1      -2.635   4.124  -1.412  1.00  0.00     0.112 A 
ATOM     39  N   UNL     1      -1.962   5.179  -0.903  1.00  0.00    -0.265 NA
ENDBRANCH  31  34
ENDBRANCH  26  30
BRANCH  29  40
ATOM     40  C   UNL     1      -6.802  -1.458   0.241  1.00  0.00     0.112 C 
BRANCH  40  41
ATOM     41  C   UNL     1      -7.480  -1.485  -1.142  1.00  0.00     0.171 C 
BRANCH  41  42
ATOM     42  O   UNL     1      -7.297  -2.731  -1.808  1.00  0.00    -0.395 OA
ATOM     43  H   UNL     1      -7.651  -3.431  -1.233  1.00  0.00     0.210 HD
ENDBRANCH  41  42
ENDBRANCH  40  41
ENDBRANCH  29  40
ENDBRANCH   3  24
TORSDOF 11
