REMARK SMILES CSC=C1C=C(Nc2nc(-c3ccncc3)cs2)C=C1C
REMARK SMILES IDX 4 1 5 2 6 3 19 4 20 5 21 6 3 7 2 8 1 9 7 10 8 12 9 13 18 14
REMARK SMILES IDX 10 15 17 16 11 17 12 18 16 19 13 20 15 21 14 22
REMARK H PARENT 7 11
ROOT
ATOM      1  C   UNL     1       3.422  -0.309   0.001  1.00  0.00    -0.014 C 
ATOM      2  C   UNL     1       2.062   0.206   0.076  1.00  0.00     0.035 C 
ATOM      3  C   UNL     1       1.207  -0.810  -0.138  1.00  0.00     0.041 C 
ATOM      4  C   UNL     1       2.008  -2.016  -0.357  1.00  0.00     0.030 C 
ATOM      5  C   UNL     1       3.321  -1.736  -0.279  1.00  0.00    -0.041 C 
ATOM      6  C   UNL     1       4.459  -2.675  -0.440  1.00  0.00     0.045 C 
ENDROOT
BRANCH   1   7
ATOM      7  C   UNL     1       4.566   0.376   0.156  1.00  0.00     0.048 C 
BRANCH   7   8
ATOM      8  S   UNL     1       4.648   2.077   0.489  1.00  0.00    -0.137 SA
ATOM      9  C   UNL     1       6.439   2.311   0.567  1.00  0.00     0.090 C 
ENDBRANCH   7   8
ENDBRANCH   1   7
BRANCH   3  10
ATOM     10  N   UNL     1      -0.158  -0.895  -0.180  1.00  0.00    -0.332 N 
ATOM     11  H   UNL     1      -0.501  -1.829  -0.374  1.00  0.00     0.169 HD
BRANCH  10  12
ATOM     12  C   UNL     1      -1.161   0.001  -0.017  1.00  0.00     0.187 A 
ATOM     13  N   UNL     1      -2.415  -0.386  -0.126  1.00  0.00    -0.220 NA
ATOM     14  S   UNL     1      -0.982   1.677   0.336  1.00  0.00    -0.105 S 
ATOM     15  C   UNL     1      -3.295   0.667   0.084  1.00  0.00     0.084 A 
ATOM     16  C   UNL     1      -2.680   1.874   0.341  1.00  0.00     0.097 A 
BRANCH  15  17
ATOM     17  C   UNL     1      -4.739   0.461   0.009  1.00  0.00     0.004 A 
ATOM     18  C   UNL     1      -5.657   1.391   0.503  1.00  0.00     0.030 A 
ATOM     19  C   UNL     1      -5.234  -0.714  -0.566  1.00  0.00     0.030 A 
ATOM     20  C   UNL     1      -7.011   1.113   0.391  1.00  0.00     0.111 A 
ATOM     21  C   UNL     1      -6.604  -0.901  -0.633  1.00  0.00     0.111 A 
ATOM     22  N   UNL     1      -7.505  -0.011  -0.168  1.00  0.00    -0.265 NA
ENDBRANCH  15  17
ENDBRANCH  10  12
ENDBRANCH   3  10
TORSDOF 5
