MODEL        6USER    Run = 6USERUSER    Estimated Free Energy of Binding    = -12.01 kcal/mol  [=(1)+(2)+(3)-(4)]USERUSER    (1) Final Intermolecular Energy     = -13.80 kcal/molUSER        vdW + Hbond + desolv Energy     = -13.80 kcal/molUSER        Electrostatic Energy            =  -0.01 kcal/molUSER        Moving Ligand-Fixed Receptor    = -13.80 kcal/molUSER        Moving Ligand-Moving Receptor   =  +0.00 kcal/molUSER    (2) Final Total Internal Energy     =  -1.78 kcal/molUSER    (3) Torsional Free Energy           =  +1.79 kcal/molUSER    (4) Unbound System's Energy         =  -1.78 kcal/molUSERUSERREMARK SMILES Oc1nc2ccccc2n1C1CCN(Cc2ccc(-c3cc4ccccc4nc3-c3ccccc3)cc2)CC1REMARK SMILES IDX 11 1 12 2 13 3 14 4 38 5 39 6 10 7 2 8 3 9 4 10 9 11 5 12REMARK SMILES IDX 8 13 6 14 7 15 1 16 15 18 16 19 17 20 37 21 18 22 36 23REMARK SMILES IDX 19 24 20 25 21 26 29 27 22 28 28 29 23 30 27 31 24 32 26 33REMARK SMILES IDX 25 34 30 35 31 36 35 37 32 38 34 39 33 40REMARK H PARENT 1 17USER                              x       y       z     vdW  Elec       q    TypeUSER                           _______ _______ _______ _____ _____    ______ ____ROOTATOM      1  C   UNL     1      38.106  43.785  23.776 -0.29 +0.01    +0.095 C  ATOM      2  C   UNL     1      39.601  43.549  24.035 -0.23 +0.00    +0.041 C  ATOM      3  C   UNL     1      40.497  44.741  23.711 -0.15 +0.00    +0.087 C  ATOM      4  N   UNL     1      40.203  45.381  22.427 -0.10 -0.02    -0.299 NA ATOM      5  C   UNL     1      38.812  45.839  22.382 -0.33 +0.01    +0.087 C  ATOM      6  C   UNL     1      37.778  44.741  22.620 -0.37 +0.00    +0.041 C  ENDROOTBRANCH   1   7ATOM      7  N   UNL     1      37.317  44.009  24.986 -0.16 -0.01    -0.291 N  ATOM      8  C   UNL     1      37.184  45.240  25.584 -0.16 +0.00    +0.295 A  ATOM      9  N   UNL     1      36.462  45.221  26.668 -0.16 +0.04    -0.195 NA ATOM     10  C   UNL     1      36.089  43.911  26.800 -0.36 -0.02    +0.092 A  ATOM     11  C   UNL     1      36.597  43.120  25.759 -0.34 -0.00    +0.072 A  ATOM     12  C   UNL     1      35.300  43.327  27.806 -0.52 -0.01    +0.031 A  ATOM     13  C   UNL     1      36.322  41.749  25.694 -0.39 -0.01    +0.029 A  ATOM     14  C   UNL     1      35.029  41.958  27.747 -0.59 -0.00    +0.002 A  ATOM     15  C   UNL     1      35.533  41.185  26.705 -0.56 -0.00    +0.002 A  BRANCH   8  16ATOM     16  O   UNL     1      37.716  46.358  25.137 -0.60 -0.06    -0.480 OA ATOM     17  H   UNL     1      38.417  46.509  25.798 +0.14 +0.01    +0.296 HD ENDBRANCH   8  16ENDBRANCH   1   7BRANCH   4  18ATOM     18  C   UNL     1      40.590  44.537  21.283 -0.29 +0.01    +0.120 C  BRANCH  18  19ATOM     19  C   UNL     1      39.773  44.809  20.038 -0.36 -0.00    -0.034 A  ATOM     20  C   UNL     1      38.681  44.000  19.703 -0.22 -0.00    +0.006 A  ATOM     21  C   UNL     1      40.102  45.882  19.198 -0.43 -0.00    +0.006 A  ATOM     22  C   UNL     1      37.934  44.258  18.550 -0.29 -0.00    +0.009 A  ATOM     23  C   UNL     1      39.360  46.132  18.041 -0.43 -0.00    +0.009 A  ATOM     24  C   UNL     1      38.269  45.322  17.697 -0.37 +0.00    -0.016 A  BRANCH  24  25ATOM     25  C   UNL     1      37.483  45.593  16.485 -0.36 -0.00    +0.009 A  ATOM     26  C   UNL     1      38.093  46.254  15.408 -0.38 -0.01    +0.021 A  ATOM     27  C   UNL     1      36.146  45.197  16.313 -0.29 -0.04    +0.079 A  ATOM     28  C   UNL     1      37.394  46.490  14.218 -0.44 -0.00    +0.001 A  ATOM     29  N   UNL     1      35.458  45.408  15.154 -0.19 +0.16    -0.247 NA ATOM     30  C   UNL     1      37.987  47.147  13.126 -0.46 -0.00    +0.010 A  ATOM     31  C   UNL     1      36.064  46.040  14.138 -0.38 -0.04    +0.071 A  ATOM     32  C   UNL     1      37.265  47.361  11.954 -0.52 -0.00    +0.001 A  ATOM     33  C   UNL     1      35.366  46.263  12.958 -0.41 -0.02    +0.029 A  ATOM     34  C   UNL     1      35.949  46.917  11.869 -0.56 -0.00    +0.002 A  BRANCH  27  35ATOM     35  C   UNL     1      35.347  44.520  17.352 -0.31 -0.00    +0.001 A  ATOM     36  C   UNL     1      35.181  43.124  17.325 -0.37 -0.00    +0.010 A  ATOM     37  C   UNL     1      34.712  45.237  18.380 -0.40 -0.00    +0.010 A  ATOM     38  C   UNL     1      34.430  42.467  18.304 -0.40 -0.00    +0.001 A  ATOM     39  C   UNL     1      33.959  44.582  19.359 -0.37 -0.00    +0.001 A  ATOM     40  C   UNL     1      33.822  43.196  19.322 -0.41 -0.00    +0.000 A  ENDBRANCH  27  35ENDBRANCH  24  25ENDBRANCH  18  19ENDBRANCH   4  18TORSDOF 6TERENDMDL