MODEL        4USER    Run = 4USERUSER    Estimated Free Energy of Binding    = -11.73 kcal/mol  [=(1)+(2)+(3)-(4)]USERUSER    (1) Final Intermolecular Energy     = -13.52 kcal/molUSER        vdW + Hbond + desolv Energy     = -13.40 kcal/molUSER        Electrostatic Energy            =  -0.12 kcal/molUSER        Moving Ligand-Fixed Receptor    = -13.52 kcal/molUSER        Moving Ligand-Moving Receptor   =  +0.00 kcal/molUSER    (2) Final Total Internal Energy     =  -1.76 kcal/molUSER    (3) Torsional Free Energy           =  +1.79 kcal/molUSER    (4) Unbound System's Energy         =  -1.76 kcal/molUSERUSERREMARK SMILES Oc1nc2ccccc2n1C1CCN(Cc2ccc(-c3nc4ccccc4nc3-c3ccccc3)cc2)CC1REMARK SMILES IDX 11 1 12 2 13 3 14 4 38 5 39 6 10 7 2 8 3 9 4 10 9 11 5 12REMARK SMILES IDX 8 13 6 14 7 15 1 16 15 18 16 19 17 20 37 21 18 22 36 23REMARK SMILES IDX 19 24 20 25 21 26 29 27 22 28 28 29 23 30 27 31 24 32 26 33REMARK SMILES IDX 25 34 30 35 31 36 35 37 32 38 34 39 33 40REMARK H PARENT 1 17USER                              x       y       z     vdW  Elec       q    TypeUSER                           _______ _______ _______ _____ _____    ______ ____ROOTATOM      1  C   UNL     1      40.922  45.817  20.019 -0.39 +0.01    +0.095 C  ATOM      2  C   UNL     1      41.438  44.390  19.775 -0.29 +0.01    +0.041 C  ATOM      3  C   UNL     1      42.251  43.868  20.959 -0.09 +0.02    +0.087 C  ATOM      4  N   UNL     1      41.650  44.160  22.264 -0.11 -0.02    -0.299 NA ATOM      5  C   UNL     1      41.409  45.596  22.473 -0.22 +0.01    +0.087 C  ATOM      6  C   UNL     1      41.598  46.471  21.230 -0.27 +0.01    +0.041 C  ENDROOTBRANCH   1   7ATOM      7  N   UNL     1      40.976  46.644  18.823 -0.28 +0.01    -0.291 N  ATOM      8  C   UNL     1      42.004  47.463  18.447 -0.28 -0.00    +0.295 A  ATOM      9  N   UNL     1      41.787  48.082  17.320 -0.62 +0.01    -0.195 NA ATOM     10  C   UNL     1      40.549  47.639  16.921 -0.46 -0.02    +0.092 A  ATOM     11  C   UNL     1      40.013  46.731  17.838 -0.41 -0.01    +0.072 A  ATOM     12  C   UNL     1      39.817  47.969  15.770 -0.51 -0.01    +0.031 A  ATOM     13  C   UNL     1      38.762  46.126  17.653 -0.39 -0.01    +0.029 A  ATOM     14  C   UNL     1      38.565  47.376  15.569 -0.46 -0.00    +0.002 A  ATOM     15  C   UNL     1      38.049  46.470  16.497 -0.39 -0.00    +0.002 A  BRANCH   8  16ATOM     16  O   UNL     1      43.121  47.626  19.125 -0.31 -0.06    -0.480 OA ATOM     17  H   UNL     1      43.133  48.593  19.245 -0.38 -0.05    +0.296 HD ENDBRANCH   8  16ENDBRANCH   1   7BRANCH   4  18ATOM     18  C   UNL     1      40.451  43.359  22.566 -0.26 +0.00    +0.120 C  BRANCH  18  19ATOM     19  C   UNL     1      39.575  43.952  23.649 -0.19 -0.00    -0.034 A  ATOM     20  C   UNL     1      38.467  44.740  23.320 -0.30 +0.00    +0.006 A  ATOM     21  C   UNL     1      39.870  43.733  25.000 -0.16 +0.00    +0.006 A  ATOM     22  C   UNL     1      37.659  45.281  24.326 -0.25 +0.00    +0.011 A  ATOM     23  C   UNL     1      39.061  44.274  26.003 -0.16 -0.00    +0.011 A  ATOM     24  C   UNL     1      37.931  45.045  25.684 -0.27 +0.00    +0.002 A  BRANCH  24  25ATOM     25  C   UNL     1      37.057  45.608  26.727 -0.28 -0.01    +0.097 A  ATOM     26  N   UNL     1      37.124  46.967  26.825 -0.23 +0.03    -0.244 NA ATOM     27  C   UNL     1      36.232  44.858  27.579 -0.32 -0.02    +0.097 A  ATOM     28  C   UNL     1      36.398  47.556  27.791 -0.28 -0.02    +0.089 A  ATOM     29  N   UNL     1      35.507  45.463  28.564 -0.31 +0.07    -0.244 NA ATOM     30  C   UNL     1      36.444  48.938  27.936 -0.29 -0.00    +0.030 A  ATOM     31  C   UNL     1      35.588  46.800  28.666 -0.28 -0.02    +0.089 A  ATOM     32  C   UNL     1      35.708  49.589  28.927 -0.24 -0.00    +0.002 A  ATOM     33  C   UNL     1      34.859  47.457  29.650 -0.38 -0.00    +0.030 A  ATOM     34  C   UNL     1      34.912  48.844  29.788 -0.29 -0.00    +0.002 A  BRANCH  27  35ATOM     35  C   UNL     1      36.037  43.398  27.508 -0.47 -0.00    +0.002 A  ATOM     36  C   UNL     1      37.128  42.527  27.682 -0.37 -0.00    +0.010 A  ATOM     37  C   UNL     1      34.771  42.824  27.297 -0.57 -0.00    +0.010 A  ATOM     38  C   UNL     1      36.966  41.139  27.622 -0.52 -0.00    +0.001 A  ATOM     39  C   UNL     1      34.607  41.437  27.233 -0.58 -0.00    +0.001 A  ATOM     40  C   UNL     1      35.705  40.595  27.393 -0.52 -0.00    +0.000 A  ENDBRANCH  27  35ENDBRANCH  24  25ENDBRANCH  18  19ENDBRANCH   4  18TORSDOF 6TERENDMDL