MODEL        3USER    Run = 3USERUSER    Estimated Free Energy of Binding    =  -7.05 kcal/mol  [=(1)+(2)+(3)-(4)]USERUSER    (1) Final Intermolecular Energy     = -11.53 kcal/molUSER        vdW + Hbond + desolv Energy     = -11.50 kcal/molUSER        Electrostatic Energy            =  -0.21 kcal/molUSER        Moving Ligand-Fixed Receptor    = -11.70 kcal/molUSER        Moving Ligand-Moving Receptor   =  +0.18 kcal/molUSER    (2) Final Total Internal Energy     =  -2.59 kcal/molUSER    (3) Torsional Free Energy           =  +4.47 kcal/molUSER    (4) Unbound System's Energy         =  -2.59 kcal/molUSERUSERREMARK SMILES COc1ccc(O)c(C(=O)c2ccc(/C=C/[C@@H]3CCCNC[C@H]3NC(=O)c3ccncc3)cc2)c1FREMARK SMILES IDX 16 1 15 2 14 3 11 4 12 5 34 6 13 7 33 8 9 9 10 10 8 11 3 12REMARK SMILES IDX 4 13 35 14 5 15 6 16 36 17 2 18 1 19 7 20 17 22 18 23 23 25REMARK SMILES IDX 22 26 21 27 20 29 19 30 24 32 25 33 26 35 27 36 28 37 32 38REMARK SMILES IDX 29 39 31 40 30 41REMARK H PARENT 7 21 21 28 24 34REMARK Flexibility Score:   99.900USER                              x       y       z     vdW  Elec       q    TypeUSER                           _______ _______ _______ _____ _____    ______ ____ROOTATOM      1  C   UNL     1      39.157  42.799  25.917 -0.25 +0.00    -0.021 C  ENDROOTBRANCH   1   2ATOM      2  C   UNL     1      39.277  43.450  24.750 -0.23 +0.00    +0.004 C  BRANCH   2   3ATOM      3  C   UNL     1      38.346  43.278  23.628 -0.28 -0.00    -0.026 A  ATOM      4  C   UNL     1      36.520  42.901  21.530 -0.42 +0.00    +0.023 A  ATOM      5  C   UNL     1      36.783  41.857  22.421 -0.53 +0.00    +0.013 A  ATOM      6  C   UNL     1      37.135  44.143  21.706 -0.37 +0.00    +0.013 A  ATOM      7  C   UNL     1      37.691  42.051  23.469 -0.30 +0.00    +0.009 A  ATOM      8  C   UNL     1      38.050  44.327  22.746 -0.34 +0.00    +0.009 A  BRANCH   4   9ATOM      9  C   UNL     1      35.544  42.744  20.430 -0.36 +0.00    +0.199 C  ATOM     10  O   UNL     1      34.962  41.666  20.302 -0.16 -0.01    -0.288 OA BRANCH   9  11ATOM     11  C   UNL     1      35.270  43.810  19.440 -0.32 -0.02    +0.104 A  ATOM     12  C   UNL     1      36.019  45.395  17.745 -0.24 -0.07    +0.155 A  ATOM     13  C   UNL     1      34.704  45.829  17.574 -0.37 -0.04    +0.053 A  ATOM     14  C   UNL     1      36.291  44.387  18.682 -0.23 -0.04    +0.179 A  ATOM     15  C   UNL     1      33.679  45.278  18.349 -0.39 -0.02    +0.051 A  ATOM     16  C   UNL     1      33.964  44.287  19.282 -0.32 -0.03    +0.130 A  ATOM     17  F   UNL     1      37.565  44.005  18.865 -0.07 +0.03    -0.202 F  BRANCH  12  18ATOM     18  O   UNL     1      37.106  45.871  17.061 -0.08 +0.21    -0.494 OA ATOM     19  C   UNL     1      36.869  46.858  16.066 -0.24 -0.20    +0.278 C  ENDBRANCH  12  18BRANCH  16  20ATOM     20  O   UNL     1      32.906  43.824  20.019 -0.54 -0.00    -0.507 OA ATOM     21  H   UNL     1      33.099  42.891  20.269 +0.20 +0.09    +0.293 HD ENDBRANCH  16  20ENDBRANCH   9  11ENDBRANCH   4   9ENDBRANCH   2   3ENDBRANCH   1   2BRANCH   1  22ATOM     22  C   UNL     1      37.977  42.894  26.883 -0.33 -0.00    +0.035 C  BRANCH  22  23ATOM     23  C   UNL     1      37.238  41.543  26.819 -0.50 -0.00    +0.011 CG0ATOM     24  G   UNL     1      35.971  41.371  27.648 +0.00 +0.00    +0.000 G0 ENDBRANCH  22  23BRANCH  22  25ATOM     25  C   UNL     1      37.050  44.139  26.729 -0.34 -0.01    +0.103 C  BRANCH  25  26ATOM     26  C   UNL     1      35.799  44.025  27.647 -0.49 -0.03    +0.106 C  BRANCH  26  27ATOM     27  N   UNL     1      34.613  43.365  27.114 -0.32 +0.05    -0.315 NA ATOM     28  H   UNL     1      34.383  43.768  26.204 -0.02 -0.00    +0.122 HD BRANCH  27  29ATOM     29  C   UNL     1      34.698  41.916  27.021 -0.57 -0.02    +0.081 C  BRANCH  29  30ATOM     30  C   UNL     1      35.972  41.371  27.648 -0.66 -0.01    +0.016 CG0ATOM     31  G   UNL     1      37.239  41.545  26.819 +0.00 +0.00    +0.000 G0 ENDBRANCH  29  30ENDBRANCH  27  29ENDBRANCH  26  27ENDBRANCH  25  26BRANCH  25  32ATOM     32  N   UNL     1      37.762  45.380  27.066 -0.13 +0.04    -0.347 N  ATOM     33  C   UNL     1      37.756  46.471  26.226 -0.23 -0.01    +0.251 C  ATOM     34  H   UNL     1      38.099  45.486  28.013 +0.06 -0.03    +0.164 HD ATOM     35  O   UNL     1      37.173  46.496  25.150 -0.85 -0.05    -0.269 OA BRANCH  33  36ATOM     36  C   UNL     1      38.484  47.672  26.709 -0.24 -0.00    +0.042 A  ATOM     37  C   UNL     1      39.831  47.882  26.413 -0.22 +0.00    +0.034 A  ATOM     38  C   UNL     1      37.781  48.620  27.449 -0.24 -0.00    +0.034 A  ATOM     39  C   UNL     1      40.425  49.032  26.899 -0.23 +0.01    +0.112 A  ATOM     40  C   UNL     1      38.467  49.735  27.891 -0.18 +0.01    +0.112 A  ATOM     41  N   UNL     1      39.776  49.956  27.640 -0.17 -0.07    -0.265 NA ENDBRANCH  33  36ENDBRANCH  25  32ENDBRANCH  22  25ENDBRANCH   1  22TORSDOF 9TERENDMDL