REMARK SMILES COc1ccc(O)c(C(=O)c2ccc(C(=O)N[C@@H]3CCCN(CC(F)F)C[C@@H]3NC(=O)c3ccnc(Cl)c3)cc2)c1F
REMARK SMILES IDX 18 1 17 2 15 3 16 4 14 6 11 7 12 8 40 9 13 10 39 11 9 12
REMARK SMILES IDX 10 13 8 14 3 15 4 16 41 17 5 18 6 19 42 20 2 21 1 22 7 23
REMARK SMILES IDX 19 25 20 26 21 27 22 28 23 29 24 30 25 31 26 32 27 33 28 35
REMARK SMILES IDX 29 37 30 38 31 40 32 41 33 42 38 43 34 44 36 45 35 46 37 47
REMARK H PARENT 17 5 7 24 29 39
REMARK Flexibility Score:  100.900
ROOT
ATOM      1  C   UNL     1      -2.518  -2.011   1.102  1.00  0.00     0.106 C 
ENDROOT
BRANCH   1   2
ATOM      2  N   UNL     1      -1.060  -1.855   0.979  1.00  0.00    -0.347 N 
ATOM      3  C   UNL     1      -0.318  -1.024   1.788  1.00  0.00     0.251 C 
ATOM      4  O   UNL     1      -0.812  -0.316   2.659  1.00  0.00    -0.269 OA
ATOM      5  H   UNL     1      -0.577  -2.460   0.326  1.00  0.00     0.164 HD
BRANCH   3   6
ATOM      6  C   UNL     1       1.150  -1.017   1.562  1.00  0.00     0.039 A 
ATOM      7  C   UNL     1       3.924  -0.950   1.217  1.00  0.00     0.023 A 
ATOM      8  C   UNL     1       3.377  -0.817   2.498  1.00  0.00     0.013 A 
ATOM      9  C   UNL     1       3.087  -1.135   0.109  1.00  0.00     0.013 A 
ATOM     10  C   UNL     1       1.991  -0.834   2.668  1.00  0.00     0.014 A 
ATOM     11  C   UNL     1       1.700  -1.161   0.281  1.00  0.00     0.014 A 
BRANCH   7  12
ATOM     12  C   UNL     1       5.395  -0.945   1.074  1.00  0.00     0.199 C 
ATOM     13  O   UNL     1       6.064  -1.634   1.845  1.00  0.00    -0.288 OA
BRANCH  12  14
ATOM     14  C   UNL     1       6.098  -0.185   0.016  1.00  0.00     0.104 A 
ATOM     15  C   UNL     1       6.252   1.704  -1.520  1.00  0.00     0.155 A 
ATOM     16  C   UNL     1       7.477   1.223  -1.987  1.00  0.00     0.053 A 
ATOM     17  C   UNL     1       5.574   0.994  -0.518  1.00  0.00     0.179 A 
ATOM     18  C   UNL     1       8.022   0.057  -1.444  1.00  0.00     0.051 A 
ATOM     19  C   UNL     1       7.342  -0.633  -0.442  1.00  0.00     0.130 A 
ATOM     20  F   UNL     1       4.413   1.486  -0.057  1.00  0.00    -0.202 F 
BRANCH  15  21
ATOM     21  O   UNL     1       5.627   2.839  -1.961  1.00  0.00    -0.494 OA
ATOM     22  C   UNL     1       6.312   3.634  -2.921  1.00  0.00     0.278 C 
ENDBRANCH  15  21
BRANCH  19  23
ATOM     23  O   UNL     1       7.960  -1.751   0.050  1.00  0.00    -0.507 OA
ATOM     24  H   UNL     1       7.488  -2.025   0.870  1.00  0.00     0.293 HD
ENDBRANCH  19  23
ENDBRANCH  12  14
ENDBRANCH   7  12
ENDBRANCH   3   6
ENDBRANCH   1   2
BRANCH   1  25
ATOM     25  C   UNL     1      -2.951  -3.355   0.504  1.00  0.00     0.028 C 
BRANCH  25  26
ATOM     26  C   UNL     1      -2.933  -3.447  -1.023  1.00  0.00     0.018 C 
BRANCH  26  27
ATOM     27  C   UNL     1      -4.066  -2.659  -1.687  1.00  0.00     0.085 C 
BRANCH  27  28
ATOM     28  N   UNL     1      -3.808  -1.240  -1.954  1.00  0.00    -0.296 NA
BRANCH  28  29
ATOM     29  C   UNL     1      -5.077  -0.509  -2.240  1.00  0.00     0.157 C 
BRANCH  29  30
ATOM     30  C   UNL     1      -5.897  -1.018  -3.437  1.00  0.00     0.356 C 
ATOM     31  F   UNL     1      -6.487  -2.205  -3.141  1.00  0.00    -0.209 F 
ATOM     32  F   UNL     1      -6.907  -0.147  -3.700  1.00  0.00    -0.209 F 
ENDBRANCH  29  30
ENDBRANCH  28  29
BRANCH  28  33
ATOM     33  C   UNL     1      -3.021  -0.517  -0.940  1.00  0.00     0.111 CG0
ATOM     34  G   UNL     1      -3.330  -0.800   0.553  1.00  0.00     0.000 G0
ENDBRANCH  28  33
ENDBRANCH  27  28
ENDBRANCH  26  27
ENDBRANCH  25  26
ENDBRANCH   1  25
BRANCH   1  35
ATOM     35  C   UNL     1      -3.330  -0.800   0.553  1.00  0.00     0.118 CG0
ATOM     36  G   UNL     1      -3.021  -0.517  -0.940  1.00  0.00     0.000 G0
BRANCH  35  37
ATOM     37  N   UNL     1      -3.099   0.396   1.372  1.00  0.00    -0.346 N 
ATOM     38  C   UNL     1      -3.952   1.474   1.349  1.00  0.00     0.251 C 
ATOM     39  H   UNL     1      -2.338   0.346   2.049  1.00  0.00     0.164 HD
ATOM     40  O   UNL     1      -4.958   1.511   0.647  1.00  0.00    -0.269 OA
BRANCH  38  41
ATOM     41  C   UNL     1      -3.627   2.622   2.239  1.00  0.00     0.044 A 
ATOM     42  C   UNL     1      -4.654   3.516   2.554  1.00  0.00     0.034 A 
ATOM     43  C   UNL     1      -2.345   2.849   2.736  1.00  0.00     0.054 A 
ATOM     44  C   UNL     1      -4.361   4.592   3.371  1.00  0.00     0.113 A 
ATOM     45  C   UNL     1      -2.165   3.956   3.543  1.00  0.00     0.129 A 
ATOM     46  N   UNL     1      -3.135   4.831   3.877  1.00  0.00    -0.245 NA
ATOM     47  Cl  UNL     1      -0.622   4.322   4.200  1.00  0.00    -0.062 Cl
ENDBRANCH  38  41
ENDBRANCH  35  37
ENDBRANCH   1  35
TORSDOF 10
