MODEL        8USER    Run = 8USERUSER    Estimated Free Energy of Binding    =  -7.39 kcal/mol  [=(1)+(2)+(3)-(4)]USERUSER    (1) Final Intermolecular Energy     = -11.57 kcal/molUSER        vdW + Hbond + desolv Energy     = -11.55 kcal/molUSER        Electrostatic Energy            =  -0.30 kcal/molUSER        Moving Ligand-Fixed Receptor    = -11.86 kcal/molUSER        Moving Ligand-Moving Receptor   =  +0.29 kcal/molUSER    (2) Final Total Internal Energy     =  -2.69 kcal/molUSER    (3) Torsional Free Energy           =  +4.18 kcal/molUSER    (4) Unbound System's Energy         =  -2.69 kcal/molUSERUSERREMARK SMILES COc1ccc(O)c(C(=O)c2ccc(C(=O)N[C@@H]3CCCN(C)C[C@H]3NC(=O)c3ccnc(F)c3)cc2)c1FREMARK SMILES IDX 15 1 16 2 17 3 14 5 11 6 12 7 37 8 13 9 36 10 9 11 10 12REMARK SMILES IDX 8 13 3 14 4 15 38 16 5 17 6 18 39 19 2 20 1 21 7 22 18 24REMARK SMILES IDX 19 25 25 27 24 28 22 29 23 30 21 31 20 32 26 34 27 35 28 37REMARK SMILES IDX 29 38 30 39 35 40 31 41 33 42 32 43 34 44REMARK H PARENT 17 4 7 23 26 36REMARK Flexibility Score:   88.900USER                              x       y       z     vdW  Elec       q    TypeUSER                           _______ _______ _______ _____ _____    ______ ____ROOTATOM      1  C   UNL     1      40.418  46.285  16.529 -0.31 -0.03    +0.251 C  ATOM      2  O   UNL     1      41.013  45.971  15.505 -0.38 -0.03    -0.269 OA ATOM      3  N   UNL     1      39.046  46.380  16.612 -0.18 +0.09    -0.347 N  ATOM      4  H   UNL     1      38.599  46.473  17.515 +0.09 -0.05    +0.164 HD ENDROOTBRANCH   1   5ATOM      5  C   UNL     1      41.177  46.548  17.784 -0.44 -0.00    +0.039 A  ATOM      6  C   UNL     1      42.600  46.944  20.168 -0.42 +0.00    +0.023 A  ATOM      7  C   UNL     1      42.627  47.921  19.165 -0.24 +0.00    +0.013 A  ATOM      8  C   UNL     1      41.847  45.779  19.986 -0.36 +0.00    +0.013 A  ATOM      9  C   UNL     1      41.926  47.718  17.971 -0.45 -0.00    +0.014 A  ATOM     10  C   UNL     1      41.148  45.577  18.793 -0.45 +0.00    +0.014 A  BRANCH   6  11ATOM     11  C   UNL     1      43.297  47.134  21.461 -0.30 +0.06    +0.199 C  ATOM     12  O   UNL     1      44.489  46.830  21.541 -0.65 -0.25    -0.288 OA BRANCH  11  13ATOM     13  C   UNL     1      42.623  47.618  22.686 -0.26 +0.02    +0.104 A  ATOM     14  C   UNL     1      40.688  47.724  24.169 -0.21 +0.02    +0.155 A  ATOM     15  C   UNL     1      41.397  48.566  25.030 -0.29 +0.01    +0.053 A  ATOM     16  C   UNL     1      41.311  47.261  23.000 -0.10 +0.02    +0.179 A  ATOM     17  C   UNL     1      42.700  48.956  24.711 -0.34 +0.01    +0.051 A  ATOM     18  C   UNL     1      43.301  48.496  23.542 -0.28 +0.03    +0.130 A  ATOM     19  F   UNL     1      40.606  46.480  22.165 -0.05 -0.02    -0.202 F  BRANCH  14  20ATOM     20  O   UNL     1      39.405  47.289  24.366 -0.09 -0.05    -0.494 OA ATOM     21  C   UNL     1      38.354  48.184  24.017 -0.18 +0.05    +0.278 C  ENDBRANCH  14  20BRANCH  18  22ATOM     22  O   UNL     1      44.568  48.951  23.292 -0.18 -0.16    -0.507 OA ATOM     23  H   UNL     1      44.739  48.855  22.327 -0.35 +0.06    +0.293 HD ENDBRANCH  18  22ENDBRANCH  11  13ENDBRANCH   6  11ENDBRANCH   1   5BRANCH   3  24ATOM     24  C   UNL     1      38.164  46.131  15.458 -0.37 -0.04    +0.106 C  BRANCH  24  25ATOM     25  C   UNL     1      38.456  47.165  14.360 -0.52 -0.01    +0.028 CG0ATOM     26  G   UNL     1      37.582  47.101  13.113 +0.00 +0.00    +0.000 G0 ENDBRANCH  24  25BRANCH  24  27ATOM     27  C   UNL     1      36.682  46.090  15.930 -0.34 -0.07    +0.118 C  BRANCH  27  28ATOM     28  C   UNL     1      35.743  45.185  15.079 -0.34 -0.06    +0.111 C  BRANCH  28  29ATOM     29  N   UNL     1      35.525  45.709  13.725 -0.17 +0.17    -0.304 NA ATOM     30  C   UNL     1      34.834  46.999  13.750 -0.02 -0.10    +0.105 C  BRANCH  29  31ATOM     31  C   UNL     1      36.766  45.815  12.936 -0.55 -0.03    +0.084 C  BRANCH  31  32ATOM     32  C   UNL     1      37.581  47.101  13.114 -0.60 -0.01    +0.018 CG0ATOM     33  G   UNL     1      38.453  47.165  14.363 +0.00 +0.00    +0.000 G0 ENDBRANCH  31  32ENDBRANCH  29  31ENDBRANCH  28  29ENDBRANCH  27  28BRANCH  27  34ATOM     34  N   UNL     1      36.647  45.662  17.344 -0.13 +0.15    -0.346 N  ATOM     35  C   UNL     1      37.204  44.475  17.759 -0.23 -0.06    +0.251 C  ATOM     36  H   UNL     1      36.325  46.355  18.007 +0.09 -0.08    +0.164 HD ATOM     37  O   UNL     1      37.624  43.628  16.980 -0.13 +0.06    -0.269 OA BRANCH  35  38ATOM     38  C   UNL     1      37.259  44.228  19.222 -0.32 -0.01    +0.045 A  ATOM     39  C   UNL     1      36.156  43.618  19.825 -0.38 -0.00    +0.034 A  ATOM     40  C   UNL     1      38.371  44.550  19.995 -0.32 -0.00    +0.074 A  ATOM     41  C   UNL     1      36.206  43.378  21.186 -0.29 +0.01    +0.115 A  ATOM     42  C   UNL     1      38.319  44.264  21.345 -0.22 +0.01    +0.213 A  ATOM     43  N   UNL     1      37.263  43.695  21.960 -0.25 -0.01    -0.228 NA ATOM     44  F   UNL     1      39.385  44.565  22.098 -0.06 -0.01    -0.185 F  ENDBRANCH  35  38ENDBRANCH  27  34ENDBRANCH  24  27ENDBRANCH   3  24TORSDOF 8TERENDMDL