MODEL        8USER    Run = 8USERUSER    Estimated Free Energy of Binding    =  -8.31 kcal/mol  [=(1)+(2)+(3)-(4)]USERUSER    (1) Final Intermolecular Energy     = -12.49 kcal/molUSER        vdW + Hbond + desolv Energy     = -12.81 kcal/molUSER        Electrostatic Energy            =  -0.04 kcal/molUSER        Moving Ligand-Fixed Receptor    = -12.85 kcal/molUSER        Moving Ligand-Moving Receptor   =  +0.36 kcal/molUSER    (2) Final Total Internal Energy     =  -3.55 kcal/molUSER    (3) Torsional Free Energy           =  +4.18 kcal/molUSER    (4) Unbound System's Energy         =  -3.55 kcal/molUSERUSERREMARK SMILES COc1ccc(O)c(C(=O)c2ccc(C(=O)N[C@@H]3CCCN(C)C[C@H]3NC(=O)c3ccnc(Br)c3)cc2)c1FREMARK SMILES IDX 15 1 16 2 17 3 14 5 11 6 12 7 37 8 13 9 36 10 9 11 10 12REMARK SMILES IDX 8 13 3 14 4 15 38 16 5 17 6 18 39 19 2 20 1 21 7 22 18 24REMARK SMILES IDX 19 25 25 27 24 28 22 29 23 30 21 31 20 32 26 34 27 35 28 37REMARK SMILES IDX 29 38 30 39 35 40 31 41 33 42 32 43 34 44REMARK H PARENT 17 4 7 23 26 36REMARK Flexibility Score:   88.900USER                              x       y       z     vdW  Elec       q    TypeUSER                           _______ _______ _______ _____ _____    ______ ____ROOTATOM      1  C   UNL     1      39.678  44.934  19.683 -0.29 -0.00    +0.251 C  ATOM      2  O   UNL     1      39.922  43.917  19.043 -0.19 +0.00    -0.269 OA ATOM      3  N   UNL     1      39.882  46.205  19.192 -0.19 +0.02    -0.347 N  ATOM      4  H   UNL     1      39.407  46.979  19.655 +0.13 -0.01    +0.164 HD ENDROOTBRANCH   1   5ATOM      5  C   UNL     1      39.086  44.838  21.049 -0.33 +0.00    +0.039 A  ATOM      6  C   UNL     1      37.977  44.768  23.627 -0.30 +0.00    +0.023 A  ATOM      7  C   UNL     1      37.799  43.686  22.758 -0.35 +0.00    +0.013 A  ATOM      8  C   UNL     1      38.732  45.872  23.217 -0.31 +0.00    +0.013 A  ATOM      9  C   UNL     1      38.342  43.726  21.468 -0.31 +0.00    +0.014 A  ATOM     10  C   UNL     1      39.274  45.912  21.930 -0.25 +0.00    +0.014 A  BRANCH   6  11ATOM     11  C   UNL     1      37.435  44.759  25.005 -0.26 +0.01    +0.199 C  ATOM     12  O   UNL     1      37.009  45.815  25.477 -0.75 -0.01    -0.288 OA BRANCH  11  13ATOM     13  C   UNL     1      37.418  43.555  25.869 -0.24 -0.00    +0.104 A  ATOM     14  C   UNL     1      38.514  41.623  26.881 -0.27 -0.01    +0.155 A  ATOM     15  C   UNL     1      37.321  41.285  27.524 -0.46 -0.01    +0.053 A  ATOM     16  C   UNL     1      38.547  42.753  26.051 -0.16 -0.01    +0.179 A  ATOM     17  C   UNL     1      36.176  42.059  27.326 -0.49 -0.01    +0.051 A  ATOM     18  C   UNL     1      36.223  43.177  26.496 -0.33 -0.02    +0.130 A  ATOM     19  F   UNL     1      39.691  43.040  25.407 -0.03 -0.00    -0.202 F  BRANCH  14  20ATOM     20  O   UNL     1      39.694  40.937  26.989 -0.12 +0.04    -0.494 OA ATOM     21  C   UNL     1      40.506  41.210  28.124 -0.17 -0.02    +0.278 C  ENDBRANCH  14  20BRANCH  18  22ATOM     22  O   UNL     1      35.047  43.862  26.338 -0.08 +0.07    -0.507 OA ATOM     23  H   UNL     1      35.269  44.814  26.208 -0.25 -0.12    +0.293 HD ENDBRANCH  18  22ENDBRANCH  11  13ENDBRANCH   6  11ENDBRANCH   1   5BRANCH   3  24ATOM     24  C   UNL     1      40.318  46.449  17.807 -0.47 -0.01    +0.106 C  BRANCH  24  25ATOM     25  C   UNL     1      41.117  47.756  17.747 -0.55 -0.00    +0.028 CG0ATOM     26  G   UNL     1      41.326  48.382  16.369 +0.00 +0.00    +0.000 G0 ENDBRANCH  24  25BRANCH  24  27ATOM     27  C   UNL     1      39.096  46.395  16.843 -0.40 -0.03    +0.118 C  BRANCH  27  28ATOM     28  C   UNL     1      39.451  46.398  15.338 -0.42 -0.02    +0.111 C  BRANCH  28  29ATOM     29  N   UNL     1      39.391  47.751  14.771 -0.25 +0.09    -0.304 NA ATOM     30  C   UNL     1      38.016  48.150  14.469 -0.52 -0.05    +0.105 C  BRANCH  29  31ATOM     31  C   UNL     1      40.066  48.784  15.585 -0.59 -0.03    +0.084 C  BRANCH  31  32ATOM     32  C   UNL     1      41.326  48.383  16.367 -0.48 -0.00    +0.018 CG0ATOM     33  G   UNL     1      41.117  47.752  17.744 +0.00 +0.00    +0.000 G0 ENDBRANCH  31  32ENDBRANCH  29  31ENDBRANCH  28  29ENDBRANCH  27  28BRANCH  27  34ATOM     34  N   UNL     1      38.294  45.190  17.139 -0.14 +0.08    -0.346 N  ATOM     35  C   UNL     1      36.919  45.184  17.082 -0.23 -0.09    +0.251 C  ATOM     36  H   UNL     1      38.805  44.426  17.558 +0.10 -0.02    +0.164 HD ATOM     37  O   UNL     1      36.265  46.134  16.658 -0.24 +0.18    -0.269 OA BRANCH  35  38ATOM     38  C   UNL     1      36.225  43.968  17.574 -0.29 -0.01    +0.044 A  ATOM     39  C   UNL     1      35.377  43.295  16.694 -0.38 -0.01    +0.034 A  ATOM     40  C   UNL     1      36.365  43.510  18.885 -0.27 -0.01    +0.050 A  ATOM     41  C   UNL     1      34.723  42.169  17.155 -0.33 -0.05    +0.113 A  ATOM     42  C   UNL     1      35.665  42.373  19.248 -0.30 -0.01    +0.106 A  ATOM     43  N   UNL     1      34.856  41.691  18.408 -0.32 +0.05    -0.249 NA ATOM     44  Br  UNL     1      35.837  41.723  21.021 -0.71 -0.00    -0.029 Br ENDBRANCH  35  38ENDBRANCH  27  34ENDBRANCH  24  27ENDBRANCH   3  24TORSDOF 8TERENDMDL