MODEL        7USER    Run = 7USERUSER    Estimated Free Energy of Binding    =  -7.13 kcal/mol  [=(1)+(2)+(3)-(4)]USERUSER    (1) Final Intermolecular Energy     = -11.90 kcal/molUSER        vdW + Hbond + desolv Energy     = -11.57 kcal/molUSER        Electrostatic Energy            =  -0.46 kcal/molUSER        Moving Ligand-Fixed Receptor    = -12.03 kcal/molUSER        Moving Ligand-Moving Receptor   =  +0.14 kcal/molUSER    (2) Final Total Internal Energy     =  -2.74 kcal/molUSER    (3) Torsional Free Energy           =  +4.77 kcal/molUSER    (4) Unbound System's Energy         =  -2.74 kcal/molUSERUSERREMARK SMILES COc1ccc(O)c(C(=O)c2ccc(C(=O)N[C@@H]3CCCN(CC(F)F)C[C@@H]3NC(=O)c3ccnc(Cl)c3)cc2)c1FREMARK SMILES IDX 18 1 17 2 15 3 16 4 14 6 11 7 12 8 40 9 13 10 39 11 9 12REMARK SMILES IDX 10 13 8 14 3 15 4 16 41 17 5 18 6 19 42 20 2 21 1 22 7 23REMARK SMILES IDX 19 25 20 26 21 27 22 28 23 29 24 30 25 31 26 32 27 33 28 35REMARK SMILES IDX 29 37 30 38 31 40 32 41 33 42 38 43 34 44 36 45 35 46 37 47REMARK H PARENT 17 5 7 24 29 39REMARK Flexibility Score:  100.900USER                              x       y       z     vdW  Elec       q    TypeUSER                           _______ _______ _______ _____ _____    ______ ____ROOTATOM      1  C   UNL     1      37.690  42.698  24.890 -0.32 +0.00    +0.106 C  ENDROOTBRANCH   1   2ATOM      2  N   UNL     1      37.188  43.061  23.555 -0.17 -0.03    -0.347 N  ATOM      3  C   UNL     1      37.021  42.150  22.537 -0.37 +0.02    +0.251 C  ATOM      4  O   UNL     1      37.308  40.962  22.643 -0.34 -0.03    -0.269 OA ATOM      5  H   UNL     1      36.868  44.012  23.417 +0.08 +0.03    +0.164 HD BRANCH   3   6ATOM      6  C   UNL     1      36.461  42.673  21.264 -0.44 +0.00    +0.039 A  ATOM      7  C   UNL     1      35.410  43.567  18.832 -0.34 -0.00    +0.023 A  ATOM      8  C   UNL     1      35.211  42.241  19.233 -0.40 -0.00    +0.013 A  ATOM      9  C   UNL     1      36.119  44.453  19.654 -0.34 -0.00    +0.013 A  ATOM     10  C   UNL     1      35.751  41.790  20.439 -0.36 -0.00    +0.014 A  ATOM     11  C   UNL     1      36.650  44.003  20.867 -0.40 +0.00    +0.014 A  BRANCH   7  12ATOM     12  C   UNL     1      34.812  44.016  17.558 -0.22 -0.07    +0.199 C  ATOM     13  O   UNL     1      33.661  43.667  17.292 -0.15 +0.11    -0.288 OA BRANCH  12  14ATOM     14  C   UNL     1      35.517  44.905  16.607 -0.25 -0.05    +0.104 A  ATOM     15  C   UNL     1      36.830  45.264  14.583 -0.28 -0.07    +0.155 A  ATOM     16  C   UNL     1      36.835  46.638  14.830 -0.37 -0.03    +0.053 A  ATOM     17  C   UNL     1      36.166  44.409  15.475 -0.25 -0.07    +0.179 A  ATOM     18  C   UNL     1      36.169  47.148  15.947 -0.23 -0.05    +0.051 A  ATOM     19  C   UNL     1      35.506  46.288  16.821 -0.27 -0.12    +0.130 A  ATOM     20  F   UNL     1      36.143  43.094  15.206 -0.15 +0.07    -0.202 F  BRANCH  15  21ATOM     21  O   UNL     1      37.431  44.649  13.517 -0.06 +0.15    -0.494 OA ATOM     22  C   UNL     1      36.872  44.875  12.229 -0.35 -0.09    +0.278 C  ENDBRANCH  15  21BRANCH  19  23ATOM     23  O   UNL     1      34.859  46.875  17.875 -0.27 +0.51    -0.507 OA ATOM     24  H   UNL     1      34.195  47.506  17.513 -0.29 -0.63    +0.293 HD ENDBRANCH  19  23ENDBRANCH  12  14ENDBRANCH   7  12ENDBRANCH   3   6ENDBRANCH   1   2BRANCH   1  25ATOM     25  C   UNL     1      36.517  42.562  25.868 -0.46 -0.00    +0.028 C  BRANCH  25  26ATOM     26  C   UNL     1      36.756  43.099  27.281 -0.45 -0.00    +0.018 C  BRANCH  26  27ATOM     27  C   UNL     1      37.865  42.352  28.029 -0.35 -0.02    +0.085 C  BRANCH  27  28ATOM     28  N   UNL     1      39.231  42.856  27.848 -0.14 +0.01    -0.296 NA BRANCH  28  29ATOM     29  C   UNL     1      40.197  42.104  28.701 -0.19 +0.00    +0.157 C  BRANCH  29  30ATOM     30  C   UNL     1      40.822  40.848  28.071 -0.11 -0.04    +0.356 C  ATOM     31  F   UNL     1      42.171  40.860  28.221 -0.02 +0.03    -0.209 F  ATOM     32  F   UNL     1      40.377  39.742  28.724 -0.06 -0.02    -0.209 F  ENDBRANCH  29  30ENDBRANCH  28  29BRANCH  28  33ATOM     33  C   UNL     1      39.723  42.926  26.461 -0.19 -0.00    +0.111 CG0ATOM     34  G   UNL     1      38.826  43.628  25.409 +0.00 +0.00    +0.000 G0 ENDBRANCH  28  33ENDBRANCH  27  28ENDBRANCH  26  27ENDBRANCH  25  26ENDBRANCH   1  25BRANCH   1  35ATOM     35  C   UNL     1      38.825  43.629  25.411 -0.17 +0.00    +0.118 CG0ATOM     36  G   UNL     1      39.723  42.925  26.461 +0.00 +0.00    +0.000 G0 BRANCH  35  37ATOM     37  N   UNL     1      38.270  44.877  25.948 -0.06 +0.00    -0.346 N  ATOM     38  C   UNL     1      37.787  45.873  25.133 -0.21 +0.02    +0.251 C  ATOM     39  H   UNL     1      38.150  44.926  26.960 +0.08 -0.01    +0.164 HD ATOM     40  O   UNL     1      37.787  45.789  23.909 -0.43 -0.06    -0.269 OA BRANCH  38  41ATOM     41  C   UNL     1      37.228  47.085  25.792 -0.32 +0.00    +0.044 A  ATOM     42  C   UNL     1      37.262  48.289  25.084 -0.37 +0.00    +0.034 A  ATOM     43  C   UNL     1      36.707  47.066  27.085 -0.22 -0.01    +0.054 A  ATOM     44  C   UNL     1      36.755  49.423  25.690 -0.38 +0.00    +0.113 A  ATOM     45  C   UNL     1      36.228  48.258  27.593 -0.28 -0.02    +0.129 A  ATOM     46  N   UNL     1      36.234  49.434  26.933 -0.22 +0.00    -0.245 NA ATOM     47  Cl  UNL     1      35.571  48.336  29.177 -0.47 +0.01    -0.062 Cl ENDBRANCH  38  41ENDBRANCH  35  37ENDBRANCH   1  35TORSDOF 10TERENDMDL