MODEL        2USER    Run = 2USERUSER    Estimated Free Energy of Binding    =  -9.99 kcal/mol  [=(1)+(2)+(3)-(4)]USERUSER    (1) Final Intermolecular Energy     = -13.27 kcal/molUSER        vdW + Hbond + desolv Energy     = -12.18 kcal/molUSER        Electrostatic Energy            =  -1.08 kcal/molUSER        Moving Ligand-Fixed Receptor    = -13.27 kcal/molUSER        Moving Ligand-Moving Receptor   =  +0.00 kcal/molUSER    (2) Final Total Internal Energy     =  -3.12 kcal/molUSER    (3) Torsional Free Energy           =  +3.28 kcal/molUSER    (4) Unbound System's Energy         =  -3.12 kcal/molUSERUSERREMARK SMILES COc1ccc(O)c(C(=O)c2ccc(C(=O)N[C@@H]3CCN(CC(=O)O)C[C@H]3NC(=O)c3ccncc3)cc2)c1FREMARK SMILES IDX 15 1 16 2 17 3 14 5 11 6 12 7 38 8 13 9 37 10 9 11 10 12REMARK SMILES IDX 8 13 3 14 4 15 39 16 5 17 6 18 40 19 2 20 1 21 7 22 18 24REMARK SMILES IDX 19 25 27 26 20 27 26 28 21 29 28 30 29 31 30 33 31 34 32 35REMARK SMILES IDX 36 36 33 37 35 38 34 39 22 40 23 41 24 42 25 43REMARK H PARENT 17 4 7 23 28 32 25 44USER                              x       y       z     vdW  Elec       q    TypeUSER                           _______ _______ _______ _____ _____    ______ ____ROOTATOM      1  C   UNL     1      34.165  29.591  22.799 -0.36 -0.02    +0.251 C  ATOM      2  O   UNL     1      34.338  28.602  22.093 -0.36 +0.06    -0.269 OA ATOM      3  N   UNL     1      35.185  30.201  23.501 -0.14 -0.01    -0.347 N  ATOM      4  H   UNL     1      34.992  31.005  24.083 +0.12 +0.02    +0.164 HD ENDROOTBRANCH   1   5ATOM      5  C   UNL     1      32.813  30.191  22.932 -0.55 +0.00    +0.039 A  ATOM      6  C   UNL     1      30.255  31.269  23.286 -0.49 +0.00    +0.023 A  ATOM      7  C   UNL     1      31.168  31.272  24.347 -0.48 +0.01    +0.013 A  ATOM      8  C   UNL     1      30.627  30.750  22.040 -0.57 -0.00    +0.013 A  ATOM      9  C   UNL     1      32.439  30.720  24.174 -0.39 +0.00    +0.014 A  ATOM     10  C   UNL     1      31.902  30.201  21.866 -0.39 +0.00    +0.014 A  BRANCH   6  11ATOM     11  C   UNL     1      28.923  31.878  23.503 -0.37 +0.07    +0.199 C  ATOM     12  O   UNL     1      28.351  31.674  24.575 -0.66 -0.26    -0.288 OA BRANCH  11  13ATOM     13  C   UNL     1      28.262  32.758  22.513 -0.37 +0.00    +0.104 A  ATOM     14  C   UNL     1      27.727  34.969  21.629 -0.26 -0.07    +0.155 A  ATOM     15  C   UNL     1      26.991  34.378  20.601 -0.24 -0.05    +0.053 A  ATOM     16  C   UNL     1      28.361  34.149  22.576 -0.29 +0.01    +0.179 A  ATOM     17  C   UNL     1      26.906  32.986  20.513 -0.35 -0.05    +0.051 A  ATOM     18  C   UNL     1      27.548  32.185  21.453 -0.33 -0.08    +0.130 A  ATOM     19  F   UNL     1      29.095  34.731  23.539 -0.08 -0.10    -0.202 F  BRANCH  14  20ATOM     20  O   UNL     1      27.896  36.316  21.812 -0.07 +0.15    -0.494 OA ATOM     21  C   UNL     1      26.760  37.063  22.229 -0.21 -0.17    +0.278 C  ENDBRANCH  14  20BRANCH  18  22ATOM     22  O   UNL     1      27.435  30.832  21.274 -0.09 +0.58    -0.507 OA ATOM     23  H   UNL     1      26.479  30.598  21.337 -0.29 -0.75    +0.293 HD ENDBRANCH  18  22ENDBRANCH  11  13ENDBRANCH   6  11ENDBRANCH   1   5BRANCH   3  24ATOM     24  C   UNL     1      36.571  29.757  23.350 -0.32 +0.00    +0.107 C  ATOM     25  C   UNL     1      37.470  30.311  24.450 -0.44 +0.01    +0.042 C  ATOM     26  C   UNL     1      37.134  30.113  21.943 -0.36 -0.00    +0.118 C  ATOM     27  C   UNL     1      38.864  29.677  24.354 -0.35 +0.03    +0.087 C  ATOM     28  C   UNL     1      38.668  30.356  22.013 -0.39 +0.02    +0.112 C  ATOM     29  N   UNL     1      39.393  29.524  22.991 -0.18 -0.10    -0.291 NA BRANCH  26  30ATOM     30  N   UNL     1      36.748  29.084  20.973 -0.12 +0.07    -0.346 N  ATOM     31  C   UNL     1      37.409  28.949  19.770 -0.19 -0.02    +0.251 C  ATOM     32  H   UNL     1      35.748  28.873  20.953 -0.01 -0.07    +0.164 HD ATOM     33  O   UNL     1      38.404  29.602  19.475 -0.24 -0.04    -0.269 OA BRANCH  31  34ATOM     34  C   UNL     1      36.837  27.973  18.802 -0.20 -0.01    +0.042 A  ATOM     35  C   UNL     1      35.770  27.136  19.128 -0.29 -0.02    +0.034 A  ATOM     36  C   UNL     1      37.421  27.878  17.538 -0.21 -0.00    +0.034 A  ATOM     37  C   UNL     1      35.326  26.246  18.165 -0.24 -0.11    +0.112 A  ATOM     38  C   UNL     1      36.904  26.956  16.648 -0.22 -0.04    +0.112 A  ATOM     39  N   UNL     1      35.867  26.139  16.934 -0.15 +0.15    -0.265 NA ENDBRANCH  31  34ENDBRANCH  26  30BRANCH  29  40ATOM     40  C   UNL     1      39.484  28.103  22.584 -0.15 +0.08    +0.207 C  BRANCH  40  41ATOM     41  C   UNL     1      40.924  27.623  22.443 -0.01 +0.33    +0.317 C  ATOM     42  O   UNL     1      41.360  26.779  21.675 -0.55 -0.31    -0.251 OA BRANCH  41  43ATOM     43  O   UNL     1      41.768  28.277  23.272 -0.44 -0.60    -0.480 OA ATOM     44  H   UNL     1      41.187  28.946  23.694 +0.09 +0.22    +0.296 HD ENDBRANCH  41  43ENDBRANCH  40  41ENDBRANCH  29  40ENDBRANCH   3  24TORSDOF 11TERENDMDL