MODEL        2USER    Run = 2USERUSER    Estimated Free Energy of Binding    = -10.95 kcal/mol  [=(1)+(2)+(3)-(4)]USERUSER    (1) Final Intermolecular Energy     = -13.63 kcal/molUSER        vdW + Hbond + desolv Energy     = -13.26 kcal/molUSER        Electrostatic Energy            =  -0.37 kcal/molUSER        Moving Ligand-Fixed Receptor    = -13.63 kcal/molUSER        Moving Ligand-Moving Receptor   =  +0.00 kcal/molUSER    (2) Final Total Internal Energy     =  -3.09 kcal/molUSER    (3) Torsional Free Energy           =  +2.68 kcal/molUSER    (4) Unbound System's Energy         =  -3.09 kcal/molUSERUSERREMARK SMILES COc1ccc(O)c(C(=O)c2ccc(C(=O)N[C@@H]3CCN(c4nnn[nH]4)C[C@H]3NC(=O)c3ccncc3)cc2)c1FREMARK SMILES IDX 11 1 12 2 13 3 14 4 38 5 39 6 9 7 10 8 8 9 3 10 4 11 40 12REMARK SMILES IDX 5 13 6 14 41 15 2 16 1 17 7 18 15 20 17 21 16 22 18 24 19 25REMARK SMILES IDX 28 26 20 27 27 28 21 29 29 30 30 31 31 33 32 34 33 35 37 36REMARK SMILES IDX 34 37 36 38 35 39 22 40 23 41 26 42 24 43 25 44REMARK H PARENT 7 19 17 23 29 32 26 45USER                              x       y       z     vdW  Elec       q    TypeUSER                           _______ _______ _______ _____ _____    ______ ____ROOTATOM      1  C   UNL     1      31.832  42.869  17.242 -0.29 -0.01    +0.023 A  ATOM      2  C   UNL     1      33.084  42.558  16.705 -0.27 -0.01    +0.013 A  ATOM      3  C   UNL     1      34.119  43.498  16.766 -0.34 -0.01    +0.014 A  ATOM      4  C   UNL     1      33.922  44.747  17.377 -0.30 -0.02    +0.039 A  ATOM      5  C   UNL     1      32.668  45.044  17.926 -0.17 -0.00    +0.014 A  ATOM      6  C   UNL     1      31.632  44.105  17.867 -0.22 -0.00    +0.013 A  ENDROOTBRANCH   1   7ATOM      7  C   UNL     1      30.713  41.899  17.227 -0.22 -0.05    +0.199 C  ATOM      8  O   UNL     1      29.666  42.213  16.660 -0.16 +0.09    -0.288 OA BRANCH   7   9ATOM      9  C   UNL     1      30.768  40.586  17.909 -0.27 -0.01    +0.104 A  ATOM     10  C   UNL     1      31.505  39.151  19.738 -0.31 +0.03    +0.155 A  ATOM     11  C   UNL     1      30.814  38.079  19.171 -0.42 +0.01    +0.053 A  ATOM     12  C   UNL     1      31.482  40.396  19.092 -0.23 +0.01    +0.179 A  ATOM     13  C   UNL     1      30.125  38.247  17.968 -0.23 +0.02    +0.051 A  ATOM     14  C   UNL     1      30.115  39.487  17.336 -0.20 +0.02    +0.130 A  ATOM     15  F   UNL     1      32.186  41.409  19.625 -0.09 -0.02    -0.202 F  BRANCH  10  16ATOM     16  O   UNL     1      32.228  39.104  20.900 -1.02 -0.24    -0.494 OA ATOM     17  C   UNL     1      31.676  38.364  21.982 -0.17 +0.02    +0.278 C  ENDBRANCH  10  16BRANCH  14  18ATOM     18  O   UNL     1      29.442  39.556  16.145 -0.04 -0.14    -0.507 OA ATOM     19  H   UNL     1      29.533  40.473  15.798 +0.15 -0.04    +0.293 HD ENDBRANCH  14  18ENDBRANCH   7   9ENDBRANCH   1   7BRANCH   4  20ATOM     20  C   UNL     1      35.070  45.705  17.384 -0.25 -0.17    +0.251 C  ATOM     21  N   UNL     1      35.761  45.885  16.206 -0.12 +0.25    -0.347 N  ATOM     22  O   UNL     1      35.369  46.300  18.416 -0.21 +0.14    -0.269 OA ATOM     23  H   UNL     1      35.452  45.445  15.344 +0.12 -0.11    +0.164 HD BRANCH  21  24ATOM     24  C   UNL     1      36.937  46.753  16.115 -0.37 -0.07    +0.108 C  ATOM     25  C   UNL     1      37.239  47.100  14.647 -0.47 -0.03    +0.048 C  ATOM     26  C   UNL     1      38.172  46.138  16.818 -0.36 -0.04    +0.124 C  ATOM     27  C   UNL     1      38.726  47.296  14.361 -0.45 -0.04    +0.122 C  ATOM     28  C   UNL     1      39.351  47.133  16.762 -0.42 -0.04    +0.146 C  ATOM     29  N   UNL     1      39.375  47.913  15.511 -0.24 +0.12    -0.338 N  BRANCH  26  30ATOM     30  N   UNL     1      37.878  45.730  18.199 -0.15 +0.08    -0.345 N  ATOM     31  C   UNL     1      38.593  44.728  18.820 -0.27 -0.02    +0.251 C  ATOM     32  H   UNL     1      37.029  46.077  18.627 +0.09 -0.04    +0.164 HD ATOM     33  O   UNL     1      39.580  44.201  18.318 -0.26 +0.02    -0.269 OA BRANCH  31  34ATOM     34  C   UNL     1      38.103  44.273  20.143 -0.33 -0.00    +0.042 A  ATOM     35  C   UNL     1      38.654  44.745  21.335 -0.34 +0.00    +0.034 A  ATOM     36  C   UNL     1      37.023  43.391  20.177 -0.35 -0.00    +0.034 A  ATOM     37  C   UNL     1      38.109  44.285  22.519 -0.28 +0.01    +0.112 A  ATOM     38  C   UNL     1      36.556  42.989  21.413 -0.36 +0.01    +0.112 A  ATOM     39  N   UNL     1      37.081  43.412  22.584 -0.22 -0.03    -0.265 NA ENDBRANCH  31  34ENDBRANCH  26  30BRANCH  29  40ATOM     40  C   UNL     1      40.440  48.755  15.368 -0.39 -0.06    +0.242 A  ATOM     41  N   UNL     1      41.301  49.164  16.278 -1.06 +0.00    -0.090 NA ATOM     42  N   UNL     1      40.762  49.397  14.201 -0.39 +0.07    -0.225 N  ATOM     43  N   UNL     1      42.169  50.021  15.645 -0.83 -0.00    -0.022 NA ATOM     44  N   UNL     1      41.838  50.175  14.372 -0.71 +0.01    -0.046 NA ATOM     45  H   UNL     1      40.299  49.377  13.305 +0.12 -0.06    +0.195 HD ENDBRANCH  29  40ENDBRANCH  21  24ENDBRANCH   4  20TORSDOF 9TERENDMDL