MODEL        8USER    Run = 8USERUSER    Estimated Free Energy of Binding    =  -8.12 kcal/mol  [=(1)+(2)+(3)-(4)]USERUSER    (1) Final Intermolecular Energy     =  -9.01 kcal/molUSER        vdW + Hbond + desolv Energy     =  -8.92 kcal/molUSER        Electrostatic Energy            =  -0.09 kcal/molUSER        Moving Ligand-Fixed Receptor    =  -9.01 kcal/molUSER        Moving Ligand-Moving Receptor   =  +0.00 kcal/molUSER    (2) Final Total Internal Energy     =  -0.66 kcal/molUSER    (3) Torsional Free Energy           =  +0.89 kcal/molUSER    (4) Unbound System's Energy         =  -0.66 kcal/molUSERUSERREMARK SMILES O[C@H]1CCN(c2ccc3c(-c4c(F)cccc4F)n[nH]c3c2)C[C@@H]1FREMARK SMILES IDX 6 1 7 2 8 3 9 4 10 5 19 6 20 7 21 8 22 9 5 11 2 12 3 13REMARK SMILES IDX 24 14 4 15 23 16 25 17 1 18 11 20 12 21 17 22 14 23 16 24REMARK SMILES IDX 15 25 13 26 18 27REMARK H PARENT 20 10 1 19USER                              x       y       z     vdW  Elec       q    TypeUSER                           _______ _______ _______ _____ _____    ______ ____ROOTATOM      1  C   UNL     1      38.797  46.293  16.474 -0.39 -0.01    +0.039 A  ATOM      2  C   UNL     1      38.109  45.604  17.484 -0.36 -0.01    +0.027 A  ATOM      3  C   UNL     1      38.705  45.272  18.714 -0.39 -0.00    +0.015 A  ATOM      4  C   UNL     1      40.043  45.634  18.946 -0.43 -0.00    +0.028 A  ATOM      5  C   UNL     1      40.989  45.487  20.008 -0.33 +0.01    +0.106 A  ATOM      6  N   UNL     1      42.172  46.033  19.677 -0.29 -0.03    -0.174 NA ATOM      7  N   UNL     1      41.984  46.498  18.432 -0.31 -0.01    -0.277 N  ATOM      8  C   UNL     1      40.725  46.301  17.941 -0.45 -0.00    +0.068 A  ATOM      9  C   UNL     1      40.142  46.640  16.712 -0.44 -0.01    +0.054 A  ATOM     10  H   UNL     1      42.764  46.947  17.968 -0.44 -0.02    +0.190 HD ENDROOTBRANCH   1  11ATOM     11  N   UNL     1      38.207  46.628  15.239 -0.13 +0.14    -0.368 N  ATOM     12  C   UNL     1      37.334  47.329  12.727 -0.53 -0.04    +0.152 C  ATOM     13  C   UNL     1      37.324  48.436  13.766 -0.58 -0.03    +0.056 C  ATOM     14  C   UNL     1      36.740  46.047  13.308 -0.41 -0.09    +0.214 C  ATOM     15  C   UNL     1      38.243  48.072  14.930 -0.50 -0.06    +0.119 C  ATOM     16  C   UNL     1      37.005  45.890  14.810 -0.34 -0.07    +0.157 C  ATOM     17  F   UNL     1      37.286  44.992  12.628 -0.11 +0.07    -0.243 F  BRANCH  12  18ATOM     18  O   UNL     1      36.576  47.754  11.588 -0.72 +0.17    -0.390 OA ATOM     19  H   UNL     1      37.217  48.116  10.949 -0.26 -0.06    +0.211 HD ENDBRANCH  12  18ENDBRANCH   1  11BRANCH   5  20ATOM     20  C   UNL     1      40.792  44.856  21.302 -0.27 +0.01    +0.074 A  ATOM     21  C   UNL     1      41.634  43.831  21.740 -0.25 +0.01    +0.135 A  ATOM     22  C   UNL     1      39.753  45.256  22.146 -0.22 +0.01    +0.135 A  ATOM     23  C   UNL     1      41.450  43.226  22.985 -0.26 +0.00    +0.040 A  ATOM     24  C   UNL     1      39.559  44.660  23.393 -0.19 +0.00    +0.040 A  ATOM     25  C   UNL     1      40.411  43.642  23.816 -0.20 +0.00    +0.006 A  ATOM     26  F   UNL     1      42.630  43.376  20.964 -0.02 -0.04    -0.206 F  ATOM     27  F   UNL     1      38.912  46.236  21.781 -0.09 -0.02    -0.206 F  ENDBRANCH   5  20TORSDOF 3TERENDMDL