REMARK SMILES O[C@H]1CCN(c2ccc3c(-c4c(F)cccc4F)n[nH]c3c2)C[C@@H]1F
REMARK SMILES IDX 6 1 7 2 8 3 9 4 10 5 19 6 20 7 21 8 22 9 5 11 2 12 3 13
REMARK SMILES IDX 24 14 4 15 23 16 25 17 1 18 11 20 12 21 17 22 14 23 16 24
REMARK SMILES IDX 15 25 13 26 18 27
REMARK H PARENT 20 10 1 19
ROOT
ATOM      1  C   UNL     1      -1.127  -0.059   0.176  1.00  0.00     0.039 A 
ATOM      2  C   UNL     1      -0.189   0.984   0.119  1.00  0.00     0.027 A 
ATOM      3  C   UNL     1       1.196   0.752   0.047  1.00  0.00     0.015 A 
ATOM      4  C   UNL     1       1.669  -0.571   0.038  1.00  0.00     0.028 A 
ATOM      5  C   UNL     1       2.943  -1.218  -0.014  1.00  0.00     0.106 A 
ATOM      6  N   UNL     1       2.806  -2.554   0.018  1.00  0.00    -0.174 NA
ATOM      7  N   UNL     1       1.481  -2.748   0.106  1.00  0.00    -0.277 N 
ATOM      8  C   UNL     1       0.742  -1.599   0.110  1.00  0.00     0.068 A 
ATOM      9  C   UNL     1      -0.641  -1.382   0.180  1.00  0.00     0.054 A 
ATOM     10  H   UNL     1       1.140  -3.700   0.159  1.00  0.00     0.190 HD
ENDROOT
BRANCH   1  11
ATOM     11  N   UNL     1      -2.516   0.166   0.250  1.00  0.00    -0.368 N 
ATOM     12  C   UNL     1      -5.250   0.323   0.500  1.00  0.00     0.152 C 
ATOM     13  C   UNL     1      -4.730  -0.044  -0.878  1.00  0.00     0.056 C 
ATOM     14  C   UNL     1      -4.457   1.496   1.075  1.00  0.00     0.214 C 
ATOM     15  C   UNL     1      -3.294  -0.554  -0.779  1.00  0.00     0.119 C 
ATOM     16  C   UNL     1      -2.993   1.511   0.619  1.00  0.00     0.157 C 
ATOM     17  F   UNL     1      -4.517   1.408   2.439  1.00  0.00    -0.243 F 
BRANCH  12  18
ATOM     18  O   UNL     1      -6.637   0.667   0.397  1.00  0.00    -0.390 OA
ATOM     19  H   UNL     1      -6.948   0.833   1.306  1.00  0.00     0.211 HD
ENDBRANCH  12  18
ENDBRANCH   1  11
BRANCH   5  20
ATOM     20  C   UNL     1       4.257  -0.602  -0.097  1.00  0.00     0.074 A 
ATOM     21  C   UNL     1       5.253  -0.901   0.836  1.00  0.00     0.135 A 
ATOM     22  C   UNL     1       4.562   0.307  -1.113  1.00  0.00     0.135 A 
ATOM     23  C   UNL     1       6.518  -0.314   0.756  1.00  0.00     0.040 A 
ATOM     24  C   UNL     1       5.823   0.899  -1.204  1.00  0.00     0.040 A 
ATOM     25  C   UNL     1       6.806   0.587  -0.267  1.00  0.00     0.006 A 
ATOM     26  F   UNL     1       5.015  -1.739   1.856  1.00  0.00    -0.206 F 
ATOM     27  F   UNL     1       3.647   0.633  -2.039  1.00  0.00    -0.206 F 
ENDBRANCH   5  20
TORSDOF 3
