MODEL        2USER    Run = 2USERUSER    Estimated Free Energy of Binding    = -10.67 kcal/mol  [=(1)+(2)+(3)-(4)]USERUSER    (1) Final Intermolecular Energy     = -13.06 kcal/molUSER        vdW + Hbond + desolv Energy     = -12.99 kcal/molUSER        Electrostatic Energy            =  -0.06 kcal/molUSER        Moving Ligand-Fixed Receptor    = -13.06 kcal/molUSER        Moving Ligand-Moving Receptor   =  +0.00 kcal/molUSER    (2) Final Total Internal Energy     =  -1.53 kcal/molUSER    (3) Torsional Free Energy           =  +2.39 kcal/molUSER    (4) Unbound System's Energy         =  -1.53 kcal/molUSERUSERREMARK SMILES COc1ccc(O)c(C(=O)c2ccc(CN3CC[C@H](n4c(O)nc5ccccc54)C[C@H]3C)cc2)c1FREMARK SMILES IDX 11 1 12 2 13 3 14 4 33 5 34 6 9 7 10 8 8 9 3 10 4 11 35 12REMARK SMILES IDX 5 13 6 14 36 15 2 16 1 17 7 18 15 20 16 21 17 22 31 23 18 24REMARK SMILES IDX 30 25 19 26 32 27 20 28 21 29 29 30 23 31 28 32 24 33 27 34REMARK SMILES IDX 25 35 26 36 22 37REMARK H PARENT 7 19 22 38USER                              x       y       z     vdW  Elec       q    TypeUSER                           _______ _______ _______ _____ _____    ______ ____ROOTATOM      1  C   UNL     1      38.079  43.386  24.566 -0.27 +0.00    +0.023 A  ATOM      2  C   UNL     1      37.324  43.511  23.395 -0.35 +0.00    +0.012 A  ATOM      3  C   UNL     1      37.784  44.321  22.353 -0.36 +0.00    +0.006 A  ATOM      4  C   UNL     1      38.989  45.030  22.475 -0.29 -0.00    -0.034 A  ATOM      5  C   UNL     1      39.735  44.897  23.658 -0.19 +0.00    +0.006 A  ATOM      6  C   UNL     1      39.275  44.094  24.704 -0.17 +0.00    +0.012 A  ENDROOTBRANCH   1   7ATOM      7  C   UNL     1      37.613  42.556  25.699 -0.25 -0.01    +0.199 C  ATOM      8  O   UNL     1      38.114  41.444  25.874 -0.22 +0.01    -0.288 OA BRANCH   7   9ATOM      9  C   UNL     1      36.604  43.021  26.675 -0.33 -0.02    +0.104 A  ATOM     10  C   UNL     1      35.654  44.743  28.117 -0.36 -0.04    +0.155 A  ATOM     11  C   UNL     1      34.662  43.848  28.527 -0.57 -0.01    +0.053 A  ATOM     12  C   UNL     1      36.617  44.318  27.191 -0.29 -0.03    +0.179 A  ATOM     13  C   UNL     1      34.623  42.556  27.997 -0.39 -0.02    +0.051 A  ATOM     14  C   UNL     1      35.577  42.154  27.067 -0.45 -0.03    +0.130 A  ATOM     15  F   UNL     1      37.545  45.198  26.777 -0.07 +0.02    -0.202 F  BRANCH  10  16ATOM     16  O   UNL     1      35.785  46.034  28.552 -0.20 +0.13    -0.494 OA ATOM     17  C   UNL     1      34.655  46.627  29.181 -0.31 -0.06    +0.278 C  ENDBRANCH  10  16BRANCH  14  18ATOM     18  O   UNL     1      35.447  40.883  26.572 -0.23 +0.22    -0.507 OA ATOM     19  H   UNL     1      36.351  40.504  26.477 -0.28 -0.15    +0.293 HD ENDBRANCH  14  18ENDBRANCH   7   9ENDBRANCH   1   7BRANCH   4  20ATOM     20  C   UNL     1      39.507  45.852  21.311 -0.21 +0.01    +0.120 C  BRANCH  20  21ATOM     21  N   UNL     1      40.112  45.058  20.228 -0.19 -0.01    -0.296 NA ATOM     22  C   UNL     1      39.105  44.534  19.286 -0.37 -0.00    +0.087 C  ATOM     23  C   UNL     1      41.250  45.680  19.525 -0.45 +0.00    +0.056 C  ATOM     24  C   UNL     1      39.164  45.117  17.870 -0.42 -0.01    +0.041 C  ATOM     25  C   UNL     1      40.825  46.869  18.642 -0.46 -0.00    +0.044 C  ATOM     26  C   UNL     1      39.489  46.610  17.926 -0.41 -0.02    +0.095 C  ATOM     27  C   UNL     1      42.424  46.084  20.422 -0.34 +0.01    +0.024 C  BRANCH  26  28ATOM     28  N   UNL     1      39.414  47.264  16.628 -0.26 +0.09    -0.291 N  ATOM     29  C   UNL     1      40.332  48.125  16.094 -0.31 -0.07    +0.295 A  ATOM     30  C   UNL     1      38.396  47.141  15.704 -0.38 -0.03    +0.072 A  ATOM     31  N   UNL     1      40.009  48.556  14.907 -0.39 +0.06    -0.195 NA ATOM     32  C   UNL     1      37.192  46.425  15.681 -0.36 -0.02    +0.029 A  ATOM     33  C   UNL     1      38.801  47.956  14.644 -0.45 -0.04    +0.092 A  ATOM     34  C   UNL     1      36.392  46.553  14.539 -0.43 -0.00    +0.002 A  ATOM     35  C   UNL     1      37.985  48.067  13.507 -0.42 -0.01    +0.031 A  ATOM     36  C   UNL     1      36.779  47.358  13.468 -0.57 -0.00    +0.002 A  BRANCH  29  37ATOM     37  O   UNL     1      41.441  48.509  16.692 -0.71 +0.01    -0.480 OA ATOM     38  H   UNL     1      42.018  47.740  16.530 -0.30 -0.04    +0.296 HD ENDBRANCH  29  37ENDBRANCH  26  28ENDBRANCH  20  21ENDBRANCH   4  20TORSDOF 8TERENDMDL