REMARK SMILES COc1ccc(O)c(C(=O)c2ccc(CN3CC[C@H](n4c(O)nc5ccccc54)C[C@H]3C)cc2)c1F
REMARK SMILES IDX 11 1 12 2 13 3 14 4 33 5 34 6 9 7 10 8 8 9 3 10 4 11 35 12
REMARK SMILES IDX 5 13 6 14 36 15 2 16 1 17 7 18 15 20 16 21 17 22 31 23 18 24
REMARK SMILES IDX 30 25 19 26 32 27 20 28 21 29 29 30 23 31 28 32 24 33 27 34
REMARK SMILES IDX 25 35 26 36 22 37
REMARK H PARENT 7 19 22 38
ROOT
ATOM      1  C   UNL     1       3.481   0.580   1.196  1.00  0.00     0.023 A 
ATOM      2  C   UNL     1       2.833  -0.528   0.640  1.00  0.00     0.012 A 
ATOM      3  C   UNL     1       1.536  -0.396   0.136  1.00  0.00     0.006 A 
ATOM      4  C   UNL     1       0.865   0.835   0.199  1.00  0.00    -0.034 A 
ATOM      5  C   UNL     1       1.527   1.938   0.763  1.00  0.00     0.006 A 
ATOM      6  C   UNL     1       2.820   1.808   1.274  1.00  0.00     0.012 A 
ENDROOT
BRANCH   1   7
ATOM      7  C   UNL     1       4.845   0.473   1.760  1.00  0.00     0.199 C 
ATOM      8  O   UNL     1       5.095   1.024   2.833  1.00  0.00    -0.288 OA
BRANCH   7   9
ATOM      9  C   UNL     1       5.920  -0.316   1.120  1.00  0.00     0.104 A 
ATOM     10  C   UNL     1       7.042  -1.196  -0.858  1.00  0.00     0.155 A 
ATOM     11  C   UNL     1       7.982  -1.829  -0.040  1.00  0.00     0.053 A 
ATOM     12  C   UNL     1       6.018  -0.442  -0.267  1.00  0.00     0.179 A 
ATOM     13  C   UNL     1       7.909  -1.687   1.348  1.00  0.00     0.051 A 
ATOM     14  C   UNL     1       6.895  -0.923   1.920  1.00  0.00     0.130 A 
ATOM     15  F   UNL     1       5.142   0.191  -1.065  1.00  0.00    -0.202 F 
BRANCH  10  16
ATOM     16  O   UNL     1       7.020  -1.248  -2.226  1.00  0.00    -0.494 OA
ATOM     17  C   UNL     1       8.118  -1.882  -2.871  1.00  0.00     0.278 C 
ENDBRANCH  10  16
BRANCH  14  18
ATOM     18  O   UNL     1       6.916  -0.808   3.285  1.00  0.00    -0.507 OA
ATOM     19  H   UNL     1       6.302  -0.079   3.534  1.00  0.00     0.293 HD
ENDBRANCH  14  18
ENDBRANCH   7   9
ENDBRANCH   1   7
BRANCH   4  20
ATOM     20  C   UNL     1      -0.516   0.978  -0.411  1.00  0.00     0.120 C 
BRANCH  20  21
ATOM     21  N   UNL     1      -1.435   1.832   0.361  1.00  0.00    -0.296 NA
ATOM     22  C   UNL     1      -2.334   2.616  -0.506  1.00  0.00     0.087 C 
ATOM     23  C   UNL     1      -2.168   1.170   1.458  1.00  0.00     0.056 C 
ATOM     24  C   UNL     1      -3.818   2.241  -0.424  1.00  0.00     0.041 C 
ATOM     25  C   UNL     1      -3.241   0.189   0.948  1.00  0.00     0.044 C 
ATOM     26  C   UNL     1      -3.974   0.725  -0.293  1.00  0.00     0.095 C 
ATOM     27  C   UNL     1      -1.287   0.488   2.508  1.00  0.00     0.024 C 
BRANCH  26  28
ATOM     28  N   UNL     1      -5.358   0.281  -0.361  1.00  0.00    -0.291 N 
ATOM     29  C   UNL     1      -6.381   0.670   0.458  1.00  0.00     0.295 A 
ATOM     30  C   UNL     1      -5.887  -0.623  -1.260  1.00  0.00     0.072 A 
ATOM     31  N   UNL     1      -7.522   0.114   0.162  1.00  0.00    -0.195 NA
ATOM     32  C   UNL     1      -5.345  -1.366  -2.317  1.00  0.00     0.029 A 
ATOM     33  C   UNL     1      -7.237  -0.700  -0.908  1.00  0.00     0.092 A 
ATOM     34  C   UNL     1      -6.216  -2.204  -3.024  1.00  0.00     0.002 A 
ATOM     35  C   UNL     1      -8.093  -1.544  -1.632  1.00  0.00     0.031 A 
ATOM     36  C   UNL     1      -7.568  -2.293  -2.691  1.00  0.00     0.002 A 
BRANCH  29  37
ATOM     37  O   UNL     1      -6.262   1.516   1.461  1.00  0.00    -0.480 OA
ATOM     38  H   UNL     1      -7.180   1.551   1.788  1.00  0.00     0.296 HD
ENDBRANCH  29  37
ENDBRANCH  26  28
ENDBRANCH  20  21
ENDBRANCH   4  20
TORSDOF 8
