MODEL        7USER    Run = 7USERUSER    Estimated Free Energy of Binding    =  -8.58 kcal/mol  [=(1)+(2)+(3)-(4)]USERUSER    (1) Final Intermolecular Energy     = -10.67 kcal/molUSER        vdW + Hbond + desolv Energy     = -10.54 kcal/molUSER        Electrostatic Energy            =  -0.13 kcal/molUSER        Moving Ligand-Fixed Receptor    = -10.67 kcal/molUSER        Moving Ligand-Moving Receptor   =  +0.00 kcal/molUSER    (2) Final Total Internal Energy     =  -2.26 kcal/molUSER    (3) Torsional Free Energy           =  +2.09 kcal/molUSER    (4) Unbound System's Energy         =  -2.26 kcal/molUSERUSERREMARK SMILES CC(=O)NCc1c(C(F)(F)F)ccc(-c2nnc(N)nc2-c2ccccc2Cl)c1OREMARK SMILES IDX 6 1 7 2 12 3 13 4 14 5 29 6 5 7 4 8 2 9 1 10 3 11 8 13 9 14REMARK SMILES IDX 10 15 11 16 30 17 15 19 16 20 21 21 17 22 20 23 18 24 22 25REMARK SMILES IDX 23 26 27 27 24 28 26 29 25 30 28 31 19 32REMARK H PARENT 4 12 30 18 19 33 19 34USER                              x       y       z     vdW  Elec       q    TypeUSER                           _______ _______ _______ _____ _____    ______ ____ROOTATOM      1  C   UNL     1      40.647  45.875  19.476 -0.42 +0.00    +0.026 A  ATOM      2  C   UNL     1      39.309  45.406  19.499 -0.36 -0.00    +0.064 A  ATOM      3  C   UNL     1      38.420  45.823  18.494 -0.31 -0.00    +0.014 A  ATOM      4  C   UNL     1      38.838  46.685  17.480 -0.36 -0.00    +0.015 A  ATOM      5  C   UNL     1      40.156  47.159  17.429 -0.45 -0.01    +0.047 A  ATOM      6  C   UNL     1      41.053  46.712  18.415 -0.42 -0.01    +0.130 A  ENDROOTBRANCH   1   7ATOM      7  C   UNL     1      41.625  45.475  20.560 -0.31 +0.02    +0.156 C  BRANCH   7   8ATOM      8  N   UNL     1      42.323  46.626  21.088 -0.16 -0.07    -0.352 N  ATOM      9  C   UNL     1      42.184  47.009  22.399 -0.21 +0.03    +0.217 C  ATOM     10  C   UNL     1      42.932  48.256  22.778 -0.33 +0.02    +0.114 C  ATOM     11  O   UNL     1      41.497  46.381  23.202 -0.11 -0.03    -0.275 OA ATOM     12  H   UNL     1      42.741  47.269  20.424 +0.04 +0.03    +0.163 HD ENDBRANCH   7   8ENDBRANCH   1   7BRANCH   2  13ATOM     13  C   UNL     1      38.807  44.480  20.585 -0.14 +0.00    +0.416 C  ATOM     14  F   UNL     1      38.357  45.155  21.677 -0.13 -0.01    -0.166 F  ATOM     15  F   UNL     1      37.778  43.679  20.194 -0.10 +0.01    -0.166 F  ATOM     16  F   UNL     1      39.773  43.633  21.045 -0.02 -0.01    -0.166 F  ENDBRANCH   2  13BRANCH   6  17ATOM     17  O   UNL     1      42.363  47.107  18.305 -0.21 +0.01    -0.507 OA ATOM     18  H   UNL     1      42.526  47.437  17.390 -0.37 -0.08    +0.293 HD ENDBRANCH   6  17BRANCH   5  19ATOM     19  C   UNL     1      40.561  48.066  16.348 -0.46 -0.02    +0.123 A  ATOM     20  N   UNL     1      41.618  48.859  16.626 -0.95 -0.01    -0.144 NA ATOM     21  C   UNL     1      39.967  48.153  15.090 -0.47 -0.03    +0.104 A  ATOM     22  N   UNL     1      42.058  49.737  15.678 -0.70 -0.02    -0.111 NA ATOM     23  N   UNL     1      40.392  49.042  14.152 -0.32 +0.06    -0.209 NA ATOM     24  C   UNL     1      41.440  49.798  14.485 -0.45 -0.05    +0.240 A  BRANCH  21  25ATOM     25  C   UNL     1      38.857  47.301  14.635 -0.46 -0.01    +0.021 A  ATOM     26  C   UNL     1      39.113  45.953  14.317 -0.34 -0.00    +0.012 A  ATOM     27  C   UNL     1      37.532  47.760  14.522 -0.47 -0.03    +0.050 A  ATOM     28  C   UNL     1      38.096  45.104  13.875 -0.23 -0.00    +0.001 A  ATOM     29  C   UNL     1      36.512  46.907  14.080 -0.46 -0.01    +0.021 A  ATOM     30  C   UNL     1      36.795  45.581  13.754 -0.45 -0.00    +0.002 A  ATOM     31  Cl  UNL     1      37.079  49.376  14.946 -0.31 +0.09    -0.084 Cl ENDBRANCH  21  25BRANCH  24  32ATOM     32  N   UNL     1      41.874  50.719  13.548 -0.26 +0.12    -0.366 N  ATOM     33  H   UNL     1      42.884  50.735  13.529 +0.05 -0.05    +0.159 HD ATOM     34  H   UNL     1      41.393  50.584  12.670 +0.10 -0.07    +0.159 HD ENDBRANCH  24  32ENDBRANCH   5  19TORSDOF 7TERENDMDL