REMARK SMILES CC(=O)NCc1c(C(F)(F)F)ccc(-c2nnc(N)nc2-c2ccccc2Cl)c1O
REMARK SMILES IDX 6 1 7 2 12 3 13 4 14 5 29 6 5 7 4 8 2 9 1 10 3 11 8 13 9 14
REMARK SMILES IDX 10 15 11 16 30 17 15 19 16 20 21 21 17 22 20 23 18 24 22 25
REMARK SMILES IDX 23 26 27 27 24 28 26 29 25 30 28 31 19 32
REMARK H PARENT 4 12 30 18 19 33 19 34
ROOT
ATOM      1  C   UNL     1       1.540   0.877   0.359  1.00  0.00     0.026 A 
ATOM      2  C   UNL     1       1.818   1.191   1.713  1.00  0.00     0.064 A 
ATOM      3  C   UNL     1       1.052   0.592   2.727  1.00  0.00     0.014 A 
ATOM      4  C   UNL     1       0.029  -0.304   2.417  1.00  0.00     0.015 A 
ATOM      5  C   UNL     1      -0.264  -0.638   1.087  1.00  0.00     0.047 A 
ATOM      6  C   UNL     1       0.528  -0.065   0.077  1.00  0.00     0.130 A 
ENDROOT
BRANCH   1   7
ATOM      7  C   UNL     1       2.321   1.528  -0.762  1.00  0.00     0.156 C 
BRANCH   7   8
ATOM      8  N   UNL     1       3.588   0.865  -0.973  1.00  0.00    -0.352 N 
ATOM      9  C   UNL     1       3.684  -0.269  -1.741  1.00  0.00     0.217 C 
ATOM     10  C   UNL     1       5.061  -0.868  -1.818  1.00  0.00     0.114 C 
ATOM     11  O   UNL     1       2.717  -0.760  -2.319  1.00  0.00    -0.275 OA
ATOM     12  H   UNL     1       4.362   1.124  -0.371  1.00  0.00     0.163 HD
ENDBRANCH   7   8
ENDBRANCH   1   7
BRANCH   2  13
ATOM     13  C   UNL     1       2.909   2.167   2.098  1.00  0.00     0.416 C 
ATOM     14  F   UNL     1       2.619   3.443   1.728  1.00  0.00    -0.166 F 
ATOM     15  F   UNL     1       3.159   2.215   3.435  1.00  0.00    -0.166 F 
ATOM     16  F   UNL     1       4.108   1.875   1.514  1.00  0.00    -0.166 F 
ENDBRANCH   2  13
BRANCH   6  17
ATOM     17  O   UNL     1       0.295  -0.468  -1.214  1.00  0.00    -0.507 OA
ATOM     18  H   UNL     1       1.157  -0.609  -1.671  1.00  0.00     0.293 HD
ENDBRANCH   6  17
BRANCH   5  19
ATOM     19  C   UNL     1      -1.348  -1.585   0.798  1.00  0.00     0.123 A 
ATOM     20  N   UNL     1      -1.186  -2.822   1.316  1.00  0.00    -0.144 NA
ATOM     21  C   UNL     1      -2.503  -1.307   0.069  1.00  0.00     0.104 A 
ATOM     22  N   UNL     1      -2.144  -3.768   1.091  1.00  0.00    -0.111 NA
ATOM     23  N   UNL     1      -3.449  -2.255  -0.173  1.00  0.00    -0.209 NA
ATOM     24  C   UNL     1      -3.233  -3.457   0.365  1.00  0.00     0.240 A 
BRANCH  21  25
ATOM     25  C   UNL     1      -2.835   0.013  -0.488  1.00  0.00     0.021 A 
ATOM     26  C   UNL     1      -2.784   0.202  -1.883  1.00  0.00     0.012 A 
ATOM     27  C   UNL     1      -3.229   1.106   0.306  1.00  0.00     0.050 A 
ATOM     28  C   UNL     1      -3.084   1.437  -2.462  1.00  0.00     0.001 A 
ATOM     29  C   UNL     1      -3.531   2.344  -0.276  1.00  0.00     0.021 A 
ATOM     30  C   UNL     1      -3.455   2.510  -1.658  1.00  0.00     0.002 A 
ATOM     31  Cl  UNL     1      -3.393   0.982   2.025  1.00  0.00    -0.084 Cl
ENDBRANCH  21  25
BRANCH  24  32
ATOM     32  N   UNL     1      -4.177  -4.437   0.114  1.00  0.00    -0.366 N 
ATOM     33  H   UNL     1      -4.694  -4.204  -0.723  1.00  0.00     0.159 HD
ATOM     34  H   UNL     1      -3.756  -5.354   0.162  1.00  0.00     0.159 HD
ENDBRANCH  24  32
ENDBRANCH   5  19
TORSDOF 7
