MODEL        8USER    Run = 8USERUSER    Estimated Free Energy of Binding    =  -9.15 kcal/mol  [=(1)+(2)+(3)-(4)]USERUSER    (1) Final Intermolecular Energy     = -11.24 kcal/molUSER        vdW + Hbond + desolv Energy     = -11.12 kcal/molUSER        Electrostatic Energy            =  -0.12 kcal/molUSER        Moving Ligand-Fixed Receptor    = -11.24 kcal/molUSER        Moving Ligand-Moving Receptor   =  +0.00 kcal/molUSER    (2) Final Total Internal Energy     =  -1.76 kcal/molUSER    (3) Torsional Free Energy           =  +2.09 kcal/molUSER    (4) Unbound System's Energy         =  -1.76 kcal/molUSERUSERREMARK SMILES Nc1ncnc2c1ncn2[C@H]1CC[C@@H](O)C[C@H]1NCc1cccc(C(F)(F)F)c1REMARK SMILES IDX 18 1 17 3 11 4 12 5 13 6 16 7 14 8 10 9 2 10 3 11 7 12 4 13REMARK SMILES IDX 6 14 8 15 5 16 9 17 1 18 15 21 19 23 20 24 21 25 29 26 22 27REMARK SMILES IDX 24 28 23 29 25 30 26 31 27 32 28 33REMARK H PARENT 18 2 1 19 1 20 15 22USER                              x       y       z     vdW  Elec       q    TypeUSER                           _______ _______ _______ _____ _____    ______ ____ROOTATOM      1  N   UNL     1      37.927  45.274  15.910 -0.14 +0.10    -0.308 NA ATOM      2  H   UNL     1      38.418  45.044  16.783 +0.08 -0.03    +0.123 HD ENDROOTBRANCH   1   3ATOM      3  C   UNL     1      37.411  46.656  15.948 -0.40 -0.04    +0.079 C  ATOM      4  C   UNL     1      38.352  47.691  15.267 -0.47 -0.05    +0.107 C  ATOM      5  C   UNL     1      38.578  47.404  13.769 -0.47 -0.01    +0.030 C  ATOM      6  C   UNL     1      37.354  46.772  13.092 -0.59 -0.01    +0.034 C  ATOM      7  C   UNL     1      36.027  46.673  15.261 -0.38 -0.05    +0.052 C  ATOM      8  C   UNL     1      36.056  47.140  13.802 -0.46 -0.08    +0.116 C  BRANCH   4   9ATOM      9  N   UNL     1      39.566  47.933  16.036 -0.26 +0.10    -0.310 N  ATOM     10  C   UNL     1      41.808  47.477  18.686 -0.34 -0.00    +0.155 A  ATOM     11  N   UNL     1      41.312  46.389  19.313 -0.31 -0.01    -0.217 NA ATOM     12  C   UNL     1      41.153  47.948  17.537 -0.36 -0.01    +0.150 A  ATOM     13  C   UNL     1      40.184  45.832  18.827 -0.30 -0.01    +0.226 A  ATOM     14  C   UNL     1      40.008  47.272  17.149 -0.36 -0.03    +0.165 A  ATOM     15  N   UNL     1      41.423  48.991  16.676 -0.95 -0.00    -0.231 NA ATOM     16  N   UNL     1      39.452  46.212  17.761 -0.30 +0.04    -0.217 NA ATOM     17  C   UNL     1      40.452  48.953  15.792 -0.43 -0.06    +0.202 A  BRANCH  10  18ATOM     18  N   UNL     1      42.953  48.069  19.205 -0.15 +0.00    -0.382 N  ATOM     19  H   UNL     1      42.958  48.115  20.219 -0.43 -0.01    +0.158 HD ATOM     20  H   UNL     1      43.216  48.900  18.696 -0.44 -0.01    +0.158 HD ENDBRANCH  10  18ENDBRANCH   4   9BRANCH   8  21ATOM     21  O   UNL     1      34.940  46.603  13.103 -0.30 +0.29    -0.393 OA ATOM     22  H   UNL     1      34.248  47.295  13.079 -0.29 -0.20    +0.210 HD ENDBRANCH   8  21ENDBRANCH   1   3BRANCH   1  23ATOM     23  C   UNL     1      36.873  44.269  15.714 -0.34 -0.04    +0.117 C  BRANCH  23  24ATOM     24  C   UNL     1      36.241  43.833  17.017 -0.32 +0.01    -0.034 A  ATOM     25  C   UNL     1      36.740  44.315  18.232 -0.33 -0.00    +0.005 A  ATOM     26  C   UNL     1      35.116  43.000  17.035 -0.39 -0.01    +0.018 A  ATOM     27  C   UNL     1      36.116  43.988  19.434 -0.39 -0.00    +0.001 A  ATOM     28  C   UNL     1      34.466  42.684  18.237 -0.35 -0.01    +0.056 A  ATOM     29  C   UNL     1      34.981  43.183  19.438 -0.41 -0.00    +0.013 A  BRANCH  28  30ATOM     30  C   UNL     1      33.233  41.821  18.220 -0.17 -0.09    +0.416 C  ATOM     31  F   UNL     1      33.407  40.622  17.601 -0.16 +0.08    -0.166 F  ATOM     32  F   UNL     1      32.773  41.535  19.471 -0.13 -0.02    -0.166 F  ATOM     33  F   UNL     1      32.196  42.424  17.576 -0.07 +0.05    -0.166 F  ENDBRANCH  28  30ENDBRANCH  23  24ENDBRANCH   1  23TORSDOF 7TERENDMDL