MODEL        6USER    Run = 6USERUSER    Estimated Free Energy of Binding    =  -9.69 kcal/mol  [=(1)+(2)+(3)-(4)]USERUSER    (1) Final Intermolecular Energy     = -11.48 kcal/molUSER        vdW + Hbond + desolv Energy     = -11.35 kcal/molUSER        Electrostatic Energy            =  -0.13 kcal/molUSER        Moving Ligand-Fixed Receptor    = -11.48 kcal/molUSER        Moving Ligand-Moving Receptor   =  +0.00 kcal/molUSER    (2) Final Total Internal Energy     =  -2.04 kcal/molUSER    (3) Torsional Free Energy           =  +1.79 kcal/molUSER    (4) Unbound System's Energy         =  -2.04 kcal/molUSERUSERREMARK SMILES COC1=c2cc[nH]c2=C(N2CC[C@H](Cc3ccc(C(=O)NO)cc3)C2=O)C[C@H]1CREMARK SMILES IDX 14 1 13 2 10 3 11 4 25 5 12 6 26 7 9 8 3 9 4 10 28 11 5 12REMARK SMILES IDX 8 13 27 14 6 15 7 16 29 17 2 19 1 20 15 21 16 22 24 23 17 24REMARK SMILES IDX 23 25 18 26 19 27 21 28 20 29 22 31REMARK H PARENT 7 18 21 30 22 32USER                              x       y       z     vdW  Elec       q    TypeUSER                           _______ _______ _______ _____ _____    ______ ____ROOTATOM      1  C   UNL     1      38.868  44.800  21.328 -0.37 +0.00    +0.049 C  ENDROOTBRANCH   1   2ATOM      2  C   UNL     1      38.259  44.378  19.988 -0.36 -0.00    +0.085 C  ATOM      3  N   UNL     1      37.654  45.242  17.866 -0.17 +0.08    -0.314 N  ATOM      4  C   UNL     1      36.527  44.487  18.380 -0.31 -0.03    +0.126 C  ATOM      5  C   UNL     1      38.718  45.199  18.796 -0.30 -0.02    +0.230 C  ATOM      6  C   UNL     1      36.746  44.441  19.880 -0.37 -0.00    +0.036 C  ATOM      7  O   UNL     1      39.858  45.632  18.686 -0.29 +0.02    -0.274 OA BRANCH   3   8ATOM      8  C   UNL     1      37.671  45.793  16.576 -0.40 -0.02    +0.046 C  ATOM      9  C   UNL     1      37.626  46.892  13.855 -0.46 -0.04    +0.108 C  ATOM     10  C   UNL     1      38.425  47.367  14.819 -0.45 -0.02    +0.039 A  ATOM     11  C   UNL     1      36.548  45.893  14.198 -0.44 -0.03    +0.058 C  ATOM     12  C   UNL     1      39.428  48.415  14.734 -0.51 -0.01    +0.031 A  ATOM     13  C   UNL     1      38.375  46.882  16.205 -0.37 -0.03    +0.069 A  ATOM     14  C   UNL     1      36.874  45.075  15.480 -0.37 -0.03    +0.067 C  ATOM     15  C   UNL     1      39.885  48.570  15.989 -0.47 -0.03    +0.083 A  ATOM     16  N   UNL     1      39.228  47.738  16.868 -0.17 +0.14    -0.360 N  ATOM     17  C   UNL     1      35.206  46.621  14.349 -0.40 -0.01    +0.016 C  ATOM     18  H   UNL     1      39.636  47.440  17.754 +0.09 -0.04    +0.166 HD BRANCH   9  19ATOM     19  O   UNL     1      37.641  47.374  12.560 -0.79 +0.09    -0.500 OA ATOM     20  C   UNL     1      36.888  46.522  11.699 -0.48 -0.10    +0.278 C  ENDBRANCH   9  19ENDBRANCH   3   8ENDBRANCH   1   2BRANCH   1  21ATOM     21  C   UNL     1      38.170  44.289  22.568 -0.31 -0.00    -0.047 A  ATOM     22  C   UNL     1      37.662  42.983  22.610 -0.38 +0.00    +0.004 A  ATOM     23  C   UNL     1      38.030  45.107  23.698 -0.30 +0.00    +0.004 A  ATOM     24  C   UNL     1      37.012  42.506  23.753 -0.41 +0.00    +0.014 A  ATOM     25  C   UNL     1      37.384  44.634  24.842 -0.32 +0.00    +0.014 A  ATOM     26  C   UNL     1      36.861  43.336  24.871 -0.34 +0.00    +0.042 A  BRANCH  26  27ATOM     27  C   UNL     1      36.180  42.874  26.109 -0.28 -0.03    +0.274 C  ATOM     28  N   UNL     1      35.328  43.773  26.717 -0.30 +0.04    -0.234 N  ATOM     29  O   UNL     1      36.403  41.766  26.592 -0.32 +0.06    -0.267 OA ATOM     30  H   UNL     1      35.440  44.773  26.585 -0.32 -0.08    +0.199 HD BRANCH  28  31ATOM     31  O   UNL     1      34.877  43.375  28.000 -0.44 +0.08    -0.288 OA ATOM     32  H   UNL     1      35.638  42.848  28.332 -0.21 -0.12    +0.246 HD ENDBRANCH  28  31ENDBRANCH  26  27ENDBRANCH   1  21TORSDOF 6TERENDMDL