MODEL        2USER    Run = 2USERUSER    Estimated Free Energy of Binding    = -10.01 kcal/mol  [=(1)+(2)+(3)-(4)]USERUSER    (1) Final Intermolecular Energy     = -12.10 kcal/molUSER        vdW + Hbond + desolv Energy     = -11.98 kcal/molUSER        Electrostatic Energy            =  -0.12 kcal/molUSER        Moving Ligand-Fixed Receptor    = -12.10 kcal/molUSER        Moving Ligand-Moving Receptor   =  +0.00 kcal/molUSER    (2) Final Total Internal Energy     =  -1.62 kcal/molUSER    (3) Torsional Free Energy           =  +2.09 kcal/molUSER    (4) Unbound System's Energy         =  -1.62 kcal/molUSERUSERREMARK SMILES Nc1ncnc2c1ncn2[C@H]1CC[C@@H](O)C[C@H]1NCc1ccc(-c2nnn[nH]2)cc1REMARK SMILES IDX 18 1 17 3 11 4 12 5 13 6 16 7 14 8 10 9 2 10 3 11 7 12 4 13REMARK SMILES IDX 6 14 8 15 5 16 9 17 1 18 15 21 19 23 20 24 21 25 30 26 22 27REMARK SMILES IDX 29 28 23 29 24 30 25 31 28 32 26 33 27 34REMARK H PARENT 18 2 1 19 1 20 15 22 28 35USER                              x       y       z     vdW  Elec       q    TypeUSER                           _______ _______ _______ _____ _____    ______ ____ROOTATOM      1  N   UNL     1      35.936  44.149  19.932 -0.20 +0.03    -0.308 NA ATOM      2  H   UNL     1      36.265  45.106  19.834 +0.06 -0.01    +0.123 HD ENDROOTBRANCH   1   3ATOM      3  C   UNL     1      37.075  43.209  20.059 -0.33 -0.00    +0.079 C  ATOM      4  C   UNL     1      38.301  43.849  20.773 -0.26 +0.00    +0.107 C  ATOM      5  C   UNL     1      37.948  44.335  22.195 -0.40 +0.00    +0.030 C  ATOM      6  C   UNL     1      36.924  43.445  22.901 -0.39 +0.00    +0.034 C  ATOM      7  C   UNL     1      36.611  41.965  20.841 -0.51 -0.00    +0.052 C  ATOM      8  C   UNL     1      36.902  42.021  22.348 -0.50 +0.01    +0.116 C  BRANCH   4   9ATOM      9  N   UNL     1      38.964  44.828  19.921 -0.19 +0.01    -0.310 N  ATOM     10  C   UNL     1      41.786  46.703  19.053 -0.40 +0.01    +0.155 A  ATOM     11  N   UNL     1      42.582  46.564  20.141 -0.29 -0.06    -0.217 NA ATOM     12  C   UNL     1      40.518  46.109  19.065 -0.34 -0.00    +0.150 A  ATOM     13  C   UNL     1      42.100  45.867  21.198 -0.19 +0.04    +0.226 A  ATOM     14  C   UNL     1      40.187  45.383  20.198 -0.28 +0.00    +0.165 A  ATOM     15  N   UNL     1      39.498  46.066  18.142 -0.29 +0.03    -0.231 NA ATOM     16  N   UNL     1      40.926  45.216  21.308 -0.18 -0.02    -0.217 NA ATOM     17  C   UNL     1      38.586  45.282  18.686 -0.26 -0.02    +0.202 A  BRANCH  10  18ATOM     18  N   UNL     1      42.292  47.386  17.968 -0.09 +0.03    -0.382 N  ATOM     19  H   UNL     1      41.755  47.340  17.124 -0.35 -0.03    +0.158 HD ATOM     20  H   UNL     1      43.298  47.460  17.913 -0.48 -0.01    +0.158 HD ENDBRANCH  10  18ENDBRANCH   4   9BRANCH   8  21ATOM     21  O   UNL     1      35.937  41.247  23.053 -0.28 -0.00    -0.393 OA ATOM     22  H   UNL     1      36.346  40.958  23.884 +0.03 -0.03    +0.210 HD ENDBRANCH   8  21ENDBRANCH   1   3BRANCH   1  23ATOM     23  C   UNL     1      35.096  43.872  18.761 -0.33 -0.03    +0.117 C  BRANCH  23  24ATOM     24  C   UNL     1      35.570  44.620  17.538 -0.29 +0.01    -0.034 A  ATOM     25  C   UNL     1      35.516  46.021  17.490 -0.37 -0.00    +0.006 A  ATOM     26  C   UNL     1      36.024  43.926  16.406 -0.37 -0.00    +0.006 A  ATOM     27  C   UNL     1      35.885  46.711  16.326 -0.31 -0.01    +0.012 A  ATOM     28  C   UNL     1      36.384  44.622  15.235 -0.37 -0.00    +0.012 A  ATOM     29  C   UNL     1      36.311  46.019  15.177 -0.36 -0.01    +0.021 A  BRANCH  29  30ATOM     30  C   UNL     1      36.659  46.718  13.944 -0.34 -0.10    +0.179 A  ATOM     31  N   UNL     1      37.856  47.054  13.495 -0.48 +0.03    -0.109 NA ATOM     32  N   UNL     1      35.755  47.120  12.999 -0.41 +0.15    -0.239 N  ATOM     33  N   UNL     1      37.664  47.679  12.301 -1.12 +0.00    -0.024 NA ATOM     34  N   UNL     1      36.371  47.742  11.996 -0.99 +0.02    -0.048 NA ATOM     35  H   UNL     1      34.747  46.987  12.963 -0.12 -0.16    +0.194 HD ENDBRANCH  29  30ENDBRANCH  23  24ENDBRANCH   1  23TORSDOF 7TERENDMDL