MODEL        9USER    Run = 9USERUSER    Estimated Free Energy of Binding    =  +1.04 kcal/mol  [=(1)+(2)+(3)-(4)]USERUSER    (1) Final Intermolecular Energy     =  -2.83 kcal/molUSER        vdW + Hbond + desolv Energy     =  -7.46 kcal/molUSER        Electrostatic Energy            =  -0.04 kcal/molUSER        Moving Ligand-Fixed Receptor    =  -7.50 kcal/molUSER        Moving Ligand-Moving Receptor   =  +4.67 kcal/molUSER    (2) Final Total Internal Energy     =  -0.29 kcal/molUSER    (3) Torsional Free Energy           =  +3.88 kcal/molUSER    (4) Unbound System's Energy         =  -0.29 kcal/molUSERUSERREMARK SMILES COC1=c2cc[nH]c2=C2C[C@@H](C)C(=NN=NN1)c1ccc(cc1)C[C@@H]1CCN2C1=OREMARK SMILES IDX 17 1 3 3 2 4 1 5 4 6 5 7 8 8 6 9 7 10 9 12 10 13 28 15 27 16REMARK SMILES IDX 29 17 26 18 25 19 30 20 16 22 15 23 14 24 13 25 11 26 12 27REMARK SMILES IDX 18 29 19 30 23 31 20 32 22 33 21 34 24 35REMARK H PARENT 17 2 7 11REMARK Flexibility Score:  160.800USER                              x       y       z     vdW  Elec       q    TypeUSER                           _______ _______ _______ _____ _____    ______ ____ROOTATOM      1  N   UNL     1      38.944  47.289  27.510 -0.10 +0.02    -0.226 N  ATOM      2  H   UNL     1      38.865  47.401  28.511 -0.39 -0.08    +0.195 HD ENDROOTBRANCH   1   3ATOM      3  C   UNL     1      40.168  47.618  26.965 -0.15 +0.01    +0.218 C  BRANCH   3   4ATOM      4  O   UNL     1      40.983  48.452  27.738 -0.17 -0.04    -0.481 OA ATOM      5  C   UNL     1      40.295  49.631  28.153 -0.20 +0.05    +0.280 C  ENDBRANCH   3   4BRANCH   3   6ATOM      6  C   UNL     1      40.662  47.175  25.790 -0.14 +0.00    +0.063 A  ATOM      7  C   UNL     1      41.019  48.142  24.734 -0.28 +0.00    +0.033 A  ATOM      8  C   UNL     1      41.274  45.890  25.387 -0.07 +0.00    +0.071 A  ATOM      9  C   UNL     1      42.021  47.575  24.044 -0.21 +0.01    +0.084 A  ATOM     10  N   UNL     1      42.300  46.311  24.520 +0.00 -0.03    -0.360 N  ATOM     11  H   UNL     1      42.665  45.610  23.885 +0.06 +0.02    +0.166 HD BRANCH   8  12ATOM     12  C   UNL     1      40.884  44.587  25.428 -0.10 +0.00    +0.046 C  BRANCH  12  13ATOM     13  C   UNL     1      39.692  43.942  26.165 -0.15 -0.00    +0.066 CG0ATOM     14  G   UNL     1      38.240  43.827  25.629 +0.00 +0.00    +0.000 G0 ENDBRANCH  12  13BRANCH  12  15ATOM     15  N   UNL     1      41.586  43.731  24.530 -0.05 -0.00    -0.314 N  ATOM     16  C   UNL     1      42.966  43.943  24.084 -0.11 +0.01    +0.126 C  ATOM     17  C   UNL     1      40.842  43.359  23.388 -0.17 +0.01    +0.230 C  ATOM     18  C   UNL     1      42.990  43.467  22.607 -0.31 +0.00    +0.036 C  ATOM     19  C   UNL     1      41.610  43.930  22.209 -0.28 +0.01    +0.085 CG1ATOM     20  O   UNL     1      39.802  42.724  23.382 -0.18 -0.02    -0.274 OA ATOM     21  G   UNL     1      40.937  43.781  20.839 +0.00 +0.00    +0.000 G1 ENDBRANCH  12  15ENDBRANCH   8  12ENDBRANCH   3   6ENDBRANCH   1   3BRANCH   1  22ATOM     22  N   UNL     1      38.186  46.298  26.979 -0.24 +0.00    -0.046 NA BRANCH  22  23ATOM     23  N   UNL     1      37.303  46.700  26.185 -0.45 +0.00    -0.025 NA BRANCH  23  24ATOM     24  N   UNL     1      36.870  45.863  25.156 -0.80 -0.02    -0.133 NA BRANCH  24  25ATOM     25  C   UNL     1      37.715  44.959  24.749 -0.31 +0.01    +0.075 C  BRANCH  25  26ATOM     26  C   UNL     1      38.239  43.806  25.653 -0.24 -0.00    +0.044 CG0ATOM     27  C   UNL     1      37.253  43.534  26.796 -0.37 -0.00    +0.015 C  ATOM     28  G   UNL     1      39.690  43.934  26.191 +0.00 +0.00    +0.000 G0 ENDBRANCH  25  26BRANCH  25  29ATOM     29  C   UNL     1      38.090  45.005  23.302 -0.31 -0.00    -0.002 A  ATOM     30  C   UNL     1      38.883  46.023  22.771 -0.32 +0.00    +0.010 A  ATOM     31  C   UNL     1      37.745  43.914  22.500 -0.36 +0.00    +0.010 A  ATOM     32  C   UNL     1      39.595  45.787  21.593 -0.27 +0.00    +0.004 A  ATOM     33  C   UNL     1      38.459  43.675  21.325 -0.28 +0.00    +0.004 A  ATOM     34  C   UNL     1      39.559  44.494  21.042 -0.29 -0.00    -0.047 A  BRANCH  34  35ATOM     35  C   UNL     1      40.927  43.779  20.841 -0.19 +0.00    +0.049 CG1ATOM     36  G   UNL     1      41.609  43.906  22.210 +0.00 +0.00    +0.000 G1 ENDBRANCH  34  35ENDBRANCH  25  29ENDBRANCH  24  25ENDBRANCH  23  24ENDBRANCH  22  23ENDBRANCH   1  22TORSDOF 1TERENDMDL