MODEL        8USER    Run = 8USERUSER    Estimated Free Energy of Binding    =  -9.09 kcal/mol  [=(1)+(2)+(3)-(4)]USERUSER    (1) Final Intermolecular Energy     = -11.18 kcal/molUSER        vdW + Hbond + desolv Energy     = -11.00 kcal/molUSER        Electrostatic Energy            =  -0.18 kcal/molUSER        Moving Ligand-Fixed Receptor    = -11.18 kcal/molUSER        Moving Ligand-Moving Receptor   =  +0.00 kcal/molUSER    (2) Final Total Internal Energy     =  -1.96 kcal/molUSER    (3) Torsional Free Energy           =  +2.09 kcal/molUSER    (4) Unbound System's Energy         =  -1.96 kcal/molUSERUSERREMARK SMILES Nc1ncnc2c1ncn2[C@H]1CC[C@@H](O)C[C@H]1NCc1ccc(C(F)(F)F)c(F)c1REMARK SMILES IDX 18 1 17 3 11 4 12 5 13 6 16 7 14 8 10 9 2 10 3 11 7 12 4 13REMARK SMILES IDX 6 14 8 15 5 16 9 17 1 18 15 21 19 23 20 24 21 25 30 26 22 27REMARK SMILES IDX 28 28 23 29 29 30 24 31 25 32 26 33 27 34REMARK H PARENT 18 2 1 19 1 20 15 22USER                              x       y       z     vdW  Elec       q    TypeUSER                           _______ _______ _______ _____ _____    ______ ____ROOTATOM      1  N   UNL     1      38.293  44.998  16.141 -0.08 +0.08    -0.308 NA ATOM      2  H   UNL     1      39.181  45.306  16.538 +0.08 -0.02    +0.123 HD ENDROOTBRANCH   1   3ATOM      3  C   UNL     1      37.626  46.118  15.449 -0.38 -0.03    +0.079 C  ATOM      4  C   UNL     1      37.930  47.481  16.151 -0.35 -0.06    +0.107 C  ATOM      5  C   UNL     1      37.366  48.696  15.393 -0.46 -0.03    +0.030 C  ATOM      6  C   UNL     1      37.593  48.670  13.886 -0.52 -0.02    +0.034 C  ATOM      7  C   UNL     1      37.886  46.152  13.935 -0.46 -0.02    +0.052 C  ATOM      8  C   UNL     1      37.197  47.339  13.263 -0.55 -0.04    +0.116 C  BRANCH   4   9ATOM      9  N   UNL     1      39.298  47.670  16.620 -0.24 +0.11    -0.310 N  ATOM     10  C   UNL     1      42.121  47.177  18.641 -0.42 +0.00    +0.155 A  ATOM     11  N   UNL     1      41.691  46.266  19.542 -0.30 -0.02    -0.217 NA ATOM     12  C   UNL     1      41.226  47.623  17.653 -0.39 -0.01    +0.150 A  ATOM     13  C   UNL     1      40.426  45.809  19.428 -0.28 +0.00    +0.226 A  ATOM     14  C   UNL     1      39.952  47.073  17.663 -0.31 -0.03    +0.165 A  ATOM     15  N   UNL     1      41.361  48.542  16.635 -0.82 +0.01    -0.231 NA ATOM     16  N   UNL     1      39.491  46.154  18.524 -0.29 +0.03    -0.217 NA ATOM     17  C   UNL     1      40.192  48.542  16.035 -0.40 -0.06    +0.202 A  BRANCH  10  18ATOM     18  N   UNL     1      43.425  47.644  18.752 -0.25 -0.05    -0.382 N  ATOM     19  H   UNL     1      43.456  48.594  19.098 -0.53 -0.03    +0.158 HD ATOM     20  H   UNL     1      43.996  47.420  17.944 -0.43 +0.02    +0.158 HD ENDBRANCH  10  18ENDBRANCH   4   9BRANCH   8  21ATOM     21  O   UNL     1      37.520  47.377  11.878 -0.93 +0.05    -0.393 OA ATOM     22  H   UNL     1      36.928  48.014  11.444 -0.14 -0.06    +0.210 HD ENDBRANCH   8  21ENDBRANCH   1   3BRANCH   1  23ATOM     23  C   UNL     1      37.503  44.377  17.201 -0.31 -0.03    +0.117 C  BRANCH  23  24ATOM     24  C   UNL     1      36.026  44.532  16.917 -0.30 +0.01    -0.031 A  ATOM     25  C   UNL     1      35.381  43.711  15.982 -0.38 -0.00    +0.006 A  ATOM     26  C   UNL     1      35.277  45.509  17.589 -0.33 -0.02    +0.045 A  ATOM     27  C   UNL     1      34.014  43.865  15.725 -0.22 -0.01    +0.016 A  ATOM     28  C   UNL     1      33.917  45.654  17.326 -0.26 -0.11    +0.135 A  ATOM     29  C   UNL     1      33.268  44.842  16.401 -0.26 -0.06    +0.091 A  ATOM     30  F   UNL     1      33.230  46.597  17.985 -0.11 +0.21    -0.206 F  BRANCH  29  31ATOM     31  C   UNL     1      31.804  45.038  16.156 -0.09 -0.19    +0.419 C  ATOM     32  F   UNL     1      31.486  46.320  15.824 -0.13 +0.11    -0.166 F  ATOM     33  F   UNL     1      31.320  44.251  15.157 -0.10 +0.10    -0.166 F  ATOM     34  F   UNL     1      31.040  44.747  17.249 -0.04 +0.01    -0.166 F  ENDBRANCH  29  31ENDBRANCH  23  24ENDBRANCH   1  23TORSDOF 7TERENDMDL