MODEL        6USER    Run = 6USERUSER    Estimated Free Energy of Binding    =  -8.45 kcal/mol  [=(1)+(2)+(3)-(4)]USERUSER    (1) Final Intermolecular Energy     = -10.84 kcal/molUSER        vdW + Hbond + desolv Energy     = -10.73 kcal/molUSER        Electrostatic Energy            =  -0.11 kcal/molUSER        Moving Ligand-Fixed Receptor    = -10.84 kcal/molUSER        Moving Ligand-Moving Receptor   =  +0.00 kcal/molUSER    (2) Final Total Internal Energy     =  -2.91 kcal/molUSER    (3) Torsional Free Energy           =  +2.39 kcal/molUSER    (4) Unbound System's Energy         =  -2.91 kcal/molUSERUSERREMARK SMILES COC(=O)c1ccc(CN[C@H]2C[C@H](O)CC[C@@H]2n2cnc3c(N)ncnc32)cc1REMARK SMILES IDX 9 1 8 2 5 3 6 4 29 5 7 6 28 7 3 8 4 9 2 10 1 11 10 12 11 14REMARK SMILES IDX 12 15 17 16 13 17 16 18 15 19 18 20 19 21 27 22 20 23 26 24REMARK SMILES IDX 21 25 25 26 22 27 24 28 23 29 14 32REMARK H PARENT 10 13 23 30 23 31 14 33USER                              x       y       z     vdW  Elec       q    TypeUSER                           _______ _______ _______ _____ _____    ______ ____ROOTATOM      1  C   UNL     1      36.885  45.114  13.973 -0.41 -0.04    +0.117 C  ENDROOTBRANCH   1   2ATOM      2  C   UNL     1      37.936  46.176  14.207 -0.41 +0.01    -0.034 A  ATOM      3  C   UNL     1      39.878  48.157  14.701 -0.48 -0.02    +0.060 A  ATOM      4  C   UNL     1      38.560  48.520  14.401 -0.48 -0.01    +0.016 A  ATOM      5  C   UNL     1      40.223  46.800  14.748 -0.35 -0.00    +0.016 A  ATOM      6  C   UNL     1      37.597  47.535  14.156 -0.51 -0.00    +0.006 A  ATOM      7  C   UNL     1      39.261  45.818  14.500 -0.32 -0.00    +0.006 A  BRANCH   3   8ATOM      8  C   UNL     1      40.939  49.162  14.984 -0.41 -0.07    +0.337 C  ATOM      9  O   UNL     1      41.509  49.257  16.060 -1.06 -0.01    -0.246 OA BRANCH   8  10ATOM     10  O   UNL     1      41.167  49.938  13.895 -0.27 +0.15    -0.465 OA ATOM     11  C   UNL     1      42.541  50.003  13.509 -0.50 -0.06    +0.282 C  ENDBRANCH   8  10ENDBRANCH   3   8ENDBRANCH   1   2BRANCH   1  12ATOM     12  N   UNL     1      36.928  44.018  14.950 -0.11 +0.10    -0.308 NA ATOM     13  H   UNL     1      37.881  43.981  15.312 +0.08 -0.03    +0.123 HD BRANCH  12  14ATOM     14  C   UNL     1      35.975  44.156  16.075 -0.37 -0.03    +0.079 C  ATOM     15  C   UNL     1      34.989  42.966  16.090 -0.44 -0.02    +0.052 C  ATOM     16  C   UNL     1      36.705  44.274  17.448 -0.31 -0.03    +0.107 C  ATOM     17  C   UNL     1      34.375  42.679  17.464 -0.37 -0.04    +0.116 C  ATOM     18  C   UNL     1      35.719  44.460  18.623 -0.39 -0.01    +0.030 C  ATOM     19  C   UNL     1      34.320  43.921  18.339 -0.37 -0.01    +0.034 C  BRANCH  16  20ATOM     20  N   UNL     1      37.739  45.302  17.475 -0.17 +0.08    -0.310 N  ATOM     21  C   UNL     1      37.564  46.617  17.125 -0.11 -0.09    +0.202 A  ATOM     22  C   UNL     1      39.033  45.158  17.897 -0.29 -0.02    +0.165 A  ATOM     23  N   UNL     1      38.662  47.323  17.299 -0.13 +0.09    -0.231 NA ATOM     24  N   UNL     1      39.636  44.044  18.345 -0.21 +0.01    -0.217 NA ATOM     25  C   UNL     1      39.591  46.420  17.775 -0.34 -0.03    +0.150 A  ATOM     26  C   UNL     1      40.912  44.299  18.701 -0.15 +0.01    +0.226 A  ATOM     27  C   UNL     1      40.935  46.555  18.159 -0.40 -0.01    +0.155 A  ATOM     28  N   UNL     1      41.581  45.470  18.642 -0.28 -0.02    -0.217 NA BRANCH  27  29ATOM     29  N   UNL     1      41.629  47.757  18.094 -0.27 +0.02    -0.382 N  ATOM     30  H   UNL     1      42.406  47.743  17.444 -0.42 -0.02    +0.158 HD ATOM     31  H   UNL     1      41.011  48.556  18.081 +0.10 -0.01    +0.158 HD ENDBRANCH  27  29ENDBRANCH  16  20BRANCH  17  32ATOM     32  O   UNL     1      33.070  42.135  17.306 -0.15 +0.16    -0.393 OA ATOM     33  H   UNL     1      33.017  41.712  16.432 -0.44 -0.16    +0.210 HD ENDBRANCH  17  32ENDBRANCH  12  14ENDBRANCH   1  12TORSDOF 8TERENDMDL