REMARK SMILES COC1=c2cc[nH]c2=C2C[C@@H](C)C(=NN=NN1)c1ccc(cc1)C[C@@H]1CCN2C1=O
REMARK SMILES IDX 17 1 3 3 2 4 1 5 4 6 5 7 8 8 6 9 7 10 9 12 10 13 28 15 27 16
REMARK SMILES IDX 29 17 26 18 25 19 30 20 16 22 15 23 14 24 13 25 11 26 12 27
REMARK SMILES IDX 18 29 19 30 23 31 20 32 22 33 21 34 24 35
REMARK H PARENT 17 2 7 11
REMARK Flexibility Score:  160.800
ROOT
ATOM      1  N   UNL     1       2.764   1.482   0.391  1.00  0.00    -0.226 N 
ATOM      2  H   UNL     1       1.850   1.298   0.781  1.00  0.00     0.195 HD
ENDROOT
BRANCH   1   3
ATOM      3  C   UNL     1       3.397   0.400  -0.185  1.00  0.00     0.218 C 
BRANCH   3   4
ATOM      4  O   UNL     1       4.736   0.587  -0.545  1.00  0.00    -0.481 OA
ATOM      5  C   UNL     1       5.541   0.950   0.576  1.00  0.00     0.280 C 
ENDBRANCH   3   4
BRANCH   3   6
ATOM      6  C   UNL     1       2.861  -0.823  -0.386  1.00  0.00     0.063 A 
ATOM      7  C   UNL     1       3.745  -1.991  -0.562  1.00  0.00     0.033 A 
ATOM      8  C   UNL     1       1.509  -1.371  -0.142  1.00  0.00     0.071 A 
ATOM      9  C   UNL     1       3.060  -3.042  -0.087  1.00  0.00     0.084 A 
ATOM     10  N   UNL     1       1.796  -2.669   0.321  1.00  0.00    -0.360 N 
ATOM     11  H   UNL     1       1.038  -3.340   0.270  1.00  0.00     0.166 HD
BRANCH   8  12
ATOM     12  C   UNL     1       0.251  -1.030  -0.531  1.00  0.00     0.046 C 
BRANCH  12  13
ATOM     13  C   UNL     1      -0.214   0.107  -1.464  1.00  0.00     0.066 CG0
ATOM     14  G   UNL     1       0.176   1.605  -1.345  1.00  0.00     0.000 G0
ENDBRANCH  12  13
BRANCH  12  15
ATOM     15  N   UNL     1      -0.759  -1.960  -0.148  1.00  0.00    -0.314 N 
ATOM     16  C   UNL     1      -1.740  -2.549  -1.064  1.00  0.00     0.126 C 
ATOM     17  C   UNL     1      -1.462  -1.599   1.023  1.00  0.00     0.230 C 
ATOM     18  C   UNL     1      -3.045  -2.672  -0.233  1.00  0.00     0.036 C 
ATOM     19  C   UNL     1      -2.902  -1.409   0.580  1.00  0.00     0.085 CG1
ATOM     20  O   UNL     1      -0.986  -1.464   2.136  1.00  0.00    -0.274 OA
ATOM     21  G   UNL     1      -3.865  -0.876   1.649  1.00  0.00     0.000 G1
ENDBRANCH  12  15
ENDBRANCH   8  12
ENDBRANCH   3   6
ENDBRANCH   1   3
BRANCH   1  22
ATOM     22  N   UNL     1       2.944   2.736  -0.091  1.00  0.00    -0.046 NA
BRANCH  22  23
ATOM     23  N   UNL     1       1.901   3.431  -0.107  1.00  0.00    -0.025 NA
BRANCH  23  24
ATOM     24  N   UNL     1       0.794   3.028   0.641  1.00  0.00    -0.133 NA
BRANCH  24  25
ATOM     25  C   UNL     1      -0.091   2.300   0.022  1.00  0.00     0.075 C 
BRANCH  25  26
ATOM     26  C   UNL     1       0.176   1.605  -1.345  1.00  0.00     0.044 CG0
ATOM     27  C   UNL     1      -0.437   2.424  -2.488  1.00  0.00     0.015 C 
ATOM     28  G   UNL     1      -0.214   0.107  -1.464  1.00  0.00     0.000 G0
ENDBRANCH  25  26
BRANCH  25  29
ATOM     29  C   UNL     1      -1.375   2.056   0.747  1.00  0.00    -0.002 A 
ATOM     30  C   UNL     1      -2.614   2.124   0.109  1.00  0.00     0.010 A 
ATOM     31  C   UNL     1      -1.308   1.610   2.070  1.00  0.00     0.010 A 
ATOM     32  C   UNL     1      -3.701   1.439   0.656  1.00  0.00     0.004 A 
ATOM     33  C   UNL     1      -2.392   0.922   2.616  1.00  0.00     0.004 A 
ATOM     34  C   UNL     1      -3.476   0.626   1.781  1.00  0.00    -0.047 A 
BRANCH  34  35
ATOM     35  C   UNL     1      -3.865  -0.876   1.649  1.00  0.00     0.049 CG1
ATOM     36  G   UNL     1      -2.902  -1.409   0.580  1.00  0.00     0.000 G1
ENDBRANCH  34  35
ENDBRANCH  25  29
ENDBRANCH  24  25
ENDBRANCH  23  24
ENDBRANCH  22  23
ENDBRANCH   1  22
TORSDOF 1
