MODEL        1USER    Run = 1USERUSER    Estimated Free Energy of Binding    =  -8.91 kcal/mol  [=(1)+(2)+(3)-(4)]USERUSER    (1) Final Intermolecular Energy     = -11.30 kcal/molUSER        vdW + Hbond + desolv Energy     = -11.17 kcal/molUSER        Electrostatic Energy            =  -0.13 kcal/molUSER        Moving Ligand-Fixed Receptor    = -11.30 kcal/molUSER        Moving Ligand-Moving Receptor   =  +0.00 kcal/molUSER    (2) Final Total Internal Energy     =  -3.21 kcal/molUSER    (3) Torsional Free Energy           =  +2.39 kcal/molUSER    (4) Unbound System's Energy         =  -3.21 kcal/molUSERUSERREMARK SMILES Nc1ncnc2c1ncn2[C@H]1CC[C@@H](O)C[C@H]1NCc1ccc(C(=O)NO)cc1REMARK SMILES IDX 18 1 17 3 11 4 12 5 13 6 16 7 14 8 10 9 2 10 3 11 7 12 4 13REMARK SMILES IDX 6 14 8 15 5 16 9 17 1 18 15 21 19 23 20 24 21 25 29 26 22 27REMARK SMILES IDX 28 28 23 29 24 30 26 31 25 32 27 34REMARK H PARENT 18 2 1 19 1 20 15 22 26 33 27 35USER                              x       y       z     vdW  Elec       q    TypeUSER                           _______ _______ _______ _____ _____    ______ ____ROOTATOM      1  N   UNL     1      37.421  45.962  16.980 -0.17 +0.12    -0.308 NA ATOM      2  H   UNL     1      38.056  46.148  17.765 +0.06 -0.04    +0.123 HD ENDROOTBRANCH   1   3ATOM      3  C   UNL     1      37.371  47.125  16.065 -0.39 -0.05    +0.079 C  ATOM      4  C   UNL     1      38.638  47.281  15.172 -0.45 -0.04    +0.107 C  ATOM      5  C   UNL     1      38.816  46.095  14.209 -0.43 -0.01    +0.030 C  ATOM      6  C   UNL     1      37.570  45.913  13.335 -0.47 -0.01    +0.034 C  ATOM      7  C   UNL     1      36.137  46.969  15.149 -0.37 -0.05    +0.052 C  ATOM      8  C   UNL     1      36.281  45.811  14.153 -0.40 -0.06    +0.116 C  BRANCH   4   9ATOM      9  N   UNL     1      39.823  47.622  15.949 -0.26 +0.08    -0.310 N  ATOM     10  C   UNL     1      42.123  47.259  18.561 -0.41 +0.00    +0.155 A  ATOM     11  N   UNL     1      41.839  46.031  19.045 -0.31 -0.02    -0.217 NA ATOM     12  C   UNL     1      41.405  47.731  17.451 -0.35 -0.01    +0.150 A  ATOM     13  C   UNL     1      40.850  45.326  18.455 -0.30 +0.00    +0.226 A  ATOM     14  C   UNL     1      40.405  46.907  16.961 -0.38 -0.02    +0.165 A  ATOM     15  N   UNL     1      41.474  48.905  16.735 -0.92 -0.01    -0.231 NA ATOM     16  N   UNL     1      40.059  45.694  17.426 -0.26 +0.02    -0.217 NA ATOM     17  C   UNL     1      40.513  48.806  15.842 -0.42 -0.05    +0.202 A  BRANCH  10  18ATOM     18  N   UNL     1      43.093  48.015  19.220 -0.08 -0.01    -0.382 N  ATOM     19  H   UNL     1      42.881  48.116  20.212 -0.40 -0.01    +0.158 HD ATOM     20  H   UNL     1      43.263  48.884  18.723 -0.48 -0.01    +0.158 HD ENDBRANCH  10  18ENDBRANCH   4   9BRANCH   8  21ATOM     21  O   UNL     1      36.255  44.559  14.834 -0.17 +0.16    -0.393 OA ATOM     22  H   UNL     1      37.022  44.549  15.447 +0.14 -0.07    +0.210 HD ENDBRANCH   8  21ENDBRANCH   1   3BRANCH   1  23ATOM     23  C   UNL     1      36.106  45.617  17.547 -0.32 -0.06    +0.117 C  BRANCH  23  24ATOM     24  C   UNL     1      36.216  44.704  18.748 -0.33 +0.01    -0.034 A  ATOM     25  C   UNL     1      35.147  43.864  19.095 -0.37 -0.00    +0.006 A  ATOM     26  C   UNL     1      37.395  44.647  19.505 -0.33 -0.00    +0.006 A  ATOM     27  C   UNL     1      35.267  42.952  20.147 -0.43 -0.00    +0.014 A  ATOM     28  C   UNL     1      37.516  43.740  20.561 -0.36 -0.00    +0.014 A  ATOM     29  C   UNL     1      36.462  42.873  20.868 -0.43 +0.00    +0.042 A  BRANCH  29  30ATOM     30  C   UNL     1      36.642  41.900  21.975 -0.40 +0.01    +0.274 C  ATOM     31  N   UNL     1      36.678  42.417  23.255 -0.31 -0.02    -0.234 N  ATOM     32  O   UNL     1      36.706  40.692  21.757 -0.47 -0.00    -0.267 OA ATOM     33  H   UNL     1      36.193  43.291  23.475 +0.12 +0.04    +0.199 HD BRANCH  31  34ATOM     34  O   UNL     1      36.635  41.427  24.274 -0.30 +0.02    -0.288 OA ATOM     35  H   UNL     1      36.121  40.711  23.837 -0.01 -0.05    +0.246 HD ENDBRANCH  31  34ENDBRANCH  29  30ENDBRANCH  23  24ENDBRANCH   1  23TORSDOF 8TERENDMDL