
     RDKit          3D

 43 45  0  0  0  0  0  0  0  0999 V2000
    0.9233   -1.0648    0.8079 C   0  0  0  0  0  0  0  0  0  0  0  0
    1.2502   -0.1550   -0.1183 C   0  0  0  0  0  0  0  0  0  0  0  0
    0.4753    0.2305   -1.2947 C   0  0  0  0  0  0  0  0  0  0  0  0
   -0.8548   -0.2200   -1.7546 C   0  0  0  0  0  0  0  0  0  0  0  0
   -1.1093   -0.3678   -2.9453 O   0  0  0  0  0  0  0  0  0  0  0  0
   -1.7813   -0.3755   -0.7562 N   0  0  0  0  0  0  0  0  0  0  0  0
   -3.1927   -0.5591   -1.0685 C   0  0  2  0  0  0  0  0  0  0  0  0
   -3.9150    0.7781   -1.3100 C   0  0  0  0  0  0  0  0  0  0  0  0
   -5.0860    0.9200   -1.6333 O   0  0  0  0  0  0  0  0  0  0  0  0
   -3.1507    1.8755   -1.1084 O   0  0  0  0  0  0  0  0  0  0  0  0
   -3.7755   -1.4534    0.0035 C   0  0  0  0  0  0  0  0  0  0  0  0
   -5.1277   -1.2631    0.6576 C   0  0  0  0  0  0  0  0  0  0  0  0
   -3.8743   -1.0683    1.4747 C   0  0  0  0  0  0  0  0  0  0  0  0
   -3.5103    0.2788    1.9987 C   0  0  0  0  0  0  0  0  0  0  0  0
   -2.1725    0.4523    1.8151 F   0  0  0  0  0  0  0  0  0  0  0  0
    1.2173    1.1137   -1.9859 C   0  0  0  0  0  0  0  0  0  0  0  0
    2.4549    1.3635   -1.2756 C   0  0  0  0  0  0  0  0  0  0  0  0
    2.4902    0.6135   -0.1583 C   0  0  0  0  0  0  0  0  0  0  0  0
    3.5899    0.6230    0.8240 C   0  0  0  0  0  0  0  0  0  0  0  0
    3.3543    1.5177    2.0306 C   0  0  0  0  0  0  0  0  0  0  0  0
    4.9014    0.8529    0.2175 N   0  0  0  0  0  0  0  0  0  0  0  0
    5.2538   -0.3336    0.5704 C   0  0  0  0  0  0  0  0  0  0  0  0
    6.4548   -1.1483    0.4619 C   0  0  0  0  0  0  0  0  0  0  0  0
    4.1346   -0.6494    1.2032 O   0  0  0  0  0  0  0  0  0  0  0  0
    1.5785   -1.2970    1.6412 H   0  0  0  0  0  0  0  0  0  0  0  0
   -0.0006   -1.6315    0.7606 H   0  0  0  0  0  0  0  0  0  0  0  0
   -1.5696    0.0455    0.1448 H   0  0  0  0  0  0  0  0  0  0  0  0
   -3.2585   -1.0935   -2.0248 H   0  0  0  0  0  0  0  0  0  0  0  0
   -3.7319    2.6196   -1.3681 H   0  0  0  0  0  0  0  0  0  0  0  0
   -3.4780   -2.4821   -0.1933 H   0  0  0  0  0  0  0  0  0  0  0  0
   -5.7335   -0.3977    0.4165 H   0  0  0  0  0  0  0  0  0  0  0  0
   -5.7218   -2.1531    0.8437 H   0  0  0  0  0  0  0  0  0  0  0  0
   -3.6026   -1.8396    2.1883 H   0  0  0  0  0  0  0  0  0  0  0  0
   -4.0327    1.0937    1.4913 H   0  0  0  0  0  0  0  0  0  0  0  0
   -3.7174    0.3487    3.0701 H   0  0  0  0  0  0  0  0  0  0  0  0
    0.9434    1.5830   -2.9191 H   0  0  0  0  0  0  0  0  0  0  0  0
    3.2179    2.0513   -1.6102 H   0  0  0  0  0  0  0  0  0  0  0  0
    4.2103    1.5059    2.7154 H   0  0  0  0  0  0  0  0  0  0  0  0
    2.4778    1.1901    2.6006 H   0  0  0  0  0  0  0  0  0  0  0  0
    3.1909    2.5581    1.7277 H   0  0  0  0  0  0  0  0  0  0  0  0
    6.1802   -2.1980    0.3317 H   0  0  0  0  0  0  0  0  0  0  0  0
    7.0538   -1.0389    1.3692 H   0  0  0  0  0  0  0  0  0  0  0  0
    7.0440   -0.8255   -0.4002 H   0  0  0  0  0  0  0  0  0  0  0  0
  1  2  2  0
  2  3  1  0
  3  4  1  0
  4  5  2  0
  4  6  1  0
  6  7  1  0
  7  8  1  0
  8  9  2  0
  8 10  1  0
  7 11  1  0
 11 12  1  0
 12 13  1  0
 13 14  1  0
 14 15  1  0
  3 16  2  0
 16 17  1  0
 17 18  2  0
 18 19  1  0
 19 20  1  0
 19 21  1  0
 21 22  2  0
 22 23  1  0
 22 24  1  0
 18  2  1  0
 24 19  1  0
 13 11  1  0
  1 25  1  0
  1 26  1  0
  6 27  1  0
  7 28  1  6
 10 29  1  0
 11 30  1  0
 12 31  1  0
 12 32  1  0
 13 33  1  0
 14 34  1  0
 14 35  1  0
 16 36  1  0
 17 37  1  0
 20 38  1  0
 20 39  1  0
 20 40  1  0
 23 41  1  0
 23 42  1  0
 23 43  1  0
M  END
$$$$
