
     RDKit          3D

 39 41  0  0  0  0  0  0  0  0999 V2000
   -3.3529    0.6793    1.6992 C   0  0  0  0  0  0  0  0  0  0  0  0
   -3.2378   -0.4017    0.6709 C   0  0  0  0  0  0  0  0  0  0  0  0
   -4.1599   -1.5626    0.8416 C   0  0  0  0  0  0  0  0  0  0  0  0
   -4.9694   -1.6298    1.7612 O   0  0  0  0  0  0  0  0  0  0  0  0
   -4.0598   -2.5630   -0.0916 N   0  0  0  0  0  0  0  0  0  0  0  0
   -3.1827   -2.5496   -1.1416 C   0  0  0  0  0  0  0  0  0  0  0  0
   -2.3422   -1.5178   -1.3234 C   0  0  0  0  0  0  0  0  0  0  0  0
   -1.4165   -1.5112   -2.4374 C   0  0  0  0  0  0  0  0  0  0  0  0
   -0.5909   -0.4722   -2.5914 C   0  0  0  0  0  0  0  0  0  0  0  0
   -0.6906    0.6187   -1.5809 C   0  0  0  0  0  0  0  0  0  0  0  0
    0.2623    1.7908   -1.7482 C   0  0  0  0  0  0  0  0  0  0  0  0
    1.6627    1.4823   -1.2166 C   0  0  0  0  0  0  0  0  0  0  0  0
    1.6954    1.3048    0.3068 C   0  0  0  0  0  0  0  0  0  0  0  0
    3.1251    1.1710    0.8487 C   0  0  0  0  0  0  0  0  0  0  0  0
    3.1369    1.1105    2.3586 C   0  0  0  0  0  0  0  0  0  0  0  0
    3.6029   -0.0705    2.7696 C   0  0  0  0  0  0  0  0  0  0  0  0
    3.9090   -0.8987    1.7213 N   0  0  0  0  0  0  0  0  0  0  0  0
    3.8235   -0.1623    0.4580 C   0  0  0  0  0  0  0  0  0  0  0  0
   -1.5081    0.6492   -0.5734 N   0  0  0  0  0  0  0  0  0  0  0  0
   -2.3810   -0.4003   -0.3699 C   0  0  0  0  0  0  0  0  0  0  0  0
   -3.1503    0.2780    2.6979 H   0  0  0  0  0  0  0  0  0  0  0  0
   -2.6522    1.5027    1.5308 H   0  0  0  0  0  0  0  0  0  0  0  0
   -4.3626    1.1034    1.6946 H   0  0  0  0  0  0  0  0  0  0  0  0
   -4.6909   -3.3439    0.0410 H   0  0  0  0  0  0  0  0  0  0  0  0
   -3.2169   -3.4128   -1.7983 H   0  0  0  0  0  0  0  0  0  0  0  0
   -1.3990   -2.3427   -3.1334 H   0  0  0  0  0  0  0  0  0  0  0  0
    0.1264   -0.3961   -3.3963 H   0  0  0  0  0  0  0  0  0  0  0  0
   -0.1545    2.6709   -1.2443 H   0  0  0  0  0  0  0  0  0  0  0  0
    0.3244    2.0355   -2.8153 H   0  0  0  0  0  0  0  0  0  0  0  0
    2.3241    2.3120   -1.4945 H   0  0  0  0  0  0  0  0  0  0  0  0
    2.0551    0.5849   -1.7074 H   0  0  0  0  0  0  0  0  0  0  0  0
    1.1053    0.4251    0.5928 H   0  0  0  0  0  0  0  0  0  0  0  0
    1.2141    2.1732    0.7755 H   0  0  0  0  0  0  0  0  0  0  0  0
    3.7316    2.0195    0.5098 H   0  0  0  0  0  0  0  0  0  0  0  0
    2.8270    1.9167    3.0064 H   0  0  0  0  0  0  0  0  0  0  0  0
    3.7557   -0.4034    3.7885 H   0  0  0  0  0  0  0  0  0  0  0  0
    4.7330   -1.4773    1.8615 H   0  0  0  0  0  0  0  0  0  0  0  0
    3.2721   -0.7458   -0.2843 H   0  0  0  0  0  0  0  0  0  0  0  0
    4.8319    0.0329    0.0752 H   0  0  0  0  0  0  0  0  0  0  0  0
  1  2  1  0
  2  3  1  0
  3  4  2  0
  3  5  1  0
  5  6  1  0
  6  7  2  0
  7  8  1  0
  8  9  2  0
  9 10  1  0
 10 11  1  0
 11 12  1  0
 12 13  1  0
 13 14  1  0
 14 15  1  0
 15 16  2  0
 16 17  1  0
 17 18  1  0
 10 19  2  0
 19 20  1  0
 20  2  2  0
 20  7  1  0
 18 14  1  0
  1 21  1  0
  1 22  1  0
  1 23  1  0
  5 24  1  0
  6 25  1  0
  8 26  1  0
  9 27  1  0
 11 28  1  0
 11 29  1  0
 12 30  1  0
 12 31  1  0
 13 32  1  0
 13 33  1  0
 14 34  1  0
 15 35  1  0
 16 36  1  0
 17 37  1  0
 18 38  1  0
 18 39  1  0
M  END
$$$$
