
     RDKit          3D

 41 43  0  0  0  0  0  0  0  0999 V2000
   -0.2898   -1.8837    2.7776 N   0  0  0  0  0  0  0  0  0  0  0  0
    0.7965   -1.2940    2.2280 C   0  0  0  0  0  0  0  0  0  0  0  0
    0.8156   -0.1990    1.4618 C   0  0  0  0  0  0  0  0  0  0  0  0
    2.0040    0.4015    0.6976 C   0  0  0  0  0  0  0  0  0  0  0  0
    3.0506   -0.5619    0.1432 C   0  0  0  0  0  0  0  0  0  0  0  0
    3.9769    0.1643   -0.8324 C   0  0  0  0  0  0  0  0  0  0  0  0
    5.0566   -0.7493   -1.3696 C   0  0  0  0  0  0  0  0  0  0  0  0
    4.5292   -1.7968   -2.0365 F   0  0  0  0  0  0  0  0  0  0  0  0
    5.8308   -1.2318   -0.3748 F   0  0  0  0  0  0  0  0  0  0  0  0
    5.8591   -0.0789   -2.2254 F   0  0  0  0  0  0  0  0  0  0  0  0
    0.8780    0.8121   -0.2864 C   0  0  0  0  0  0  0  0  0  0  0  0
   -0.1287    0.9143    0.9033 C   0  0  0  0  0  0  0  0  0  0  0  0
   -1.5894    0.5748    0.7583 C   0  0  0  0  0  0  0  0  0  0  0  0
   -2.2850    0.4910   -0.3971 C   0  0  0  0  0  0  0  0  0  0  0  0
   -1.9514    0.9623   -1.7656 C   0  0  0  0  0  0  0  0  0  0  0  0
   -1.2308    2.0434   -2.0889 C   0  0  0  0  0  0  0  0  0  0  0  0
   -0.9948    2.6534   -3.6757 Cl  0  0  0  0  0  0  0  0  0  0  0  0
   -2.8231    0.2746   -2.7069 C   0  0  0  0  0  0  0  0  0  0  0  0
   -3.7384   -0.3452   -1.9514 C   0  0  0  0  0  0  0  0  0  0  0  0
   -3.5148   -0.1881   -0.5788 N   0  0  0  0  0  0  0  0  0  0  0  0
   -4.2738   -0.8185    0.3871 C   0  0  0  0  0  0  0  0  0  0  0  0
   -4.2914   -0.8296    1.6768 N   0  0  0  0  0  0  0  0  0  0  0  0
   -3.4282   -0.0628    2.3951 C   0  0  0  0  0  0  0  0  0  0  0  0
   -2.2780    0.5264    2.0484 C   0  0  0  0  0  0  0  0  0  0  0  0
   -0.1274   -2.4535    3.6017 H   0  0  0  0  0  0  0  0  0  0  0  0
   -1.1586   -1.3685    2.7876 H   0  0  0  0  0  0  0  0  0  0  0  0
    1.7185   -1.8449    2.4034 H   0  0  0  0  0  0  0  0  0  0  0  0
    2.4756    1.2523    1.2095 H   0  0  0  0  0  0  0  0  0  0  0  0
    2.5733   -1.4105   -0.3626 H   0  0  0  0  0  0  0  0  0  0  0  0
    3.6443   -0.9707    0.9698 H   0  0  0  0  0  0  0  0  0  0  0  0
    3.3969    0.5667   -1.6707 H   0  0  0  0  0  0  0  0  0  0  0  0
    4.4447    1.0207   -0.3328 H   0  0  0  0  0  0  0  0  0  0  0  0
    0.6511    0.0499   -1.0453 H   0  0  0  0  0  0  0  0  0  0  0  0
    1.1170    1.7490   -0.7988 H   0  0  0  0  0  0  0  0  0  0  0  0
   -0.0267    1.8815    1.4203 H   0  0  0  0  0  0  0  0  0  0  0  0
   -0.7556    2.6879   -1.3631 H   0  0  0  0  0  0  0  0  0  0  0  0
   -2.7925    0.3225   -3.7826 H   0  0  0  0  0  0  0  0  0  0  0  0
   -4.5829   -0.9274   -2.2941 H   0  0  0  0  0  0  0  0  0  0  0  0
   -5.0493   -1.4514   -0.0807 H   0  0  0  0  0  0  0  0  0  0  0  0
   -3.7372    0.0465    3.4351 H   0  0  0  0  0  0  0  0  0  0  0  0
   -1.7705    1.0712    2.8464 H   0  0  0  0  0  0  0  0  0  0  0  0
  1  2  1  0
  2  3  2  3
  3  4  1  0
  4  5  1  0
  5  6  1  0
  6  7  1  0
  7  8  1  0
  7  9  1  0
  7 10  1  0
  4 11  1  0
 11 12  1  0
 12 13  1  0
 13 14  2  0
 14 15  1  0
 15 16  2  3
 16 17  1  0
 15 18  1  0
 18 19  2  0
 19 20  1  0
 20 21  1  0
 21 22  2  0
 22 23  1  0
 23 24  2  0
 12  3  1  0
 24 13  1  0
 20 14  1  0
  1 25  1  0
  1 26  1  0
  2 27  1  0
  4 28  1  0
  5 29  1  0
  5 30  1  0
  6 31  1  0
  6 32  1  0
 11 33  1  0
 11 34  1  0
 12 35  1  0
 16 36  1  0
 18 37  1  0
 19 38  1  0
 21 39  1  0
 23 40  1  0
 24 41  1  0
M  END
$$$$
