
     RDKit          3D

 74 77  0  0  0  0  0  0  0  0999 V2000
   -3.1557   -5.3807   -2.1793 C   0  0  0  0  0  0  0  0  0  0  0  0
   -3.0346   -3.9493   -1.7757 C   0  0  0  0  0  0  0  0  0  0  0  0
   -2.0916   -3.4787   -0.9523 C   0  0  0  0  0  0  0  0  0  0  0  0
   -2.0081   -2.1532   -0.6404 N   0  0  0  0  0  0  0  0  0  0  0  0
   -1.8018   -1.8227    0.5926 C   0  0  0  0  0  0  0  0  0  0  0  0
   -1.7353   -2.6486    1.6781 N   0  0  0  0  0  0  0  0  0  0  0  0
   -1.4290   -1.9871    2.8277 C   0  0  0  0  0  0  0  0  0  0  0  0
   -1.4152   -2.4893    3.9395 O   0  0  0  0  0  0  0  0  0  0  0  0
   -1.0798   -0.5430    2.5105 C   0  0  0  0  0  0  0  0  0  0  0  0
    0.4252   -0.3125    2.7099 C   0  0  0  0  0  0  0  0  0  0  0  0
    1.2808   -1.4460    2.1927 C   0  0  0  0  0  0  0  0  0  0  0  0
    2.1044   -2.0354    2.8816 O   0  0  0  0  0  0  0  0  0  0  0  0
    1.0175   -1.8727    0.9231 N   0  0  0  0  0  0  0  0  0  0  0  0
    1.1516   -0.9918   -0.2367 C   0  0  2  0  0  0  0  0  0  0  0  0
    2.6612   -0.8090   -0.5614 C   0  0  0  0  0  0  0  0  0  0  0  0
    2.9192   -0.6215   -2.0822 C   0  0  0  0  0  0  0  0  0  0  0  0
    3.9879    0.4529   -2.3690 C   0  0  0  0  0  0  0  0  0  0  0  0
    5.3984   -0.0906   -2.6165 C   0  0  0  0  0  0  0  0  0  0  0  0
    5.6497   -1.4020   -1.8916 C   0  0  0  0  0  0  0  0  0  0  0  0
    4.6697   -2.4890   -2.3325 C   0  0  0  0  0  0  0  0  0  0  0  0
    3.2981   -1.9498   -2.7590 C   0  0  0  0  0  0  0  0  0  0  0  0
    0.4392    0.3929   -0.2094 C   0  0  0  0  0  0  0  0  0  0  0  0
    1.0722    1.3804   -0.6038 O   0  0  0  0  0  0  0  0  0  0  0  0
   -0.9041    0.5350    0.1585 N   0  0  0  0  0  0  0  0  0  0  0  0
   -1.4318    1.8994   -0.1069 C   0  0  0  0  0  0  0  0  0  0  0  0
   -1.1066    2.9073    1.0160 C   0  0  0  0  0  0  0  0  0  0  0  0
   -1.8773    4.1525    0.8854 N   0  0  0  0  0  0  0  0  0  0  0  0
   -1.6835    5.0522    2.0223 C   0  0  0  0  0  0  0  0  0  0  0  0
   -2.0832    6.4089    1.4641 C   0  0  0  0  0  0  0  0  0  0  0  0
   -2.0510    6.2382   -0.0461 C   0  0  0  0  0  0  0  0  0  0  0  0
   -1.4619    4.9164   -0.2743 N   0  0  0  0  0  0  0  0  0  0  0  0
   -1.6837   -0.3758    1.0834 C   0  0  0  0  0  0  0  0  0  0  0  0
   -3.1976    0.0959    1.2092 C   0  0  0  0  0  0  0  0  0  0  0  0
   -4.1629   -0.7049    2.0879 C   0  0  0  0  0  0  0  0  0  0  0  0
   -2.4322   -6.0153   -1.6560 H   0  0  0  0  0  0  0  0  0  0  0  0
   -2.9849   -5.4832   -3.2520 H   0  0  0  0  0  0  0  0  0  0  0  0
   -4.1596   -5.7524   -1.9428 H   0  0  0  0  0  0  0  0  0  0  0  0
   -3.7661   -3.2585   -2.1871 H   0  0  0  0  0  0  0  0  0  0  0  0
   -1.3266   -4.1483   -0.5597 H   0  0  0  0  0  0  0  0  0  0  0  0
   -1.9213   -3.6403    1.6705 H   0  0  0  0  0  0  0  0  0  0  0  0
   -1.6126    0.1132    3.2089 H   0  0  0  0  0  0  0  0  0  0  0  0
    0.6144   -0.2672    3.7920 H   0  0  0  0  0  0  0  0  0  0  0  0
    0.7715    0.6452    2.3129 H   0  0  0  0  0  0  0  0  0  0  0  0
    1.5132   -2.7469    0.7730 H   0  0  0  0  0  0  0  0  0  0  0  0
    0.6902   -1.5526   -1.0581 H   0  0  0  0  0  0  0  0  0  0  0  0
    3.2187   -1.6807   -0.2001 H   0  0  0  0  0  0  0  0  0  0  0  0
    3.0551    0.0392    0.0104 H   0  0  0  0  0  0  0  0  0  0  0  0
    1.9889   -0.2650   -2.5446 H   0  0  0  0  0  0  0  0  0  0  0  0
    3.6883    1.0140   -3.2655 H   0  0  0  0  0  0  0  0  0  0  0  0
    4.0133    1.1947   -1.5643 H   0  0  0  0  0  0  0  0  0  0  0  0
    5.5406   -0.2474   -3.6949 H   0  0  0  0  0  0  0  0  0  0  0  0
    6.1391    0.6602   -2.3126 H   0  0  0  0  0  0  0  0  0  0  0  0
    6.6760   -1.7435   -2.0688 H   0  0  0  0  0  0  0  0  0  0  0  0
    5.5622   -1.2435   -0.8118 H   0  0  0  0  0  0  0  0  0  0  0  0
    4.5538   -3.2150   -1.5204 H   0  0  0  0  0  0  0  0  0  0  0  0
    5.0978   -3.0505   -3.1724 H   0  0  0  0  0  0  0  0  0  0  0  0
    3.3038   -1.7953   -3.8466 H   0  0  0  0  0  0  0  0  0  0  0  0
    2.5326   -2.7112   -2.5680 H   0  0  0  0  0  0  0  0  0  0  0  0
   -0.9998    2.2656   -1.0476 H   0  0  0  0  0  0  0  0  0  0  0  0
   -2.5016    1.8518   -0.3183 H   0  0  0  0  0  0  0  0  0  0  0  0
   -0.0280    3.1058    1.0467 H   0  0  0  0  0  0  0  0  0  0  0  0
   -1.3585    2.4511    1.9810 H   0  0  0  0  0  0  0  0  0  0  0  0
   -2.3053    4.7721    2.8785 H   0  0  0  0  0  0  0  0  0  0  0  0
   -0.6356    5.0826    2.3500 H   0  0  0  0  0  0  0  0  0  0  0  0
   -1.3864    7.1852    1.7967 H   0  0  0  0  0  0  0  0  0  0  0  0
   -3.0911    6.6872    1.7918 H   0  0  0  0  0  0  0  0  0  0  0  0
   -1.4678    7.0252   -0.5341 H   0  0  0  0  0  0  0  0  0  0  0  0
   -3.0681    6.2716   -0.4575 H   0  0  0  0  0  0  0  0  0  0  0  0
   -0.4414    5.0132   -0.3155 H   0  0  0  0  0  0  0  0  0  0  0  0
   -3.6402    0.1277    0.2048 H   0  0  0  0  0  0  0  0  0  0  0  0
   -3.2232    1.1165    1.6074 H   0  0  0  0  0  0  0  0  0  0  0  0
   -3.8303   -0.7523    3.1294 H   0  0  0  0  0  0  0  0  0  0  0  0
   -4.3163   -1.7214    1.7115 H   0  0  0  0  0  0  0  0  0  0  0  0
   -5.1432   -0.2099    2.0882 H   0  0  0  0  0  0  0  0  0  0  0  0
  1  2  1  0
  2  3  2  3
  3  4  1  0
  4  5  2  3
  5  6  1  0
  6  7  1  0
  7  8  2  0
  7  9  1  0
  9 10  1  0
 10 11  1  0
 11 12  2  0
 11 13  1  0
 13 14  1  0
 14 15  1  0
 15 16  1  0
 16 17  1  0
 17 18  1  0
 18 19  1  0
 19 20  1  0
 20 21  1  0
 14 22  1  0
 22 23  2  0
 22 24  1  0
 24 25  1  0
 25 26  1  0
 26 27  1  0
 27 28  1  0
 28 29  1  0
 29 30  1  0
 30 31  1  0
 24 32  1  0
 32 33  1  0
 33 34  1  0
 32  5  1  0
 32  9  1  0
 21 16  1  0
 31 27  1  0
  1 35  1  0
  1 36  1  0
  1 37  1  0
  2 38  1  0
  3 39  1  0
  6 40  1  0
  9 41  1  0
 10 42  1  0
 10 43  1  0
 13 44  1  0
 14 45  1  6
 15 46  1  0
 15 47  1  0
 16 48  1  0
 17 49  1  0
 17 50  1  0
 18 51  1  0
 18 52  1  0
 19 53  1  0
 19 54  1  0
 20 55  1  0
 20 56  1  0
 21 57  1  0
 21 58  1  0
 25 59  1  0
 25 60  1  0
 26 61  1  0
 26 62  1  0
 28 63  1  0
 28 64  1  0
 29 65  1  0
 29 66  1  0
 30 67  1  0
 30 68  1  0
 31 69  1  0
 33 70  1  0
 33 71  1  0
 34 72  1  0
 34 73  1  0
 34 74  1  0
M  END
$$$$
