
     RDKit          3D

 63 65  0  0  0  0  0  0  0  0999 V2000
    9.5247   -1.0220    0.6870 C   0  0  0  0  0  0  0  0  0  0  0  0
    8.5017   -1.5125   -0.3191 C   0  0  0  0  0  0  0  0  0  0  0  0
    7.2393   -0.9135   -0.0021 O   0  0  0  0  0  0  0  0  0  0  0  0
    6.2313   -1.2695   -0.8399 C   0  0  0  0  0  0  0  0  0  0  0  0
    6.3479   -2.0243   -1.7948 O   0  0  0  0  0  0  0  0  0  0  0  0
    5.0794   -0.6500   -0.4361 N   0  0  0  0  0  0  0  0  0  0  0  0
    3.8663   -0.7918   -1.0553 C   0  0  0  0  0  0  0  0  0  0  0  0
    2.7239   -0.2050   -0.6703 C   0  0  0  0  0  0  0  0  0  0  0  0
    2.5386    0.6890    0.4501 C   0  0  0  0  0  0  0  0  0  0  0  0
    1.3880    1.2452    0.8719 C   0  0  0  0  0  0  0  0  0  0  0  0
   -0.0397    1.1016    0.3471 C   0  0  0  0  0  0  0  0  0  0  0  0
   -0.2280    1.6904   -1.0778 C   0  0  0  0  0  0  0  0  0  0  0  0
    0.2995    3.1083   -1.2849 C   0  0  0  0  0  0  0  0  0  0  0  0
   -0.4837   -0.3943    0.4185 C   0  0  0  0  0  0  0  0  0  0  0  0
   -2.0005   -0.4690    0.7302 C   0  0  0  0  0  0  0  0  0  0  0  0
   -2.9570   -0.5291   -0.4970 C   0  0  0  0  0  0  0  0  0  0  0  0
   -2.4154   -1.4522   -1.6134 C   0  0  0  0  0  0  0  0  0  0  0  0
   -3.5211   -1.9434   -2.5421 C   0  0  0  0  0  0  0  0  0  0  0  0
   -4.5140   -2.7756   -1.8553 N   0  0  0  0  0  0  0  0  0  0  0  0
   -4.6328   -2.4556   -0.4259 C   0  0  0  0  0  0  0  0  0  0  0  0
   -4.3937   -0.9686   -0.0876 C   0  0  0  0  0  0  0  0  0  0  0  0
   -5.3234   -0.1305   -0.8027 O   0  0  0  0  0  0  0  0  0  0  0  0
   -6.6154   -0.0853   -0.2142 C   0  0  0  0  0  0  0  0  0  0  0  0
   -2.1401    0.8015    1.5360 C   0  0  0  0  0  0  0  0  0  0  0  0
   -3.1582    1.1377    2.4203 C   0  0  0  0  0  0  0  0  0  0  0  0
   -3.1244    2.3811    3.0540 C   0  0  0  0  0  0  0  0  0  0  0  0
   -2.0781    3.2752    2.8071 C   0  0  0  0  0  0  0  0  0  0  0  0
   -1.0461    2.9297    1.9341 C   0  0  0  0  0  0  0  0  0  0  0  0
   -1.0717    1.6851    1.3086 C   0  0  0  0  0  0  0  0  0  0  0  0
   10.5073   -1.4592    0.4889 H   0  0  0  0  0  0  0  0  0  0  0  0
    9.2201   -1.2835    1.7060 H   0  0  0  0  0  0  0  0  0  0  0  0
    9.6094    0.0694    0.6499 H   0  0  0  0  0  0  0  0  0  0  0  0
    8.4184   -2.6037   -0.2589 H   0  0  0  0  0  0  0  0  0  0  0  0
    8.8080   -1.2197   -1.3298 H   0  0  0  0  0  0  0  0  0  0  0  0
    5.1751   -0.0674    0.3823 H   0  0  0  0  0  0  0  0  0  0  0  0
    3.8626   -1.4458   -1.9278 H   0  0  0  0  0  0  0  0  0  0  0  0
    1.8498   -0.4301   -1.2739 H   0  0  0  0  0  0  0  0  0  0  0  0
    3.4297    0.9485    1.0176 H   0  0  0  0  0  0  0  0  0  0  0  0
    1.4890    1.8894    1.7462 H   0  0  0  0  0  0  0  0  0  0  0  0
    0.2634    1.0448   -1.8145 H   0  0  0  0  0  0  0  0  0  0  0  0
   -1.2878    1.6982   -1.3537 H   0  0  0  0  0  0  0  0  0  0  0  0
    0.1428    3.4100   -2.3262 H   0  0  0  0  0  0  0  0  0  0  0  0
    1.3718    3.1796   -1.0826 H   0  0  0  0  0  0  0  0  0  0  0  0
   -0.2251    3.8315   -0.6557 H   0  0  0  0  0  0  0  0  0  0  0  0
    0.0366   -0.8861    1.2570 H   0  0  0  0  0  0  0  0  0  0  0  0
   -0.1921   -0.9629   -0.4673 H   0  0  0  0  0  0  0  0  0  0  0  0
   -2.1726   -1.3427    1.3719 H   0  0  0  0  0  0  0  0  0  0  0  0
   -3.0373    0.4779   -0.9267 H   0  0  0  0  0  0  0  0  0  0  0  0
   -1.9062   -2.3230   -1.1796 H   0  0  0  0  0  0  0  0  0  0  0  0
   -1.6693   -0.9107   -2.2068 H   0  0  0  0  0  0  0  0  0  0  0  0
   -4.0175   -1.0819   -3.0057 H   0  0  0  0  0  0  0  0  0  0  0  0
   -3.0850   -2.5300   -3.3578 H   0  0  0  0  0  0  0  0  0  0  0  0
   -5.4155   -2.5979   -2.3016 H   0  0  0  0  0  0  0  0  0  0  0  0
   -5.6282   -2.7688   -0.0941 H   0  0  0  0  0  0  0  0  0  0  0  0
   -3.9195   -3.0736    0.1333 H   0  0  0  0  0  0  0  0  0  0  0  0
   -4.5525   -0.8254    0.9838 H   0  0  0  0  0  0  0  0  0  0  0  0
   -7.2298    0.6092   -0.7940 H   0  0  0  0  0  0  0  0  0  0  0  0
   -6.5570    0.2823    0.8148 H   0  0  0  0  0  0  0  0  0  0  0  0
   -7.0943   -1.0672   -0.2388 H   0  0  0  0  0  0  0  0  0  0  0  0
   -3.9727    0.4555    2.6348 H   0  0  0  0  0  0  0  0  0  0  0  0
   -3.9176    2.6579    3.7440 H   0  0  0  0  0  0  0  0  0  0  0  0
   -2.0663    4.2424    3.3031 H   0  0  0  0  0  0  0  0  0  0  0  0
   -0.2355    3.6303    1.7581 H   0  0  0  0  0  0  0  0  0  0  0  0
  1  2  1  0
  2  3  1  0
  3  4  1  0
  4  5  2  0
  4  6  1  0
  6  7  1  0
  7  8  2  3
  8  9  1  0
  9 10  2  3
 10 11  1  0
 11 12  1  0
 12 13  1  0
 11 14  1  0
 14 15  1  0
 15 16  1  0
 16 17  1  0
 17 18  1  0
 18 19  1  0
 19 20  1  0
 20 21  1  0
 21 22  1  0
 22 23  1  0
 15 24  1  0
 24 25  2  0
 25 26  1  0
 26 27  2  0
 27 28  1  0
 28 29  2  0
 29 11  1  0
 21 16  1  0
 29 24  1  0
  1 30  1  0
  1 31  1  0
  1 32  1  0
  2 33  1  0
  2 34  1  0
  6 35  1  0
  7 36  1  0
  8 37  1  0
  9 38  1  0
 10 39  1  0
 12 40  1  0
 12 41  1  0
 13 42  1  0
 13 43  1  0
 13 44  1  0
 14 45  1  0
 14 46  1  0
 15 47  1  0
 16 48  1  0
 17 49  1  0
 17 50  1  0
 18 51  1  0
 18 52  1  0
 19 53  1  0
 20 54  1  0
 20 55  1  0
 21 56  1  0
 23 57  1  0
 23 58  1  0
 23 59  1  0
 25 60  1  0
 26 61  1  0
 27 62  1  0
 28 63  1  0
M  END
$$$$
