REMARK SMILES COc1ccc(S(=O)(=O)NC2=Nc3ccc(Cl)cc3[S@H]2N)c(F)c1
REMARK SMILES IDX 7 1 8 2 9 3 6 4 3 5 4 6 24 7 5 8 22 9 23 10 2 11 1 12 10 13
REMARK SMILES IDX 11 14 12 15 20 16 13 17 19 18 14 19 18 20 15 21 16 22 17 25
REMARK SMILES IDX 21 26
REMARK H PARENT 10 23 20 24 21 27 21 28
ROOT
ATOM      1  S   UNL     1       1.123  -3.055   0.716  1.00  0.00     0.266 S 
ATOM      2  O   UNL     1       0.666  -3.288   2.071  1.00  0.00    -0.201 OA
ATOM      3  O   UNL     1       2.149  -3.906   0.146  1.00  0.00    -0.201 OA
ENDROOT
BRANCH   1   4
ATOM      4  C   UNL     1       1.732  -1.404   0.618  1.00  0.00     0.123 A 
ATOM      5  C   UNL     1       2.705   1.208   0.422  1.00  0.00     0.121 A 
ATOM      6  C   UNL     1       2.323   0.694   1.664  1.00  0.00     0.048 A 
ATOM      7  C   UNL     1       2.598   0.404  -0.717  1.00  0.00     0.087 A 
ATOM      8  C   UNL     1       1.837  -0.614   1.766  1.00  0.00     0.029 A 
ATOM      9  C   UNL     1       2.115  -0.897  -0.615  1.00  0.00     0.147 A 
ATOM     10  F   UNL     1       2.001  -1.629  -1.731  1.00  0.00    -0.205 F 
BRANCH   5  11
ATOM     11  O   UNL     1       3.188   2.465   0.187  1.00  0.00    -0.497 OA
ATOM     12  C   UNL     1       3.356   3.314   1.316  1.00  0.00     0.278 C 
ENDBRANCH   5  11
ENDBRANCH   1   4
BRANCH   1  13
ATOM     13  N   UNL     1      -0.189  -3.144  -0.310  1.00  0.00    -0.258 N 
ATOM     14  C   UNL     1      -1.124  -2.055  -0.305  1.00  0.00     0.172 C 
ATOM     15  N   UNL     1      -1.234  -1.173   0.654  1.00  0.00    -0.223 NA
ATOM     16  S   UNL     1      -2.112  -1.765  -1.614  1.00  0.00    -0.114 S 
ATOM     17  C   UNL     1      -2.103  -0.153   0.260  1.00  0.00     0.079 A 
ATOM     18  C   UNL     1      -2.661  -0.300  -1.021  1.00  0.00     0.034 A 
ATOM     19  C   UNL     1      -2.430   0.991   1.016  1.00  0.00     0.031 A 
ATOM     20  C   UNL     1      -3.523   0.659  -1.570  1.00  0.00     0.037 A 
ATOM     21  C   UNL     1      -3.290   1.954   0.478  1.00  0.00     0.023 A 
ATOM     22  C   UNL     1      -3.822   1.785  -0.797  1.00  0.00     0.042 A 
ATOM     23  H   UNL     1       0.041  -3.485  -1.241  1.00  0.00     0.182 HD
ATOM     24  H   UNL     1      -3.049  -2.733  -1.770  1.00  0.00     0.110 HD
ATOM     25  Cl  UNL     1      -4.877   2.986  -1.439  1.00  0.00    -0.084 Cl
BRANCH  16  26
ATOM     26  N   UNL     1      -1.055  -1.383  -2.851  1.00  0.00    -0.287 NA
ATOM     27  H   UNL     1      -0.386  -0.650  -2.604  1.00  0.00     0.131 HD
ATOM     28  H   UNL     1      -1.528  -1.049  -3.692  1.00  0.00     0.131 HD
ENDBRANCH  16  26
ENDBRANCH   1  13
TORSDOF 4
