MODEL        6USER    Run = 6USERUSER    Estimated Free Energy of Binding    =  -8.11 kcal/mol  [=(1)+(2)+(3)-(4)]USERUSER    (1) Final Intermolecular Energy     =  -9.30 kcal/molUSER        vdW + Hbond + desolv Energy     =  -8.94 kcal/molUSER        Electrostatic Energy            =  -0.36 kcal/molUSER        Moving Ligand-Fixed Receptor    =  -9.30 kcal/molUSER        Moving Ligand-Moving Receptor   =  +0.00 kcal/molUSER    (2) Final Total Internal Energy     =  -0.55 kcal/molUSER    (3) Torsional Free Energy           =  +1.19 kcal/molUSER    (4) Unbound System's Energy         =  -0.55 kcal/molUSERUSERREMARK SMILES COc1ccc(S(=O)(=O)NC2=Nc3ccc(Cl)cc3[S@H]2N)c(F)c1REMARK SMILES IDX 7 1 8 2 9 3 6 4 3 5 4 6 24 7 5 8 22 9 23 10 2 11 1 12 10 13REMARK SMILES IDX 11 14 12 15 20 16 13 17 19 18 14 19 18 20 15 21 16 22 17 25REMARK SMILES IDX 21 26REMARK H PARENT 10 23 20 24 21 27 21 28USER                              x       y       z     vdW  Elec       q    TypeUSER                           _______ _______ _______ _____ _____    ______ ____ROOTATOM      1  S   UNL     1      36.789  46.874  13.567 -0.52 -0.13    +0.266 S  ATOM      2  O   UNL     1      37.259  45.797  12.719 -0.42 +0.07    -0.201 OA ATOM      3  O   UNL     1      36.197  48.055  12.970 -0.67 +0.11    -0.201 OA ENDROOTBRANCH   1   4ATOM      4  C   UNL     1      38.145  47.435  14.544 -0.39 -0.05    +0.123 A  ATOM      5  C   UNL     1      40.313  48.287  16.087 -0.47 -0.03    +0.121 A  ATOM      6  C   UNL     1      39.187  49.103  15.950 -0.19 -0.03    +0.048 A  ATOM      7  C   UNL     1      40.342  47.043  15.449 -0.41 -0.01    +0.087 A  ATOM      8  C   UNL     1      38.099  48.679  15.180 -0.48 -0.02    +0.029 A  ATOM      9  C   UNL     1      39.260  46.622  14.683 -0.33 -0.03    +0.147 A  ATOM     10  F   UNL     1      39.334  45.436  14.064 -0.05 +0.04    -0.205 F  BRANCH   5  11ATOM     11  O   UNL     1      41.438  48.585  16.804 -0.72 +0.01    -0.497 OA ATOM     12  C   UNL     1      41.691  47.804  17.965 -0.34 -0.01    +0.278 C  ENDBRANCH   5  11ENDBRANCH   1   4BRANCH   1  13ATOM     13  N   UNL     1      35.656  46.261  14.626 -0.23 +0.20    -0.258 N  ATOM     14  C   UNL     1      36.125  45.656  15.840 -0.29 -0.10    +0.172 C  ATOM     15  N   UNL     1      37.347  45.235  16.038 -0.20 +0.08    -0.223 NA ATOM     16  S   UNL     1      35.135  45.526  17.173 -0.44 +0.07    -0.114 S  ATOM     17  C   UNL     1      37.511  44.874  17.377 -0.30 -0.02    +0.079 A  ATOM     18  C   UNL     1      36.369  45.018  18.183 -0.31 -0.01    +0.034 A  ATOM     19  C   UNL     1      38.706  44.417  17.969 -0.30 -0.00    +0.031 A  ATOM     20  C   UNL     1      36.387  44.730  19.554 -0.21 -0.00    +0.037 A  ATOM     21  C   UNL     1      38.735  44.126  19.336 -0.25 -0.00    +0.023 A  ATOM     22  C   UNL     1      37.590  44.285  20.111 -0.34 -0.00    +0.042 A  ATOM     23  H   UNL     1      34.845  46.864  14.753 +0.07 -0.24    +0.182 HD ATOM     24  H   UNL     1      34.126  44.641  16.975 +0.09 -0.06    +0.110 HD ATOM     25  Cl  UNL     1      37.650  43.922  21.794 -0.53 -0.00    -0.084 Cl BRANCH  16  26ATOM     26  N   UNL     1      34.819  47.108  17.608 -0.12 +0.38    -0.287 NA ATOM     27  H   UNL     1      33.839  47.376  17.490 -0.46 -0.29    +0.131 HD ATOM     28  H   UNL     1      35.355  47.786  17.064 -0.11 -0.26    +0.131 HD ENDBRANCH  16  26ENDBRANCH   1  13TORSDOF 4TERENDMDL