MODEL        5USER    Run = 5USERUSER    Estimated Free Energy of Binding    =  -7.75 kcal/mol  [=(1)+(2)+(3)-(4)]USERUSER    (1) Final Intermolecular Energy     =  -8.95 kcal/molUSER        vdW + Hbond + desolv Energy     =  -8.84 kcal/molUSER        Electrostatic Energy            =  -0.11 kcal/molUSER        Moving Ligand-Fixed Receptor    =  -8.95 kcal/molUSER        Moving Ligand-Moving Receptor   =  +0.00 kcal/molUSER    (2) Final Total Internal Energy     =  -1.16 kcal/molUSER    (3) Torsional Free Energy           =  +1.19 kcal/molUSER    (4) Unbound System's Energy         =  -1.16 kcal/molUSERUSERREMARK SMILES CN(C1=Nc2ccccc2[S@@H]1N)S(=O)(=O)c1ccccc1FREMARK SMILES IDX 1 1 2 2 3 3 4 4 11 5 5 6 10 7 6 8 9 9 7 10 8 11 12 13 13 16REMARK SMILES IDX 14 17 15 18 16 19 17 20 21 21 18 22 20 23 19 24 22 25REMARK H PARENT 11 12 12 14 12 15USER                              x       y       z     vdW  Elec       q    TypeUSER                           _______ _______ _______ _____ _____    ______ ____ROOTATOM      1  C   UNL     1      38.554  46.064  18.214 -0.26 -0.03    +0.166 C  ATOM      2  N   UNL     1      39.104  46.970  17.186 -0.28 +0.07    -0.247 N  ENDROOTBRANCH   2   3ATOM      3  C   UNL     1      38.319  46.980  15.943 -0.36 -0.07    +0.174 C  ATOM      4  N   UNL     1      37.942  45.827  15.432 -0.21 +0.08    -0.223 NA ATOM      5  S   UNL     1      37.940  48.286  14.971 -0.66 +0.07    -0.113 S  ATOM      6  C   UNL     1      37.405  46.020  14.154 -0.37 -0.03    +0.079 A  ATOM      7  C   UNL     1      37.374  47.352  13.711 -0.51 -0.01    +0.032 A  ATOM      8  C   UNL     1      36.931  45.009  13.295 -0.45 -0.01    +0.029 A  ATOM      9  C   UNL     1      36.899  47.697  12.437 -0.57 -0.01    +0.017 A  ATOM     10  C   UNL     1      36.451  45.346  12.025 -0.53 -0.00    +0.002 A  ATOM     11  C   UNL     1      36.439  46.674  11.604 -0.63 -0.00    +0.001 A  ATOM     12  H   UNL     1      37.049  49.105  15.584 +0.00 -0.13    +0.110 HD BRANCH   5  13ATOM     13  N   UNL     1      39.428  48.868  14.467 -0.25 +0.13    -0.287 NA ATOM     14  H   UNL     1      39.609  49.818  14.791 -0.26 -0.10    +0.131 HD ATOM     15  H   UNL     1      40.205  48.304  14.831 +0.09 -0.03    +0.131 HD ENDBRANCH   5  13ENDBRANCH   2   3BRANCH   2  16ATOM     16  S   UNL     1      40.780  46.926  16.949 -0.44 -0.03    +0.268 S  ATOM     17  O   UNL     1      41.096  45.883  15.991 -0.30 -0.02    -0.201 OA ATOM     18  O   UNL     1      41.263  48.276  16.722 -0.75 +0.02    -0.201 OA BRANCH  16  19ATOM     19  C   UNL     1      41.404  46.450  18.534 -0.42 -0.00    +0.123 A  ATOM     20  C   UNL     1      42.143  47.364  19.292 -0.39 +0.00    +0.025 A  ATOM     21  C   UNL     1      41.228  45.149  18.991 -0.31 +0.01    +0.143 A  ATOM     22  C   UNL     1      42.690  46.969  20.516 -0.41 +0.00    +0.002 A  ATOM     23  C   UNL     1      41.769  44.757  20.212 -0.24 +0.01    +0.041 A  ATOM     24  C   UNL     1      42.502  45.666  20.975 -0.25 +0.00    +0.003 A  ATOM     25  F   UNL     1      40.502  44.257  18.304 -0.11 -0.00    -0.205 F  ENDBRANCH  16  19ENDBRANCH   2  16TORSDOF 4TERENDMDL