REMARK SMILES CN(C1=Nc2ccccc2[S@@H]1N)S(=O)(=O)c1ccccc1F
REMARK SMILES IDX 1 1 2 2 3 3 4 4 11 5 5 6 10 7 6 8 9 9 7 10 8 11 12 13 13 16
REMARK SMILES IDX 14 17 15 18 16 19 17 20 21 21 18 22 20 23 19 24 22 25
REMARK H PARENT 11 12 12 14 12 15
ROOT
ATOM      1  C   UNL     1      -0.826   0.942   1.478  1.00  0.00     0.166 C 
ATOM      2  N   UNL     1      -0.566   0.062   0.321  1.00  0.00    -0.247 N 
ENDROOT
BRANCH   2   3
ATOM      3  C   UNL     1       0.798  -0.485   0.304  1.00  0.00     0.174 C 
ATOM      4  N   UNL     1       1.186  -1.230   1.318  1.00  0.00    -0.223 NA
ATOM      5  S   UNL     1       2.023  -0.173  -0.790  1.00  0.00    -0.113 S 
ATOM      6  C   UNL     1       2.562  -1.474   1.237  1.00  0.00     0.079 A 
ATOM      7  C   UNL     1       3.208  -0.904   0.128  1.00  0.00     0.032 A 
ATOM      8  C   UNL     1       3.328  -2.204   2.166  1.00  0.00     0.029 A 
ATOM      9  C   UNL     1       4.591  -1.030  -0.068  1.00  0.00     0.017 A 
ATOM     10  C   UNL     1       4.707  -2.339   1.975  1.00  0.00     0.002 A 
ATOM     11  C   UNL     1       5.328  -1.756   0.872  1.00  0.00     0.001 A 
ATOM     12  H   UNL     1       1.747  -0.725  -1.998  1.00  0.00     0.110 HD
BRANCH   5  13
ATOM     13  N   UNL     1       2.293   1.474  -0.645  1.00  0.00    -0.287 NA
ATOM     14  H   UNL     1       3.070   1.798  -1.221  1.00  0.00     0.131 HD
ATOM     15  H   UNL     1       1.481   2.025  -0.949  1.00  0.00     0.131 HD
ENDBRANCH   5  13
ENDBRANCH   2   3
BRANCH   2  16
ATOM     16  S   UNL     1      -1.117   0.603  -1.186  1.00  0.00     0.268 S 
ATOM     17  O   UNL     1      -0.626   1.949  -1.414  1.00  0.00    -0.201 OA
ATOM     18  O   UNL     1      -0.870  -0.426  -2.179  1.00  0.00    -0.201 OA
BRANCH  16  19
ATOM     19  C   UNL     1      -2.872   0.666  -0.981  1.00  0.00     0.123 A 
ATOM     20  C   UNL     1      -3.654  -0.435  -1.349  1.00  0.00     0.025 A 
ATOM     21  C   UNL     1      -3.481   1.831  -0.529  1.00  0.00     0.143 A 
ATOM     22  C   UNL     1      -5.045  -0.363  -1.246  1.00  0.00     0.002 A 
ATOM     23  C   UNL     1      -4.867   1.901  -0.423  1.00  0.00     0.041 A 
ATOM     24  C   UNL     1      -5.651   0.804  -0.783  1.00  0.00     0.003 A 
ATOM     25  F   UNL     1      -2.762   2.892  -0.142  1.00  0.00    -0.205 F 
ENDBRANCH  16  19
ENDBRANCH   2  16
TORSDOF 4
