REMARK SMILES COc1cc(NC(=O)C2=CC=CCNCCCN2)c(F)c(OC)c1OC
REMARK SMILES IDX 18 1 9 3 7 4 6 5 8 7 5 8 3 9 4 10 24 11 21 12 19 13 20 14
REMARK SMILES IDX 2 15 1 16 25 17 26 18 22 19 23 20 10 21 11 22 17 24 16 25
REMARK SMILES IDX 15 26 14 27 13 29 12 30
REMARK H PARENT 18 2 6 6 14 28
REMARK Flexibility Score:   48.900
ROOT
ATOM      1  N   UNL     1       2.185   0.089   0.486  1.00  0.00    -0.381 N 
ATOM      2  H   UNL     1       3.112  -0.035   0.039  1.00  0.00     0.160 HD
ENDROOT
BRANCH   1   3
ATOM      3  C   UNL     1       1.712  -1.207   0.739  1.00  0.00     0.100 C 
BRANCH   3   4
ATOM      4  C   UNL     1       0.270  -1.486   0.299  1.00  0.00     0.271 C 
ATOM      5  N   UNL     1      -0.302  -0.331  -0.198  1.00  0.00    -0.318 N 
ATOM      6  H   UNL     1       0.333   0.468  -0.187  1.00  0.00     0.170 HD
ATOM      7  O   UNL     1      -0.266  -2.583   0.420  1.00  0.00    -0.267 OA
BRANCH   5   8
ATOM      8  C   UNL     1      -1.631  -0.100  -0.593  1.00  0.00     0.085 A 
ATOM      9  C   UNL     1      -3.886  -0.788  -1.122  1.00  0.00     0.166 A 
ATOM     10  C   UNL     1      -2.585  -1.110  -0.725  1.00  0.00     0.080 A 
ATOM     11  C   UNL     1      -4.252   0.555  -1.307  1.00  0.00     0.206 A 
ATOM     12  C   UNL     1      -3.306   1.585  -1.188  1.00  0.00     0.202 A 
ATOM     13  C   UNL     1      -1.996   1.234  -0.849  1.00  0.00     0.192 A 
ATOM     14  F   UNL     1      -1.038   2.168  -0.737  1.00  0.00    -0.200 F 
BRANCH   9  15
ATOM     15  O   UNL     1      -4.849  -1.752  -1.291  1.00  0.00    -0.493 OA
ATOM     16  C   UNL     1      -4.423  -2.826  -2.126  1.00  0.00     0.278 C 
ENDBRANCH   9  15
BRANCH  11  17
ATOM     17  O   UNL     1      -5.533   0.882  -1.695  1.00  0.00    -0.490 OA
ATOM     18  C   UNL     1      -6.417   0.833  -0.573  1.00  0.00     0.278 C 
ENDBRANCH  11  17
BRANCH  12  19
ATOM     19  O   UNL     1      -3.778   2.852  -1.406  1.00  0.00    -0.490 OA
ATOM     20  C   UNL     1      -2.878   3.937  -1.223  1.00  0.00     0.278 C 
ENDBRANCH  12  19
ENDBRANCH   5   8
ENDBRANCH   3   4
BRANCH   3  21
ATOM     21  C   UNL     1       2.371  -2.242   1.298  1.00  0.00     0.031 C 
BRANCH  21  22
ATOM     22  C   UNL     1       3.666  -2.263   1.947  1.00  0.00    -0.001 CG0
ATOM     23  G   UNL     1       4.875  -1.831   1.550  1.00  0.00     0.000 G0
ENDBRANCH  21  22
ENDBRANCH   3  21
ENDBRANCH   1   3
BRANCH   1  24
ATOM     24  C   UNL     1       2.401   1.062   1.567  1.00  0.00     0.114 C 
BRANCH  24  25
ATOM     25  C   UNL     1       3.851   1.123   2.068  1.00  0.00     0.036 C 
BRANCH  25  26
ATOM     26  C   UNL     1       4.946   1.151   0.987  1.00  0.00     0.083 C 
BRANCH  26  27
ATOM     27  N   UNL     1       4.817   0.126  -0.060  1.00  0.00    -0.313 NA
ATOM     28  H   UNL     1       5.322   0.444  -0.891  1.00  0.00     0.123 HD
BRANCH  27  29
ATOM     29  C   UNL     1       5.337  -1.204   0.271  1.00  0.00     0.108 C 
BRANCH  29  30
ATOM     30  C   UNL     1       4.875  -1.831   1.550  1.00  0.00    -0.012 CG0
ATOM     31  G   UNL     1       3.666  -2.263   1.947  1.00  0.00     0.000 G0
ENDBRANCH  29  30
ENDBRANCH  27  29
ENDBRANCH  26  27
ENDBRANCH  25  26
ENDBRANCH  24  25
ENDBRANCH   1  24
TORSDOF 5
