MODEL        9USER    Run = 9USERUSER    Estimated Free Energy of Binding    =  -9.46 kcal/mol  [=(1)+(2)+(3)-(4)]USERUSER    (1) Final Intermolecular Energy     = -11.84 kcal/molUSER        vdW + Hbond + desolv Energy     = -11.71 kcal/molUSER        Electrostatic Energy            =  -0.13 kcal/molUSER        Moving Ligand-Fixed Receptor    = -11.84 kcal/molUSER        Moving Ligand-Moving Receptor   =  +0.00 kcal/molUSER    (2) Final Total Internal Energy     =  -1.67 kcal/molUSER    (3) Torsional Free Energy           =  +2.39 kcal/molUSER    (4) Unbound System's Energy         =  -1.67 kcal/molUSERUSERREMARK SMILES O=C(O)CCC[C@H]1Cc2cc(-c3cccc(-c4ccncc4)c3)ccc2C[C@H]1OREMARK SMILES IDX 5 1 4 2 2 3 1 4 3 5 6 7 7 8 8 9 28 10 9 11 27 12 10 13 26 14REMARK SMILES IDX 11 15 25 16 24 17 29 18 12 20 13 21 23 22 14 23 16 24 15 25REMARK SMILES IDX 17 26 18 27 22 28 19 29 21 30 20 31REMARK H PARENT 3 6 29 19USER                              x       y       z     vdW  Elec       q    TypeUSER                           _______ _______ _______ _____ _____    ______ ____ROOTATOM      1  C   UNL     1      37.100  42.834  24.467 -0.43 +0.00    +0.012 C  ENDROOTBRANCH   1   2ATOM      2  C   UNL     1      36.881  43.554  25.793 -0.33 -0.01    +0.122 C  BRANCH   2   3ATOM      3  C   UNL     1      37.596  44.876  25.823 -0.18 -0.01    +0.303 C  ATOM      4  O   UNL     1      38.729  45.071  26.230 -0.11 +0.00    -0.252 OA BRANCH   3   5ATOM      5  O   UNL     1      36.865  45.884  25.308 -0.69 -0.05    -0.481 OA ATOM      6  H   UNL     1      36.041  45.873  25.838 -0.43 -0.09    +0.296 HD ENDBRANCH   3   5ENDBRANCH   2   3ENDBRANCH   1   2BRANCH   1   7ATOM      7  C   UNL     1      36.987  43.756  23.247 -0.36 +0.00    +0.007 C  BRANCH   7   8ATOM      8  C   UNL     1      38.175  43.714  22.263 -0.38 +0.00    +0.022 C  ATOM      9  C   UNL     1      38.075  44.915  21.304 -0.32 +0.00    +0.042 C  ATOM     10  C   UNL     1      39.547  43.720  22.957 -0.23 +0.01    +0.122 C  ATOM     11  C   UNL     1      39.265  45.053  20.387 -0.34 -0.00    -0.044 A  ATOM     12  C   UNL     1      40.685  43.614  21.930 -0.30 +0.00    +0.067 C  ATOM     13  C   UNL     1      39.143  45.832  19.224 -0.36 -0.00    +0.012 A  ATOM     14  C   UNL     1      40.503  44.474  20.702 -0.31 -0.00    -0.042 A  ATOM     15  C   UNL     1      40.225  46.029  18.350 -0.46 +0.00    -0.018 A  ATOM     16  C   UNL     1      41.585  44.655  19.831 -0.21 +0.00    +0.005 A  ATOM     17  C   UNL     1      41.447  45.424  18.673 -0.41 +0.00    +0.009 A  BRANCH  10  18ATOM     18  O   UNL     1      39.679  44.899  23.753 -0.04 -0.02    -0.392 OA ATOM     19  H   UNL     1      39.594  44.642  24.687 +0.09 +0.01    +0.210 HD ENDBRANCH  10  18BRANCH  15  20ATOM     20  C   UNL     1      40.081  46.848  17.136 -0.48 +0.00    -0.018 A  ATOM     21  C   UNL     1      40.920  47.947  16.901 -0.53 -0.00    +0.009 A  ATOM     22  C   UNL     1      39.096  46.549  16.177 -0.42 -0.00    +0.017 A  ATOM     23  C   UNL     1      40.780  48.722  15.750 -0.61 -0.00    +0.001 A  ATOM     24  C   UNL     1      38.939  47.313  15.006 -0.47 +0.01    -0.018 A  ATOM     25  C   UNL     1      39.797  48.406  14.811 -0.55 -0.00    +0.009 A  BRANCH  24  26ATOM     26  C   UNL     1      37.911  46.970  14.011 -0.46 +0.01    -0.015 A  ATOM     27  C   UNL     1      37.148  47.962  13.387 -0.55 -0.01    +0.029 A  ATOM     28  C   UNL     1      37.661  45.639  13.655 -0.41 -0.01    +0.029 A  ATOM     29  C   UNL     1      36.190  47.593  12.456 -0.57 -0.06    +0.111 A  ATOM     30  C   UNL     1      36.682  45.368  12.711 -0.44 -0.04    +0.111 A  ATOM     31  N   UNL     1      35.940  46.316  12.103 -0.43 +0.13    -0.265 NA ENDBRANCH  24  26ENDBRANCH  15  20ENDBRANCH   7   8ENDBRANCH   1   7TORSDOF 8TERENDMDL