MODEL        7USER    Run = 7USERUSER    Estimated Free Energy of Binding    =  -8.78 kcal/mol  [=(1)+(2)+(3)-(4)]USERUSER    (1) Final Intermolecular Energy     = -11.77 kcal/molUSER        vdW + Hbond + desolv Energy     = -11.49 kcal/molUSER        Electrostatic Energy            =  -0.27 kcal/molUSER        Moving Ligand-Fixed Receptor    = -11.77 kcal/molUSER        Moving Ligand-Moving Receptor   =  +0.00 kcal/molUSER    (2) Final Total Internal Energy     =  -0.98 kcal/molUSER    (3) Torsional Free Energy           =  +2.98 kcal/molUSER    (4) Unbound System's Energy         =  -0.98 kcal/molUSERUSERREMARK SMILES Cc1c(CCCCc2cncnc2N)cccc1OCCN1CCOCC1REMARK SMILES IDX 4 1 3 2 2 3 18 4 15 5 17 6 16 7 1 8 19 9 20 10 21 11 22 12REMARK SMILES IDX 23 13 27 14 24 15 26 16 25 17 5 18 6 19 7 20 8 21 9 22 13 23REMARK SMILES IDX 10 24 12 25 11 26 14 27REMARK H PARENT 14 28 14 29USER                              x       y       z     vdW  Elec       q    TypeUSER                           _______ _______ _______ _____ _____    ______ ____ROOTATOM      1  C   UNL     1      36.361  46.465  16.818 -0.37 -0.03    +0.036 C  ENDROOTBRANCH   1   2ATOM      2  C   UNL     1      35.676  45.115  16.814 -0.30 +0.02    -0.041 A  ATOM      3  C   UNL     1      34.448  44.876  17.477 -0.32 +0.00    -0.006 A  ATOM      4  C   UNL     1      33.873  43.589  17.424 -0.23 -0.04    +0.122 A  ATOM      5  C   UNL     1      36.308  44.059  16.136 -0.37 -0.00    +0.004 A  ATOM      6  C   UNL     1      34.511  42.564  16.720 -0.39 -0.02    +0.047 A  ATOM      7  C   UNL     1      35.730  42.795  16.087 -0.45 -0.00    +0.004 A  ATOM      8  C   UNL     1      33.749  45.992  18.214 -0.51 -0.03    +0.049 C  BRANCH   4   9ATOM      9  O   UNL     1      32.659  43.432  18.043 -0.02 +0.11    -0.492 OA BRANCH   9  10ATOM     10  C   UNL     1      32.567  42.462  19.093 -0.27 -0.01    +0.245 C  BRANCH  10  11ATOM     11  C   UNL     1      31.674  41.291  18.649 -0.31 -0.01    +0.126 C  BRANCH  11  12ATOM     12  N   UNL     1      32.146  39.969  19.098 -0.54 -0.04    -0.295 NA ATOM     13  C   UNL     1      31.178  39.330  20.018 -0.38 +0.02    +0.113 C  ATOM     14  C   UNL     1      32.447  39.072  17.959 -0.40 -0.01    +0.113 C  ATOM     15  C   UNL     1      30.266  38.303  19.329 -0.35 +0.04    +0.175 C  ATOM     16  C   UNL     1      32.326  37.589  18.342 -0.35 +0.03    +0.175 C  ATOM     17  O   UNL     1      30.988  37.228  18.712 -0.85 -0.18    -0.379 OA ENDBRANCH  11  12ENDBRANCH  10  11ENDBRANCH   9  10ENDBRANCH   4   9ENDBRANCH   1   2BRANCH   1  18ATOM     18  C   UNL     1      36.387  47.088  15.419 -0.42 -0.00    +0.005 C  BRANCH  18  19ATOM     19  C   UNL     1      37.701  46.836  14.670 -0.49 -0.00    +0.005 C  BRANCH  19  20ATOM     20  C   UNL     1      38.695  48.007  14.683 -0.56 -0.02    +0.041 C  BRANCH  20  21ATOM     21  C   UNL     1      39.709  47.958  15.794 -0.52 -0.00    +0.013 A  ATOM     22  C   UNL     1      39.779  46.857  16.633 -0.39 -0.03    +0.120 A  ATOM     23  C   UNL     1      40.613  48.973  16.082 -0.48 -0.03    +0.129 A  ATOM     24  N   UNL     1      40.653  46.730  17.646 -0.32 +0.03    -0.244 NA ATOM     25  N   UNL     1      41.501  48.884  17.082 -0.84 -0.01    -0.220 NA ATOM     26  C   UNL     1      41.481  47.765  17.815 -0.32 -0.02    +0.224 A  BRANCH  23  27ATOM     27  N   UNL     1      40.639  50.169  15.361 -0.24 +0.16    -0.383 N  ATOM     28  H   UNL     1      39.910  50.791  15.694 -0.42 -0.11    +0.158 HD ATOM     29  H   UNL     1      40.493  49.997  14.374 -0.05 -0.08    +0.158 HD ENDBRANCH  23  27ENDBRANCH  20  21ENDBRANCH  19  20ENDBRANCH  18  19ENDBRANCH   1  18TORSDOF 10TERENDMDL