MODEL        5USER    Run = 5USERUSER    Estimated Free Energy of Binding    =  -9.10 kcal/mol  [=(1)+(2)+(3)-(4)]USERUSER    (1) Final Intermolecular Energy     = -10.59 kcal/molUSER        vdW + Hbond + desolv Energy     = -10.20 kcal/molUSER        Electrostatic Energy            =  -0.39 kcal/molUSER        Moving Ligand-Fixed Receptor    = -10.59 kcal/molUSER        Moving Ligand-Moving Receptor   =  +0.00 kcal/molUSER    (2) Final Total Internal Energy     =  -1.25 kcal/molUSER    (3) Torsional Free Energy           =  +1.49 kcal/molUSER    (4) Unbound System's Energy         =  -1.25 kcal/molUSERUSERREMARK SMILES CCn1c(-c2ccncc2)nc2cc(C(=O)c3ccccc3O)ccc21REMARK SMILES IDX 15 1 16 2 14 3 3 4 4 5 26 6 11 7 25 8 12 9 24 10 13 11 2 12REMARK SMILES IDX 1 13 5 14 6 15 10 16 7 17 9 18 8 19 17 20 18 21 22 22 19 23REMARK SMILES IDX 21 24 20 25 23 26REMARK H PARENT 23 27USER                              x       y       z     vdW  Elec       q    TypeUSER                           _______ _______ _______ _____ _____    ______ ____ROOTATOM      1  C   UNL     1      43.040  47.039  20.011 -0.37 +0.06    +0.196 C  ATOM      2  O   UNL     1      44.105  47.375  19.494 -0.35 -0.16    -0.288 OA ENDROOTBRANCH   1   3ATOM      3  C   UNL     1      41.906  46.671  19.132 -0.49 +0.00    +0.025 A  ATOM      4  N   UNL     1      38.764  45.859  16.611 -0.17 +0.08    -0.324 N  ATOM      5  C   UNL     1      38.966  46.888  15.711 -0.34 -0.04    +0.141 A  ATOM      6  C   UNL     1      39.742  45.935  17.581 -0.40 -0.01    +0.068 A  ATOM      7  N   UNL     1      39.999  47.623  16.080 -0.32 +0.06    -0.228 NA ATOM      8  C   UNL     1      40.022  45.173  18.721 -0.42 -0.00    +0.029 A  ATOM      9  C   UNL     1      40.494  47.047  17.220 -0.45 -0.01    +0.090 A  ATOM     10  C   UNL     1      41.121  45.568  19.494 -0.42 +0.00    +0.014 A  ATOM     11  C   UNL     1      41.588  47.438  18.003 -0.47 -0.00    +0.042 A  BRANCH   4  12ATOM     12  C   UNL     1      37.663  44.912  16.619 -0.32 -0.04    +0.121 C  ATOM     13  C   UNL     1      36.355  45.533  17.080 -0.38 -0.01    +0.028 C  ENDBRANCH   4  12BRANCH   5  14ATOM     14  C   UNL     1      38.136  47.175  14.544 -0.45 -0.01    +0.020 A  ATOM     15  C   UNL     1      37.443  48.383  14.473 -0.52 -0.02    +0.032 A  ATOM     16  C   UNL     1      38.048  46.282  13.476 -0.35 -0.01    +0.032 A  ATOM     17  C   UNL     1      36.662  48.631  13.358 -0.27 -0.05    +0.111 A  ATOM     18  C   UNL     1      37.241  46.622  12.402 -0.50 -0.03    +0.111 A  ATOM     19  N   UNL     1      36.536  47.769  12.326 -0.88 +0.11    -0.265 NA ENDBRANCH   5  14ENDBRANCH   1   3BRANCH   1  20ATOM     20  C   UNL     1      42.949  47.003  21.495 -0.33 +0.02    +0.064 A  ATOM     21  C   UNL     1      41.720  46.846  22.151 -0.20 +0.00    +0.016 A  ATOM     22  C   UNL     1      44.113  47.170  22.261 -0.25 +0.05    +0.126 A  ATOM     23  C   UNL     1      41.668  46.809  23.548 -0.20 +0.00    +0.001 A  ATOM     24  C   UNL     1      44.061  47.127  23.653 -0.17 +0.01    +0.047 A  ATOM     25  C   UNL     1      42.838  46.942  24.295 -0.14 +0.00    +0.004 A  BRANCH  22  26ATOM     26  O   UNL     1      45.347  47.384  21.705 -0.70 -0.51    -0.507 OA ATOM     27  H   UNL     1      45.273  48.170  21.116 -0.31 +0.15    +0.293 HD ENDBRANCH  22  26ENDBRANCH   1  20TORSDOF 5TERENDMDL