REMARK SMILES O=C(O)CCC[C@H]1Cc2cc(-c3cccc(-c4ccncc4)c3)ccc2C[C@H]1O
REMARK SMILES IDX 5 1 4 2 2 3 1 4 3 5 6 7 7 8 8 9 28 10 9 11 27 12 10 13 26 14
REMARK SMILES IDX 11 15 25 16 24 17 29 18 12 20 13 21 23 22 14 23 16 24 15 25
REMARK SMILES IDX 17 26 18 27 22 28 19 29 21 30 20 31
REMARK H PARENT 3 6 29 19
ROOT
ATOM      1  C   UNL     1       5.973   0.295  -0.881  1.00  0.00     0.012 C 
ENDROOT
BRANCH   1   2
ATOM      2  C   UNL     1       6.365   1.015   0.405  1.00  0.00     0.122 C 
BRANCH   2   3
ATOM      3  C   UNL     1       7.845   0.933   0.650  1.00  0.00     0.303 C 
ATOM      4  O   UNL     1       8.616   1.876   0.715  1.00  0.00    -0.252 OA
BRANCH   3   5
ATOM      5  O   UNL     1       8.281  -0.328   0.836  1.00  0.00    -0.481 OA
ATOM      6  H   UNL     1       9.244  -0.225   0.988  1.00  0.00     0.296 HD
ENDBRANCH   3   5
ENDBRANCH   2   3
ENDBRANCH   1   2
BRANCH   1   7
ATOM      7  C   UNL     1       4.523   0.555  -1.306  1.00  0.00     0.007 C 
BRANCH   7   8
ATOM      8  C   UNL     1       3.443   0.165  -0.275  1.00  0.00     0.022 C 
ATOM      9  C   UNL     1       2.056   0.524  -0.841  1.00  0.00     0.042 C 
ATOM     10  C   UNL     1       3.473  -1.322   0.113  1.00  0.00     0.122 C 
ATOM     11  C   UNL     1       0.913   0.057   0.027  1.00  0.00    -0.044 A 
ATOM     12  C   UNL     1       2.418  -1.634   1.186  1.00  0.00     0.067 C 
ATOM     13  C   UNL     1      -0.355   0.639  -0.144  1.00  0.00     0.012 A 
ATOM     14  C   UNL     1       1.075  -0.985   0.951  1.00  0.00    -0.042 A 
ATOM     15  C   UNL     1      -1.466   0.221   0.607  1.00  0.00    -0.018 A 
ATOM     16  C   UNL     1      -0.025  -1.401   1.712  1.00  0.00     0.005 A 
ATOM     17  C   UNL     1      -1.278  -0.807   1.540  1.00  0.00     0.009 A 
BRANCH  10  18
ATOM     18  O   UNL     1       3.278  -2.128  -1.051  1.00  0.00    -0.392 OA
ATOM     19  H   UNL     1       3.173  -3.051  -0.763  1.00  0.00     0.210 HD
ENDBRANCH  10  18
BRANCH  15  20
ATOM     20  C   UNL     1      -2.787   0.841   0.416  1.00  0.00    -0.018 A 
ATOM     21  C   UNL     1      -2.961   2.227   0.545  1.00  0.00     0.009 A 
ATOM     22  C   UNL     1      -3.912   0.059   0.097  1.00  0.00     0.017 A 
ATOM     23  C   UNL     1      -4.214   2.811   0.364  1.00  0.00     0.001 A 
ATOM     24  C   UNL     1      -5.185   0.626  -0.095  1.00  0.00    -0.018 A 
ATOM     25  C   UNL     1      -5.316   2.016   0.047  1.00  0.00     0.009 A 
BRANCH  24  26
ATOM     26  C   UNL     1      -6.342  -0.213  -0.443  1.00  0.00    -0.015 A 
ATOM     27  C   UNL     1      -6.296  -1.095  -1.528  1.00  0.00     0.029 A 
ATOM     28  C   UNL     1      -7.528  -0.159   0.299  1.00  0.00     0.029 A 
ATOM     29  C   UNL     1      -7.410  -1.866  -1.820  1.00  0.00     0.111 A 
ATOM     30  C   UNL     1      -8.589  -0.971  -0.069  1.00  0.00     0.111 A 
ATOM     31  N   UNL     1      -8.557  -1.824  -1.113  1.00  0.00    -0.265 NA
ENDBRANCH  24  26
ENDBRANCH  15  20
ENDBRANCH   7   8
ENDBRANCH   1   7
TORSDOF 8
