REMARK SMILES Cc1c(CCCCc2cncnc2N)cccc1OCCN1CCOCC1
REMARK SMILES IDX 4 1 3 2 2 3 18 4 15 5 17 6 16 7 1 8 19 9 20 10 21 11 22 12
REMARK SMILES IDX 23 13 27 14 24 15 26 16 25 17 5 18 6 19 7 20 8 21 9 22 13 23
REMARK SMILES IDX 10 24 12 25 11 26 14 27
REMARK H PARENT 14 28 14 29
ROOT
ATOM      1  C   UNL     1       2.629   1.369  -0.384  1.00  0.00     0.036 C 
ENDROOT
BRANCH   1   2
ATOM      2  C   UNL     1       1.268   0.706  -0.414  1.00  0.00    -0.041 A 
ATOM      3  C   UNL     1       0.058   1.437  -0.346  1.00  0.00    -0.006 A 
ATOM      4  C   UNL     1      -1.171   0.744  -0.382  1.00  0.00     0.122 A 
ATOM      5  C   UNL     1       1.222  -0.696  -0.493  1.00  0.00     0.004 A 
ATOM      6  C   UNL     1      -1.187  -0.650  -0.488  1.00  0.00     0.047 A 
ATOM      7  C   UNL     1       0.005  -1.368  -0.533  1.00  0.00     0.004 A 
ATOM      8  C   UNL     1       0.080   2.943  -0.258  1.00  0.00     0.049 C 
BRANCH   4   9
ATOM      9  O   UNL     1      -2.309   1.509  -0.363  1.00  0.00    -0.492 OA
BRANCH   9  10
ATOM     10  C   UNL     1      -3.492   0.929   0.200  1.00  0.00     0.245 C 
BRANCH  10  11
ATOM     11  C   UNL     1      -4.460   0.518  -0.923  1.00  0.00     0.126 C 
BRANCH  11  12
ATOM     12  N   UNL     1      -5.744  -0.023  -0.443  1.00  0.00    -0.295 NA
ATOM     13  C   UNL     1      -6.693  -0.239  -1.559  1.00  0.00     0.113 C 
ATOM     14  C   UNL     1      -5.564  -1.271   0.333  1.00  0.00     0.113 C 
ATOM     15  C   UNL     1      -6.742  -1.696  -2.046  1.00  0.00     0.175 C 
ATOM     16  C   UNL     1      -6.818  -2.158   0.301  1.00  0.00     0.175 C 
ATOM     17  O   UNL     1      -7.125  -2.623  -1.021  1.00  0.00    -0.379 OA
ENDBRANCH  11  12
ENDBRANCH  10  11
ENDBRANCH   9  10
ENDBRANCH   4   9
ENDBRANCH   1   2
BRANCH   1  18
ATOM     18  C   UNL     1       3.226   1.368   1.026  1.00  0.00     0.005 C 
BRANCH  18  19
ATOM     19  C   UNL     1       4.625   1.993   1.091  1.00  0.00     0.005 C 
BRANCH  19  20
ATOM     20  C   UNL     1       5.726   1.206   0.364  1.00  0.00     0.041 C 
BRANCH  20  21
ATOM     21  C   UNL     1       5.952  -0.187   0.887  1.00  0.00     0.013 A 
ATOM     22  C   UNL     1       6.311  -0.391   2.210  1.00  0.00     0.120 A 
ATOM     23  C   UNL     1       5.846  -1.343   0.124  1.00  0.00     0.129 A 
ATOM     24  N   UNL     1       6.529  -1.598   2.760  1.00  0.00    -0.244 NA
ATOM     25  N   UNL     1       6.054  -2.565   0.634  1.00  0.00    -0.220 NA
ATOM     26  C   UNL     1       6.383  -2.635   1.929  1.00  0.00     0.224 A 
BRANCH  23  27
ATOM     27  N   UNL     1       5.540  -1.306  -1.239  1.00  0.00    -0.383 N 
ATOM     28  H   UNL     1       6.261  -0.801  -1.743  1.00  0.00     0.158 HD
ATOM     29  H   UNL     1       4.651  -0.847  -1.395  1.00  0.00     0.158 HD
ENDBRANCH  23  27
ENDBRANCH  20  21
ENDBRANCH  19  20
ENDBRANCH  18  19
ENDBRANCH   1  18
TORSDOF 10
