REMARK SMILES CC(C)O[C@H]1CC[C@H](NC(=O)c2cc(-c3ccccc3)[nH]c2N(C)C)C[C@H]1O
REMARK SMILES IDX 5 1 6 2 7 3 8 4 26 5 27 6 4 7 2 8 1 9 3 10 28 11 9 13 10 14
REMARK SMILES IDX 11 16 12 17 13 18 22 19 14 20 21 21 23 23 24 24 25 25 15 26
REMARK SMILES IDX 16 27 20 28 17 29 19 30 18 31
REMARK H PARENT 28 12 9 15 21 22
ROOT
ATOM      1  C   UNL     1       3.792   0.799   0.133  1.00  0.00     0.147 C 
ATOM      2  C   UNL     1       2.836  -0.319  -0.319  1.00  0.00     0.037 C 
ATOM      3  C   UNL     1       2.127  -0.996   0.852  1.00  0.00     0.028 C 
ATOM      4  C   UNL     1       1.311   0.005   1.694  1.00  0.00     0.085 C 
ATOM      5  C   UNL     1       1.947   1.408   1.755  1.00  0.00     0.059 C 
ATOM      6  C   UNL     1       3.450   1.367   1.529  1.00  0.00     0.145 C 
ENDROOT
BRANCH   1   7
ATOM      7  O   UNL     1       5.135   0.288   0.206  1.00  0.00    -0.373 OA
BRANCH   7   8
ATOM      8  C   UNL     1       5.872   0.411  -1.019  1.00  0.00     0.112 C 
ATOM      9  C   UNL     1       6.921  -0.694  -1.027  1.00  0.00     0.038 C 
ATOM     10  C   UNL     1       6.540   1.784  -1.063  1.00  0.00     0.038 C 
ENDBRANCH   7   8
ENDBRANCH   1   7
BRANCH   6  11
ATOM     11  O   UNL     1       4.055   0.579   2.561  1.00  0.00    -0.390 OA
ATOM     12  H   UNL     1       4.883   0.232   2.157  1.00  0.00     0.211 HD
ENDBRANCH   6  11
BRANCH   4  13
ATOM     13  N   UNL     1      -0.052   0.115   1.179  1.00  0.00    -0.349 N 
ATOM     14  C   UNL     1      -1.021  -0.828   1.472  1.00  0.00     0.255 C 
ATOM     15  H   UNL     1      -0.203   0.660   0.341  1.00  0.00     0.164 HD
ATOM     16  O   UNL     1      -0.853  -1.718   2.299  1.00  0.00    -0.269 OA
BRANCH  14  17
ATOM     17  C   UNL     1      -2.245  -0.658   0.689  1.00  0.00     0.082 A 
ATOM     18  C   UNL     1      -2.802   0.599   0.273  1.00  0.00     0.044 A 
ATOM     19  C   UNL     1      -3.112  -1.640   0.218  1.00  0.00     0.118 A 
ATOM     20  C   UNL     1      -3.941   0.366  -0.469  1.00  0.00     0.048 A 
ATOM     21  N   UNL     1      -4.115  -0.995  -0.473  1.00  0.00    -0.341 N 
ATOM     22  H   UNL     1      -4.858  -1.482  -0.948  1.00  0.00     0.168 HD
BRANCH  19  23
ATOM     23  N   UNL     1      -3.148  -3.009   0.216  1.00  0.00    -0.364 N 
ATOM     24  C   UNL     1      -4.298  -3.638   0.883  1.00  0.00     0.144 C 
ATOM     25  C   UNL     1      -1.901  -3.752   0.413  1.00  0.00     0.144 C 
ENDBRANCH  19  23
BRANCH  20  26
ATOM     26  C   UNL     1      -4.844   1.293  -1.146  1.00  0.00    -0.002 A 
ATOM     27  C   UNL     1      -5.338   1.007  -2.425  1.00  0.00     0.010 A 
ATOM     28  C   UNL     1      -5.209   2.499  -0.534  1.00  0.00     0.010 A 
ATOM     29  C   UNL     1      -6.181   1.909  -3.078  1.00  0.00     0.001 A 
ATOM     30  C   UNL     1      -6.058   3.398  -1.185  1.00  0.00     0.001 A 
ATOM     31  C   UNL     1      -6.539   3.104  -2.458  1.00  0.00     0.000 A 
ENDBRANCH  20  26
ENDBRANCH  14  17
ENDBRANCH   4  13
TORSDOF 7
