MODEL        9USER    Run = 9USERUSER    Estimated Free Energy of Binding    =  -9.78 kcal/mol  [=(1)+(2)+(3)-(4)]USERUSER    (1) Final Intermolecular Energy     = -12.16 kcal/molUSER        vdW + Hbond + desolv Energy     = -12.00 kcal/molUSER        Electrostatic Energy            =  -0.16 kcal/molUSER        Moving Ligand-Fixed Receptor    = -12.16 kcal/molUSER        Moving Ligand-Moving Receptor   =  +0.00 kcal/molUSER    (2) Final Total Internal Energy     =  -1.94 kcal/molUSER    (3) Torsional Free Energy           =  +2.39 kcal/molUSER    (4) Unbound System's Energy         =  -1.94 kcal/molUSERUSERREMARK SMILES CCN[C@@H](C)C(=O)NCc1ccc(-c2cnc(O)c(-c3ccc(C)c(C)c3)n2)cc1REMARK SMILES IDX 6 1 7 2 8 3 4 5 5 6 3 7 2 9 1 10 9 11 10 12 11 13 30 14REMARK SMILES IDX 12 15 29 16 13 17 14 18 15 19 28 20 16 21 19 22 17 23 20 24REMARK SMILES IDX 21 25 27 26 22 27 25 28 23 29 26 30 24 31 18 32REMARK H PARENT 8 4 3 8 18 33USER                              x       y       z     vdW  Elec       q    TypeUSER                           _______ _______ _______ _____ _____    ______ ____ROOTATOM      1  C   UNL     1      37.820  43.333  25.313 -0.19 -0.00    +0.237 C  ATOM      2  O   UNL     1      38.350  42.306  25.729 -0.19 +0.00    -0.273 OA ATOM      3  N   UNL     1      37.898  43.743  23.991 -0.11 -0.02    -0.351 N  ATOM      4  H   UNL     1      37.658  44.703  23.784 +0.08 +0.02    +0.163 HD ENDROOTBRANCH   1   5ATOM      5  C   UNL     1      36.987  44.290  26.197 -0.31 -0.01    +0.140 C  ATOM      6  C   UNL     1      35.713  43.624  26.711 -0.50 -0.01    +0.035 C  BRANCH   5   7ATOM      7  N   UNL     1      36.751  45.574  25.491 -0.57 -0.00    -0.306 NA ATOM      8  H   UNL     1      35.816  45.905  25.724 -0.55 -0.05    +0.123 HD BRANCH   7   9ATOM      9  C   UNL     1      37.716  46.621  25.836 -0.33 +0.00    +0.078 C  ATOM     10  C   UNL     1      38.424  47.096  24.575 -0.38 +0.00    +0.020 C  ENDBRANCH   7   9ENDBRANCH   5   7ENDBRANCH   1   5BRANCH   3  11ATOM     11  C   UNL     1      38.727  43.047  23.035 -0.26 +0.01    +0.151 C  BRANCH  11  12ATOM     12  C   UNL     1      39.123  43.961  21.904 -0.27 -0.00    -0.029 A  ATOM     13  C   UNL     1      40.295  44.720  21.969 -0.26 +0.00    +0.006 A  ATOM     14  C   UNL     1      38.341  44.033  20.746 -0.33 +0.00    +0.006 A  ATOM     15  C   UNL     1      40.663  45.546  20.902 -0.33 +0.00    +0.011 A  ATOM     16  C   UNL     1      38.716  44.861  19.680 -0.37 -0.00    +0.011 A  ATOM     17  C   UNL     1      39.882  45.643  19.735 -0.38 -0.00    +0.002 A  BRANCH  17  18ATOM     18  C   UNL     1      40.296  46.528  18.626 -0.36 -0.01    +0.090 A  ATOM     19  C   UNL     1      41.454  47.302  18.641 -0.35 -0.00    +0.144 A  ATOM     20  N   UNL     1      39.476  46.553  17.540 -0.29 +0.05    -0.240 NA ATOM     21  N   UNL     1      41.829  48.119  17.624 -0.61 +0.00    -0.218 NA ATOM     22  C   UNL     1      39.826  47.353  16.490 -0.40 -0.03    +0.133 A  ATOM     23  C   UNL     1      40.990  48.120  16.568 -0.34 -0.03    +0.238 A  BRANCH  22  24ATOM     24  C   UNL     1      38.892  47.332  15.344 -0.47 -0.00    +0.006 A  ATOM     25  C   UNL     1      38.299  48.521  14.887 -0.52 -0.01    +0.011 A  ATOM     26  C   UNL     1      38.532  46.145  14.682 -0.41 -0.00    +0.014 A  ATOM     27  C   UNL     1      37.408  48.528  13.811 -0.54 -0.00    +0.004 A  ATOM     28  C   UNL     1      37.635  46.132  13.596 -0.42 +0.02    -0.048 A  ATOM     29  C   UNL     1      37.070  47.340  13.153 -0.56 +0.02    -0.048 A  ATOM     30  C   UNL     1      37.305  44.823  12.932 -0.44 -0.01    +0.044 C  ATOM     31  C   UNL     1      36.108  47.384  11.998 -0.63 -0.02    +0.044 C  ENDBRANCH  22  24BRANCH  23  32ATOM     32  O   UNL     1      41.398  48.977  15.601 -0.62 +0.03    -0.492 OA ATOM     33  H   UNL     1      40.582  49.496  15.481 +0.22 -0.10    +0.295 HD ENDBRANCH  23  32ENDBRANCH  17  18ENDBRANCH  11  12ENDBRANCH   3  11TORSDOF 8TERENDMDL