REMARK SMILES CCn1c(-c2ccncc2)nc2cc(C(=O)c3ccccc3O)ccc21
REMARK SMILES IDX 15 1 16 2 14 3 3 4 4 5 26 6 11 7 25 8 12 9 24 10 13 11 2 12
REMARK SMILES IDX 1 13 5 14 6 15 10 16 7 17 9 18 8 19 17 20 18 21 22 22 19 23
REMARK SMILES IDX 21 24 20 25 23 26
REMARK H PARENT 23 27
ROOT
ATOM      1  C   UNL     1       3.382  -0.955  -0.962  1.00  0.00     0.196 C 
ATOM      2  O   UNL     1       3.881  -1.839  -1.657  1.00  0.00    -0.288 OA
ENDROOT
BRANCH   1   3
ATOM      3  C   UNL     1       1.909  -0.796  -0.959  1.00  0.00     0.025 A 
ATOM      4  N   UNL     1      -2.174  -0.392  -0.728  1.00  0.00    -0.324 N 
ATOM      5  C   UNL     1      -2.268  -0.144   0.629  1.00  0.00     0.141 A 
ATOM      6  C   UNL     1      -0.842  -0.563  -1.044  1.00  0.00     0.068 A 
ATOM      7  N   UNL     1      -1.071  -0.180   1.185  1.00  0.00    -0.228 NA
ATOM      8  C   UNL     1      -0.169  -0.839  -2.240  1.00  0.00     0.029 A 
ATOM      9  C   UNL     1      -0.183  -0.425   0.172  1.00  0.00     0.090 A 
ATOM     10  C   UNL     1       1.225  -0.957  -2.171  1.00  0.00     0.014 A 
ATOM     11  C   UNL     1       1.212  -0.551   0.232  1.00  0.00     0.042 A 
BRANCH   4  12
ATOM     12  C   UNL     1      -3.274  -0.555  -1.662  1.00  0.00     0.121 C 
ATOM     13  C   UNL     1      -3.492   0.669  -2.536  1.00  0.00     0.028 C 
ENDBRANCH   4  12
BRANCH   5  14
ATOM     14  C   UNL     1      -3.507   0.073   1.371  1.00  0.00     0.020 A 
ATOM     15  C   UNL     1      -3.873  -0.824   2.375  1.00  0.00     0.032 A 
ATOM     16  C   UNL     1      -4.319   1.180   1.126  1.00  0.00     0.032 A 
ATOM     17  C   UNL     1      -5.052  -0.598   3.063  1.00  0.00     0.111 A 
ATOM     18  C   UNL     1      -5.479   1.321   1.870  1.00  0.00     0.111 A 
ATOM     19  N   UNL     1      -5.870   0.449   2.822  1.00  0.00    -0.265 NA
ENDBRANCH   5  14
ENDBRANCH   1   3
BRANCH   1  20
ATOM     20  C   UNL     1       4.282  -0.098  -0.145  1.00  0.00     0.064 A 
ATOM     21  C   UNL     1       3.916   1.203   0.229  1.00  0.00     0.016 A 
ATOM     22  C   UNL     1       5.544  -0.584   0.229  1.00  0.00     0.126 A 
ATOM     23  C   UNL     1       4.782   1.981   1.004  1.00  0.00     0.001 A 
ATOM     24  C   UNL     1       6.403   0.190   1.006  1.00  0.00     0.047 A 
ATOM     25  C   UNL     1       6.019   1.472   1.397  1.00  0.00     0.004 A 
BRANCH  22  26
ATOM     26  O   UNL     1       6.005  -1.821  -0.139  1.00  0.00    -0.507 OA
ATOM     27  H   UNL     1       5.389  -2.175  -0.821  1.00  0.00     0.293 HD
ENDBRANCH  22  26
ENDBRANCH   1  20
TORSDOF 5
