MODEL        8USER    Run = 8USERUSER    Estimated Free Energy of Binding    =  -8.23 kcal/mol  [=(1)+(2)+(3)-(4)]USERUSER    (1) Final Intermolecular Energy     = -10.32 kcal/molUSER        vdW + Hbond + desolv Energy     = -10.16 kcal/molUSER        Electrostatic Energy            =  -0.16 kcal/molUSER        Moving Ligand-Fixed Receptor    = -10.32 kcal/molUSER        Moving Ligand-Moving Receptor   =  +0.00 kcal/molUSER    (2) Final Total Internal Energy     =  -1.78 kcal/molUSER    (3) Torsional Free Energy           =  +2.09 kcal/molUSER    (4) Unbound System's Energy         =  -1.78 kcal/molUSERUSERREMARK SMILES CC(C)O[C@H]1CC[C@H](NC(=O)c2cc(-c3ccccc3)[nH]c2N(C)C)C[C@H]1OREMARK SMILES IDX 5 1 6 2 7 3 8 4 26 5 27 6 4 7 2 8 1 9 3 10 28 11 9 13 10 14REMARK SMILES IDX 11 16 12 17 13 18 22 19 14 20 21 21 23 23 24 24 25 25 15 26REMARK SMILES IDX 16 27 20 28 17 29 19 30 18 31REMARK H PARENT 28 12 9 15 21 22USER                              x       y       z     vdW  Elec       q    TypeUSER                           _______ _______ _______ _____ _____    ______ ____ROOTATOM      1  C   UNL     1      40.052  46.761  17.710 -0.43 -0.02    +0.147 C  ATOM      2  C   UNL     1      39.251  45.448  17.778 -0.45 -0.01    +0.037 C  ATOM      3  C   UNL     1      39.997  44.342  18.522 -0.39 -0.00    +0.028 C  ATOM      4  C   UNL     1      40.351  44.749  19.966 -0.39 +0.00    +0.085 C  ATOM      5  C   UNL     1      40.649  46.254  20.117 -0.23 +0.00    +0.059 C  ATOM      6  C   UNL     1      41.126  46.878  18.815 -0.39 -0.00    +0.145 C  ENDROOTBRANCH   1   7ATOM      7  O   UNL     1      40.737  46.845  16.448 -0.23 +0.04    -0.373 OA BRANCH   7   8ATOM      8  C   UNL     1      40.320  47.949  15.632 -0.53 -0.02    +0.112 C  ATOM      9  C   UNL     1      41.055  49.185  16.135 -0.64 -0.00    +0.038 C  ATOM     10  C   UNL     1      38.810  48.130  15.773 -0.53 -0.02    +0.038 C  ENDBRANCH   7   8ENDBRANCH   1   7BRANCH   6  11ATOM     11  O   UNL     1      42.343  46.240  18.411 -0.23 -0.03    -0.390 OA ATOM     12  H   UNL     1      42.546  46.626  17.528 -0.36 -0.07    +0.211 HD ENDBRANCH   6  11BRANCH   4  13ATOM     13  N   UNL     1      39.274  44.377  20.880 -0.12 -0.01    -0.349 N  ATOM     14  C   UNL     1      39.337  44.655  22.234 -0.19 +0.01    +0.255 C  ATOM     15  H   UNL     1      38.660  43.619  20.612 +0.11 +0.00    +0.164 HD ATOM     16  O   UNL     1      40.209  45.364  22.726 -0.13 -0.02    -0.269 OA BRANCH  14  17ATOM     17  C   UNL     1      38.273  44.011  23.005 -0.27 +0.01    +0.082 A  ATOM     18  C   UNL     1      37.970  44.268  24.385 -0.26 +0.00    +0.044 A  ATOM     19  C   UNL     1      37.378  43.031  22.588 -0.32 +0.01    +0.118 A  ATOM     20  C   UNL     1      36.889  43.498  24.762 -0.33 +0.00    +0.048 A  ATOM     21  N   UNL     1      36.561  42.747  23.661 -0.18 -0.04    -0.341 N  ATOM     22  H   UNL     1      35.798  42.091  23.615 +0.10 +0.02    +0.168 HD BRANCH  19  23ATOM     23  N   UNL     1      37.091  42.388  21.412 -0.19 -0.01    -0.364 N  ATOM     24  C   UNL     1      36.146  43.061  20.508 -0.41 -0.00    +0.144 C  ATOM     25  C   UNL     1      36.931  40.932  21.420 -0.43 +0.00    +0.144 C  ENDBRANCH  19  23BRANCH  20  26ATOM     26  C   UNL     1      36.172  43.417  26.031 -0.40 +0.00    -0.002 A  ATOM     27  C   UNL     1      35.448  42.268  26.374 -0.43 -0.00    +0.010 A  ATOM     28  C   UNL     1      36.177  44.503  26.916 -0.33 -0.00    +0.010 A  ATOM     29  C   UNL     1      34.744  42.207  27.579 -0.57 -0.00    +0.001 A  ATOM     30  C   UNL     1      35.477  44.439  28.124 -0.53 -0.00    +0.001 A  ATOM     31  C   UNL     1      34.758  43.292  28.452 -0.47 -0.00    +0.000 A  ENDBRANCH  20  26ENDBRANCH  14  17ENDBRANCH   4  13TORSDOF 7TERENDMDL