MODEL        1USER    Run = 1USERUSER    Estimated Free Energy of Binding    =  -3.58 kcal/mol  [=(1)+(2)+(3)-(4)]USERUSER    (1) Final Intermolecular Energy     =  -7.76 kcal/molUSER        vdW + Hbond + desolv Energy     =  -8.32 kcal/molUSER        Electrostatic Energy            =  -0.11 kcal/molUSER        Moving Ligand-Fixed Receptor    =  -8.43 kcal/molUSER        Moving Ligand-Moving Receptor   =  +0.67 kcal/molUSER    (2) Final Total Internal Energy     =  -1.21 kcal/molUSER    (3) Torsional Free Energy           =  +4.18 kcal/molUSER    (4) Unbound System's Energy         =  -1.21 kcal/molUSERUSERREMARK SMILES COc1cc(NC(=O)C2=CC=CCNCCCN2)c(F)c(OC)c1OCREMARK SMILES IDX 18 1 9 3 7 4 6 5 8 7 5 8 3 9 4 10 24 11 21 12 19 13 20 14REMARK SMILES IDX 2 15 1 16 25 17 26 18 22 19 23 20 10 21 11 22 17 24 16 25REMARK SMILES IDX 15 26 14 27 13 29 12 30REMARK H PARENT 18 2 6 6 14 28REMARK Flexibility Score:   48.900USER                              x       y       z     vdW  Elec       q    TypeUSER                           _______ _______ _______ _____ _____    ______ ____ROOTATOM      1  N   UNL     1      40.136  46.721  16.105 -0.18 +0.06    -0.381 N  ATOM      2  H   UNL     1      39.905  47.296  16.936 +0.10 -0.04    +0.160 HD ENDROOTBRANCH   1   3ATOM      3  C   UNL     1      39.002  45.932  15.864 -0.36 -0.02    +0.100 C  BRANCH   3   4ATOM      4  C   UNL     1      38.133  45.624  17.090 -0.25 -0.08    +0.271 C  ATOM      5  N   UNL     1      37.284  44.571  16.812 -0.14 +0.09    -0.318 N  ATOM      6  H   UNL     1      37.400  44.200  15.868 +0.10 -0.05    +0.170 HD ATOM      7  O   UNL     1      38.196  46.268  18.132 -0.25 +0.07    -0.267 OA BRANCH   5   8ATOM      8  C   UNL     1      36.243  44.043  17.594 -0.26 -0.02    +0.085 A  ATOM      9  C   UNL     1      35.304  43.136  19.628 -0.30 -0.01    +0.166 A  ATOM     10  C   UNL     1      36.398  43.650  18.924 -0.28 -0.01    +0.080 A  ATOM     11  C   UNL     1      34.037  43.093  19.024 -0.24 -0.03    +0.206 A  ATOM     12  C   UNL     1      33.862  43.475  17.685 -0.18 -0.07    +0.202 A  ATOM     13  C   UNL     1      34.982  43.929  16.982 -0.19 -0.08    +0.192 A  ATOM     14  F   UNL     1      34.887  44.292  15.693 -0.06 +0.10    -0.200 F  BRANCH   9  15ATOM     15  O   UNL     1      35.418  42.712  20.929 -0.19 -0.04    -0.493 OA ATOM     16  C   UNL     1      36.716  42.931  21.476 -0.30 +0.01    +0.278 C  ENDBRANCH   9  15BRANCH  11  17ATOM     17  O   UNL     1      32.954  42.592  19.711 -0.48 -0.05    -0.490 OA ATOM     18  C   UNL     1      32.137  43.661  20.193 -0.20 +0.02    +0.278 C  ENDBRANCH  11  17BRANCH  12  19ATOM     19  O   UNL     1      32.584  43.375  17.202 -0.02 +0.17    -0.490 OA ATOM     20  C   UNL     1      32.380  43.590  15.812 -0.21 -0.14    +0.278 C  ENDBRANCH  12  19ENDBRANCH   5   8ENDBRANCH   3   4BRANCH   3  21ATOM     21  C   UNL     1      38.567  45.432  14.690 -0.35 -0.01    +0.031 C  BRANCH  21  22ATOM     22  C   UNL     1      37.345  45.717  13.966 -0.50 +0.00    -0.001 CG0ATOM     23  G   UNL     1      37.058  46.619  13.012 +0.00 +0.00    +0.000 G0 ENDBRANCH  21  22ENDBRANCH   3  21ENDBRANCH   1   3BRANCH   1  24ATOM     24  C   UNL     1      40.650  47.669  15.106 -0.48 -0.01    +0.114 C  BRANCH  24  25ATOM     25  C   UNL     1      39.608  48.686  14.620 -0.52 -0.01    +0.036 C  BRANCH  25  26ATOM     26  C   UNL     1      38.138  48.364  14.942 -0.54 -0.05    +0.083 C  BRANCH  26  27ATOM     27  N   UNL     1      37.153  48.944  14.016 -0.35 +0.20    -0.313 NA ATOM     28  H   UNL     1      37.621  49.654  13.447 -0.44 -0.06    +0.123 HD BRANCH  27  29ATOM     29  C   UNL     1      36.511  48.009  13.088 -0.60 -0.05    +0.108 C  BRANCH  29  30ATOM     30  C   UNL     1      37.062  46.619  13.011 -0.64 +0.00    -0.012 CG0ATOM     31  G   UNL     1      37.353  45.720  13.966 +0.00 +0.00    +0.000 G0 ENDBRANCH  29  30ENDBRANCH  27  29ENDBRANCH  26  27ENDBRANCH  25  26ENDBRANCH  24  25ENDBRANCH   1  24TORSDOF 5TERENDMDL