REMARK SMILES CCN[C@@H](C)C(=O)NCc1ccc(-c2cnc(O)c(-c3ccc(C)c(C)c3)n2)cc1
REMARK SMILES IDX 6 1 7 2 8 3 4 5 5 6 3 7 2 9 1 10 9 11 10 12 11 13 30 14
REMARK SMILES IDX 12 15 29 16 13 17 14 18 15 19 28 20 16 21 19 22 17 23 20 24
REMARK SMILES IDX 21 25 27 26 22 27 25 28 23 29 26 30 24 31 18 32
REMARK H PARENT 8 4 3 8 18 33
ROOT
ATOM      1  C   UNL     1       5.113  -0.182  -0.369  1.00  0.00     0.237 C 
ATOM      2  O   UNL     1       5.432  -0.273  -1.551  1.00  0.00    -0.273 OA
ATOM      3  N   UNL     1       4.227  -1.052   0.246  1.00  0.00    -0.351 N 
ATOM      4  H   UNL     1       3.829  -0.768   1.131  1.00  0.00     0.163 HD
ENDROOT
BRANCH   1   5
ATOM      5  C   UNL     1       5.667   0.897   0.590  1.00  0.00     0.140 C 
ATOM      6  C   UNL     1       6.453   1.972  -0.157  1.00  0.00     0.035 C 
BRANCH   5   7
ATOM      7  N   UNL     1       6.421   0.265   1.701  1.00  0.00    -0.306 NA
ATOM      8  H   UNL     1       5.849  -0.479   2.100  1.00  0.00     0.123 HD
BRANCH   7   9
ATOM      9  C   UNL     1       7.706  -0.306   1.290  1.00  0.00     0.078 C 
ATOM     10  C   UNL     1       8.332  -1.048   2.463  1.00  0.00     0.020 C 
ENDBRANCH   7   9
ENDBRANCH   5   7
ENDBRANCH   1   5
BRANCH   3  11
ATOM     11  C   UNL     1       3.513  -2.056  -0.508  1.00  0.00     0.151 C 
BRANCH  11  12
ATOM     12  C   UNL     1       2.144  -1.561  -0.898  1.00  0.00    -0.029 A 
ATOM     13  C   UNL     1       1.019  -1.882  -0.134  1.00  0.00     0.006 A 
ATOM     14  C   UNL     1       1.983  -0.733  -2.014  1.00  0.00     0.006 A 
ATOM     15  C   UNL     1      -0.243  -1.396  -0.494  1.00  0.00     0.011 A 
ATOM     16  C   UNL     1       0.718  -0.248  -2.369  1.00  0.00     0.011 A 
ATOM     17  C   UNL     1      -0.427  -0.574  -1.622  1.00  0.00     0.002 A 
BRANCH  17  18
ATOM     18  C   UNL     1      -1.773  -0.080  -1.979  1.00  0.00     0.090 A 
ATOM     19  C   UNL     1      -2.159   0.257  -3.275  1.00  0.00     0.144 A 
ATOM     20  N   UNL     1      -2.664   0.028  -0.956  1.00  0.00    -0.240 NA
ATOM     21  N   UNL     1      -3.394   0.716  -3.599  1.00  0.00    -0.218 NA
ATOM     22  C   UNL     1      -3.922   0.475  -1.244  1.00  0.00     0.133 A 
ATOM     23  C   UNL     1      -4.246   0.814  -2.559  1.00  0.00     0.238 A 
BRANCH  22  24
ATOM     24  C   UNL     1      -4.837   0.568  -0.087  1.00  0.00     0.006 A 
ATOM     25  C   UNL     1      -4.344   0.909   1.184  1.00  0.00     0.011 A 
ATOM     26  C   UNL     1      -6.214   0.301  -0.186  1.00  0.00     0.014 A 
ATOM     27  C   UNL     1      -5.186   0.997   2.296  1.00  0.00     0.004 A 
ATOM     28  C   UNL     1      -7.078   0.384   0.923  1.00  0.00    -0.048 A 
ATOM     29  C   UNL     1      -6.557   0.741   2.179  1.00  0.00    -0.048 A 
ATOM     30  C   UNL     1      -8.542   0.091   0.737  1.00  0.00     0.044 C 
ATOM     31  C   UNL     1      -7.434   0.846   3.396  1.00  0.00     0.044 C 
ENDBRANCH  22  24
BRANCH  23  32
ATOM     32  O   UNL     1      -5.450   1.308  -2.938  1.00  0.00    -0.492 OA
ATOM     33  H   UNL     1      -5.280   1.455  -3.886  1.00  0.00     0.295 HD
ENDBRANCH  23  32
ENDBRANCH  17  18
ENDBRANCH  11  12
ENDBRANCH   3  11
TORSDOF 8
