MODEL        1USER    Run = 1USERUSER    Estimated Free Energy of Binding    =  -7.14 kcal/mol  [=(1)+(2)+(3)-(4)]USERUSER    (1) Final Intermolecular Energy     = -11.61 kcal/molUSER        vdW + Hbond + desolv Energy     = -11.70 kcal/molUSER        Electrostatic Energy            =  -0.22 kcal/molUSER        Moving Ligand-Fixed Receptor    = -11.92 kcal/molUSER        Moving Ligand-Moving Receptor   =  +0.31 kcal/molUSER    (2) Final Total Internal Energy     =  -3.00 kcal/molUSER    (3) Torsional Free Energy           =  +4.47 kcal/molUSER    (4) Unbound System's Energy         =  -3.00 kcal/molUSERUSERREMARK SMILES COc1ccc(O)c(C(=O)c2ccc(C(=O)O[C@@H]3CCCNC[C@H]3NC(=O)c3ccncc3)cc2)c1FREMARK SMILES IDX 17 1 15 2 16 3 14 4 11 5 12 6 35 7 13 8 34 9 9 10 10 11 8 12REMARK SMILES IDX 3 13 4 14 36 15 5 16 6 17 37 18 2 19 1 20 7 21 18 23 24 25REMARK SMILES IDX 23 26 22 27 21 29 20 30 19 31 25 33 26 34 27 36 28 37 29 38REMARK SMILES IDX 33 39 30 40 32 41 31 42REMARK H PARENT 7 22 22 28 25 35REMARK Flexibility Score:   99.900USER                              x       y       z     vdW  Elec       q    TypeUSER                           _______ _______ _______ _____ _____    ______ ____ROOTATOM      1  O   UNL     1      41.103  46.672  23.825 -0.03 -0.04    -0.457 OA ENDROOTBRANCH   1   2ATOM      2  C   UNL     1      41.367  45.447  23.304 -0.06 +0.03    +0.338 C  ATOM      3  O   UNL     1      41.640  44.429  23.924 -0.07 -0.01    -0.246 OA BRANCH   2   4ATOM      4  C   UNL     1      41.231  45.495  21.827 -0.24 +0.01    +0.060 A  ATOM      5  C   UNL     1      40.997  45.661  19.034 -0.45 +0.00    +0.023 A  ATOM      6  C   UNL     1      40.494  44.546  19.717 -0.38 +0.00    +0.013 A  ATOM      7  C   UNL     1      41.612  46.694  19.756 -0.34 +0.00    +0.013 A  ATOM      8  C   UNL     1      40.612  44.463  21.109 -0.31 +0.00    +0.016 A  ATOM      9  C   UNL     1      41.721  46.617  21.148 -0.24 +0.00    +0.016 A  BRANCH   5  10ATOM     10  C   UNL     1      40.922  45.787  17.553 -0.36 -0.01    +0.199 C  ATOM     11  O   UNL     1      41.733  45.219  16.829 +0.02 -0.03    -0.288 OA BRANCH  10  12ATOM     12  C   UNL     1      39.874  46.600  16.923 -0.40 -0.02    +0.104 A  ATOM     13  C   UNL     1      37.545  46.850  16.296 -0.27 -0.09    +0.155 A  ATOM     14  C   UNL     1      37.855  48.073  15.689 -0.40 -0.04    +0.053 A  ATOM     15  C   UNL     1      38.568  46.116  16.907 -0.28 -0.05    +0.179 A  ATOM     16  C   UNL     1      39.166  48.567  15.719 -0.47 -0.02    +0.051 A  ATOM     17  C   UNL     1      40.172  47.833  16.343 -0.43 -0.03    +0.130 A  ATOM     18  F   UNL     1      38.276  44.958  17.521 -0.08 +0.04    -0.202 F  BRANCH  13  19ATOM     19  O   UNL     1      36.294  46.297  16.374 -0.09 +0.35    -0.494 OA ATOM     20  C   UNL     1      35.539  46.217  15.172 -0.22 -0.24    +0.278 C  ENDBRANCH  13  19BRANCH  17  21ATOM     21  O   UNL     1      41.447  48.318  16.395 -0.54 +0.02    -0.507 OA ATOM     22  H   UNL     1      42.073  47.595  16.557 -0.30 -0.06    +0.293 HD ENDBRANCH  17  21ENDBRANCH  10  12ENDBRANCH   5  10ENDBRANCH   2   4ENDBRANCH   1   2BRANCH   1  23ATOM     23  C   UNL     1      39.706  46.994  24.053 -0.23 +0.02    +0.200 CG0ATOM     24  G   UNL     1      39.664  48.082  25.125 +0.00 +0.00    +0.000 G0 BRANCH  23  25ATOM     25  C   UNL     1      38.996  45.683  24.450 -0.21 +0.01    +0.137 C  BRANCH  25  26ATOM     26  C   UNL     1      38.013  45.818  25.629 -0.28 +0.00    +0.109 C  BRANCH  26  27ATOM     27  N   UNL     1      36.916  46.760  25.396 -0.75 -0.04    -0.315 NA ATOM     28  H   UNL     1      36.087  46.409  25.876 -0.53 -0.04    +0.122 HD BRANCH  27  29ATOM     29  C   UNL     1      37.154  48.141  25.823 -0.43 +0.00    +0.081 C  BRANCH  29  30ATOM     30  C   UNL     1      38.364  48.881  25.239 -0.39 +0.00    +0.019 C  BRANCH  30  31ATOM     31  C   UNL     1      39.668  48.081  25.127 -0.32 +0.01    +0.049 CG0ATOM     32  G   UNL     1      39.706  46.993  24.054 +0.00 +0.00    +0.000 G0 ENDBRANCH  30  31ENDBRANCH  29  30ENDBRANCH  27  29ENDBRANCH  26  27ENDBRANCH  25  26BRANCH  25  33ATOM     33  N   UNL     1      38.305  45.135  23.275 -0.14 -0.03    -0.344 N  ATOM     34  C   UNL     1      38.090  43.789  23.112 -0.23 +0.02    +0.251 C  ATOM     35  H   UNL     1      37.730  45.787  22.759 +0.07 +0.03    +0.164 HD ATOM     36  O   UNL     1      38.489  42.933  23.891 -0.18 -0.02    -0.269 OA BRANCH  34  37ATOM     37  C   UNL     1      37.312  43.399  21.912 -0.37 +0.00    +0.042 A  ATOM     38  C   UNL     1      36.821  42.098  21.829 -0.50 +0.00    +0.034 A  ATOM     39  C   UNL     1      37.103  44.292  20.863 -0.35 +0.00    +0.034 A  ATOM     40  C   UNL     1      36.109  41.748  20.696 -0.39 -0.00    +0.112 A  ATOM     41  C   UNL     1      36.384  43.841  19.771 -0.32 -0.01    +0.112 A  ATOM     42  N   UNL     1      35.877  42.593  19.669 -0.23 +0.02    -0.265 NA ENDBRANCH  34  37ENDBRANCH  25  33ENDBRANCH  23  25ENDBRANCH   1  23TORSDOF 9TERENDMDL