MODEL        10USER    Run = 10USERUSER    Estimated Free Energy of Binding    =  -6.94 kcal/mol  [=(1)+(2)+(3)-(4)]USERUSER    (1) Final Intermolecular Energy     = -11.41 kcal/molUSER        vdW + Hbond + desolv Energy     = -11.85 kcal/molUSER        Electrostatic Energy            =  -0.21 kcal/molUSER        Moving Ligand-Fixed Receptor    = -12.07 kcal/molUSER        Moving Ligand-Moving Receptor   =  +0.65 kcal/molUSER    (2) Final Total Internal Energy     =  -2.04 kcal/molUSER    (3) Torsional Free Energy           =  +4.47 kcal/molUSER    (4) Unbound System's Energy         =  -2.04 kcal/molUSERUSERREMARK SMILES COc1ccc(O)c(C(=O)c2ccc(NC[C@@H]3CCCNC[C@@H]3NC(=O)c3ccncc3)cc2)c1FREMARK SMILES IDX 16 1 15 2 14 4 11 5 12 6 34 7 13 8 33 9 9 10 10 11 8 12 3 13REMARK SMILES IDX 4 14 35 15 5 16 6 17 36 18 2 19 1 20 7 21 17 23 18 24 23 26REMARK SMILES IDX 22 27 21 28 20 30 19 31 24 33 25 34 26 36 27 37 28 38 32 39REMARK SMILES IDX 29 40 31 41 30 42REMARK H PARENT 15 3 7 22 21 29 24 35REMARK Flexibility Score:   99.900USER                              x       y       z     vdW  Elec       q    TypeUSER                           _______ _______ _______ _____ _____    ______ ____ROOTATOM      1  C   UNL     1      32.854  41.203  19.081 -0.22 +0.00    +0.118 C  ENDROOTBRANCH   1   2ATOM      2  N   UNL     1      33.519  42.470  19.396 -0.15 -0.00    -0.385 N  ATOM      3  H   UNL     1      33.026  43.019  20.094 +0.09 +0.03    +0.160 HD BRANCH   2   4ATOM      4  C   UNL     1      34.163  43.239  18.432 -0.32 -0.01    +0.034 A  ATOM      5  C   UNL     1      35.442  44.674  16.353 -0.31 -0.01    +0.023 A  ATOM      6  C   UNL     1      34.586  45.328  17.243 -0.34 -0.01    +0.014 A  ATOM      7  C   UNL     1      35.617  43.294  16.463 -0.41 -0.01    +0.014 A  ATOM      8  C   UNL     1      33.949  44.613  18.265 -0.35 -0.01    +0.026 A  ATOM      9  C   UNL     1      34.976  42.591  17.491 -0.39 -0.01    +0.026 A  BRANCH   5  10ATOM     10  C   UNL     1      36.068  45.463  15.266 -0.28 -0.11    +0.199 C  ATOM     11  O   UNL     1      35.619  45.370  14.123 -0.23 +0.16    -0.288 OA BRANCH  10  12ATOM     12  C   UNL     1      37.253  46.326  15.468 -0.31 -0.05    +0.104 A  ATOM     13  C   UNL     1      39.157  47.075  16.796 -0.33 -0.05    +0.155 A  ATOM     14  C   UNL     1      39.499  47.980  15.789 -0.48 -0.02    +0.053 A  ATOM     15  C   UNL     1      38.027  46.259  16.628 -0.27 -0.07    +0.179 A  ATOM     16  C   UNL     1      38.711  48.080  14.640 -0.49 -0.02    +0.051 A  ATOM     17  C   UNL     1      37.590  47.269  14.490 -0.37 -0.06    +0.130 A  ATOM     18  F   UNL     1      37.685  45.423  17.621 -0.09 +0.06    -0.202 F  BRANCH  13  19ATOM     19  O   UNL     1      39.839  46.901  17.971 -0.18 +0.08    -0.494 OA ATOM     20  C   UNL     1      40.842  45.893  18.000 -0.34 -0.01    +0.278 C  ENDBRANCH  13  19BRANCH  17  21ATOM     21  O   UNL     1      36.855  47.453  13.349 -0.28 +0.23    -0.507 OA ATOM     22  H   UNL     1      36.135  46.780  13.342 +0.24 -0.17    +0.293 HD ENDBRANCH  17  21ENDBRANCH  10  12ENDBRANCH   5  10ENDBRANCH   2   4ENDBRANCH   1   2BRANCH   1  23ATOM     23  C   UNL     1      31.906  41.332  17.862 -0.40 -0.01    +0.032 C  BRANCH  23  24ATOM     24  C   UNL     1      31.111  42.651  17.948 -0.32 -0.00    +0.009 CG0ATOM     25  G   UNL     1      30.628  43.302  16.651 +0.00 +0.00    +0.000 G0 ENDBRANCH  23  24BRANCH  23  26ATOM     26  C   UNL     1      31.052  40.053  17.707 -0.37 -0.01    +0.101 C  BRANCH  26  27ATOM     27  C   UNL     1      29.789  40.311  16.851 -0.37 -0.00    +0.106 C  BRANCH  27  28ATOM     28  N   UNL     1      30.008  41.127  15.649 -0.24 +0.12    -0.315 NA ATOM     29  H   UNL     1      31.011  41.110  15.447 -0.52 -0.08    +0.122 HD BRANCH  28  30ATOM     30  C   UNL     1      29.609  42.523  15.826 -0.29 -0.04    +0.081 C  BRANCH  30  31ATOM     31  C   UNL     1      30.625  43.304  16.650 -0.34 -0.01    +0.016 CG0ATOM     32  G   UNL     1      31.102  42.652  17.948 +0.00 +0.00    +0.000 G0 ENDBRANCH  30  31ENDBRANCH  28  30ENDBRANCH  27  28ENDBRANCH  26  27BRANCH  26  33ATOM     33  N   UNL     1      30.662  39.464  18.986 -0.14 -0.03    -0.348 N  ATOM     34  C   UNL     1      30.720  38.115  19.245 -0.33 +0.06    +0.251 C  ATOM     35  H   UNL     1      30.229  40.108  19.636 +0.10 +0.01    +0.164 HD ATOM     36  O   UNL     1      31.099  37.293  18.419 -0.86 -0.12    -0.269 OA BRANCH  34  37ATOM     37  C   UNL     1      30.272  37.670  20.591 -0.38 +0.00    +0.042 A  ATOM     38  C   UNL     1      31.217  37.635  21.618 -0.49 +0.00    +0.034 A  ATOM     39  C   UNL     1      28.949  37.320  20.863 -0.30 -0.00    +0.034 A  ATOM     40  C   UNL     1      30.803  37.227  22.872 -0.31 -0.00    +0.112 A  ATOM     41  C   UNL     1      28.637  36.926  22.153 -0.26 -0.01    +0.112 A  ATOM     42  N   UNL     1      29.533  36.867  23.159 -0.23 -0.03    -0.265 NA ENDBRANCH  34  37ENDBRANCH  26  33ENDBRANCH  23  26ENDBRANCH   1  23TORSDOF 9TERENDMDL