MODEL        5USER    Run = 5USERUSER    Estimated Free Energy of Binding    = -12.04 kcal/mol  [=(1)+(2)+(3)-(4)]USERUSER    (1) Final Intermolecular Energy     = -13.83 kcal/molUSER        vdW + Hbond + desolv Energy     = -13.73 kcal/molUSER        Electrostatic Energy            =  -0.10 kcal/molUSER        Moving Ligand-Fixed Receptor    = -13.83 kcal/molUSER        Moving Ligand-Moving Receptor   =  +0.00 kcal/molUSER    (2) Final Total Internal Energy     =  -1.91 kcal/molUSER    (3) Torsional Free Energy           =  +1.79 kcal/molUSER    (4) Unbound System's Energy         =  -1.91 kcal/molUSERUSERREMARK SMILES Cn1ccc2ccc3c4[nH]c5c(CCCN[C@H]6CC[C@H](O)CC6)cccc5c4c4c(c3c21)C(=O)NC4=OREMARK SMILES IDX 15 1 14 2 13 3 12 4 2 5 3 6 32 7 4 8 31 9 5 10 30 11 8 12REMARK SMILES IDX 6 13 29 14 33 15 7 16 9 17 28 18 36 19 35 20 10 21 27 22REMARK SMILES IDX 11 23 26 24 25 25 24 26 1 27 34 28 37 29 16 32 17 34 23 35REMARK SMILES IDX 18 36 22 37 19 38 20 39 21 40REMARK H PARENT 35 30 10 31 16 33 21 41USER                              x       y       z     vdW  Elec       q    TypeUSER                           _______ _______ _______ _____ _____    ______ ____ROOTATOM      1  C   UNL     1      39.473  45.870  23.134 -0.29 +0.01    +0.081 C  ENDROOTBRANCH   1   2ATOM      2  C   UNL     1      40.787  45.091  23.254 -0.20 +0.00    +0.020 C  BRANCH   2   3ATOM      3  C   UNL     1      41.239  44.471  21.927 -0.29 +0.00    +0.039 C  BRANCH   3   4ATOM      4  C   UNL     1      41.639  45.481  20.879 -0.32 -0.00    -0.024 A  ATOM      5  N   UNL     1      36.015  46.384  14.339 -0.17 +0.24    -0.350 N  ATOM      6  C   UNL     1      34.699  46.004  14.213 -0.23 -0.07    +0.086 A  ATOM      7  C   UNL     1      36.459  46.183  15.641 -0.33 -0.04    +0.057 A  ATOM      8  C   UNL     1      34.341  45.353  15.363 -0.30 -0.02    +0.028 A  ATOM      9  C   UNL     1      37.662  46.538  16.359 -0.37 -0.01    +0.022 A  ATOM     10  C   UNL     1      35.459  45.389  16.234 -0.33 -0.00    +0.000 A  ATOM     11  C   UNL     1      38.638  47.487  16.019 -0.40 -0.03    +0.063 A  ATOM     12  C   UNL     1      37.875  45.836  17.587 -0.37 -0.00    +0.009 A  ATOM     13  C   UNL     1      35.680  44.808  17.493 -0.31 -0.00    +0.011 A  ATOM     14  C   UNL     1      39.828  47.638  16.741 -0.43 -0.02    +0.063 A  ATOM     15  C   UNL     1      38.638  48.589  15.040 -0.36 -0.14    +0.259 C  ATOM     16  C   UNL     1      36.901  44.990  18.136 -0.34 -0.00    +0.012 A  ATOM     17  C   UNL     1      39.105  46.009  18.297 -0.37 -0.01    +0.055 A  ATOM     18  C   UNL     1      40.114  46.889  17.884 -0.44 -0.00    +0.022 A  ATOM     19  C   UNL     1      40.597  48.718  16.124 -0.43 -0.06    +0.259 C  ATOM     20  N   UNL     1      39.878  49.138  15.054 -0.29 +0.13    -0.288 N  ATOM     21  N   UNL     1      39.563  45.418  19.454 -0.18 +0.01    -0.354 N  ATOM     22  C   UNL     1      41.197  46.782  18.821 -0.46 -0.00    +0.008 A  ATOM     23  C   UNL     1      40.823  45.851  19.791 -0.38 +0.00    +0.050 A  ATOM     24  C   UNL     1      42.466  47.386  18.943 -0.54 +0.00    +0.011 A  ATOM     25  C   UNL     1      43.302  47.045  20.010 -0.40 +0.00    +0.001 A  ATOM     26  C   UNL     1      42.894  46.112  20.957 -0.26 +0.00    +0.006 A  ATOM     27  C   UNL     1      36.809  46.677  13.164 -0.52 -0.06    +0.149 C  ATOM     28  O   UNL     1      37.690  49.018  14.414 -0.41 +0.19    -0.269 OA ATOM     29  O   UNL     1      41.640  49.203  16.510 -1.03 -0.03    -0.269 OA ATOM     30  H   UNL     1      40.094  49.998  14.573 -0.13 -0.12    +0.173 HD ATOM     31  H   UNL     1      39.052  44.728  19.983 +0.10 -0.00    +0.167 HD ENDBRANCH   3   4ENDBRANCH   2   3ENDBRANCH   1   2BRANCH   1  32ATOM     32  N   UNL     1      38.689  45.324  22.025 -0.18 -0.02    -0.314 NA ATOM     33  H   UNL     1      38.447  46.065  21.370 +0.04 +0.01    +0.122 HD BRANCH  32  34ATOM     34  C   UNL     1      37.471  44.634  22.475 -0.32 +0.01    +0.053 C  ATOM     35  C   UNL     1      37.028  43.507  21.518 -0.46 +0.00    +0.021 C  ATOM     36  C   UNL     1      37.749  44.109  23.897 -0.35 +0.00    +0.021 C  ATOM     37  C   UNL     1      37.569  42.141  21.938 -0.44 +0.00    +0.033 C  ATOM     38  C   UNL     1      36.824  42.952  24.249 -0.41 +0.00    +0.033 C  ATOM     39  C   UNL     1      37.066  41.749  23.333 -0.42 +0.01    +0.114 C  BRANCH  39  40ATOM     40  O   UNL     1      35.837  41.034  23.219 -0.24 +0.01    -0.393 OA ATOM     41  H   UNL     1      35.758  40.459  24.000 -0.17 -0.07    +0.210 HD ENDBRANCH  39  40ENDBRANCH  32  34ENDBRANCH   1  32TORSDOF 6TERENDMDL