
     RDKit          3D

 56 59  0  0  0  0  0  0  0  0999 V2000
    2.9158   -1.9341   -0.3858 C   0  0  0  0  0  0  0  0  0  0  0  0
    4.3288   -2.2316   -0.3674 N   0  0  0  0  0  0  0  0  0  0  0  0
    4.9144   -3.2012   -1.1349 C   0  0  0  0  0  0  0  0  0  0  0  0
    6.2015   -3.2950   -0.9027 N   0  0  0  0  0  0  0  0  0  0  0  0
    6.4546   -2.3432    0.0483 C   0  0  0  0  0  0  0  0  0  0  0  0
    5.3093   -1.6518    0.4153 C   0  0  0  0  0  0  0  0  0  0  0  0
    5.1305   -0.5733    1.3845 C   0  0  0  0  0  0  0  0  0  0  0  0
    6.0304   -0.3594    2.4197 C   0  0  0  0  0  0  0  0  0  0  0  0
    5.7973    0.6913    3.2993 C   0  0  0  0  0  0  0  0  0  0  0  0
    4.6793    1.4999    3.1165 C   0  0  0  0  0  0  0  0  0  0  0  0
    3.8188    1.2386    2.0523 C   0  0  0  0  0  0  0  0  0  0  0  0
    2.6060    2.0369    1.7749 C   0  0  0  0  0  0  0  0  0  0  0  0
    2.5077    3.3945    2.0964 C   0  0  0  0  0  0  0  0  0  0  0  0
    1.3383    4.0728    1.7963 C   0  0  0  0  0  0  0  0  0  0  0  0
    0.2697    3.5050    1.2003 N   0  0  0  0  0  0  0  0  0  0  0  0
    0.3619    2.1991    0.8799 C   0  0  0  0  0  0  0  0  0  0  0  0
   -0.7781    1.7112    0.2422 N   0  0  0  0  0  0  0  0  0  0  0  0
   -1.0309    0.4394   -0.2120 C   0  0  0  0  0  0  0  0  0  0  0  0
   -0.2949   -0.5275   -0.0515 O   0  0  0  0  0  0  0  0  0  0  0  0
   -2.3059    0.3107   -0.8806 C   0  0  0  0  0  0  0  0  0  0  0  0
   -3.2251   -0.7153   -0.7581 C   0  0  0  0  0  0  0  0  0  0  0  0
   -4.3145   -0.3720   -1.5938 C   0  0  0  0  0  0  0  0  0  0  0  0
   -5.6199   -1.1150   -1.8286 C   0  0  0  0  0  0  0  0  0  0  0  0
   -6.8127   -0.2397   -1.3925 C   0  0  0  0  0  0  0  0  0  0  0  0
   -5.7725   -1.4613   -3.3241 C   0  0  0  0  0  0  0  0  0  0  0  0
   -5.6817   -2.4334   -1.0292 C   0  0  0  0  0  0  0  0  0  0  0  0
   -4.0759    0.7861   -2.2249 N   0  0  0  0  0  0  0  0  0  0  0  0
   -2.8393    1.1404   -1.8330 N   0  0  0  0  0  0  0  0  0  0  0  0
   -2.2154    2.2747   -2.4763 C   0  0  0  0  0  0  0  0  0  0  0  0
    1.4937    1.4464    1.1497 C   0  0  0  0  0  0  0  0  0  0  0  0
    4.0430    0.2075    1.1968 N   0  0  0  0  0  0  0  0  0  0  0  0
    2.5366   -1.9454    0.6387 H   0  0  0  0  0  0  0  0  0  0  0  0
    2.7732   -0.9600   -0.8592 H   0  0  0  0  0  0  0  0  0  0  0  0
    2.3911   -2.6983   -0.9661 H   0  0  0  0  0  0  0  0  0  0  0  0
    4.3583   -3.8066   -1.8391 H   0  0  0  0  0  0  0  0  0  0  0  0
    7.4605   -2.1970    0.4201 H   0  0  0  0  0  0  0  0  0  0  0  0
    6.8943   -0.9999    2.5591 H   0  0  0  0  0  0  0  0  0  0  0  0
    6.4788    0.8746    4.1255 H   0  0  0  0  0  0  0  0  0  0  0  0
    4.4876    2.3066    3.8156 H   0  0  0  0  0  0  0  0  0  0  0  0
    3.3279    3.9359    2.5556 H   0  0  0  0  0  0  0  0  0  0  0  0
    1.2306    5.1286    2.0301 H   0  0  0  0  0  0  0  0  0  0  0  0
   -1.5042    2.4106    0.1870 H   0  0  0  0  0  0  0  0  0  0  0  0
   -3.1182   -1.5835   -0.1218 H   0  0  0  0  0  0  0  0  0  0  0  0
   -6.8626    0.6912   -1.9693 H   0  0  0  0  0  0  0  0  0  0  0  0
   -6.7352    0.0350   -0.3338 H   0  0  0  0  0  0  0  0  0  0  0  0
   -7.7640   -0.7653   -1.5337 H   0  0  0  0  0  0  0  0  0  0  0  0
   -4.9347   -2.0754   -3.6751 H   0  0  0  0  0  0  0  0  0  0  0  0
   -6.6978   -2.0183   -3.5107 H   0  0  0  0  0  0  0  0  0  0  0  0
   -5.8010   -0.5596   -3.9469 H   0  0  0  0  0  0  0  0  0  0  0  0
   -4.8670   -3.1110   -1.3106 H   0  0  0  0  0  0  0  0  0  0  0  0
   -5.6068   -2.2521    0.0495 H   0  0  0  0  0  0  0  0  0  0  0  0
   -6.6252   -2.9621   -1.2082 H   0  0  0  0  0  0  0  0  0  0  0  0
   -1.1374    2.1090   -2.5383 H   0  0  0  0  0  0  0  0  0  0  0  0
   -2.6197    2.3793   -3.4870 H   0  0  0  0  0  0  0  0  0  0  0  0
   -2.4400    3.1665   -1.8868 H   0  0  0  0  0  0  0  0  0  0  0  0
    1.5408    0.3965    0.8896 H   0  0  0  0  0  0  0  0  0  0  0  0
  1  2  1  0
  2  3  1  0
  3  4  2  0
  4  5  1  0
  5  6  2  0
  6  7  1  0
  7  8  2  0
  8  9  1  0
  9 10  2  0
 10 11  1  0
 11 12  1  0
 12 13  2  0
 13 14  1  0
 14 15  2  0
 15 16  1  0
 16 17  1  0
 17 18  1  0
 18 19  2  0
 18 20  1  0
 20 21  2  0
 21 22  1  0
 22 23  1  0
 23 24  1  0
 23 25  1  0
 23 26  1  0
 22 27  2  0
 27 28  1  0
 28 29  1  0
 16 30  2  0
 11 31  2  0
  6  2  1  0
 31  7  1  0
 30 12  1  0
 28 20  1  0
  1 32  1  0
  1 33  1  0
  1 34  1  0
  3 35  1  0
  5 36  1  0
  8 37  1  0
  9 38  1  0
 10 39  1  0
 13 40  1  0
 14 41  1  0
 17 42  1  0
 21 43  1  0
 24 44  1  0
 24 45  1  0
 24 46  1  0
 25 47  1  0
 25 48  1  0
 25 49  1  0
 26 50  1  0
 26 51  1  0
 26 52  1  0
 29 53  1  0
 29 54  1  0
 29 55  1  0
 30 56  1  0
M  END
$$$$
