
     RDKit          3D

 50 53  0  0  0  0  0  0  0  0999 V2000
    1.4241   -0.2387   -1.4165 C   0  0  0  0  0  0  0  0  0  0  0  0
   -0.0415   -0.3168   -1.0568 C   0  0  0  0  0  0  0  0  0  0  0  0
   -0.8718   -1.3433   -1.5576 C   0  0  0  0  0  0  0  0  0  0  0  0
   -0.4280   -2.4767   -2.2738 N   0  0  0  0  0  0  0  0  0  0  0  0
    0.6993   -3.2332   -1.9915 C   0  0  0  0  0  0  0  0  0  0  0  0
    1.5036   -3.0556   -1.0828 O   0  0  0  0  0  0  0  0  0  0  0  0
    0.8509   -4.4026   -2.9648 C   0  0  0  0  0  0  0  0  0  0  0  0
   -0.4263   -5.1348   -3.1392 N   0  0  0  0  0  0  0  0  0  0  0  0
   -0.6342   -6.1593   -2.0959 C   0  0  0  0  0  0  0  0  0  0  0  0
   -1.1423   -5.6597   -0.7382 C   0  0  0  0  0  0  0  0  0  0  0  0
   -2.4961   -5.1027   -0.8393 C   0  0  0  0  0  0  0  0  0  0  0  0
   -3.5751   -4.6817   -0.9219 N   0  0  0  0  0  0  0  0  0  0  0  0
   -2.2558   -1.2520   -1.3845 C   0  0  0  0  0  0  0  0  0  0  0  0
   -2.8184   -0.2161   -0.6436 C   0  0  0  0  0  0  0  0  0  0  0  0
   -2.0122    0.7613   -0.0579 C   0  0  0  0  0  0  0  0  0  0  0  0
   -2.5977    1.7793    0.7102 C   0  0  0  0  0  0  0  0  0  0  0  0
   -1.8161    2.7678    1.3084 C   0  0  0  0  0  0  0  0  0  0  0  0
   -0.4277    2.7558    1.1616 C   0  0  0  0  0  0  0  0  0  0  0  0
    0.4073    3.7809    1.8003 C   0  0  0  0  0  0  0  0  0  0  0  0
    0.3830    5.1061    1.3357 C   0  0  0  0  0  0  0  0  0  0  0  0
    1.1749    6.1065    1.9204 C   0  0  0  0  0  0  0  0  0  0  0  0
    2.0053    5.7646    2.9998 C   0  0  0  0  0  0  0  0  0  0  0  0
    2.9207    6.4392    3.8379 C   0  0  0  0  0  0  0  0  0  0  0  0
    3.4734    5.6356    4.7525 N   0  0  0  0  0  0  0  0  0  0  0  0
    2.9078    4.4413    4.4993 N   0  0  0  0  0  0  0  0  0  0  0  0
    2.0200    4.4521    3.4550 C   0  0  0  0  0  0  0  0  0  0  0  0
    1.2420    3.4388    2.8824 C   0  0  0  0  0  0  0  0  0  0  0  0
    0.1530    1.7337    0.3901 C   0  0  0  0  0  0  0  0  0  0  0  0
   -0.6098    0.7208   -0.2459 C   0  0  0  0  0  0  0  0  0  0  0  0
    2.0453   -0.5824   -0.5853 H   0  0  0  0  0  0  0  0  0  0  0  0
    1.6625   -0.8131   -2.3161 H   0  0  0  0  0  0  0  0  0  0  0  0
    1.7060    0.7895   -1.6706 H   0  0  0  0  0  0  0  0  0  0  0  0
   -1.1409   -3.0241   -2.7528 H   0  0  0  0  0  0  0  0  0  0  0  0
    1.6624   -5.0631   -2.6403 H   0  0  0  0  0  0  0  0  0  0  0  0
    1.1439   -3.9727   -3.9306 H   0  0  0  0  0  0  0  0  0  0  0  0
   -0.3635   -5.6259   -4.0344 H   0  0  0  0  0  0  0  0  0  0  0  0
    0.2878   -6.7373   -1.9524 H   0  0  0  0  0  0  0  0  0  0  0  0
   -1.3701   -6.8700   -2.4919 H   0  0  0  0  0  0  0  0  0  0  0  0
   -0.4560   -4.9298   -0.2988 H   0  0  0  0  0  0  0  0  0  0  0  0
   -1.1661   -6.5091   -0.0457 H   0  0  0  0  0  0  0  0  0  0  0  0
   -2.9227   -2.0087   -1.7935 H   0  0  0  0  0  0  0  0  0  0  0  0
   -3.8985   -0.1988   -0.5118 H   0  0  0  0  0  0  0  0  0  0  0  0
   -3.6753    1.8103    0.8529 H   0  0  0  0  0  0  0  0  0  0  0  0
   -2.2981    3.5402    1.9024 H   0  0  0  0  0  0  0  0  0  0  0  0
   -0.2562    5.3712    0.4936 H   0  0  0  0  0  0  0  0  0  0  0  0
    1.1418    7.1220    1.5387 H   0  0  0  0  0  0  0  0  0  0  0  0
    3.2038    7.4831    3.8167 H   0  0  0  0  0  0  0  0  0  0  0  0
    3.1706    3.6522    5.0788 H   0  0  0  0  0  0  0  0  0  0  0  0
    1.2734    2.4220    3.2638 H   0  0  0  0  0  0  0  0  0  0  0  0
    1.2377    1.7342    0.2928 H   0  0  0  0  0  0  0  0  0  0  0  0
  1  2  1  0
  2  3  2  0
  3  4  1  0
  4  5  1  0
  5  6  2  0
  5  7  1  0
  7  8  1  0
  8  9  1  0
  9 10  1  0
 10 11  1  0
 11 12  3  0
  3 13  1  0
 13 14  2  0
 14 15  1  0
 15 16  2  0
 16 17  1  0
 17 18  2  0
 18 19  1  0
 19 20  2  0
 20 21  1  0
 21 22  2  0
 22 23  1  0
 23 24  2  0
 24 25  1  0
 25 26  1  0
 26 27  2  0
 18 28  1  0
 28 29  2  0
 29  2  1  0
 29 15  1  0
 27 19  1  0
 26 22  1  0
  1 30  1  0
  1 31  1  0
  1 32  1  0
  4 33  1  0
  7 34  1  0
  7 35  1  0
  8 36  1  0
  9 37  1  0
  9 38  1  0
 10 39  1  0
 10 40  1  0
 13 41  1  0
 14 42  1  0
 16 43  1  0
 17 44  1  0
 20 45  1  0
 21 46  1  0
 23 47  1  0
 25 48  1  0
 27 49  1  0
 28 50  1  0
M  END
$$$$
