
     RDKit          3D

 49 51  0  0  0  0  0  0  0  0999 V2000
   -2.6619   -1.4701   -1.6304 C   0  0  0  0  0  0  0  0  0  0  0  0
   -4.4424   -1.4708   -1.7800 S   0  0  0  0  0  0  0  0  0  0  0  0
   -4.9605   -2.4924   -0.8926 O   0  0  0  0  0  0  0  0  0  0  0  0
   -4.7626   -1.4964   -3.1925 O   0  0  0  0  0  0  0  0  0  0  0  0
   -4.9246    0.0118   -1.1767 N   0  0  0  0  0  0  0  0  0  0  0  0
   -4.5383    1.2325   -1.9163 C   0  0  0  0  0  0  0  0  0  0  0  0
   -3.4206    1.8550   -1.0831 C   0  0  0  0  0  0  0  0  0  0  0  0
   -3.4948    1.1812    0.2116 N   0  0  0  0  0  0  0  0  0  0  0  0
   -2.5021    1.1827    1.1792 C   0  0  0  0  0  0  0  0  0  0  0  0
   -1.3122    1.7922    1.2860 C   0  0  0  0  0  0  0  0  0  0  0  0
   -0.5662    1.5015    2.3805 F   0  0  0  0  0  0  0  0  0  0  0  0
   -0.7337    2.7490    0.3789 C   0  0  0  0  0  0  0  0  0  0  0  0
   -1.4965    3.8358    0.1070 F   0  0  0  0  0  0  0  0  0  0  0  0
    0.5160    2.7548   -0.1096 C   0  0  0  0  0  0  0  0  0  0  0  0
    1.4960    1.7868   -0.0299 N   0  0  0  0  0  0  0  0  0  0  0  0
    1.3058    0.4155    0.0602 C   0  0  0  0  0  0  0  0  0  0  0  0
    0.2396   -0.1698   -0.0948 O   0  0  0  0  0  0  0  0  0  0  0  0
    2.5478   -0.3831    0.2585 C   0  0  0  0  0  0  0  0  0  0  0  0
    2.6181   -1.6633   -0.2980 C   0  0  0  0  0  0  0  0  0  0  0  0
    3.7667   -2.4395   -0.1296 C   0  0  0  0  0  0  0  0  0  0  0  0
    4.8572   -1.9534    0.6072 C   0  0  0  0  0  0  0  0  0  0  0  0
    6.0175   -2.7257    0.7858 C   0  0  0  0  0  0  0  0  0  0  0  0
    7.0901   -2.2331    1.5296 C   0  0  0  0  0  0  0  0  0  0  0  0
    7.0047   -0.9699    2.0973 C   0  0  0  0  0  0  0  0  0  0  0  0
    8.0341   -0.4978    2.8121 F   0  0  0  0  0  0  0  0  0  0  0  0
    5.8683   -0.1846    1.9367 C   0  0  0  0  0  0  0  0  0  0  0  0
    4.7822   -0.6630    1.1888 C   0  0  0  0  0  0  0  0  0  0  0  0
    3.6224    0.1098    1.0110 C   0  0  0  0  0  0  0  0  0  0  0  0
   -4.6227    0.2645    0.2187 C   0  0  0  0  0  0  0  0  0  0  0  0
   -5.8286    0.7540    0.8335 N   0  0  0  0  0  0  0  0  0  0  0  0
   -2.2470   -0.6526   -2.2207 H   0  0  0  0  0  0  0  0  0  0  0  0
   -2.3015   -2.4213   -2.0301 H   0  0  0  0  0  0  0  0  0  0  0  0
   -2.3822   -1.3944   -0.5799 H   0  0  0  0  0  0  0  0  0  0  0  0
   -5.4065    1.9001   -1.9645 H   0  0  0  0  0  0  0  0  0  0  0  0
   -4.2183    1.0413   -2.9441 H   0  0  0  0  0  0  0  0  0  0  0  0
   -3.5629    2.9359   -0.9866 H   0  0  0  0  0  0  0  0  0  0  0  0
   -2.4564    1.6656   -1.5668 H   0  0  0  0  0  0  0  0  0  0  0  0
   -2.7492    0.5073    1.9985 H   0  0  0  0  0  0  0  0  0  0  0  0
    0.8392    3.6561   -0.6264 H   0  0  0  0  0  0  0  0  0  0  0  0
    2.4300    2.0837   -0.2939 H   0  0  0  0  0  0  0  0  0  0  0  0
    1.7789   -2.0612   -0.8654 H   0  0  0  0  0  0  0  0  0  0  0  0
    3.7991   -3.4319   -0.5751 H   0  0  0  0  0  0  0  0  0  0  0  0
    6.0929   -3.7194    0.3489 H   0  0  0  0  0  0  0  0  0  0  0  0
    7.9875   -2.8271    1.6711 H   0  0  0  0  0  0  0  0  0  0  0  0
    5.8465    0.7962    2.4024 H   0  0  0  0  0  0  0  0  0  0  0  0
    3.5514    1.0846    1.4887 H   0  0  0  0  0  0  0  0  0  0  0  0
   -4.3408   -0.6586    0.7389 H   0  0  0  0  0  0  0  0  0  0  0  0
   -6.5202    0.0168    0.7331 H   0  0  0  0  0  0  0  0  0  0  0  0
   -5.6394    0.8646    1.8229 H   0  0  0  0  0  0  0  0  0  0  0  0
  1  2  1  0
  2  3  2  0
  2  4  2  0
  2  5  1  0
  5  6  1  0
  6  7  1  0
  7  8  1  0
  8  9  1  0
  9 10  2  3
 10 11  1  0
 10 12  1  0
 12 13  1  0
 12 14  2  3
 14 15  1  0
 15 16  1  0
 16 17  2  0
 16 18  1  0
 18 19  2  0
 19 20  1  0
 20 21  2  0
 21 22  1  0
 22 23  2  0
 23 24  1  0
 24 25  1  0
 24 26  2  0
 26 27  1  0
 27 28  2  0
  8 29  1  0
 29 30  1  0
 29  5  1  0
 28 18  1  0
 27 21  1  0
  1 31  1  0
  1 32  1  0
  1 33  1  0
  6 34  1  0
  6 35  1  0
  7 36  1  0
  7 37  1  0
  9 38  1  0
 14 39  1  0
 15 40  1  0
 19 41  1  0
 20 42  1  0
 22 43  1  0
 23 44  1  0
 26 45  1  0
 28 46  1  0
 29 47  1  0
 30 48  1  0
 30 49  1  0
M  END
$$$$
