
     RDKit          3D

 45 48  0  0  0  0  0  0  0  0999 V2000
   -5.1407   -0.0697    0.3374 C   0  0  0  0  0  0  0  0  0  0  0  0
   -4.3698    1.0230   -0.4052 C   0  0  0  0  0  0  0  0  0  0  0  0
   -4.7240    1.0623   -1.8915 C   0  0  0  0  0  0  0  0  0  0  0  0
   -2.8875    0.9786   -0.0937 C   0  0  0  0  0  0  0  0  0  0  0  0
   -2.4936    1.9238    0.8042 N   0  0  0  0  0  0  0  0  0  0  0  0
   -1.2001    1.9743    1.1681 C   0  0  0  0  0  0  0  0  0  0  0  0
   -0.8103    2.9397    2.0861 C   0  0  0  0  0  0  0  0  0  0  0  0
    0.5111    3.0519    2.5077 C   0  0  0  0  0  0  0  0  0  0  0  0
    1.4618    2.1775    2.0001 C   0  0  0  0  0  0  0  0  0  0  0  0
    1.0913    1.1893    1.0718 C   0  0  0  0  0  0  0  0  0  0  0  0
    2.1330    0.2858    0.5537 C   0  0  0  0  0  0  0  0  0  0  0  0
    2.4313    0.0012   -0.8571 C   0  0  0  0  0  0  0  0  0  0  0  0
    3.4339   -0.8824   -0.9104 C   0  0  0  0  0  0  0  0  0  0  0  0
    4.1418   -1.5601   -2.0010 C   0  0  0  0  0  0  0  0  0  0  0  0
    5.1086   -2.4066   -1.7937 N   0  0  0  0  0  0  0  0  0  0  0  0
    5.4518   -2.6095   -0.4715 N   0  0  0  0  0  0  0  0  0  0  0  0
    4.8299   -2.0628    0.6484 C   0  0  0  0  0  0  0  0  0  0  0  0
    5.2811   -2.4165    1.9006 N   0  0  0  0  0  0  0  0  0  0  0  0
    3.8217   -1.1912    0.4445 C   0  0  0  0  0  0  0  0  0  0  0  0
    2.9684   -0.4379    1.3346 C   0  0  0  0  0  0  0  0  0  0  0  0
   -0.2464    1.0790    0.6429 C   0  0  0  0  0  0  0  0  0  0  0  0
   -0.6415    0.1400   -0.2480 N   0  0  0  0  0  0  0  0  0  0  0  0
   -1.9583    0.0757   -0.6093 C   0  0  0  0  0  0  0  0  0  0  0  0
   -2.2931   -0.9961   -1.6245 C   0  0  0  0  0  0  0  0  0  0  0  0
   -1.2459   -2.0248   -1.7509 N   0  0  0  0  0  0  0  0  0  0  0  0
   -4.9396   -0.0274    1.4138 H   0  0  0  0  0  0  0  0  0  0  0  0
   -6.2196    0.0564    0.1949 H   0  0  0  0  0  0  0  0  0  0  0  0
   -4.8773   -1.0733   -0.0071 H   0  0  0  0  0  0  0  0  0  0  0  0
   -4.7378    1.9775    0.0000 H   0  0  0  0  0  0  0  0  0  0  0  0
   -4.0962    1.7797   -2.4307 H   0  0  0  0  0  0  0  0  0  0  0  0
   -5.7682    1.3693   -2.0211 H   0  0  0  0  0  0  0  0  0  0  0  0
   -4.6240    0.0864   -2.3731 H   0  0  0  0  0  0  0  0  0  0  0  0
   -1.5596    3.6228    2.4804 H   0  0  0  0  0  0  0  0  0  0  0  0
    0.7936    3.8190    3.2242 H   0  0  0  0  0  0  0  0  0  0  0  0
    2.4970    2.2747    2.3215 H   0  0  0  0  0  0  0  0  0  0  0  0
    1.8973    0.4309   -1.6896 H   0  0  0  0  0  0  0  0  0  0  0  0
    3.8135   -1.3343   -3.0271 H   0  0  0  0  0  0  0  0  0  0  0  0
    6.0272   -3.4235   -0.2707 H   0  0  0  0  0  0  0  0  0  0  0  0
    5.0031   -1.7514    2.6152 H   0  0  0  0  0  0  0  0  0  0  0  0
    6.2877   -2.5516    1.8963 H   0  0  0  0  0  0  0  0  0  0  0  0
    2.9938   -0.4768    2.4105 H   0  0  0  0  0  0  0  0  0  0  0  0
   -3.2182   -1.5096   -1.3571 H   0  0  0  0  0  0  0  0  0  0  0  0
   -2.4191   -0.5252   -2.6042 H   0  0  0  0  0  0  0  0  0  0  0  0
   -0.3611   -1.5154   -1.8406 H   0  0  0  0  0  0  0  0  0  0  0  0
   -1.1470   -2.4727   -0.8378 H   0  0  0  0  0  0  0  0  0  0  0  0
  1  2  1  0
  2  3  1  0
  2  4  1  0
  4  5  2  0
  5  6  1  0
  6  7  2  0
  7  8  1  0
  8  9  2  0
  9 10  1  0
 10 11  1  0
 11 12  1  0
 12 13  2  0
 13 14  1  0
 14 15  2  0
 15 16  1  0
 16 17  1  0
 17 18  1  0
 17 19  2  0
 19 20  1  0
 10 21  2  0
 21 22  1  0
 22 23  2  0
 23 24  1  0
 24 25  1  0
 23  4  1  0
 21  6  1  0
 20 11  2  0
 19 13  1  0
  1 26  1  0
  1 27  1  0
  1 28  1  0
  2 29  1  0
  3 30  1  0
  3 31  1  0
  3 32  1  0
  7 33  1  0
  8 34  1  0
  9 35  1  0
 12 36  1  0
 14 37  1  0
 16 38  1  0
 18 39  1  0
 18 40  1  0
 20 41  1  0
 24 42  1  0
 24 43  1  0
 25 44  1  0
 25 45  1  0
M  END
$$$$
