
     RDKit          3D

 43 45  0  0  0  0  0  0  0  0999 V2000
    4.9336    2.8656    1.0246 C   0  0  0  0  0  0  0  0  0  0  0  0
    4.5568    1.8329   -0.0097 C   0  0  0  0  0  0  0  0  0  0  0  0
    5.2149    1.7222   -1.0371 O   0  0  0  0  0  0  0  0  0  0  0  0
    3.4296    1.1270    0.3583 N   0  0  0  0  0  0  0  0  0  0  0  0
    2.8249    0.1053   -0.3867 C   0  0  0  0  0  0  0  0  0  0  0  0
    1.6794   -0.4753    0.1494 C   0  0  0  0  0  0  0  0  0  0  0  0
    1.0126   -1.4923   -0.5497 C   0  0  0  0  0  0  0  0  0  0  0  0
   -0.2115   -2.1152   -0.0069 C   0  0  0  0  0  0  0  0  0  0  0  0
   -0.2743   -3.5118    0.1493 C   0  0  0  0  0  0  0  0  0  0  0  0
   -1.4129   -4.1312    0.6665 C   0  0  0  0  0  0  0  0  0  0  0  0
   -2.5105   -3.3645    1.0480 C   0  0  0  0  0  0  0  0  0  0  0  0
   -2.4798   -1.9710    0.9168 C   0  0  0  0  0  0  0  0  0  0  0  0
   -1.3417   -1.3556    0.3699 C   0  0  0  0  0  0  0  0  0  0  0  0
   -1.2618    0.0062    0.2028 O   0  0  0  0  0  0  0  0  0  0  0  0
   -2.5104    0.7140    0.2232 C   0  0  0  0  0  0  0  0  0  0  0  0
   -2.2269    2.2340    0.1940 C   0  0  0  0  0  0  0  0  0  0  0  0
   -1.3267    2.6303   -0.9722 C   0  0  0  0  0  0  0  0  0  0  0  0
   -1.6122    2.6638    1.4132 O   0  0  0  0  0  0  0  0  0  0  0  0
   -3.3224    0.3135    1.4523 C   0  0  0  0  0  0  0  0  0  0  0  0
   -3.6740   -1.1624    1.3393 C   0  0  0  0  0  0  0  0  0  0  0  0
    1.5493   -1.8922   -1.7751 C   0  0  0  0  0  0  0  0  0  0  0  0
    2.6964   -1.2685   -2.2322 C   0  0  0  0  0  0  0  0  0  0  0  0
    3.3362   -0.2887   -1.5631 N   0  0  0  0  0  0  0  0  0  0  0  0
    6.0031    3.0824    0.9484 H   0  0  0  0  0  0  0  0  0  0  0  0
    4.3634    3.7810    0.8460 H   0  0  0  0  0  0  0  0  0  0  0  0
    4.7348    2.5001    2.0363 H   0  0  0  0  0  0  0  0  0  0  0  0
    2.9800    1.3709    1.2280 H   0  0  0  0  0  0  0  0  0  0  0  0
    1.2859   -0.1400    1.1045 H   0  0  0  0  0  0  0  0  0  0  0  0
    0.5791   -4.1306   -0.1222 H   0  0  0  0  0  0  0  0  0  0  0  0
   -1.4384   -5.2121    0.7795 H   0  0  0  0  0  0  0  0  0  0  0  0
   -3.3893   -3.8583    1.4568 H   0  0  0  0  0  0  0  0  0  0  0  0
   -3.0576    0.4586   -0.6953 H   0  0  0  0  0  0  0  0  0  0  0  0
   -3.1808    2.7681    0.1112 H   0  0  0  0  0  0  0  0  0  0  0  0
   -1.7430    2.2960   -1.9273 H   0  0  0  0  0  0  0  0  0  0  0  0
   -1.2099    3.7189   -1.0086 H   0  0  0  0  0  0  0  0  0  0  0  0
   -0.3194    2.2155   -0.8585 H   0  0  0  0  0  0  0  0  0  0  0  0
   -1.4143    3.6115    1.3218 H   0  0  0  0  0  0  0  0  0  0  0  0
   -2.7297    0.4679    2.3632 H   0  0  0  0  0  0  0  0  0  0  0  0
   -4.2368    0.9101    1.5406 H   0  0  0  0  0  0  0  0  0  0  0  0
   -4.4673   -1.2981    0.5939 H   0  0  0  0  0  0  0  0  0  0  0  0
   -4.0542   -1.5180    2.3039 H   0  0  0  0  0  0  0  0  0  0  0  0
    1.0795   -2.6648   -2.3743 H   0  0  0  0  0  0  0  0  0  0  0  0
    3.1462   -1.5448   -3.1814 H   0  0  0  0  0  0  0  0  0  0  0  0
  1  2  1  0
  2  3  2  0
  2  4  1  0
  4  5  1  0
  5  6  2  0
  6  7  1  0
  7  8  1  0
  8  9  2  0
  9 10  1  0
 10 11  2  0
 11 12  1  0
 12 13  2  0
 13 14  1  0
 14 15  1  0
 15 16  1  0
 16 17  1  0
 16 18  1  0
 15 19  1  0
 19 20  1  0
  7 21  2  0
 21 22  1  0
 22 23  2  0
 23  5  1  0
 13  8  1  0
 20 12  1  0
  1 24  1  0
  1 25  1  0
  1 26  1  0
  4 27  1  0
  6 28  1  0
  9 29  1  0
 10 30  1  0
 11 31  1  0
 15 32  1  0
 16 33  1  0
 17 34  1  0
 17 35  1  0
 17 36  1  0
 18 37  1  0
 19 38  1  0
 19 39  1  0
 20 40  1  0
 20 41  1  0
 21 42  1  0
 22 43  1  0
M  END
$$$$
