
     RDKit          3D

 52 54  0  0  0  0  0  0  0  0999 V2000
   -7.1962    1.4006    1.1553 C   0  0  0  0  0  0  0  0  0  0  0  0
   -6.9386    2.3920    0.0339 C   0  0  0  0  0  0  0  0  0  0  0  0
   -6.2145    1.8013   -1.1815 C   0  0  0  0  0  0  0  0  0  0  0  0
   -4.8504    1.3663   -0.8768 N   0  0  0  0  0  0  0  0  0  0  0  0
   -4.7587   -0.0921   -0.7153 C   0  0  0  0  0  0  0  0  0  0  0  0
   -3.3525   -0.5121   -0.3523 C   0  0  0  0  0  0  0  0  0  0  0  0
   -2.7076   -1.5409   -1.0580 C   0  0  0  0  0  0  0  0  0  0  0  0
   -1.4160   -1.9556   -0.7069 C   0  0  0  0  0  0  0  0  0  0  0  0
   -0.7462   -1.3471    0.3552 C   0  0  0  0  0  0  0  0  0  0  0  0
    0.5518   -1.6910    0.7826 N   0  0  0  0  0  0  0  0  0  0  0  0
    1.3750   -2.6834    0.2821 C   0  0  0  0  0  0  0  0  0  0  0  0
    1.1177   -3.4410   -0.6490 O   0  0  0  0  0  0  0  0  0  0  0  0
    2.7024   -2.7732    1.0128 C   0  0  0  0  0  0  0  0  0  0  0  0
    3.6862   -1.8425    0.3990 C   0  0  0  0  0  0  0  0  0  0  0  0
    3.8846   -0.6357    0.9395 N   0  0  0  0  0  0  0  0  0  0  0  0
    4.7972   -0.0323    0.1386 N   0  0  0  0  0  0  0  0  0  0  0  0
    5.2031    1.3049    0.3890 C   0  0  0  0  0  0  0  0  0  0  0  0
    6.1379    1.9494   -0.4248 C   0  0  0  0  0  0  0  0  0  0  0  0
    6.4647    3.2638   -0.1242 C   0  0  0  0  0  0  0  0  0  0  0  0
    5.9372    3.9563    0.9059 N   0  0  0  0  0  0  0  0  0  0  0  0
    5.0394    3.3056    1.6757 C   0  0  0  0  0  0  0  0  0  0  0  0
    4.5004    3.9791    2.7027 F   0  0  0  0  0  0  0  0  0  0  0  0
    4.6429    1.9990    1.4652 C   0  0  0  0  0  0  0  0  0  0  0  0
    5.2002   -0.8708   -0.8729 C   0  0  0  0  0  0  0  0  0  0  0  0
    4.4902   -2.0454   -0.7484 C   0  0  0  0  0  0  0  0  0  0  0  0
    4.5410   -3.2327   -1.6402 C   0  0  0  0  0  0  0  0  0  0  0  0
   -1.3959   -0.3262    1.0574 C   0  0  0  0  0  0  0  0  0  0  0  0
   -0.7729    0.2656    2.0907 F   0  0  0  0  0  0  0  0  0  0  0  0
   -2.6818    0.0871    0.7230 C   0  0  0  0  0  0  0  0  0  0  0  0
   -7.7085    0.5056    0.7826 H   0  0  0  0  0  0  0  0  0  0  0  0
   -6.2645    1.0963    1.6397 H   0  0  0  0  0  0  0  0  0  0  0  0
   -7.8327    1.8548    1.9211 H   0  0  0  0  0  0  0  0  0  0  0  0
   -7.9031    2.7927   -0.3019 H   0  0  0  0  0  0  0  0  0  0  0  0
   -6.3676    3.2442    0.4284 H   0  0  0  0  0  0  0  0  0  0  0  0
   -6.1458    2.5980   -1.9351 H   0  0  0  0  0  0  0  0  0  0  0  0
   -6.8110    1.0040   -1.6420 H   0  0  0  0  0  0  0  0  0  0  0  0
   -4.2323    1.6278   -1.6556 H   0  0  0  0  0  0  0  0  0  0  0  0
   -5.0566   -0.5827   -1.6520 H   0  0  0  0  0  0  0  0  0  0  0  0
   -5.4302   -0.4561    0.0731 H   0  0  0  0  0  0  0  0  0  0  0  0
   -3.2054   -2.0325   -1.8928 H   0  0  0  0  0  0  0  0  0  0  0  0
   -0.9622   -2.7520   -1.2877 H   0  0  0  0  0  0  0  0  0  0  0  0
    0.9271   -1.1079    1.5270 H   0  0  0  0  0  0  0  0  0  0  0  0
    2.5576   -2.5526    2.0809 H   0  0  0  0  0  0  0  0  0  0  0  0
    3.0591   -3.8116    0.9626 H   0  0  0  0  0  0  0  0  0  0  0  0
    6.6128    1.4756   -1.2734 H   0  0  0  0  0  0  0  0  0  0  0  0
    7.1819    3.8137   -0.7305 H   0  0  0  0  0  0  0  0  0  0  0  0
    3.9113    1.5520    2.1320 H   0  0  0  0  0  0  0  0  0  0  0  0
    5.9288   -0.5767   -1.6079 H   0  0  0  0  0  0  0  0  0  0  0  0
    3.7892   -3.1394   -2.4274 H   0  0  0  0  0  0  0  0  0  0  0  0
    5.5250   -3.3306   -2.1144 H   0  0  0  0  0  0  0  0  0  0  0  0
    4.3403   -4.1548   -1.0851 H   0  0  0  0  0  0  0  0  0  0  0  0
   -3.1536    0.8831    1.3003 H   0  0  0  0  0  0  0  0  0  0  0  0
  1  2  1  0
  2  3  1  0
  3  4  1  0
  4  5  1  0
  5  6  1  0
  6  7  2  0
  7  8  1  0
  8  9  2  0
  9 10  1  0
 10 11  1  0
 11 12  2  0
 11 13  1  0
 13 14  1  0
 14 15  2  0
 15 16  1  0
 16 17  1  0
 17 18  2  0
 18 19  1  0
 19 20  2  0
 20 21  1  0
 21 22  1  0
 21 23  2  0
 16 24  1  0
 24 25  2  0
 25 26  1  0
  9 27  1  0
 27 28  1  0
 27 29  2  0
 29  6  1  0
 25 14  1  0
 23 17  1  0
  1 30  1  0
  1 31  1  0
  1 32  1  0
  2 33  1  0
  2 34  1  0
  3 35  1  0
  3 36  1  0
  4 37  1  0
  5 38  1  0
  5 39  1  0
  7 40  1  0
  8 41  1  0
 10 42  1  0
 13 43  1  0
 13 44  1  0
 18 45  1  0
 19 46  1  0
 23 47  1  0
 24 48  1  0
 26 49  1  0
 26 50  1  0
 26 51  1  0
 29 52  1  0
M  END
$$$$
