
     RDKit          3D

 60 63  0  0  0  0  0  0  0  0999 V2000
    9.3676    0.8598   -1.0315 C   0  0  0  0  0  0  0  0  0  0  0  0
    8.0461    0.8448   -0.5068 O   0  0  0  0  0  0  0  0  0  0  0  0
    7.5338   -0.3679   -0.1293 C   0  0  0  0  0  0  0  0  0  0  0  0
    8.1861   -1.5962   -0.2579 C   0  0  0  0  0  0  0  0  0  0  0  0
    7.5647   -2.7676    0.1821 C   0  0  0  0  0  0  0  0  0  0  0  0
    6.2889   -2.7154    0.7381 C   0  0  0  0  0  0  0  0  0  0  0  0
    5.7672   -3.9048    1.1733 O   0  0  0  0  0  0  0  0  0  0  0  0
    5.6009   -1.4998    0.8373 C   0  0  0  0  0  0  0  0  0  0  0  0
    4.2368   -1.4841    1.4109 C   0  0  0  0  0  0  0  0  0  0  0  0
    3.9572   -2.3485    2.2447 O   0  0  0  0  0  0  0  0  0  0  0  0
    3.1881   -0.5232    0.9931 C   0  0  0  0  0  0  0  0  0  0  0  0
    2.2654   -0.0912    1.9513 C   0  0  0  0  0  0  0  0  0  0  0  0
    1.2458    0.7923    1.5924 C   0  0  0  0  0  0  0  0  0  0  0  0
    1.1264    1.2448    0.2698 C   0  0  0  0  0  0  0  0  0  0  0  0
    0.0266    2.2158   -0.1087 C   0  0  0  0  0  0  0  0  0  0  0  0
   -1.3273    1.6763    0.1196 N   0  0  0  0  0  0  0  0  0  0  0  0
   -2.3180    2.7598    0.0466 C   0  0  0  0  0  0  0  0  0  0  0  0
   -3.7212    2.2413    0.3543 C   0  0  0  0  0  0  0  0  0  0  0  0
   -4.1024    1.1113   -0.5997 C   0  0  0  0  0  0  0  0  0  0  0  0
   -5.4073    0.5603   -0.2542 N   0  0  0  0  0  0  0  0  0  0  0  0
   -6.2182   -0.0277   -1.2024 C   0  0  0  0  0  0  0  0  0  0  0  0
   -5.9692   -0.0276   -2.4027 O   0  0  0  0  0  0  0  0  0  0  0  0
   -7.4683   -0.6603   -0.7081 C   0  0  0  0  0  0  0  0  0  0  0  0
   -8.5727   -0.6872   -1.5596 C   0  0  0  0  0  0  0  0  0  0  0  0
   -9.7336   -1.2789   -1.0996 C   0  0  0  0  0  0  0  0  0  0  0  0
   -9.8536   -1.8379    0.1238 N   0  0  0  0  0  0  0  0  0  0  0  0
   -8.7623   -1.8183    0.9177 C   0  0  0  0  0  0  0  0  0  0  0  0
   -7.5551   -1.2484    0.5536 C   0  0  0  0  0  0  0  0  0  0  0  0
   -3.0312    0.0210   -0.5794 C   0  0  0  0  0  0  0  0  0  0  0  0
   -1.6463    0.6093   -0.8448 C   0  0  0  0  0  0  0  0  0  0  0  0
    2.0421    0.7893   -0.6897 C   0  0  0  0  0  0  0  0  0  0  0  0
    3.0625   -0.0979   -0.3340 C   0  0  0  0  0  0  0  0  0  0  0  0
    6.2458   -0.3318    0.4265 C   0  0  0  0  0  0  0  0  0  0  0  0
    5.6468    0.8603    0.5815 F   0  0  0  0  0  0  0  0  0  0  0  0
    9.4266    0.2907   -1.9651 H   0  0  0  0  0  0  0  0  0  0  0  0
   10.0895    0.4902   -0.2956 H   0  0  0  0  0  0  0  0  0  0  0  0
    9.6254    1.8990   -1.2581 H   0  0  0  0  0  0  0  0  0  0  0  0
    9.1812   -1.6781   -0.6834 H   0  0  0  0  0  0  0  0  0  0  0  0
    8.0790   -3.7228    0.1012 H   0  0  0  0  0  0  0  0  0  0  0  0
    4.9758   -3.7022    1.7238 H   0  0  0  0  0  0  0  0  0  0  0  0
    2.3358   -0.4411    2.9789 H   0  0  0  0  0  0  0  0  0  0  0  0
    0.5323    1.1223    2.3452 H   0  0  0  0  0  0  0  0  0  0  0  0
    0.1432    2.5448   -1.1499 H   0  0  0  0  0  0  0  0  0  0  0  0
    0.1826    3.1093    0.5113 H   0  0  0  0  0  0  0  0  0  0  0  0
   -2.0770    3.5345    0.7848 H   0  0  0  0  0  0  0  0  0  0  0  0
   -2.3055    3.2370   -0.9422 H   0  0  0  0  0  0  0  0  0  0  0  0
   -4.4446    3.0617    0.2722 H   0  0  0  0  0  0  0  0  0  0  0  0
   -3.7656    1.8910    1.3944 H   0  0  0  0  0  0  0  0  0  0  0  0
   -4.1675    1.5187   -1.6171 H   0  0  0  0  0  0  0  0  0  0  0  0
   -5.6658    0.5365    0.7219 H   0  0  0  0  0  0  0  0  0  0  0  0
   -8.5282   -0.2561   -2.5544 H   0  0  0  0  0  0  0  0  0  0  0  0
  -10.6244   -1.3226   -1.7195 H   0  0  0  0  0  0  0  0  0  0  0  0
   -8.8881   -2.2966    1.8853 H   0  0  0  0  0  0  0  0  0  0  0  0
   -6.7123   -1.2988    1.2309 H   0  0  0  0  0  0  0  0  0  0  0  0
   -3.2546   -0.7442   -1.3328 H   0  0  0  0  0  0  0  0  0  0  0  0
   -3.0344   -0.4910    0.3924 H   0  0  0  0  0  0  0  0  0  0  0  0
   -0.9219   -0.2093   -0.7661 H   0  0  0  0  0  0  0  0  0  0  0  0
   -1.5980    0.9878   -1.8745 H   0  0  0  0  0  0  0  0  0  0  0  0
    1.9621    1.1174   -1.7239 H   0  0  0  0  0  0  0  0  0  0  0  0
    3.7422   -0.4496   -1.1050 H   0  0  0  0  0  0  0  0  0  0  0  0
  1  2  1  0
  2  3  1  0
  3  4  2  0
  4  5  1  0
  5  6  2  0
  6  7  1  0
  6  8  1  0
  8  9  1  0
  9 10  2  0
  9 11  1  0
 11 12  2  0
 12 13  1  0
 13 14  2  0
 14 15  1  0
 15 16  1  0
 16 17  1  0
 17 18  1  0
 18 19  1  0
 19 20  1  0
 20 21  1  0
 21 22  2  0
 21 23  1  0
 23 24  2  0
 24 25  1  0
 25 26  2  0
 26 27  1  0
 27 28  2  0
 19 29  1  0
 29 30  1  0
 14 31  1  0
 31 32  2  0
  8 33  2  0
 33 34  1  0
 33  3  1  0
 32 11  1  0
 30 16  1  0
 28 23  1  0
  1 35  1  0
  1 36  1  0
  1 37  1  0
  4 38  1  0
  5 39  1  0
  7 40  1  0
 12 41  1  0
 13 42  1  0
 15 43  1  0
 15 44  1  0
 17 45  1  0
 17 46  1  0
 18 47  1  0
 18 48  1  0
 19 49  1  0
 20 50  1  0
 24 51  1  0
 25 52  1  0
 27 53  1  0
 28 54  1  0
 29 55  1  0
 29 56  1  0
 30 57  1  0
 30 58  1  0
 31 59  1  0
 32 60  1  0
M  END
$$$$
