
     RDKit          3D

 33 35  0  0  0  0  0  0  0  0999 V2000
   -0.9769   -2.8579   -0.1425 O   0  0  0  0  0  0  0  0  0  0  0  0
   -1.5590   -1.8159    0.1187 C   0  0  0  0  0  0  0  0  0  0  0  0
   -2.8920   -1.7996    0.4501 N   0  0  0  0  0  0  0  0  0  0  0  0
   -3.5819   -0.6082    0.6779 C   0  0  0  0  0  0  0  0  0  0  0  0
   -4.9416   -0.6396    0.9870 C   0  0  0  0  0  0  0  0  0  0  0  0
   -5.6144    0.5617    1.2039 C   0  0  0  0  0  0  0  0  0  0  0  0
   -7.2919    0.5413    1.5864 Cl  0  0  0  0  0  0  0  0  0  0  0  0
   -4.9413    1.7797    1.1135 C   0  0  0  0  0  0  0  0  0  0  0  0
   -3.5790    1.7976    0.8027 C   0  0  0  0  0  0  0  0  0  0  0  0
   -2.8873    0.6054    0.5815 C   0  0  0  0  0  0  0  0  0  0  0  0
   -1.5192    0.6672    0.2787 N   0  0  0  0  0  0  0  0  0  0  0  0
   -0.8604   -0.4426    0.0755 C   0  0  0  0  0  0  0  0  0  0  0  0
    0.5994   -0.3609   -0.2223 C   0  0  0  0  0  0  0  0  0  0  0  0
    1.4987   -1.3594    0.1619 C   0  0  0  0  0  0  0  0  0  0  0  0
    2.8619   -1.2304   -0.1246 C   0  0  0  0  0  0  0  0  0  0  0  0
    3.3471   -0.0987   -0.7927 C   0  0  0  0  0  0  0  0  0  0  0  0
    4.8212    0.0426   -1.0894 C   0  0  0  0  0  0  0  0  0  0  0  0
    5.6043    0.7255    0.0180 C   0  0  0  0  0  0  0  0  0  0  0  0
    6.9126    0.8104   -0.3244 F   0  0  0  0  0  0  0  0  0  0  0  0
    5.5398    0.0400    1.1800 F   0  0  0  0  0  0  0  0  0  0  0  0
    5.1687    1.9838    0.2438 F   0  0  0  0  0  0  0  0  0  0  0  0
    2.4486    0.9114   -1.1564 C   0  0  0  0  0  0  0  0  0  0  0  0
    1.0868    0.7821   -0.8708 C   0  0  0  0  0  0  0  0  0  0  0  0
   -3.3628   -2.6930    0.4812 H   0  0  0  0  0  0  0  0  0  0  0  0
   -5.4755   -1.5820    1.0592 H   0  0  0  0  0  0  0  0  0  0  0  0
   -5.4665    2.7160    1.2837 H   0  0  0  0  0  0  0  0  0  0  0  0
   -3.0492    2.7444    0.7337 H   0  0  0  0  0  0  0  0  0  0  0  0
    1.1674   -2.2439    0.6998 H   0  0  0  0  0  0  0  0  0  0  0  0
    3.5406   -2.0226    0.1877 H   0  0  0  0  0  0  0  0  0  0  0  0
    4.9490    0.6028   -2.0239 H   0  0  0  0  0  0  0  0  0  0  0  0
    5.2480   -0.9502   -1.2777 H   0  0  0  0  0  0  0  0  0  0  0  0
    2.7978    1.8113   -1.6595 H   0  0  0  0  0  0  0  0  0  0  0  0
    0.4070    1.5819   -1.1589 H   0  0  0  0  0  0  0  0  0  0  0  0
  1  2  2  0
  2  3  1  0
  3  4  1  0
  4  5  2  0
  5  6  1  0
  6  7  1  0
  6  8  2  0
  8  9  1  0
  9 10  2  0
 10 11  1  0
 11 12  2  0
 12 13  1  0
 13 14  2  0
 14 15  1  0
 15 16  2  0
 16 17  1  0
 17 18  1  0
 18 19  1  0
 18 20  1  0
 18 21  1  0
 16 22  1  0
 22 23  2  0
 12  2  1  0
 23 13  1  0
 10  4  1  0
  3 24  1  0
  5 25  1  0
  8 26  1  0
  9 27  1  0
 14 28  1  0
 15 29  1  0
 17 30  1  0
 17 31  1  0
 22 32  1  0
 23 33  1  0
M  END
$$$$
