
     RDKit          3D

 55 57  0  0  0  0  0  0  0  0999 V2000
    7.9116    1.5219    2.9105 C   0  0  0  0  0  0  0  0  0  0  0  0
    6.7201    1.3801    2.1468 O   0  0  0  0  0  0  0  0  0  0  0  0
    6.7993    0.6580    0.9861 C   0  0  0  0  0  0  0  0  0  0  0  0
    7.9494    0.0325    0.4995 C   0  0  0  0  0  0  0  0  0  0  0  0
    7.9088   -0.6628   -0.7121 C   0  0  0  0  0  0  0  0  0  0  0  0
    6.7195   -0.7440   -1.4317 C   0  0  0  0  0  0  0  0  0  0  0  0
    6.7741   -1.4171   -2.6229 O   0  0  0  0  0  0  0  0  0  0  0  0
    5.5464   -0.1590   -0.9406 C   0  0  0  0  0  0  0  0  0  0  0  0
    4.2928   -0.2846   -1.7153 C   0  0  0  0  0  0  0  0  0  0  0  0
    4.3788   -0.3915   -2.9402 O   0  0  0  0  0  0  0  0  0  0  0  0
    2.9515   -0.3459   -1.0883 C   0  0  0  0  0  0  0  0  0  0  0  0
    2.7293   -1.0323    0.1102 C   0  0  0  0  0  0  0  0  0  0  0  0
    1.4397   -1.0939    0.6471 C   0  0  0  0  0  0  0  0  0  0  0  0
    0.3629   -0.4934   -0.0197 C   0  0  0  0  0  0  0  0  0  0  0  0
   -0.9901   -0.5892    0.5960 C   0  0  0  0  0  0  0  0  0  0  0  0
   -1.1058   -0.7422    1.8066 O   0  0  0  0  0  0  0  0  0  0  0  0
   -2.0669   -0.5302   -0.2683 N   0  0  0  0  0  0  0  0  0  0  0  0
   -3.4349   -0.7108    0.2137 C   0  0  1  0  0  0  0  0  0  0  0  0
   -3.9210    0.4962    1.0351 C   0  0  0  0  0  0  0  0  0  0  0  0
   -4.8560    1.3876    0.2219 C   0  0  0  0  0  0  0  0  0  0  0  0
   -6.0543    0.6893   -0.2707 N   0  0  0  0  0  0  0  0  0  0  0  0
   -7.2110    0.8807    0.6521 C   0  0  0  0  0  0  0  0  0  0  0  0
   -8.5781    0.2612    0.2864 C   0  0  0  0  0  0  0  0  0  0  0  0
   -8.5835   -1.0793    0.4459 F   0  0  0  0  0  0  0  0  0  0  0  0
   -8.9373    0.5488   -0.9838 F   0  0  0  0  0  0  0  0  0  0  0  0
   -9.5410    0.7613    1.1003 F   0  0  0  0  0  0  0  0  0  0  0  0
   -5.8251   -0.7201   -0.5673 C   0  0  0  0  0  0  0  0  0  0  0  0
   -6.6421   -1.0601   -1.6640 O   0  0  0  0  0  0  0  0  0  0  0  0
   -4.3768   -1.0138   -0.9538 C   0  0  0  0  0  0  0  0  0  0  0  0
    0.5875    0.1890   -1.2222 C   0  0  0  0  0  0  0  0  0  0  0  0
    1.8771    0.2517   -1.7595 C   0  0  0  0  0  0  0  0  0  0  0  0
    5.6067    0.5614    0.2536 C   0  0  0  0  0  0  0  0  0  0  0  0
    4.5170    1.1999    0.7105 F   0  0  0  0  0  0  0  0  0  0  0  0
    8.2704    0.5498    3.2645 H   0  0  0  0  0  0  0  0  0  0  0  0
    7.6753    2.1297    3.7893 H   0  0  0  0  0  0  0  0  0  0  0  0
    8.6856    2.0463    2.3406 H   0  0  0  0  0  0  0  0  0  0  0  0
    8.8960    0.0756    1.0288 H   0  0  0  0  0  0  0  0  0  0  0  0
    8.8083   -1.1345   -1.1014 H   0  0  0  0  0  0  0  0  0  0  0  0
    5.9482   -1.2174   -3.1210 H   0  0  0  0  0  0  0  0  0  0  0  0
    3.5401   -1.5285    0.6369 H   0  0  0  0  0  0  0  0  0  0  0  0
    1.2734   -1.6187    1.5869 H   0  0  0  0  0  0  0  0  0  0  0  0
   -1.8927   -0.6370   -1.2592 H   0  0  0  0  0  0  0  0  0  0  0  0
   -3.4127   -1.5811    0.8832 H   0  0  0  0  0  0  0  0  0  0  0  0
   -3.0838    1.0950    1.4116 H   0  0  0  0  0  0  0  0  0  0  0  0
   -4.4603    0.1316    1.9192 H   0  0  0  0  0  0  0  0  0  0  0  0
   -4.3088    1.7746   -0.6476 H   0  0  0  0  0  0  0  0  0  0  0  0
   -5.1261    2.2750    0.8077 H   0  0  0  0  0  0  0  0  0  0  0  0
   -6.9426    0.5269    1.6560 H   0  0  0  0  0  0  0  0  0  0  0  0
   -7.3829    1.9618    0.7351 H   0  0  0  0  0  0  0  0  0  0  0  0
   -6.0903   -1.3674    0.2782 H   0  0  0  0  0  0  0  0  0  0  0  0
   -6.7958   -0.2133   -2.1189 H   0  0  0  0  0  0  0  0  0  0  0  0
   -4.2677   -2.0607   -1.2650 H   0  0  0  0  0  0  0  0  0  0  0  0
   -4.1076   -0.4292   -1.8453 H   0  0  0  0  0  0  0  0  0  0  0  0
   -0.2194    0.6967   -1.7427 H   0  0  0  0  0  0  0  0  0  0  0  0
    2.0447    0.7757   -2.6990 H   0  0  0  0  0  0  0  0  0  0  0  0
  1  2  1  0
  2  3  1  0
  3  4  2  0
  4  5  1  0
  5  6  2  0
  6  7  1  0
  6  8  1  0
  8  9  1  0
  9 10  2  0
  9 11  1  0
 11 12  2  0
 12 13  1  0
 13 14  2  0
 14 15  1  0
 15 16  2  0
 15 17  1  0
 17 18  1  0
 18 19  1  0
 19 20  1  0
 20 21  1  0
 21 22  1  0
 22 23  1  0
 23 24  1  0
 23 25  1  0
 23 26  1  0
 21 27  1  0
 27 28  1  0
 27 29  1  0
 14 30  1  0
 30 31  2  0
  8 32  2  0
 32 33  1  0
 32  3  1  0
 31 11  1  0
 29 18  1  0
  1 34  1  0
  1 35  1  0
  1 36  1  0
  4 37  1  0
  5 38  1  0
  7 39  1  0
 12 40  1  0
 13 41  1  0
 17 42  1  0
 18 43  1  1
 19 44  1  0
 19 45  1  0
 20 46  1  0
 20 47  1  0
 22 48  1  0
 22 49  1  0
 27 50  1  0
 28 51  1  0
 29 52  1  0
 29 53  1  0
 30 54  1  0
 31 55  1  0
M  END
$$$$
