
     RDKit          3D

 26 28  0  0  0  0  0  0  0  0999 V2000
   -1.4683   -2.2251    0.6862 O   0  0  0  0  0  0  0  0  0  0  0  0
   -2.2185   -1.1250    0.3402 C   0  0  0  0  0  0  0  0  0  0  0  0
   -3.6148   -1.2406    0.3621 C   0  0  0  0  0  0  0  0  0  0  0  0
   -4.4089   -0.1492    0.0183 C   0  0  0  0  0  0  0  0  0  0  0  0
   -3.8068    1.0507   -0.3451 C   0  0  0  0  0  0  0  0  0  0  0  0
   -2.4145    1.1588   -0.3647 C   0  0  0  0  0  0  0  0  0  0  0  0
   -1.9022    2.3454   -0.7250 F   0  0  0  0  0  0  0  0  0  0  0  0
   -1.5842    0.0801   -0.0245 C   0  0  0  0  0  0  0  0  0  0  0  0
   -0.1215    0.2319   -0.0569 C   0  0  0  0  0  0  0  0  0  0  0  0
    0.5643    1.3141   -0.3833 N   0  0  0  0  0  0  0  0  0  0  0  0
    1.8915    0.9837   -0.2686 C   0  0  0  0  0  0  0  0  0  0  0  0
    3.0349    1.7621   -0.4970 C   0  0  0  0  0  0  0  0  0  0  0  0
    4.2937    1.1780   -0.3049 C   0  0  0  0  0  0  0  0  0  0  0  0
    4.4099   -0.1528    0.1059 C   0  0  0  0  0  0  0  0  0  0  0  0
    3.2787   -0.9444    0.3385 C   0  0  0  0  0  0  0  0  0  0  0  0
    2.0388   -0.3345    0.1386 C   0  0  0  0  0  0  0  0  0  0  0  0
    0.7534   -0.7843    0.2645 N   0  0  0  0  0  0  0  0  0  0  0  0
   -2.0731   -2.9563    0.9053 H   0  0  0  0  0  0  0  0  0  0  0  0
   -4.0999   -2.1711    0.6437 H   0  0  0  0  0  0  0  0  0  0  0  0
   -5.4929   -0.2316    0.0330 H   0  0  0  0  0  0  0  0  0  0  0  0
   -4.4073    1.9141   -0.6168 H   0  0  0  0  0  0  0  0  0  0  0  0
    2.9341    2.7934   -0.8154 H   0  0  0  0  0  0  0  0  0  0  0  0
    5.1888    1.7704   -0.4784 H   0  0  0  0  0  0  0  0  0  0  0  0
    5.3994   -0.5825    0.2479 H   0  0  0  0  0  0  0  0  0  0  0  0
    3.3677   -1.9767    0.6572 H   0  0  0  0  0  0  0  0  0  0  0  0
    0.4579   -1.7086    0.5461 H   0  0  0  0  0  0  0  0  0  0  0  0
  1  2  1  0
  2  3  2  0
  3  4  1  0
  4  5  2  0
  5  6  1  0
  6  7  1  0
  6  8  2  0
  8  9  1  0
  9 10  2  0
 10 11  1  0
 11 12  2  0
 12 13  1  0
 13 14  2  0
 14 15  1  0
 15 16  2  0
 16 17  1  0
  8  2  1  0
 17  9  1  0
 16 11  1  0
  1 18  1  0
  3 19  1  0
  4 20  1  0
  5 21  1  0
 12 22  1  0
 13 23  1  0
 14 24  1  0
 15 25  1  0
 17 26  1  0
M  END
$$$$
