
     RDKit          3D

 39 41  0  0  0  0  0  0  0  0999 V2000
   -0.7937   -0.7839   -3.6476 O   0  0  0  0  0  0  0  0  0  0  0  0
   -1.3547   -1.3068   -2.4188 S   0  0  0  0  0  0  0  0  0  0  0  0
   -2.3724   -2.3346   -2.4318 O   0  0  0  0  0  0  0  0  0  0  0  0
   -0.0447   -1.8156   -1.4748 N   0  0  0  0  0  0  0  0  0  0  0  0
   -0.2959   -2.2789   -0.1423 C   0  0  0  0  0  0  0  0  0  0  0  0
   -0.8907   -3.5303    0.0288 C   0  0  0  0  0  0  0  0  0  0  0  0
   -1.1696   -3.9883    1.3118 C   0  0  0  0  0  0  0  0  0  0  0  0
   -1.7349   -5.1911    1.4748 F   0  0  0  0  0  0  0  0  0  0  0  0
   -0.8803   -3.2155    2.4307 C   0  0  0  0  0  0  0  0  0  0  0  0
   -0.2969   -1.9586    2.2671 C   0  0  0  0  0  0  0  0  0  0  0  0
    0.0045   -1.4794    0.9823 C   0  0  0  0  0  0  0  0  0  0  0  0
    0.5807   -0.1328    0.8755 C   0  0  0  0  0  0  0  0  0  0  0  0
    1.8520    0.0792    0.5016 C   0  0  0  0  0  0  0  0  0  0  0  0
    2.4774    1.4031    0.3375 C   0  0  0  0  0  0  0  0  0  0  0  0
    3.6974    1.4852   -0.3412 C   0  0  0  0  0  0  0  0  0  0  0  0
    4.3005    2.7245   -0.4908 C   0  0  0  0  0  0  0  0  0  0  0  0
    3.7765    3.8746   -0.0182 N   0  0  0  0  0  0  0  0  0  0  0  0
    2.6047    3.7782    0.6434 C   0  0  0  0  0  0  0  0  0  0  0  0
    1.9286    2.5838    0.8460 C   0  0  0  0  0  0  0  0  0  0  0  0
   -1.9872    0.0759   -1.5071 C   0  0  0  0  0  0  0  0  0  0  0  0
   -1.4336    1.3385   -1.7141 C   0  0  0  0  0  0  0  0  0  0  0  0
   -1.9494    2.3870   -0.9784 C   0  0  0  0  0  0  0  0  0  0  0  0
   -2.9489    2.2471   -0.0818 N   0  0  0  0  0  0  0  0  0  0  0  0
   -3.4850    1.0141    0.0657 C   0  0  0  0  0  0  0  0  0  0  0  0
   -3.0462   -0.1003   -0.6225 C   0  0  0  0  0  0  0  0  0  0  0  0
    0.7506   -1.1905   -1.5944 H   0  0  0  0  0  0  0  0  0  0  0  0
   -1.1347   -4.1576   -0.8247 H   0  0  0  0  0  0  0  0  0  0  0  0
   -1.1145   -3.5947    3.4217 H   0  0  0  0  0  0  0  0  0  0  0  0
   -0.0782   -1.3572    3.1471 H   0  0  0  0  0  0  0  0  0  0  0  0
   -0.1042    0.6740    1.1215 H   0  0  0  0  0  0  0  0  0  0  0  0
    2.4954   -0.7747    0.2887 H   0  0  0  0  0  0  0  0  0  0  0  0
    4.1853    0.6062   -0.7529 H   0  0  0  0  0  0  0  0  0  0  0  0
    5.2528    2.8253   -1.0063 H   0  0  0  0  0  0  0  0  0  0  0  0
    2.2114    4.7145    1.0288 H   0  0  0  0  0  0  0  0  0  0  0  0
    1.0021    2.6006    1.4085 H   0  0  0  0  0  0  0  0  0  0  0  0
   -0.6265    1.5025   -2.4182 H   0  0  0  0  0  0  0  0  0  0  0  0
   -1.5634    3.3961   -1.0914 H   0  0  0  0  0  0  0  0  0  0  0  0
   -4.3033    0.9481    0.7766 H   0  0  0  0  0  0  0  0  0  0  0  0
   -3.5110   -1.0677   -0.4679 H   0  0  0  0  0  0  0  0  0  0  0  0
  1  2  2  0
  2  3  2  0
  2  4  1  0
  4  5  1  0
  5  6  2  0
  6  7  1  0
  7  8  1  0
  7  9  2  0
  9 10  1  0
 10 11  2  0
 11 12  1  0
 12 13  2  0
 13 14  1  0
 14 15  2  0
 15 16  1  0
 16 17  2  0
 17 18  1  0
 18 19  2  0
  2 20  1  0
 20 21  2  0
 21 22  1  0
 22 23  2  0
 23 24  1  0
 24 25  2  0
 11  5  1  0
 19 14  1  0
 25 20  1  0
  4 26  1  0
  6 27  1  0
  9 28  1  0
 10 29  1  0
 12 30  1  0
 13 31  1  0
 15 32  1  0
 16 33  1  0
 18 34  1  0
 19 35  1  0
 21 36  1  0
 22 37  1  0
 24 38  1  0
 25 39  1  0
M  END
$$$$
