
     RDKit          3D

 37 39  0  0  0  0  0  0  0  0999 V2000
    5.5631   -0.4472   -1.6119 C   0  0  0  0  0  0  0  0  0  0  0  0
    4.2882   -0.2082   -0.8490 C   0  0  0  0  0  0  0  0  0  0  0  0
    3.2740   -1.1806   -0.8970 C   0  0  0  0  0  0  0  0  0  0  0  0
    2.0633   -0.9824   -0.2333 C   0  0  0  0  0  0  0  0  0  0  0  0
    1.8485    0.2061    0.4682 C   0  0  0  0  0  0  0  0  0  0  0  0
    0.5614    0.4766    1.1657 C   0  0  0  0  0  0  0  0  0  0  0  0
    0.6018    1.0512    2.2461 O   0  0  0  0  0  0  0  0  0  0  0  0
   -0.5622    0.0690    0.4692 N   0  0  0  0  0  0  0  0  0  0  0  0
   -1.9202    0.1273    0.8833 C   0  0  0  0  0  0  0  0  0  0  0  0
   -2.2610    0.5078    2.1877 C   0  0  0  0  0  0  0  0  0  0  0  0
   -3.5899    0.5479    2.6001 C   0  0  0  0  0  0  0  0  0  0  0  0
   -4.6027    0.2029    1.7143 C   0  0  0  0  0  0  0  0  0  0  0  0
   -4.3054   -0.1868    0.4030 C   0  0  0  0  0  0  0  0  0  0  0  0
   -5.3562   -0.5303   -0.4644 C   0  0  0  0  0  0  0  0  0  0  0  0
   -5.1084   -0.9205   -1.7772 C   0  0  0  0  0  0  0  0  0  0  0  0
   -3.8031   -0.9703   -2.2406 C   0  0  0  0  0  0  0  0  0  0  0  0
   -2.7460   -0.6317   -1.3894 C   0  0  0  0  0  0  0  0  0  0  0  0
   -2.9560   -0.2321   -0.0416 C   0  0  0  0  0  0  0  0  0  0  0  0
    2.8635    1.1666    0.5409 C   0  0  0  0  0  0  0  0  0  0  0  0
    4.1036    0.9518   -0.0728 C   0  0  0  0  0  0  0  0  0  0  0  0
    5.0446    1.9933   -0.0756 N   0  0  0  0  0  0  0  0  0  0  0  0
    5.7613    0.3848   -2.2954 H   0  0  0  0  0  0  0  0  0  0  0  0
    6.4027   -0.5593   -0.9185 H   0  0  0  0  0  0  0  0  0  0  0  0
    5.5059   -1.3584   -2.2168 H   0  0  0  0  0  0  0  0  0  0  0  0
    3.4243   -2.1010   -1.4579 H   0  0  0  0  0  0  0  0  0  0  0  0
    1.3085   -1.7635   -0.2617 H   0  0  0  0  0  0  0  0  0  0  0  0
   -0.3997   -0.2432   -0.4747 H   0  0  0  0  0  0  0  0  0  0  0  0
   -1.5069    0.7740    2.9214 H   0  0  0  0  0  0  0  0  0  0  0  0
   -3.8310    0.8470    3.6169 H   0  0  0  0  0  0  0  0  0  0  0  0
   -5.6333    0.2414    2.0611 H   0  0  0  0  0  0  0  0  0  0  0  0
   -6.3879   -0.4945   -0.1192 H   0  0  0  0  0  0  0  0  0  0  0  0
   -5.9340   -1.1813   -2.4339 H   0  0  0  0  0  0  0  0  0  0  0  0
   -3.6011   -1.2695   -3.2660 H   0  0  0  0  0  0  0  0  0  0  0  0
   -1.7499   -0.6838   -1.8159 H   0  0  0  0  0  0  0  0  0  0  0  0
    2.6789    2.0904    1.0857 H   0  0  0  0  0  0  0  0  0  0  0  0
    4.9592    2.6200    0.7199 H   0  0  0  0  0  0  0  0  0  0  0  0
    6.0021    1.6866   -0.2110 H   0  0  0  0  0  0  0  0  0  0  0  0
  1  2  1  0
  2  3  2  0
  3  4  1  0
  4  5  2  0
  5  6  1  0
  6  7  2  0
  6  8  1  0
  8  9  1  0
  9 10  2  0
 10 11  1  0
 11 12  2  0
 12 13  1  0
 13 14  2  0
 14 15  1  0
 15 16  2  0
 16 17  1  0
 17 18  2  0
  5 19  1  0
 19 20  2  0
 20 21  1  0
 20  2  1  0
 18  9  1  0
 18 13  1  0
  1 22  1  0
  1 23  1  0
  1 24  1  0
  3 25  1  0
  4 26  1  0
  8 27  1  0
 10 28  1  0
 11 29  1  0
 12 30  1  0
 14 31  1  0
 15 32  1  0
 16 33  1  0
 17 34  1  0
 19 35  1  0
 21 36  1  0
 21 37  1  0
M  END
$$$$
