
     RDKit          3D

 47 48  0  0  0  0  0  0  0  0999 V2000
   -1.2800   -2.2776   -2.3775 C   0  0  0  0  0  0  0  0  0  0  0  0
   -0.8158   -1.6941   -1.1301 N   0  0  0  0  0  0  0  0  0  0  0  0
   -1.6405   -0.7002   -0.5467 C   0  0  0  0  0  0  0  0  0  0  0  0
   -3.0399   -0.7882   -0.5416 C   0  0  0  0  0  0  0  0  0  0  0  0
   -3.8362    0.1907    0.0809 C   0  0  0  0  0  0  0  0  0  0  0  0
   -5.3030    0.0853    0.0671 C   0  0  0  0  0  0  0  0  0  0  0  0
   -5.9688   -0.3018    1.2455 C   0  0  0  0  0  0  0  0  0  0  0  0
   -7.3605   -0.4202    1.2822 C   0  0  0  0  0  0  0  0  0  0  0  0
   -8.1063   -0.1513    0.1386 C   0  0  0  0  0  0  0  0  0  0  0  0
   -9.8198   -0.2969    0.1839 Cl  0  0  0  0  0  0  0  0  0  0  0  0
   -7.4762    0.2350   -1.0403 C   0  0  0  0  0  0  0  0  0  0  0  0
   -6.0828    0.3528   -1.0759 C   0  0  0  0  0  0  0  0  0  0  0  0
   -5.3679    0.8535   -2.5715 Cl  0  0  0  0  0  0  0  0  0  0  0  0
   -3.2044    1.2586    0.7333 C   0  0  0  0  0  0  0  0  0  0  0  0
   -1.8122    1.3400    0.7765 C   0  0  0  0  0  0  0  0  0  0  0  0
   -1.0272    0.3585    0.1664 C   0  0  0  0  0  0  0  0  0  0  0  0
    0.3786    0.4668    0.2289 N   0  0  0  0  0  0  0  0  0  0  0  0
    0.9378   -0.2211    1.1685 C   0  0  0  0  0  0  0  0  0  0  0  0
    2.2757   -0.2578    1.4236 N   0  0  0  0  0  0  0  0  0  0  0  0
    3.2464    0.2998    0.4985 C   0  0  0  0  0  0  0  0  0  0  0  0
    4.6658   -0.0054    0.9845 C   0  0  0  0  0  0  0  0  0  0  0  0
    4.9213   -0.9346    1.7489 O   0  0  0  0  0  0  0  0  0  0  0  0
    5.6426    0.8222    0.4729 N   0  0  0  0  0  0  0  0  0  0  0  0
    7.0465    0.6756    0.8487 C   0  0  2  0  0  0  0  0  0  0  0  0
    7.7926    1.9878    0.6638 C   0  0  0  0  0  0  0  0  0  0  0  0
    7.6779   -0.4439    0.0266 C   0  0  0  0  0  0  0  0  0  0  0  0
    8.8799   -0.5265   -0.2159 O   0  0  0  0  0  0  0  0  0  0  0  0
   -2.1352   -2.9412   -2.2169 H   0  0  0  0  0  0  0  0  0  0  0  0
   -0.4769   -2.8852   -2.8068 H   0  0  0  0  0  0  0  0  0  0  0  0
   -1.5433   -1.5066   -3.1096 H   0  0  0  0  0  0  0  0  0  0  0  0
    0.1159   -1.2792   -1.2240 H   0  0  0  0  0  0  0  0  0  0  0  0
   -3.5305   -1.6304   -1.0214 H   0  0  0  0  0  0  0  0  0  0  0  0
   -5.3964   -0.5213    2.1461 H   0  0  0  0  0  0  0  0  0  0  0  0
   -7.8515   -0.7234    2.2036 H   0  0  0  0  0  0  0  0  0  0  0  0
   -8.0656    0.4463   -1.9286 H   0  0  0  0  0  0  0  0  0  0  0  0
   -3.7944    2.0347    1.2161 H   0  0  0  0  0  0  0  0  0  0  0  0
   -1.3309    2.1683    1.2885 H   0  0  0  0  0  0  0  0  0  0  0  0
    0.3619   -0.8544    1.8703 H   0  0  0  0  0  0  0  0  0  0  0  0
    2.6329   -1.0205    1.9974 H   0  0  0  0  0  0  0  0  0  0  0  0
    3.1324   -0.1477   -0.4949 H   0  0  0  0  0  0  0  0  0  0  0  0
    3.1141    1.3845    0.4254 H   0  0  0  0  0  0  0  0  0  0  0  0
    5.3996    1.4923   -0.2480 H   0  0  0  0  0  0  0  0  0  0  0  0
    7.0869    0.3627    1.8983 H   0  0  0  0  0  0  0  0  0  0  0  0
    7.3233    2.7884    1.2454 H   0  0  0  0  0  0  0  0  0  0  0  0
    7.7966    2.2973   -0.3876 H   0  0  0  0  0  0  0  0  0  0  0  0
    8.8349    1.8979    0.9875 H   0  0  0  0  0  0  0  0  0  0  0  0
    7.0026   -1.2693   -0.2581 H   0  0  0  0  0  0  0  0  0  0  0  0
  1  2  1  0
  2  3  1  0
  3  4  2  0
  4  5  1  0
  5  6  1  0
  6  7  2  0
  7  8  1  0
  8  9  2  0
  9 10  1  0
  9 11  1  0
 11 12  2  0
 12 13  1  0
  5 14  2  0
 14 15  1  0
 15 16  2  0
 16 17  1  0
 17 18  2  3
 18 19  1  0
 19 20  1  0
 20 21  1  0
 21 22  2  0
 21 23  1  0
 23 24  1  0
 24 25  1  0
 24 26  1  0
 26 27  2  0
 16  3  1  0
 12  6  1  0
  1 28  1  0
  1 29  1  0
  1 30  1  0
  2 31  1  0
  4 32  1  0
  7 33  1  0
  8 34  1  0
 11 35  1  0
 14 36  1  0
 15 37  1  0
 18 38  1  0
 19 39  1  0
 20 40  1  0
 20 41  1  0
 23 42  1  0
 24 43  1  1
 25 44  1  0
 25 45  1  0
 25 46  1  0
 26 47  1  0
M  END
$$$$
