
     RDKit          3D

 45 47  0  0  0  0  0  0  0  0999 V2000
    1.4986    4.6615    1.0235 C   0  0  0  0  0  0  0  0  0  0  0  0
    2.2768    3.3734    0.8212 C   0  0  0  0  0  0  0  0  0  0  0  0
    1.3580    2.2558    0.6972 N   0  0  0  0  0  0  0  0  0  0  0  0
    1.7363    0.9296    0.7608 C   0  0  0  0  0  0  0  0  0  0  0  0
    1.0304   -0.1340    0.3430 C   0  0  0  0  0  0  0  0  0  0  0  0
   -0.2537    0.0501   -0.2138 O   0  0  0  0  0  0  0  0  0  0  0  0
   -0.3676   -0.4370   -1.4812 C   0  0  0  0  0  0  0  0  0  0  0  0
    0.6257   -0.7069   -2.2810 N   0  0  0  0  0  0  0  0  0  0  0  0
    0.2900   -1.1403   -3.5465 C   0  0  0  0  0  0  0  0  0  0  0  0
   -0.9640   -1.2565   -4.0122 C   0  0  0  0  0  0  0  0  0  0  0  0
   -2.0292   -0.9338   -3.1458 C   0  0  0  0  0  0  0  0  0  0  0  0
   -3.3302   -0.8920   -3.3046 N   0  0  0  0  0  0  0  0  0  0  0  0
   -3.8797   -0.5236   -2.0996 N   0  0  0  0  0  0  0  0  0  0  0  0
   -2.9076   -0.3793   -1.2124 C   0  0  0  0  0  0  0  0  0  0  0  0
   -3.1117   -0.0721    0.1984 C   0  0  0  0  0  0  0  0  0  0  0  0
   -2.6609   -0.9394    1.2035 C   0  0  0  0  0  0  0  0  0  0  0  0
   -2.8706   -0.6301    2.5490 C   0  0  0  0  0  0  0  0  0  0  0  0
   -3.5457    0.5379    2.8997 C   0  0  0  0  0  0  0  0  0  0  0  0
   -4.0196    1.3940    1.9070 C   0  0  0  0  0  0  0  0  0  0  0  0
   -3.8091    1.0871    0.5612 C   0  0  0  0  0  0  0  0  0  0  0  0
   -1.7013   -0.5627   -1.8604 N   0  0  0  0  0  0  0  0  0  0  0  0
    1.5047   -1.5401    0.5175 C   0  0  0  0  0  0  0  0  0  0  0  0
    0.7533   -2.5012    0.4033 O   0  0  0  0  0  0  0  0  0  0  0  0
    2.8305   -1.5961    0.8001 O   0  0  0  0  0  0  0  0  0  0  0  0
    3.3798   -2.9130    0.9477 C   0  0  0  0  0  0  0  0  0  0  0  0
    3.7787   -3.4682   -0.4069 C   0  0  0  0  0  0  0  0  0  0  0  0
    0.8808    4.6088    1.9263 H   0  0  0  0  0  0  0  0  0  0  0  0
    2.1832    5.5092    1.1249 H   0  0  0  0  0  0  0  0  0  0  0  0
    0.8345    4.8575    0.1750 H   0  0  0  0  0  0  0  0  0  0  0  0
    2.8888    3.4484   -0.0842 H   0  0  0  0  0  0  0  0  0  0  0  0
    2.9492    3.2187    1.6726 H   0  0  0  0  0  0  0  0  0  0  0  0
    0.5224    2.4267    0.1399 H   0  0  0  0  0  0  0  0  0  0  0  0
    2.7152    0.7981    1.2186 H   0  0  0  0  0  0  0  0  0  0  0  0
    1.1295   -1.3877   -4.1934 H   0  0  0  0  0  0  0  0  0  0  0  0
   -1.1757   -1.5916   -5.0207 H   0  0  0  0  0  0  0  0  0  0  0  0
   -2.1447   -1.8641    0.9511 H   0  0  0  0  0  0  0  0  0  0  0  0
   -2.5120   -1.3046    3.3225 H   0  0  0  0  0  0  0  0  0  0  0  0
   -3.7117    0.7757    3.9474 H   0  0  0  0  0  0  0  0  0  0  0  0
   -4.5597    2.2970    2.1797 H   0  0  0  0  0  0  0  0  0  0  0  0
   -4.1973    1.7549   -0.2056 H   0  0  0  0  0  0  0  0  0  0  0  0
    2.6816   -3.5805    1.4658 H   0  0  0  0  0  0  0  0  0  0  0  0
    4.2667   -2.8203    1.5830 H   0  0  0  0  0  0  0  0  0  0  0  0
    4.4765   -2.7904   -0.9095 H   0  0  0  0  0  0  0  0  0  0  0  0
    2.9078   -3.5711   -1.0619 H   0  0  0  0  0  0  0  0  0  0  0  0
    4.2530   -4.4478   -0.3001 H   0  0  0  0  0  0  0  0  0  0  0  0
  1  2  1  0
  2  3  1  0
  3  4  1  0
  4  5  2  3
  5  6  1  0
  6  7  1  0
  7  8  2  0
  8  9  1  0
  9 10  2  0
 10 11  1  0
 11 12  2  0
 12 13  1  0
 13 14  2  0
 14 15  1  0
 15 16  2  0
 16 17  1  0
 17 18  2  0
 18 19  1  0
 19 20  2  0
 14 21  1  0
  5 22  1  0
 22 23  2  0
 22 24  1  0
 24 25  1  0
 25 26  1  0
 21  7  1  0
 21 11  1  0
 20 15  1  0
  1 27  1  0
  1 28  1  0
  1 29  1  0
  2 30  1  0
  2 31  1  0
  3 32  1  0
  4 33  1  0
  9 34  1  0
 10 35  1  0
 16 36  1  0
 17 37  1  0
 18 38  1  0
 19 39  1  0
 20 40  1  0
 25 41  1  0
 25 42  1  0
 26 43  1  0
 26 44  1  0
 26 45  1  0
M  END
$$$$
