
     RDKit          3D

 49 53  0  0  0  0  0  0  0  0999 V2000
    4.8570    1.8176    0.1910 N   0  0  0  0  0  0  0  0  0  0  0  0
    4.9954    0.5637   -0.4848 C   0  0  0  0  0  0  0  0  0  0  0  0
    3.9086   -0.3571   -0.4813 C   0  0  0  0  0  0  0  0  0  0  0  0
    2.6450   -0.0438    0.2841 C   0  0  0  0  0  0  0  0  0  0  0  0
    2.6031   -0.7893    1.4131 C   0  0  0  0  0  0  0  0  0  0  0  0
    1.7290   -0.8894    2.4591 O   0  0  0  0  0  0  0  0  0  0  0  0
    1.1293    0.3299    2.7880 N   0  0  0  0  0  0  0  0  0  0  0  0
   -0.1653    0.4541    2.2450 C   0  0  0  0  0  0  0  0  0  0  0  0
   -1.1971    0.1433    3.0738 N   0  0  0  0  0  0  0  0  0  0  0  0
   -2.4292    0.0761    2.5134 C   0  0  0  0  0  0  0  0  0  0  0  0
   -2.7168    0.3175    1.1712 C   0  0  0  0  0  0  0  0  0  0  0  0
   -4.0829    0.1935    0.6175 C   0  0  0  0  0  0  0  0  0  0  0  0
   -5.1527    0.6655    1.2867 C   0  0  0  0  0  0  0  0  0  0  0  0
   -6.5585    0.5894    0.7621 C   0  0  0  0  0  0  0  0  0  0  0  0
   -6.6423    0.2033   -0.7187 C   0  0  0  0  0  0  0  0  0  0  0  0
   -7.9693   -0.2290   -1.0179 O   0  0  0  0  0  0  0  0  0  0  0  0
   -5.6509   -0.9089   -1.0471 C   0  0  0  0  0  0  0  0  0  0  0  0
   -4.2189   -0.4729   -0.7337 C   0  0  0  0  0  0  0  0  0  0  0  0
   -1.6341    0.6725    0.3656 C   0  0  0  0  0  0  0  0  0  0  0  0
   -0.3429    0.7583    0.9000 C   0  0  0  0  0  0  0  0  0  0  0  0
    0.7634    1.3932   -0.0127 C   0  0  0  0  0  0  0  0  0  0  0  0
    1.9685    0.9296   -0.3606 N   0  0  0  0  0  0  0  0  0  0  0  0
    4.0059   -1.5671   -1.1896 C   0  0  0  0  0  0  0  0  0  0  0  0
    5.1641   -1.9165   -1.8928 C   0  0  0  0  0  0  0  0  0  0  0  0
    6.2213   -1.0026   -1.8651 C   0  0  0  0  0  0  0  0  0  0  0  0
    7.4630   -1.0309   -2.4407 N   0  0  0  0  0  0  0  0  0  0  0  0
    8.2218    0.0529   -2.1927 N   0  0  0  0  0  0  0  0  0  0  0  0
    7.4167    0.8114   -1.4380 C   0  0  0  0  0  0  0  0  0  0  0  0
    6.1614    0.2114   -1.1899 C   0  0  0  0  0  0  0  0  0  0  0  0
    3.9599    2.1719   -0.1897 H   0  0  0  0  0  0  0  0  0  0  0  0
    4.5411    1.5838    1.1363 H   0  0  0  0  0  0  0  0  0  0  0  0
    3.3683   -1.5323    1.6205 H   0  0  0  0  0  0  0  0  0  0  0  0
    0.9311    0.2855    3.7821 H   0  0  0  0  0  0  0  0  0  0  0  0
   -3.2108   -0.2142    3.2093 H   0  0  0  0  0  0  0  0  0  0  0  0
   -5.0375    1.1517    2.2527 H   0  0  0  0  0  0  0  0  0  0  0  0
   -7.0537    1.5581    0.9020 H   0  0  0  0  0  0  0  0  0  0  0  0
   -7.1239   -0.1257    1.3730 H   0  0  0  0  0  0  0  0  0  0  0  0
   -6.4330    1.0833   -1.3395 H   0  0  0  0  0  0  0  0  0  0  0  0
   -7.9833   -0.4768   -1.9581 H   0  0  0  0  0  0  0  0  0  0  0  0
   -5.9058   -1.8116   -0.4757 H   0  0  0  0  0  0  0  0  0  0  0  0
   -5.7337   -1.1941   -2.1029 H   0  0  0  0  0  0  0  0  0  0  0  0
   -3.8857    0.2244   -1.5126 H   0  0  0  0  0  0  0  0  0  0  0  0
   -3.5724   -1.3575   -0.7888 H   0  0  0  0  0  0  0  0  0  0  0  0
   -1.7699    0.9214   -0.6826 H   0  0  0  0  0  0  0  0  0  0  0  0
    0.4338    2.3137   -0.4925 H   0  0  0  0  0  0  0  0  0  0  0  0
    3.1484   -2.2366   -1.1955 H   0  0  0  0  0  0  0  0  0  0  0  0
    5.2221   -2.8508   -2.4382 H   0  0  0  0  0  0  0  0  0  0  0  0
    7.8518   -1.7654   -3.0176 H   0  0  0  0  0  0  0  0  0  0  0  0
    7.7609    1.7750   -1.0869 H   0  0  0  0  0  0  0  0  0  0  0  0
  1  2  1  0
  2  3  2  0
  3  4  1  0
  4  5  2  0
  5  6  1  0
  6  7  1  0
  7  8  1  0
  8  9  2  0
  9 10  1  0
 10 11  2  0
 11 12  1  0
 12 13  2  0
 13 14  1  0
 14 15  1  0
 15 16  1  0
 15 17  1  0
 17 18  1  0
 11 19  1  0
 19 20  2  0
 20 21  1  0
 21 22  2  0
  3 23  1  0
 23 24  2  0
 24 25  1  0
 25 26  1  0
 26 27  1  0
 27 28  2  0
 28 29  1  0
 29  2  1  0
 22  4  1  0
 29 25  2  0
 20  8  1  0
 18 12  1  0
  1 30  1  0
  1 31  1  0
  5 32  1  0
  7 33  1  0
 10 34  1  0
 13 35  1  0
 14 36  1  0
 14 37  1  0
 15 38  1  0
 16 39  1  0
 17 40  1  0
 17 41  1  0
 18 42  1  0
 18 43  1  0
 19 44  1  0
 21 45  1  0
 23 46  1  0
 24 47  1  0
 26 48  1  0
 28 49  1  0
M  END
$$$$
