
     RDKit          3D

 47 51  0  0  0  0  0  0  0  0999 V2000
   -7.3498    2.0041   -0.3951 O   0  0  0  0  0  0  0  0  0  0  0  0
   -6.4193    0.9710   -0.0699 C   0  0  0  0  0  0  0  0  0  0  0  0
   -5.6113    0.5798   -1.3140 C   0  0  0  0  0  0  0  0  0  0  0  0
   -4.3332   -0.1422   -1.0041 C   0  0  0  0  0  0  0  0  0  0  0  0
   -3.8176   -0.2510    0.2355 C   0  0  0  0  0  0  0  0  0  0  0  0
   -2.5510   -0.9774    0.4690 C   0  0  0  0  0  0  0  0  0  0  0  0
   -2.3930   -1.8547    1.5404 C   0  0  0  0  0  0  0  0  0  0  0  0
   -1.2568   -2.5309    1.8376 N   0  0  0  0  0  0  0  0  0  0  0  0
   -0.1880   -2.3101    1.0269 C   0  0  0  0  0  0  0  0  0  0  0  0
    1.0416   -2.8638    1.4412 N   0  0  0  0  0  0  0  0  0  0  0  0
    1.8293   -1.9560    2.1556 O   0  0  0  0  0  0  0  0  0  0  0  0
    2.7349   -1.2781    1.3854 C   0  0  0  0  0  0  0  0  0  0  0  0
    2.8115   -0.9173    0.0822 C   0  0  0  0  0  0  0  0  0  0  0  0
    4.1120   -0.2111   -0.1713 C   0  0  0  0  0  0  0  0  0  0  0  0
    5.1617   -0.9552   -0.7424 C   0  0  0  0  0  0  0  0  0  0  0  0
    6.4183   -0.3962   -1.0071 C   0  0  0  0  0  0  0  0  0  0  0  0
    6.5948    0.9499   -0.6775 C   0  0  0  0  0  0  0  0  0  0  0  0
    7.6739    1.7811   -0.8082 N   0  0  0  0  0  0  0  0  0  0  0  0
    7.4679    3.0341   -0.3645 N   0  0  0  0  0  0  0  0  0  0  0  0
    6.1954    3.0015    0.0471 C   0  0  0  0  0  0  0  0  0  0  0  0
    5.5898    1.7323   -0.1147 C   0  0  0  0  0  0  0  0  0  0  0  0
    4.3360    1.1424    0.1382 C   0  0  0  0  0  0  0  0  0  0  0  0
    3.1809    2.1960    0.8479 Cl  0  0  0  0  0  0  0  0  0  0  0  0
    2.1386   -1.0212   -1.0829 N   0  0  0  0  0  0  0  0  0  0  0  0
    0.8726   -1.4403   -1.1889 C   0  0  0  0  0  0  0  0  0  0  0  0
   -0.2489   -1.4934   -0.0964 C   0  0  0  0  0  0  0  0  0  0  0  0
   -1.4416   -0.8129   -0.3621 C   0  0  0  0  0  0  0  0  0  0  0  0
   -4.4956    0.3627    1.4380 C   0  0  0  0  0  0  0  0  0  0  0  0
   -5.5094    1.4434    1.0608 C   0  0  0  0  0  0  0  0  0  0  0  0
   -6.8337    2.7833   -0.6669 H   0  0  0  0  0  0  0  0  0  0  0  0
   -7.0025    0.1079    0.2723 H   0  0  0  0  0  0  0  0  0  0  0  0
   -5.3722    1.4713   -1.9070 H   0  0  0  0  0  0  0  0  0  0  0  0
   -6.2390   -0.0468   -1.9590 H   0  0  0  0  0  0  0  0  0  0  0  0
   -3.8240   -0.5907   -1.8557 H   0  0  0  0  0  0  0  0  0  0  0  0
   -3.2108   -2.0554    2.2254 H   0  0  0  0  0  0  0  0  0  0  0  0
    0.7339   -3.5509    2.1208 H   0  0  0  0  0  0  0  0  0  0  0  0
    3.5145   -0.9885    2.0852 H   0  0  0  0  0  0  0  0  0  0  0  0
    4.9712   -1.9977   -0.9966 H   0  0  0  0  0  0  0  0  0  0  0  0
    7.2046   -0.9918   -1.4560 H   0  0  0  0  0  0  0  0  0  0  0  0
    8.5824    1.5492   -1.1902 H   0  0  0  0  0  0  0  0  0  0  0  0
    5.7514    3.9008    0.4534 H   0  0  0  0  0  0  0  0  0  0  0  0
    0.5100   -1.6872   -2.1846 H   0  0  0  0  0  0  0  0  0  0  0  0
   -1.4771   -0.1583   -1.2280 H   0  0  0  0  0  0  0  0  0  0  0  0
   -3.7515    0.8121    2.1069 H   0  0  0  0  0  0  0  0  0  0  0  0
   -5.0075   -0.4257    2.0034 H   0  0  0  0  0  0  0  0  0  0  0  0
   -6.1080    1.7220    1.9365 H   0  0  0  0  0  0  0  0  0  0  0  0
   -4.9857    2.3595    0.7563 H   0  0  0  0  0  0  0  0  0  0  0  0
  1  2  1  0
  2  3  1  0
  3  4  1  0
  4  5  2  0
  5  6  1  0
  6  7  2  0
  7  8  1  0
  8  9  2  0
  9 10  1  0
 10 11  1  0
 11 12  1  0
 12 13  2  0
 13 14  1  0
 14 15  2  0
 15 16  1  0
 16 17  2  0
 17 18  1  0
 18 19  1  0
 19 20  2  0
 20 21  1  0
 21 22  2  0
 22 23  1  0
 13 24  1  0
 24 25  2  0
 25 26  1  0
 26 27  2  0
  5 28  1  0
 28 29  1  0
 29  2  1  0
 27  6  1  0
 26  9  1  0
 22 14  1  0
 21 17  1  0
  1 30  1  0
  2 31  1  0
  3 32  1  0
  3 33  1  0
  4 34  1  0
  7 35  1  0
 10 36  1  0
 12 37  1  0
 15 38  1  0
 16 39  1  0
 18 40  1  0
 20 41  1  0
 25 42  1  0
 27 43  1  0
 28 44  1  0
 28 45  1  0
 29 46  1  0
 29 47  1  0
M  END
$$$$
