
     RDKit          3D

 41 44  0  0  0  0  0  0  0  0999 V2000
   -3.5395    1.1423   -0.7742 N   0  0  0  0  0  0  0  0  0  0  0  0
   -2.1945    1.1522   -1.3268 C   0  0  0  0  0  0  0  0  0  0  0  0
   -1.1321    1.5806   -0.3090 C   0  0  0  0  0  0  0  0  0  0  0  0
   -0.9558    0.6913    0.9309 C   0  0  0  0  0  0  0  0  0  0  0  0
   -2.1545    0.8779    1.8814 C   0  0  0  0  0  0  0  0  0  0  0  0
   -2.5498    1.9259    2.3670 O   0  0  0  0  0  0  0  0  0  0  0  0
   -2.7015   -0.3727    2.1015 N   0  0  0  0  0  0  0  0  0  0  0  0
   -2.0189   -1.3508    1.4020 C   0  0  0  0  0  0  0  0  0  0  0  0
   -2.3456   -2.6815    1.3546 C   0  0  0  0  0  0  0  0  0  0  0  0
   -1.5324   -3.5007    0.5759 C   0  0  0  0  0  0  0  0  0  0  0  0
   -0.4063   -3.0244   -0.0977 C   0  0  0  0  0  0  0  0  0  0  0  0
    0.2795   -3.9272   -0.8007 N   0  0  0  0  0  0  0  0  0  0  0  0
    1.3736   -3.5051   -1.4353 C   0  0  0  0  0  0  0  0  0  0  0  0
    1.8622   -2.2677   -1.4026 N   0  0  0  0  0  0  0  0  0  0  0  0
    1.1762   -1.3613   -0.6658 C   0  0  0  0  0  0  0  0  0  0  0  0
    1.9034   -0.0850   -0.5729 C   0  0  0  0  0  0  0  0  0  0  0  0
    2.2194    0.6417   -1.7361 C   0  0  0  0  0  0  0  0  0  0  0  0
    2.9642    1.8189   -1.6638 C   0  0  0  0  0  0  0  0  0  0  0  0
    3.4006    2.2758   -0.4258 C   0  0  0  0  0  0  0  0  0  0  0  0
    4.1252    3.4045   -0.3701 F   0  0  0  0  0  0  0  0  0  0  0  0
    3.0896    1.5960    0.7583 C   0  0  0  0  0  0  0  0  0  0  0  0
    3.6469    1.9910    1.9849 N   0  0  0  0  0  0  0  0  0  0  0  0
    2.3901    0.3879    0.6621 C   0  0  0  0  0  0  0  0  0  0  0  0
   -0.0422   -1.6620   -0.0061 C   0  0  0  0  0  0  0  0  0  0  0  0
   -0.9220   -0.8106    0.7196 C   0  0  0  0  0  0  0  0  0  0  0  0
   -4.2170    0.9983   -1.5223 H   0  0  0  0  0  0  0  0  0  0  0  0
   -3.7574    2.0524   -0.3639 H   0  0  0  0  0  0  0  0  0  0  0  0
   -2.1692    1.8521   -2.1700 H   0  0  0  0  0  0  0  0  0  0  0  0
   -1.9613    0.1625   -1.7326 H   0  0  0  0  0  0  0  0  0  0  0  0
   -1.3487    2.6077    0.0149 H   0  0  0  0  0  0  0  0  0  0  0  0
   -0.1839    1.6445   -0.8460 H   0  0  0  0  0  0  0  0  0  0  0  0
   -0.0791    1.0014    1.5080 H   0  0  0  0  0  0  0  0  0  0  0  0
   -3.5356   -0.5084    2.6518 H   0  0  0  0  0  0  0  0  0  0  0  0
   -3.2058   -3.0833    1.8770 H   0  0  0  0  0  0  0  0  0  0  0  0
   -1.7774   -4.5589    0.4955 H   0  0  0  0  0  0  0  0  0  0  0  0
    1.9191   -4.2374   -2.0202 H   0  0  0  0  0  0  0  0  0  0  0  0
    1.8984    0.2731   -2.7091 H   0  0  0  0  0  0  0  0  0  0  0  0
    3.2208    2.3709   -2.5620 H   0  0  0  0  0  0  0  0  0  0  0  0
    3.9192    2.9724    1.9940 H   0  0  0  0  0  0  0  0  0  0  0  0
    3.1129    1.7197    2.8033 H   0  0  0  0  0  0  0  0  0  0  0  0
    2.2292   -0.2042    1.5612 H   0  0  0  0  0  0  0  0  0  0  0  0
  1  2  1  0
  2  3  1  0
  3  4  1  0
  4  5  1  0
  5  6  2  0
  5  7  1  0
  7  8  1  0
  8  9  2  0
  9 10  1  0
 10 11  2  0
 11 12  1  0
 12 13  2  0
 13 14  1  0
 14 15  2  0
 15 16  1  0
 16 17  2  0
 17 18  1  0
 18 19  2  0
 19 20  1  0
 19 21  1  0
 21 22  1  0
 21 23  2  0
 15 24  1  0
 24 25  2  0
 25  4  1  0
 25  8  1  0
 24 11  1  0
 23 16  1  0
  1 26  1  0
  1 27  1  0
  2 28  1  0
  2 29  1  0
  3 30  1  0
  3 31  1  0
  4 32  1  0
  7 33  1  0
  9 34  1  0
 10 35  1  0
 13 36  1  0
 17 37  1  0
 18 38  1  0
 22 39  1  0
 22 40  1  0
 23 41  1  0
M  END
$$$$
