
     RDKit          3D

 48 52  0  0  0  0  0  0  0  0999 V2000
    4.5262    1.9785   -0.8951 O   0  0  0  0  0  0  0  0  0  0  0  0
    4.9565    0.8628   -0.2070 C   0  0  0  0  0  0  0  0  0  0  0  0
    4.0658   -0.2126    0.0262 C   0  0  0  0  0  0  0  0  0  0  0  0
    2.6655   -0.1969   -0.5488 C   0  0  0  0  0  0  0  0  0  0  0  0
    2.4908   -1.2388   -1.3952 C   0  0  0  0  0  0  0  0  0  0  0  0
    1.4526   -1.6683   -2.1737 O   0  0  0  0  0  0  0  0  0  0  0  0
    0.7256   -0.6156   -2.7355 N   0  0  0  0  0  0  0  0  0  0  0  0
   -0.4704   -0.3599   -2.0372 C   0  0  0  0  0  0  0  0  0  0  0  0
   -1.5997   -0.9125   -2.5553 N   0  0  0  0  0  0  0  0  0  0  0  0
   -2.7204   -0.8330   -1.7983 C   0  0  0  0  0  0  0  0  0  0  0  0
   -2.8025   -0.2236   -0.5492 C   0  0  0  0  0  0  0  0  0  0  0  0
   -4.0607   -0.1619    0.2237 C   0  0  0  0  0  0  0  0  0  0  0  0
   -4.0617   -0.4898    1.5300 C   0  0  0  0  0  0  0  0  0  0  0  0
   -5.2780   -0.4218    2.4114 C   0  0  0  0  0  0  0  0  0  0  0  0
   -6.4496    0.3366    1.7735 C   0  0  0  0  0  0  0  0  0  0  0  0
   -6.2761    1.7473    1.9254 O   0  0  0  0  0  0  0  0  0  0  0  0
   -6.6005   -0.0083    0.2948 C   0  0  0  0  0  0  0  0  0  0  0  0
   -5.3172    0.2648   -0.4990 C   0  0  0  0  0  0  0  0  0  0  0  0
   -1.6314    0.3721   -0.0756 C   0  0  0  0  0  0  0  0  0  0  0  0
   -0.4494    0.3182   -0.8235 C   0  0  0  0  0  0  0  0  0  0  0  0
    0.7431    1.2116   -0.3335 C   0  0  0  0  0  0  0  0  0  0  0  0
    2.0222    0.9016   -0.0995 N   0  0  0  0  0  0  0  0  0  0  0  0
    4.5023   -1.2970    0.8088 C   0  0  0  0  0  0  0  0  0  0  0  0
    5.8047   -1.3671    1.3241 C   0  0  0  0  0  0  0  0  0  0  0  0
    6.6609   -0.3004    1.0343 C   0  0  0  0  0  0  0  0  0  0  0  0
    7.9636   -0.0558    1.3749 N   0  0  0  0  0  0  0  0  0  0  0  0
    8.4534    1.1114    0.9156 N   0  0  0  0  0  0  0  0  0  0  0  0
    7.4089    1.6358    0.2617 C   0  0  0  0  0  0  0  0  0  0  0  0
    6.2680    0.8051    0.2890 C   0  0  0  0  0  0  0  0  0  0  0  0
    3.5395    1.8634   -0.8903 H   0  0  0  0  0  0  0  0  0  0  0  0
    3.2699   -1.9809   -1.5437 H   0  0  0  0  0  0  0  0  0  0  0  0
    0.3811   -0.9539   -3.6274 H   0  0  0  0  0  0  0  0  0  0  0  0
   -3.5812   -1.3206   -2.2448 H   0  0  0  0  0  0  0  0  0  0  0  0
   -3.1451   -0.8269    2.0133 H   0  0  0  0  0  0  0  0  0  0  0  0
   -5.5846   -1.4496    2.6386 H   0  0  0  0  0  0  0  0  0  0  0  0
   -4.9982    0.0615    3.3548 H   0  0  0  0  0  0  0  0  0  0  0  0
   -7.3737    0.0826    2.3042 H   0  0  0  0  0  0  0  0  0  0  0  0
   -5.3623    1.9594    1.6578 H   0  0  0  0  0  0  0  0  0  0  0  0
   -7.4165    0.5749   -0.1481 H   0  0  0  0  0  0  0  0  0  0  0  0
   -6.8661   -1.0686    0.1973 H   0  0  0  0  0  0  0  0  0  0  0  0
   -5.2450    1.3393   -0.7122 H   0  0  0  0  0  0  0  0  0  0  0  0
   -5.4152   -0.2413   -1.4654 H   0  0  0  0  0  0  0  0  0  0  0  0
   -1.6219    0.9152    0.8654 H   0  0  0  0  0  0  0  0  0  0  0  0
    0.4279    2.2209   -0.0717 H   0  0  0  0  0  0  0  0  0  0  0  0
    3.8011   -2.1004    1.0260 H   0  0  0  0  0  0  0  0  0  0  0  0
    6.1190   -2.2127    1.9244 H   0  0  0  0  0  0  0  0  0  0  0  0
    8.5731   -0.6471    1.9249 H   0  0  0  0  0  0  0  0  0  0  0  0
    7.5056    2.6020   -0.2149 H   0  0  0  0  0  0  0  0  0  0  0  0
  1  2  1  0
  2  3  2  0
  3  4  1  0
  4  5  2  0
  5  6  1  0
  6  7  1  0
  7  8  1  0
  8  9  2  0
  9 10  1  0
 10 11  2  0
 11 12  1  0
 12 13  2  0
 13 14  1  0
 14 15  1  0
 15 16  1  0
 15 17  1  0
 17 18  1  0
 11 19  1  0
 19 20  2  0
 20 21  1  0
 21 22  2  0
  3 23  1  0
 23 24  2  0
 24 25  1  0
 25 26  1  0
 26 27  1  0
 27 28  2  0
 28 29  1  0
 29  2  1  0
 22  4  1  0
 29 25  2  0
 20  8  1  0
 18 12  1  0
  1 30  1  0
  5 31  1  0
  7 32  1  0
 10 33  1  0
 13 34  1  0
 14 35  1  0
 14 36  1  0
 15 37  1  0
 16 38  1  0
 17 39  1  0
 17 40  1  0
 18 41  1  0
 18 42  1  0
 19 43  1  0
 21 44  1  0
 23 45  1  0
 24 46  1  0
 26 47  1  0
 28 48  1  0
M  END
$$$$
