
     RDKit          3D

 46 49  0  0  0  0  0  0  0  0999 V2000
    4.2549    2.1823    0.3550 O   0  0  0  0  0  0  0  0  0  0  0  0
    4.4317    1.2090    1.0835 C   0  0  0  0  0  0  0  0  0  0  0  0
    5.0941    1.2867    2.4488 C   0  0  0  0  0  0  0  0  0  0  0  0
    5.7682    2.4571    2.6509 F   0  0  0  0  0  0  0  0  0  0  0  0
    4.0255   -0.0749    0.7459 N   0  0  0  0  0  0  0  0  0  0  0  0
    3.3563   -0.3925   -0.4806 C   0  0  0  0  0  0  0  0  0  0  0  0
    3.5801   -1.7409   -1.1147 C   0  0  0  0  0  0  0  0  0  0  0  0
    2.2185   -1.3675   -0.6028 C   0  0  0  0  0  0  0  0  0  0  0  0
    1.7176   -2.1816    0.9293 S   0  0  0  0  0  0  0  0  0  0  0  0
    2.9081   -2.3982    1.7327 O   0  0  0  0  0  0  0  0  0  0  0  0
    0.8721   -3.2932    0.5538 O   0  0  0  0  0  0  0  0  0  0  0  0
    0.7732   -1.0852    1.8276 N   0  0  0  0  0  0  0  0  0  0  0  0
   -0.4266   -0.6316    1.1945 C   0  0  0  0  0  0  0  0  0  0  0  0
   -0.3787    0.4844    0.3594 C   0  0  0  0  0  0  0  0  0  0  0  0
   -1.5255    0.9214   -0.3213 C   0  0  0  0  0  0  0  0  0  0  0  0
   -1.4806    2.0878   -1.2255 C   0  0  0  0  0  0  0  0  0  0  0  0
   -2.1014    2.0527   -2.4821 C   0  0  0  0  0  0  0  0  0  0  0  0
   -2.0388    3.1705   -3.3002 C   0  0  0  0  0  0  0  0  0  0  0  0
   -1.4039    4.3125   -2.9641 N   0  0  0  0  0  0  0  0  0  0  0  0
   -0.8027    4.3355   -1.7573 C   0  0  0  0  0  0  0  0  0  0  0  0
   -0.8142    3.2693   -0.8693 C   0  0  0  0  0  0  0  0  0  0  0  0
   -2.7219    0.2005   -0.1259 C   0  0  0  0  0  0  0  0  0  0  0  0
   -2.7836   -0.9421    0.6933 C   0  0  0  0  0  0  0  0  0  0  0  0
   -4.0133   -1.7351    0.8911 C   0  0  0  0  0  0  0  0  0  0  0  0
   -4.1756   -2.6021    1.8770 N   0  0  0  0  0  0  0  0  0  0  0  0
   -5.4036   -3.2250    1.7745 C   0  0  0  0  0  0  0  0  0  0  0  0
   -6.1803   -2.8303    0.7086 C   0  0  0  0  0  0  0  0  0  0  0  0
   -5.3524   -1.6362   -0.1991 S   0  0  0  0  0  0  0  0  0  0  0  0
   -1.6129   -1.3458    1.3515 C   0  0  0  0  0  0  0  0  0  0  0  0
    5.8131    0.4691    2.5597 H   0  0  0  0  0  0  0  0  0  0  0  0
    4.3248    1.2056    3.2232 H   0  0  0  0  0  0  0  0  0  0  0  0
    4.1258   -0.8252    1.4355 H   0  0  0  0  0  0  0  0  0  0  0  0
    3.3134    0.4536   -1.1649 H   0  0  0  0  0  0  0  0  0  0  0  0
    4.1651   -2.4802   -0.5794 H   0  0  0  0  0  0  0  0  0  0  0  0
    3.7286   -1.7684   -2.1896 H   0  0  0  0  0  0  0  0  0  0  0  0
    1.4405   -1.1827   -1.3285 H   0  0  0  0  0  0  0  0  0  0  0  0
    0.5920   -1.5271    2.7304 H   0  0  0  0  0  0  0  0  0  0  0  0
    0.5628    1.0171    0.2374 H   0  0  0  0  0  0  0  0  0  0  0  0
   -2.6235    1.1666   -2.8351 H   0  0  0  0  0  0  0  0  0  0  0  0
   -2.5117    3.1708   -4.2775 H   0  0  0  0  0  0  0  0  0  0  0  0
   -0.2969    5.2648   -1.5065 H   0  0  0  0  0  0  0  0  0  0  0  0
   -0.3148    3.3766    0.0896 H   0  0  0  0  0  0  0  0  0  0  0  0
   -3.6242    0.5562   -0.6212 H   0  0  0  0  0  0  0  0  0  0  0  0
   -5.6824   -3.9699    2.5100 H   0  0  0  0  0  0  0  0  0  0  0  0
   -7.1646   -3.1774    0.4277 H   0  0  0  0  0  0  0  0  0  0  0  0
   -1.6325   -2.2371    1.9777 H   0  0  0  0  0  0  0  0  0  0  0  0
  1  2  2  0
  2  3  1  0
  3  4  1  0
  2  5  1  0
  5  6  1  0
  6  7  1  0
  7  8  1  0
  8  9  1  0
  9 10  2  0
  9 11  2  0
  9 12  1  0
 12 13  1  0
 13 14  2  0
 14 15  1  0
 15 16  1  0
 16 17  2  0
 17 18  1  0
 18 19  2  0
 19 20  1  0
 20 21  2  0
 15 22  2  0
 22 23  1  0
 23 24  1  0
 24 25  2  0
 25 26  1  0
 26 27  2  0
 27 28  1  0
 23 29  2  0
  8  6  1  0
 29 13  1  0
 21 16  1  0
 28 24  1  0
  3 30  1  0
  3 31  1  0
  5 32  1  0
  6 33  1  0
  7 34  1  0
  7 35  1  0
  8 36  1  0
 12 37  1  0
 14 38  1  0
 17 39  1  0
 18 40  1  0
 20 41  1  0
 21 42  1  0
 22 43  1  0
 26 44  1  0
 27 45  1  0
 29 46  1  0
M  END
$$$$
