
     RDKit          3D

 45 48  0  0  0  0  0  0  0  0999 V2000
    6.2882   -2.8379   -1.0248 C   0  0  0  0  0  0  0  0  0  0  0  0
    4.8878   -2.5826   -1.0029 O   0  0  0  0  0  0  0  0  0  0  0  0
    4.5392   -1.5500   -0.1550 C   0  0  0  0  0  0  0  0  0  0  0  0
    3.1878   -1.2486   -0.0823 C   0  0  0  0  0  0  0  0  0  0  0  0
    2.7656   -0.2098    0.7557 C   0  0  0  0  0  0  0  0  0  0  0  0
    1.3423    0.1486    0.8667 C   0  0  0  0  0  0  0  0  0  0  0  0
    0.3757   -0.8258    1.1561 C   0  0  0  0  0  0  0  0  0  0  0  0
   -0.9713   -0.4819    1.2498 C   0  0  0  0  0  0  0  0  0  0  0  0
   -1.9603   -1.4881    1.4742 N   0  0  0  0  0  0  0  0  0  0  0  0
   -2.5540   -2.2642    0.0778 S   0  0  0  0  0  0  0  0  0  0  0  0
   -1.4148   -2.7031   -0.7001 O   0  0  0  0  0  0  0  0  0  0  0  0
   -3.5294   -3.2219    0.5537 O   0  0  0  0  0  0  0  0  0  0  0  0
   -3.4025   -1.0135   -0.9232 C   0  0  0  0  0  0  0  0  0  0  0  0
   -4.7197   -0.5622   -0.3521 C   0  0  0  0  0  0  0  0  0  0  0  0
   -4.6874   -1.4738   -1.5512 C   0  0  0  0  0  0  0  0  0  0  0  0
   -5.1279   -0.9320   -2.8430 N   0  0  0  0  0  0  0  0  0  0  0  0
   -1.3784    0.8331    1.0413 C   0  0  0  0  0  0  0  0  0  0  0  0
   -0.4438    1.8378    0.7510 C   0  0  0  0  0  0  0  0  0  0  0  0
   -0.9341    3.2097    0.5188 C   0  0  0  0  0  0  0  0  0  0  0  0
   -2.1911    3.4971    0.2304 N   0  0  0  0  0  0  0  0  0  0  0  0
   -2.3518    4.8603    0.0842 C   0  0  0  0  0  0  0  0  0  0  0  0
   -1.2157    5.6139    0.2689 C   0  0  0  0  0  0  0  0  0  0  0  0
    0.1006    4.5863    0.6410 S   0  0  0  0  0  0  0  0  0  0  0  0
    0.9126    1.4757    0.6670 C   0  0  0  0  0  0  0  0  0  0  0  0
    3.7452    0.4748    1.4844 C   0  0  0  0  0  0  0  0  0  0  0  0
    5.0726    0.0989    1.3468 C   0  0  0  0  0  0  0  0  0  0  0  0
    5.4918   -0.8979    0.5423 N   0  0  0  0  0  0  0  0  0  0  0  0
    6.6513   -3.1470   -0.0384 H   0  0  0  0  0  0  0  0  0  0  0  0
    6.4647   -3.6662   -1.7179 H   0  0  0  0  0  0  0  0  0  0  0  0
    6.8445   -1.9701   -1.3958 H   0  0  0  0  0  0  0  0  0  0  0  0
    2.4820   -1.8144   -0.6829 H   0  0  0  0  0  0  0  0  0  0  0  0
    0.6773   -1.8621    1.2965 H   0  0  0  0  0  0  0  0  0  0  0  0
   -1.6634   -2.2187    2.1238 H   0  0  0  0  0  0  0  0  0  0  0  0
   -2.7812   -0.3020   -1.4442 H   0  0  0  0  0  0  0  0  0  0  0  0
   -5.0683   -0.9825    0.5852 H   0  0  0  0  0  0  0  0  0  0  0  0
   -5.0023    0.4745   -0.4921 H   0  0  0  0  0  0  0  0  0  0  0  0
   -5.0087   -2.4997   -1.3799 H   0  0  0  0  0  0  0  0  0  0  0  0
   -4.7741    0.0097   -3.0085 H   0  0  0  0  0  0  0  0  0  0  0  0
   -4.7831   -1.5051   -3.6140 H   0  0  0  0  0  0  0  0  0  0  0  0
   -2.4353    1.0851    1.1133 H   0  0  0  0  0  0  0  0  0  0  0  0
   -3.3308    5.2557   -0.1586 H   0  0  0  0  0  0  0  0  0  0  0  0
   -1.1013    6.6864    0.2076 H   0  0  0  0  0  0  0  0  0  0  0  0
    1.6599    2.2245    0.4087 H   0  0  0  0  0  0  0  0  0  0  0  0
    3.4852    1.2824    2.1615 H   0  0  0  0  0  0  0  0  0  0  0  0
    5.8568    0.6067    1.9013 H   0  0  0  0  0  0  0  0  0  0  0  0
  1  2  1  0
  2  3  1  0
  3  4  2  0
  4  5  1  0
  5  6  1  0
  6  7  2  0
  7  8  1  0
  8  9  1  0
  9 10  1  0
 10 11  2  0
 10 12  2  0
 10 13  1  0
 13 14  1  0
 14 15  1  0
 15 16  1  0
  8 17  2  0
 17 18  1  0
 18 19  1  0
 19 20  2  0
 20 21  1  0
 21 22  2  0
 22 23  1  0
 18 24  2  0
  5 25  2  0
 25 26  1  0
 26 27  2  0
 27  3  1  0
 24  6  1  0
 15 13  1  0
 23 19  1  0
  1 28  1  0
  1 29  1  0
  1 30  1  0
  4 31  1  0
  7 32  1  0
  9 33  1  0
 13 34  1  0
 14 35  1  0
 14 36  1  0
 15 37  1  0
 16 38  1  0
 16 39  1  0
 17 40  1  0
 21 41  1  0
 22 42  1  0
 24 43  1  0
 25 44  1  0
 26 45  1  0
M  END
$$$$
