
     RDKit          3D

 47 50  0  0  0  0  0  0  0  0999 V2000
    7.0191   -0.5971    1.6271 C   0  0  0  0  0  0  0  0  0  0  0  0
    5.9340    0.4439    1.5621 C   0  0  0  0  0  0  0  0  0  0  0  0
    6.1613    1.6353    1.7511 O   0  0  0  0  0  0  0  0  0  0  0  0
    4.6898   -0.0643    1.2561 N   0  0  0  0  0  0  0  0  0  0  0  0
    3.5352    0.7634    1.0775 C   0  0  0  0  0  0  0  0  0  0  0  0
    2.8966    0.8643   -0.2842 C   0  0  0  0  0  0  0  0  0  0  0  0
    2.1308    0.2682    0.8651 C   0  0  0  0  0  0  0  0  0  0  0  0
    1.8786   -1.5152    0.7501 S   0  0  0  0  0  0  0  0  0  0  0  0
    1.1308   -1.8966    1.9279 O   0  0  0  0  0  0  0  0  0  0  0  0
    3.1566   -2.1394    0.4637 O   0  0  0  0  0  0  0  0  0  0  0  0
    0.9049   -1.8181   -0.6134 N   0  0  0  0  0  0  0  0  0  0  0  0
   -0.4307   -1.3105   -0.5506 C   0  0  0  0  0  0  0  0  0  0  0  0
   -0.6904   -0.0192   -1.0044 C   0  0  0  0  0  0  0  0  0  0  0  0
   -1.9776    0.5287   -0.9068 C   0  0  0  0  0  0  0  0  0  0  0  0
   -2.2563    1.8909   -1.3899 C   0  0  0  0  0  0  0  0  0  0  0  0
   -2.8783    2.8403   -0.5668 C   0  0  0  0  0  0  0  0  0  0  0  0
   -3.1152    4.1153   -1.0632 C   0  0  0  0  0  0  0  0  0  0  0  0
   -2.7822    4.5097   -2.3090 N   0  0  0  0  0  0  0  0  0  0  0  0
   -2.1914    3.5793   -3.0708 C   0  0  0  0  0  0  0  0  0  0  0  0
   -1.8718    4.0095   -4.3158 O   0  0  0  0  0  0  0  0  0  0  0  0
   -1.9058    2.2865   -2.6846 C   0  0  0  0  0  0  0  0  0  0  0  0
   -2.9948   -0.2603   -0.3355 C   0  0  0  0  0  0  0  0  0  0  0  0
   -2.7476   -1.5609    0.1405 C   0  0  0  0  0  0  0  0  0  0  0  0
   -3.7912   -2.4157    0.7385 C   0  0  0  0  0  0  0  0  0  0  0  0
   -3.6931   -3.7291    0.8384 N   0  0  0  0  0  0  0  0  0  0  0  0
   -4.8107   -4.2502    1.4584 C   0  0  0  0  0  0  0  0  0  0  0  0
   -5.7608   -3.3302    1.8375 C   0  0  0  0  0  0  0  0  0  0  0  0
   -5.2408   -1.7578    1.4081 S   0  0  0  0  0  0  0  0  0  0  0  0
   -1.4459   -2.0721    0.0240 C   0  0  0  0  0  0  0  0  0  0  0  0
    7.6602   -0.3924    2.4891 H   0  0  0  0  0  0  0  0  0  0  0  0
    7.6107   -0.5553    0.7090 H   0  0  0  0  0  0  0  0  0  0  0  0
    6.6058   -1.6031    1.7420 H   0  0  0  0  0  0  0  0  0  0  0  0
    4.6109   -1.0539    1.0117 H   0  0  0  0  0  0  0  0  0  0  0  0
    3.6071    1.6916    1.6452 H   0  0  0  0  0  0  0  0  0  0  0  0
    3.2644    0.2167   -1.0723 H   0  0  0  0  0  0  0  0  0  0  0  0
    2.6146    1.8527   -0.6288 H   0  0  0  0  0  0  0  0  0  0  0  0
    1.3212    0.8366    1.2992 H   0  0  0  0  0  0  0  0  0  0  0  0
    0.9415   -2.8237   -0.7958 H   0  0  0  0  0  0  0  0  0  0  0  0
    0.1149    0.5637   -1.4458 H   0  0  0  0  0  0  0  0  0  0  0  0
   -3.1663    2.6020    0.4527 H   0  0  0  0  0  0  0  0  0  0  0  0
   -3.5917    4.8735   -0.4477 H   0  0  0  0  0  0  0  0  0  0  0  0
   -2.1988    4.9259   -4.2631 H   0  0  0  0  0  0  0  0  0  0  0  0
   -1.4326    1.6080   -3.3855 H   0  0  0  0  0  0  0  0  0  0  0  0
   -4.0016    0.1521   -0.2882 H   0  0  0  0  0  0  0  0  0  0  0  0
   -4.8808   -5.3203    1.6120 H   0  0  0  0  0  0  0  0  0  0  0  0
   -6.7046   -3.5024    2.3341 H   0  0  0  0  0  0  0  0  0  0  0  0
   -1.2282   -3.0704    0.4014 H   0  0  0  0  0  0  0  0  0  0  0  0
  1  2  1  0
  2  3  2  0
  2  4  1  0
  4  5  1  0
  5  6  1  0
  6  7  1  0
  7  8  1  0
  8  9  2  0
  8 10  2  0
  8 11  1  0
 11 12  1  0
 12 13  2  0
 13 14  1  0
 14 15  1  0
 15 16  2  0
 16 17  1  0
 17 18  2  0
 18 19  1  0
 19 20  1  0
 19 21  2  0
 14 22  2  0
 22 23  1  0
 23 24  1  0
 24 25  2  0
 25 26  1  0
 26 27  2  0
 27 28  1  0
 23 29  2  0
  7  5  1  0
 29 12  1  0
 21 15  1  0
 28 24  1  0
  1 30  1  0
  1 31  1  0
  1 32  1  0
  4 33  1  0
  5 34  1  0
  6 35  1  0
  6 36  1  0
  7 37  1  0
 11 38  1  0
 13 39  1  0
 16 40  1  0
 17 41  1  0
 20 42  1  0
 21 43  1  0
 22 44  1  0
 26 45  1  0
 27 46  1  0
 29 47  1  0
M  END
$$$$
