
     RDKit          3D

 39 42  0  0  0  0  0  0  0  0999 V2000
    2.2836   -2.7838    0.6508 N   0  0  0  0  0  0  0  0  0  0  0  0
    0.9594   -2.4837    1.1623 C   0  0  0  0  0  0  0  0  0  0  0  0
    0.7350   -1.0092    1.5231 C   0  0  0  0  0  0  0  0  0  0  0  0
    1.3375   -0.0094    0.5235 C   0  0  0  0  0  0  0  0  0  0  0  0
    2.7482    0.3774    1.0417 C   0  0  0  0  0  0  0  0  0  0  0  0
    3.7092   -0.3540    1.2194 O   0  0  0  0  0  0  0  0  0  0  0  0
    2.7245    1.7250    1.3477 N   0  0  0  0  0  0  0  0  0  0  0  0
    1.4970    2.2862    1.0625 C   0  0  0  0  0  0  0  0  0  0  0  0
    1.1452    3.5961    1.2652 C   0  0  0  0  0  0  0  0  0  0  0  0
   -0.1469    3.9631    0.8998 C   0  0  0  0  0  0  0  0  0  0  0  0
   -1.0462    3.0704    0.3155 C   0  0  0  0  0  0  0  0  0  0  0  0
   -2.2415    3.5699   -0.0007 N   0  0  0  0  0  0  0  0  0  0  0  0
   -3.1080    2.7494   -0.5953 C   0  0  0  0  0  0  0  0  0  0  0  0
   -2.8738    1.4825   -0.9280 N   0  0  0  0  0  0  0  0  0  0  0  0
   -1.6597    0.9785   -0.5999 C   0  0  0  0  0  0  0  0  0  0  0  0
   -1.4875   -0.3772   -1.1329 C   0  0  0  0  0  0  0  0  0  0  0  0
   -0.6716   -0.6152   -2.2541 C   0  0  0  0  0  0  0  0  0  0  0  0
   -0.5883   -1.8921   -2.8167 C   0  0  0  0  0  0  0  0  0  0  0  0
   -1.3366   -2.9321   -2.2766 C   0  0  0  0  0  0  0  0  0  0  0  0
   -1.2612   -4.1518   -2.8239 F   0  0  0  0  0  0  0  0  0  0  0  0
   -2.1611   -2.7249   -1.1812 C   0  0  0  0  0  0  0  0  0  0  0  0
   -2.2286   -1.4534   -0.6189 C   0  0  0  0  0  0  0  0  0  0  0  0
   -3.0151   -1.2765    0.4541 F   0  0  0  0  0  0  0  0  0  0  0  0
   -0.6673    1.7298    0.0755 C   0  0  0  0  0  0  0  0  0  0  0  0
    0.6273    1.3374    0.5170 C   0  0  0  0  0  0  0  0  0  0  0  0
    2.4740   -3.7821    0.7225 H   0  0  0  0  0  0  0  0  0  0  0  0
    3.0106   -2.3090    1.1976 H   0  0  0  0  0  0  0  0  0  0  0  0
    0.7651   -3.0928    2.0525 H   0  0  0  0  0  0  0  0  0  0  0  0
    0.2336   -2.7921    0.4077 H   0  0  0  0  0  0  0  0  0  0  0  0
   -0.3450   -0.8547    1.6292 H   0  0  0  0  0  0  0  0  0  0  0  0
    1.1542   -0.8341    2.5239 H   0  0  0  0  0  0  0  0  0  0  0  0
    1.4381   -0.3891   -0.4960 H   0  0  0  0  0  0  0  0  0  0  0  0
    3.5245    2.2064    1.7312 H   0  0  0  0  0  0  0  0  0  0  0  0
    1.8280    4.3181    1.6977 H   0  0  0  0  0  0  0  0  0  0  0  0
   -0.4663    4.9920    1.0611 H   0  0  0  0  0  0  0  0  0  0  0  0
   -4.0841    3.1532   -0.8402 H   0  0  0  0  0  0  0  0  0  0  0  0
   -0.1098    0.2002   -2.7067 H   0  0  0  0  0  0  0  0  0  0  0  0
    0.0451   -2.0780   -3.6791 H   0  0  0  0  0  0  0  0  0  0  0  0
   -2.7418   -3.5403   -0.7669 H   0  0  0  0  0  0  0  0  0  0  0  0
  1  2  1  0
  2  3  1  0
  3  4  1  0
  4  5  1  0
  5  6  2  0
  5  7  1  0
  7  8  1  0
  8  9  2  0
  9 10  1  0
 10 11  2  0
 11 12  1  0
 12 13  2  0
 13 14  1  0
 14 15  2  0
 15 16  1  0
 16 17  2  0
 17 18  1  0
 18 19  2  0
 19 20  1  0
 19 21  1  0
 21 22  2  0
 22 23  1  0
 15 24  1  0
 24 25  2  0
 25  4  1  0
 25  8  1  0
 24 11  1  0
 22 16  1  0
  1 26  1  0
  1 27  1  0
  2 28  1  0
  2 29  1  0
  3 30  1  0
  3 31  1  0
  4 32  1  0
  7 33  1  0
  9 34  1  0
 10 35  1  0
 13 36  1  0
 17 37  1  0
 18 38  1  0
 21 39  1  0
M  END
$$$$
