REMARK SMILES COc1c(O)ccc(C(=O)c2ccc(-c3cnc(N)nc3N3CCC[C@H]3Cn3ccnn3)c(F)c2)c1F
REMARK SMILES IDX 11 1 12 2 13 3 14 4 33 5 34 6 35 7 9 8 10 9 8 10 3 11 4 12
REMARK SMILES IDX 36 13 6 14 7 15 37 16 2 17 1 18 5 19 15 21 16 22 21 23 17 24
REMARK SMILES IDX 20 25 18 26 22 27 23 28 26 29 24 30 25 31 27 32 28 33 29 34
REMARK SMILES IDX 32 35 30 36 31 37 19 38
REMARK H PARENT 5 20 19 39 19 40
ROOT
ATOM      1  C   UNL     1       2.198  -0.069   1.005  1.00  0.00     0.026 A 
ATOM      2  C   UNL     1       1.343   0.685   1.819  1.00  0.00     0.013 A 
ATOM      3  C   UNL     1       0.242   1.346   1.263  1.00  0.00     0.013 A 
ATOM      4  C   UNL     1      -0.029   1.252  -0.110  1.00  0.00     0.023 A 
ATOM      5  C   UNL     1       0.832   0.480  -0.902  1.00  0.00     0.131 A 
ATOM      6  F   UNL     1       0.604   0.359  -2.219  1.00  0.00    -0.206 F 
ATOM      7  C   UNL     1       1.930  -0.184  -0.361  1.00  0.00     0.052 A 
ENDROOT
BRANCH   1   8
ATOM      8  C   UNL     1       3.336  -0.776   1.642  1.00  0.00     0.196 C 
ATOM      9  O   UNL     1       3.197  -1.217   2.780  1.00  0.00    -0.288 OA
BRANCH   8  10
ATOM     10  C   UNL     1       4.622  -1.004   0.945  1.00  0.00     0.062 A 
ATOM     11  C   UNL     1       6.392  -0.303  -0.549  1.00  0.00     0.197 A 
ATOM     12  C   UNL     1       7.081  -1.492  -0.290  1.00  0.00     0.160 A 
ATOM     13  C   UNL     1       5.179  -0.050   0.092  1.00  0.00     0.180 A 
ATOM     14  C   UNL     1       6.544  -2.443   0.579  1.00  0.00     0.051 A 
ATOM     15  C   UNL     1       5.316  -2.197   1.198  1.00  0.00     0.019 A 
ATOM     16  F   UNL     1       4.560   1.123  -0.119  1.00  0.00    -0.202 F 
BRANCH  11  17
ATOM     17  O   UNL     1       6.919   0.670  -1.361  1.00  0.00    -0.490 OA
ATOM     18  C   UNL     1       6.742   0.325  -2.734  1.00  0.00     0.278 C 
ENDBRANCH  11  17
BRANCH  12  19
ATOM     19  O   UNL     1       8.291  -1.707  -0.883  1.00  0.00    -0.504 OA
ATOM     20  H   UNL     1       8.697  -2.508  -0.514  1.00  0.00     0.293 HD
ENDBRANCH  12  19
ENDBRANCH   8  10
ENDBRANCH   1   8
BRANCH   4  21
ATOM     21  C   UNL     1      -1.188   1.931  -0.691  1.00  0.00     0.046 A 
ATOM     22  C   UNL     1      -1.121   3.251  -1.095  1.00  0.00     0.127 A 
ATOM     23  C   UNL     1      -2.438   1.334  -0.859  1.00  0.00     0.142 A 
ATOM     24  N   UNL     1      -2.155   3.940  -1.615  1.00  0.00    -0.221 NA
ATOM     25  N   UNL     1      -3.492   2.005  -1.370  1.00  0.00    -0.195 NA
ATOM     26  C   UNL     1      -3.298   3.270  -1.748  1.00  0.00     0.221 A 
BRANCH  23  27
ATOM     27  N   UNL     1      -2.608  -0.025  -0.502  1.00  0.00    -0.351 N 
ATOM     28  C   UNL     1      -2.555  -0.864  -1.722  1.00  0.00     0.118 C 
ATOM     29  C   UNL     1      -3.886  -0.298   0.217  1.00  0.00     0.105 C 
ATOM     30  C   UNL     1      -3.560  -1.978  -1.463  1.00  0.00     0.024 C 
ATOM     31  C   UNL     1      -4.657  -1.251  -0.710  1.00  0.00     0.029 C 
BRANCH  29  32
ATOM     32  C   UNL     1      -3.538  -0.919   1.579  1.00  0.00     0.171 C 
BRANCH  32  33
ATOM     33  N   UNL     1      -4.658  -0.921   2.492  1.00  0.00    -0.251 N 
ATOM     34  C   UNL     1      -4.970   0.009   3.438  1.00  0.00     0.131 A 
ATOM     35  N   UNL     1      -5.527  -1.943   2.508  1.00  0.00    -0.067 NA
ATOM     36  C   UNL     1      -6.098  -0.498   4.035  1.00  0.00     0.157 A 
ATOM     37  N   UNL     1      -6.425  -1.689   3.452  1.00  0.00    -0.139 NA
ENDBRANCH  32  33
ENDBRANCH  29  32
ENDBRANCH  23  27
BRANCH  26  38
ATOM     38  N   UNL     1      -4.373   3.947  -2.279  1.00  0.00    -0.368 N 
ATOM     39  H   UNL     1      -5.242   3.536  -1.973  1.00  0.00     0.159 HD
ATOM     40  H   UNL     1      -4.252   4.943  -2.162  1.00  0.00     0.159 HD
ENDBRANCH  26  38
ENDBRANCH   4  21
TORSDOF 9
