MODEL        4USER    Run = 4USERUSER    Estimated Free Energy of Binding    = -10.94 kcal/mol  [=(1)+(2)+(3)-(4)]USERUSER    (1) Final Intermolecular Energy     = -12.73 kcal/molUSER        vdW + Hbond + desolv Energy     = -12.70 kcal/molUSER        Electrostatic Energy            =  -0.03 kcal/molUSER        Moving Ligand-Fixed Receptor    = -12.73 kcal/molUSER        Moving Ligand-Moving Receptor   =  +0.00 kcal/molUSER    (2) Final Total Internal Energy     =  -1.89 kcal/molUSER    (3) Torsional Free Energy           =  +1.79 kcal/molUSER    (4) Unbound System's Energy         =  -1.89 kcal/molUSERUSERREMARK SMILES Cc1cccn2cc(-c3cccc(NC(=O)c4ccccc4)c3CCN3CCOCC3)nc12REMARK SMILES IDX 9 1 10 2 11 3 12 4 13 5 23 6 8 7 2 8 3 9 33 10 4 11 32 12REMARK SMILES IDX 6 13 5 14 7 15 1 16 24 17 25 18 26 19 27 20 31 21 28 22REMARK SMILES IDX 30 23 29 24 14 25 15 26 16 28 17 29 18 30 22 31 19 32 21 33REMARK SMILES IDX 20 34REMARK H PARENT 14 27USER                              x       y       z     vdW  Elec       q    TypeUSER                           _______ _______ _______ _____ _____    ______ ____ROOTATOM      1  C   UNL     1      39.387  45.363  19.720 -0.39 -0.00    +0.007 A  ATOM      2  C   UNL     1      40.633  45.997  19.842 -0.36 +0.00    +0.011 A  ATOM      3  C   UNL     1      41.226  46.616  18.747 -0.50 -0.00    +0.003 A  ATOM      4  C   UNL     1      40.563  46.645  17.523 -0.49 -0.00    +0.026 A  ATOM      5  C   UNL     1      39.310  46.043  17.366 -0.40 -0.01    +0.045 A  ATOM      6  C   UNL     1      38.734  45.340  18.459 -0.39 +0.00    -0.014 A  ENDROOTBRANCH   1   7ATOM      7  C   UNL     1      38.786  44.791  20.918 -0.30 +0.00    +0.090 A  ATOM      8  C   UNL     1      37.087  42.294  22.822 -0.46 -0.00    -0.008 A  ATOM      9  C   UNL     1      36.731  42.437  24.121 -0.40 +0.00    +0.009 A  ATOM     10  C   UNL     1      37.769  43.393  22.191 -0.28 +0.01    +0.140 A  ATOM     11  C   UNL     1      37.015  43.644  24.887 -0.34 +0.00    +0.019 A  ATOM     12  N   UNL     1      38.217  43.539  20.961 -0.15 -0.00    -0.228 NA ATOM     13  N   UNL     1      38.030  44.526  22.956 -0.17 -0.03    -0.306 N  ATOM     14  C   UNL     1      37.659  44.658  24.289 -0.26 +0.01    +0.093 A  ATOM     15  C   UNL     1      38.685  45.416  22.144 -0.26 +0.01    +0.121 A  ATOM     16  C   UNL     1      36.770  41.019  22.084 -0.57 +0.00    +0.048 C  ENDBRANCH   1   7BRANCH   6  17ATOM     17  C   UNL     1      37.441  44.551  18.279 -0.37 -0.01    +0.054 C  BRANCH  17  18ATOM     18  C   UNL     1      36.236  45.453  17.962 -0.33 -0.03    +0.089 C  BRANCH  18  19ATOM     19  N   UNL     1      35.225  45.434  19.050 -0.12 +0.10    -0.298 NA ATOM     20  C   UNL     1      33.871  45.134  18.509 -0.41 -0.05    +0.113 C  ATOM     21  C   UNL     1      35.586  44.431  20.084 -0.28 -0.01    +0.113 C  ATOM     22  C   UNL     1      32.993  44.360  19.507 -0.37 -0.03    +0.175 C  ATOM     23  C   UNL     1      34.967  43.048  19.837 -0.37 -0.01    +0.175 C  ATOM     24  O   UNL     1      33.531  43.063  19.796 -0.68 -0.02    -0.379 OA ENDBRANCH  18  19ENDBRANCH  17  18ENDBRANCH   6  17BRANCH   5  25ATOM     25  N   UNL     1      38.585  46.137  16.153 -0.16 +0.10    -0.322 N  ATOM     26  C   UNL     1      38.421  47.242  15.341 -0.32 -0.11    +0.255 C  ATOM     27  H   UNL     1      37.966  45.353  15.951 +0.12 -0.05    +0.170 HD ATOM     28  O   UNL     1      38.867  48.371  15.498 -0.35 +0.14    -0.269 OA BRANCH  26  29ATOM     29  C   UNL     1      37.574  46.989  14.148 -0.44 -0.02    +0.040 A  ATOM     30  C   UNL     1      36.957  48.071  13.513 -0.59 -0.01    +0.014 A  ATOM     31  C   UNL     1      37.421  45.692  13.644 -0.44 -0.00    +0.014 A  ATOM     32  C   UNL     1      36.162  47.850  12.388 -0.65 -0.00    +0.001 A  ATOM     33  C   UNL     1      36.634  45.477  12.512 -0.57 -0.00    +0.001 A  ATOM     34  C   UNL     1      36.000  46.554  11.890 -0.63 -0.00    +0.000 A  ENDBRANCH  26  29ENDBRANCH   5  25TORSDOF 6TERENDMDL