REMARK SMILES CC[C@@H]1NC=Nc2c(Nc3ccc(C)cc3F)nc(N3CC[C@@H](CN4CCOCC4)C3)nc21
REMARK SMILES IDX 3 1 4 2 5 3 6 4 7 5 8 6 18 7 19 8 32 9 33 10 2 12 1 13 20 14
REMARK SMILES IDX 21 15 31 16 22 17 23 18 24 19 25 20 26 21 30 22 27 23 29 24
REMARK SMILES IDX 28 25 9 26 10 28 11 29 16 30 12 31 15 32 13 33 17 34 14 35
REMARK H PARENT 4 11 9 27
ROOT
ATOM      1  C   UNL     1       2.597   4.476   0.402  1.00  0.00     0.131 C 
ATOM      2  N   UNL     1       3.836   4.642   1.155  1.00  0.00    -0.368 N 
ATOM      3  C   UNL     1       4.699   3.598   1.287  1.00  0.00     0.193 C 
ATOM      4  N   UNL     1       4.440   2.352   1.080  1.00  0.00    -0.234 NA
ATOM      5  C   UNL     1       3.101   2.052   0.720  1.00  0.00     0.131 A 
ATOM      6  C   UNL     1       2.632   0.741   0.667  1.00  0.00     0.162 A 
ATOM      7  N   UNL     1       1.370   0.447   0.296  1.00  0.00    -0.193 NA
ATOM      8  C   UNL     1       0.533   1.448  -0.010  1.00  0.00     0.227 A 
ATOM      9  N   UNL     1       0.898   2.740   0.015  1.00  0.00    -0.213 NA
ATOM     10  C   UNL     1       2.171   3.020   0.381  1.00  0.00     0.096 A 
ATOM     11  H   UNL     1       4.203   5.585   1.225  1.00  0.00     0.162 HD
ENDROOT
BRANCH   1  12
ATOM     12  C   UNL     1       2.769   5.000  -1.034  1.00  0.00     0.028 C 
ATOM     13  C   UNL     1       2.949   6.513  -1.097  1.00  0.00     0.006 C 
ENDBRANCH   1  12
BRANCH   8  14
ATOM     14  N   UNL     1      -0.748   1.142  -0.386  1.00  0.00    -0.340 N 
ATOM     15  C   UNL     1      -1.754   2.181  -0.499  1.00  0.00     0.120 C 
ATOM     16  C   UNL     1      -1.326  -0.149  -0.021  1.00  0.00     0.124 C 
ATOM     17  C   UNL     1      -3.047   1.384  -0.672  1.00  0.00     0.028 C 
ATOM     18  C   UNL     1      -2.804   0.186   0.247  1.00  0.00     0.024 C 
BRANCH  18  19
ATOM     19  C   UNL     1      -3.766  -1.000   0.120  1.00  0.00     0.090 C 
BRANCH  19  20
ATOM     20  N   UNL     1      -3.786  -1.614  -1.215  1.00  0.00    -0.298 NA
ATOM     21  C   UNL     1      -4.961  -1.201  -2.019  1.00  0.00     0.113 C 
ATOM     22  C   UNL     1      -3.781  -3.094  -1.150  1.00  0.00     0.113 C 
ATOM     23  C   UNL     1      -6.288  -1.859  -1.592  1.00  0.00     0.175 C 
ATOM     24  C   UNL     1      -5.120  -3.696  -0.695  1.00  0.00     0.175 C 
ATOM     25  O   UNL     1      -6.186  -3.287  -1.561  1.00  0.00    -0.379 OA
ENDBRANCH  19  20
ENDBRANCH  18  19
ENDBRANCH   8  14
BRANCH   6  26
ATOM     26  N   UNL     1       3.536  -0.289   1.045  1.00  0.00    -0.336 N 
ATOM     27  H   UNL     1       4.471  -0.019   0.755  1.00  0.00     0.168 HD
BRANCH  26  28
ATOM     28  C   UNL     1       3.297  -1.674   1.105  1.00  0.00     0.076 A 
ATOM     29  C   UNL     1       4.258  -2.553   0.584  1.00  0.00     0.029 A 
ATOM     30  C   UNL     1       2.141  -2.237   1.666  1.00  0.00     0.146 A 
ATOM     31  C   UNL     1       4.061  -3.940   0.606  1.00  0.00     0.006 A 
ATOM     32  C   UNL     1       1.939  -3.618   1.693  1.00  0.00     0.045 A 
ATOM     33  C   UNL     1       2.891  -4.483   1.148  1.00  0.00    -0.048 A 
ATOM     34  F   UNL     1       1.218  -1.467   2.264  1.00  0.00    -0.205 F 
ATOM     35  C   UNL     1       2.693  -5.967   1.209  1.00  0.00     0.044 C 
ENDBRANCH  26  28
ENDBRANCH   6  26
TORSDOF 6
