REMARK SMILES Cc1cccn2cc(-c3cccc(NC(=O)c4ccccc4)c3CCN3CCOCC3)nc12
REMARK SMILES IDX 9 1 10 2 11 3 12 4 13 5 23 6 8 7 2 8 3 9 33 10 4 11 32 12
REMARK SMILES IDX 6 13 5 14 7 15 1 16 24 17 25 18 26 19 27 20 31 21 28 22
REMARK SMILES IDX 30 23 29 24 14 25 15 26 16 28 17 29 18 30 22 31 19 32 21 33
REMARK SMILES IDX 20 34
REMARK H PARENT 14 27
ROOT
ATOM      1  C   UNL     1      -0.822  -2.219   1.764  1.00  0.00     0.007 A 
ATOM      2  C   UNL     1      -0.527  -2.808   3.003  1.00  0.00     0.011 A 
ATOM      3  C   UNL     1       0.732  -2.666   3.576  1.00  0.00     0.003 A 
ATOM      4  C   UNL     1       1.703  -1.900   2.937  1.00  0.00     0.026 A 
ATOM      5  C   UNL     1       1.441  -1.279   1.710  1.00  0.00     0.045 A 
ATOM      6  C   UNL     1       0.183  -1.485   1.081  1.00  0.00    -0.014 A 
ENDROOT
BRANCH   1   7
ATOM      7  C   UNL     1      -2.179  -2.345   1.248  1.00  0.00     0.090 A 
ATOM      8  C   UNL     1      -5.188  -1.189  -0.288  1.00  0.00    -0.008 A 
ATOM      9  C   UNL     1      -6.293  -1.952  -0.469  1.00  0.00     0.009 A 
ATOM     10  C   UNL     1      -4.051  -1.801   0.348  1.00  0.00     0.140 A 
ATOM     11  C   UNL     1      -6.364  -3.346  -0.052  1.00  0.00     0.019 A 
ATOM     12  N   UNL     1      -2.869  -1.310   0.658  1.00  0.00    -0.228 NA
ATOM     13  N   UNL     1      -4.153  -3.137   0.725  1.00  0.00    -0.306 N 
ATOM     14  C   UNL     1      -5.294  -3.907   0.532  1.00  0.00     0.093 A 
ATOM     15  C   UNL     1      -2.955  -3.485   1.294  1.00  0.00     0.121 A 
ATOM     16  C   UNL     1      -5.173   0.246  -0.745  1.00  0.00     0.048 C 
ENDBRANCH   1   7
BRANCH   6  17
ATOM     17  C   UNL     1      -0.081  -0.943  -0.320  1.00  0.00     0.054 C 
BRANCH  17  18
ATOM     18  C   UNL     1      -0.444   0.552  -0.319  1.00  0.00     0.089 C 
BRANCH  18  19
ATOM     19  N   UNL     1       0.735   1.411  -0.598  1.00  0.00    -0.298 NA
ATOM     20  C   UNL     1       1.079   1.384  -2.046  1.00  0.00     0.113 C 
ATOM     21  C   UNL     1       0.479   2.809  -0.168  1.00  0.00     0.113 C 
ATOM     22  C   UNL     1       1.682   2.711  -2.536  1.00  0.00     0.175 C 
ATOM     23  C   UNL     1      -0.103   3.693  -1.281  1.00  0.00     0.175 C 
ATOM     24  O   UNL     1       0.745   3.791  -2.436  1.00  0.00    -0.379 OA
ENDBRANCH  18  19
ENDBRANCH  17  18
ENDBRANCH   6  17
BRANCH   5  25
ATOM     25  N   UNL     1       2.387  -0.427   1.090  1.00  0.00    -0.322 N 
ATOM     26  C   UNL     1       3.628  -0.044   1.560  1.00  0.00     0.255 C 
ATOM     27  H   UNL     1       2.039   0.107   0.294  1.00  0.00     0.170 HD
ATOM     28  O   UNL     1       4.171  -0.360   2.610  1.00  0.00    -0.269 OA
BRANCH  26  29
ATOM     29  C   UNL     1       4.352   0.883   0.654  1.00  0.00     0.040 A 
ATOM     30  C   UNL     1       4.893   2.060   1.180  1.00  0.00     0.014 A 
ATOM     31  C   UNL     1       4.522   0.570  -0.700  1.00  0.00     0.014 A 
ATOM     32  C   UNL     1       5.581   2.939   0.343  1.00  0.00     0.001 A 
ATOM     33  C   UNL     1       5.220   1.447  -1.531  1.00  0.00     0.001 A 
ATOM     34  C   UNL     1       5.742   2.633  -1.011  1.00  0.00     0.000 A 
ENDBRANCH  26  29
ENDBRANCH   5  25
TORSDOF 6
