MODEL        8USER    Run = 8USERUSER    Estimated Free Energy of Binding    = -10.43 kcal/mol  [=(1)+(2)+(3)-(4)]USERUSER    (1) Final Intermolecular Energy     = -13.11 kcal/molUSER        vdW + Hbond + desolv Energy     = -12.99 kcal/molUSER        Electrostatic Energy            =  -0.12 kcal/molUSER        Moving Ligand-Fixed Receptor    = -13.11 kcal/molUSER        Moving Ligand-Moving Receptor   =  +0.00 kcal/molUSER    (2) Final Total Internal Energy     =  -2.90 kcal/molUSER    (3) Torsional Free Energy           =  +2.68 kcal/molUSER    (4) Unbound System's Energy         =  -2.90 kcal/molUSERUSERREMARK SMILES COc1c(O)ccc(C(=O)c2ccc(-c3cnc(N)nc3N3CCC[C@H]3Cn3ccnn3)c(F)c2)c1FREMARK SMILES IDX 11 1 12 2 13 3 14 4 33 5 34 6 35 7 9 8 10 9 8 10 3 11 4 12REMARK SMILES IDX 36 13 6 14 7 15 37 16 2 17 1 18 5 19 15 21 16 22 21 23 17 24REMARK SMILES IDX 20 25 18 26 22 27 23 28 26 29 24 30 25 31 27 32 28 33 29 34REMARK SMILES IDX 32 35 30 36 31 37 19 38REMARK H PARENT 5 20 19 39 19 40USER                              x       y       z     vdW  Elec       q    TypeUSER                           _______ _______ _______ _____ _____    ______ ____ROOTATOM      1  C   UNL     1      35.352  43.682  17.080 -0.32 -0.01    +0.026 A  ATOM      2  C   UNL     1      36.316  43.782  16.069 -0.39 -0.00    +0.013 A  ATOM      3  C   UNL     1      37.568  44.345  16.341 -0.30 -0.00    +0.013 A  ATOM      4  C   UNL     1      37.879  44.804  17.630 -0.35 -0.01    +0.023 A  ATOM      5  C   UNL     1      36.904  44.681  18.629 -0.26 -0.03    +0.131 A  ATOM      6  F   UNL     1      37.165  45.101  19.876 +0.01 +0.01    -0.206 F  ATOM      7  C   UNL     1      35.655  44.120  18.371 -0.29 -0.01    +0.052 A  ENDROOTBRANCH   1   8ATOM      8  C   UNL     1      34.050  43.052  16.753 -0.29 -0.08    +0.196 C  ATOM      9  O   UNL     1      33.848  41.893  17.106 -0.29 +0.14    -0.288 OA BRANCH   8  10ATOM     10  C   UNL     1      32.968  43.778  16.049 -0.29 -0.03    +0.062 A  ATOM     11  C   UNL     1      30.670  44.004  15.328 -0.21 -0.12    +0.197 A  ATOM     12  C   UNL     1      30.974  45.238  14.745 -0.34 -0.10    +0.160 A  ATOM     13  C   UNL     1      31.661  43.292  16.003 -0.22 -0.08    +0.180 A  ATOM     14  C   UNL     1      32.273  45.745  14.806 -0.34 -0.04    +0.051 A  ATOM     15  C   UNL     1      33.269  45.015  15.460 -0.30 -0.01    +0.019 A  ATOM     16  F   UNL     1      31.339  42.138  16.610 -0.06 +0.09    -0.202 F  BRANCH  11  17ATOM     17  O   UNL     1      29.391  43.505  15.325 -0.04 +0.40    -0.490 OA ATOM     18  C   UNL     1      28.634  44.064  16.398 -0.15 -0.09    +0.278 C  ENDBRANCH  11  17BRANCH  12  19ATOM     19  O   UNL     1      29.986  45.951  14.131 -0.19 +0.35    -0.504 OA ATOM     20  H   UNL     1      29.254  45.357  13.896 -0.30 -0.43    +0.293 HD ENDBRANCH  12  19ENDBRANCH   8  10ENDBRANCH   1   8BRANCH   4  21ATOM     21  C   UNL     1      39.193  45.381  17.920 -0.38 -0.01    +0.046 A  ATOM     22  C   UNL     1      39.899  45.028  19.055 -0.34 -0.00    +0.127 A  ATOM     23  C   UNL     1      39.821  46.333  17.117 -0.36 -0.02    +0.142 A  ATOM     24  N   UNL     1      41.099  45.537  19.392 -0.28 -0.01    -0.221 NA ATOM     25  N   UNL     1      41.020  46.865  17.437 -0.36 +0.02    -0.195 NA ATOM     26  C   UNL     1      41.617  46.426  18.546 -0.34 +0.00    +0.221 A  BRANCH  23  27ATOM     27  N   UNL     1      39.196  46.744  15.916 -0.17 +0.10    -0.351 N  ATOM     28  C   UNL     1      40.223  47.249  14.974 -0.46 -0.02    +0.118 C  ATOM     29  C   UNL     1      38.161  47.801  16.113 -0.34 -0.06    +0.105 C  ATOM     30  C   UNL     1      39.540  48.397  14.244 -0.50 -0.01    +0.024 C  ATOM     31  C   UNL     1      38.695  49.017  15.340 -0.42 -0.02    +0.029 C  BRANCH  29  32ATOM     32  C   UNL     1      36.829  47.265  15.565 -0.34 -0.14    +0.171 C  BRANCH  32  33ATOM     33  N   UNL     1      36.840  47.112  14.128 -0.26 +0.14    -0.251 N  ATOM     34  C   UNL     1      36.931  45.958  13.409 -0.39 -0.05    +0.131 A  ATOM     35  N   UNL     1      36.799  48.185  13.325 -0.80 +0.03    -0.067 NA ATOM     36  C   UNL     1      36.931  46.385  12.104 -0.51 -0.05    +0.157 A  ATOM     37  N   UNL     1      36.847  47.748  12.072 -1.12 +0.04    -0.139 NA ENDBRANCH  32  33ENDBRANCH  29  32ENDBRANCH  23  27BRANCH  26  38ATOM     38  N   UNL     1      42.845  46.963  18.863 -0.29 -0.06    -0.368 N  ATOM     39  H   UNL     1      43.267  46.465  19.632 +0.08 +0.08    +0.159 HD ATOM     40  H   UNL     1      43.394  47.097  18.026 -0.46 -0.00    +0.159 HD ENDBRANCH  26  38ENDBRANCH   4  21TORSDOF 9TERENDMDL