MODEL        9USER    Run = 9USERUSER    Estimated Free Energy of Binding    = -10.14 kcal/mol  [=(1)+(2)+(3)-(4)]USERUSER    (1) Final Intermolecular Energy     = -11.93 kcal/molUSER        vdW + Hbond + desolv Energy     = -11.72 kcal/molUSER        Electrostatic Energy            =  -0.20 kcal/molUSER        Moving Ligand-Fixed Receptor    = -11.93 kcal/molUSER        Moving Ligand-Moving Receptor   =  +0.00 kcal/molUSER    (2) Final Total Internal Energy     =  -1.39 kcal/molUSER    (3) Torsional Free Energy           =  +1.79 kcal/molUSER    (4) Unbound System's Energy         =  -1.39 kcal/molUSERUSERREMARK SMILES CC[C@@H]1NC=Nc2c(Nc3ccc(C)cc3F)nc(N3CC[C@@H](CN4CCOCC4)C3)nc21REMARK SMILES IDX 3 1 4 2 5 3 6 4 7 5 8 6 18 7 19 8 32 9 33 10 2 12 1 13 20 14REMARK SMILES IDX 21 15 31 16 22 17 23 18 24 19 25 20 26 21 30 22 27 23 29 24REMARK SMILES IDX 28 25 9 26 10 28 11 29 16 30 12 31 15 32 13 33 17 34 14 35REMARK H PARENT 4 11 9 27USER                              x       y       z     vdW  Elec       q    TypeUSER                           _______ _______ _______ _____ _____    ______ ____ROOTATOM      1  C   UNL     1      37.389  44.372  20.965 -0.35 +0.00    +0.131 C  ATOM      2  N   UNL     1      36.839  43.500  21.998 -0.17 -0.03    -0.368 N  ATOM      3  C   UNL     1      36.212  42.343  21.650 -0.38 +0.01    +0.193 C  ATOM      4  N   UNL     1      35.760  42.031  20.484 -0.31 +0.00    -0.234 NA ATOM      5  C   UNL     1      35.901  43.025  19.481 -0.31 -0.01    +0.131 A  ATOM      6  C   UNL     1      35.280  42.907  18.240 -0.26 -0.04    +0.162 A  ATOM      7  N   UNL     1      35.435  43.832  17.272 -0.19 +0.07    -0.193 NA ATOM      8  C   UNL     1      36.192  44.910  17.519 -0.17 -0.08    +0.227 A  ATOM      9  N   UNL     1      36.826  45.107  18.686 -0.21 +0.04    -0.213 NA ATOM     10  C   UNL     1      36.668  44.165  19.646 -0.32 -0.01    +0.096 A  ATOM     11  H   UNL     1      37.259  43.565  22.919 +0.09 +0.02    +0.162 HD ENDROOTBRANCH   1  12ATOM     12  C   UNL     1      38.896  44.115  20.793 -0.32 +0.00    +0.028 C  ATOM     13  C   UNL     1      39.610  45.239  20.050 -0.43 -0.00    +0.006 C  ENDBRANCH   1  12BRANCH   8  14ATOM     14  N   UNL     1      36.345  45.846  16.531 -0.13 +0.20    -0.340 N  ATOM     15  C   UNL     1      35.866  45.588  15.186 -0.34 -0.07    +0.120 C  ATOM     16  C   UNL     1      37.504  46.736  16.543 -0.32 -0.07    +0.124 C  ATOM     17  C   UNL     1      36.466  46.743  14.384 -0.49 -0.02    +0.028 C  ATOM     18  C   UNL     1      37.833  46.912  15.050 -0.47 -0.01    +0.024 C  BRANCH  18  19ATOM     19  C   UNL     1      38.625  48.179  14.710 -0.53 -0.04    +0.090 C  BRANCH  19  20ATOM     20  N   UNL     1      40.071  47.959  14.564 -0.26 +0.06    -0.298 NA ATOM     21  C   UNL     1      40.659  47.225  15.710 -0.45 -0.01    +0.113 C  ATOM     22  C   UNL     1      40.817  49.230  14.411 -0.54 -0.03    +0.113 C  ATOM     23  C   UNL     1      40.819  48.067  16.991 -0.44 -0.03    +0.175 C  ATOM     24  C   UNL     1      40.926  50.041  15.712 -0.56 -0.05    +0.175 C  ATOM     25  O   UNL     1      41.554  49.272  16.745 -0.93 -0.03    -0.379 OA ENDBRANCH  19  20ENDBRANCH  18  19ENDBRANCH   8  14BRANCH   6  26ATOM     26  N   UNL     1      34.448  41.773  18.033 -0.21 +0.10    -0.336 N  ATOM     27  H   UNL     1      35.032  40.992  17.752 -0.44 -0.09    +0.168 HD BRANCH  26  28ATOM     28  C   UNL     1      33.125  41.744  17.554 -0.33 -0.03    +0.076 A  ATOM     29  C   UNL     1      32.628  42.858  16.862 -0.31 -0.01    +0.029 A  ATOM     30  C   UNL     1      32.263  40.651  17.727 -0.27 -0.04    +0.146 A  ATOM     31  C   UNL     1      31.314  42.884  16.378 -0.32 -0.00    +0.006 A  ATOM     32  C   UNL     1      30.953  40.670  17.246 -0.32 -0.01    +0.045 A  ATOM     33  C   UNL     1      30.460  41.794  16.580 -0.30 +0.02    -0.048 A  ATOM     34  F   UNL     1      32.693  39.516  18.300 -0.11 +0.01    -0.205 F  ATOM     35  C   UNL     1      29.066  41.802  16.031 -0.34 -0.02    +0.044 C  ENDBRANCH  26  28ENDBRANCH   6  26TORSDOF 6TERENDMDL