MODEL        8USER    Run = 8USERUSER    Estimated Free Energy of Binding    = -11.65 kcal/mol  [=(1)+(2)+(3)-(4)]USERUSER    (1) Final Intermolecular Energy     = -15.23 kcal/molUSER        vdW + Hbond + desolv Energy     = -14.99 kcal/molUSER        Electrostatic Energy            =  -0.24 kcal/molUSER        Moving Ligand-Fixed Receptor    = -15.23 kcal/molUSER        Moving Ligand-Moving Receptor   =  +0.00 kcal/molUSER    (2) Final Total Internal Energy     =  -2.10 kcal/molUSER    (3) Torsional Free Energy           =  +3.58 kcal/molUSER    (4) Unbound System's Energy         =  -2.10 kcal/molUSERUSERREMARK SMILES COc1ccc(O)c(C(=O)c2ccc(C(=O)N[C@@H]3CCN(CCCO)C[C@H]3NC(=O)c3ccncc3)cc2)c1FREMARK SMILES IDX 18 1 19 2 20 3 21 4 26 5 27 6 17 7 15 8 16 9 14 11 11 12REMARK SMILES IDX 12 13 38 14 13 15 37 16 9 17 10 18 8 19 3 20 4 21 39 22 5 23REMARK SMILES IDX 6 24 40 25 2 26 1 27 7 28 28 30 29 31 30 33 31 34 32 35REMARK SMILES IDX 36 36 33 37 35 38 34 39 22 40 23 41 24 42 25 43REMARK H PARENT 17 10 7 29 28 32 25 44USER                              x       y       z     vdW  Elec       q    TypeUSER                           _______ _______ _______ _____ _____    ______ ____ROOTATOM      1  C   UNL     1      35.760  44.723  17.783 -0.31 -0.04    +0.107 C  ATOM      2  C   UNL     1      34.452  44.049  17.364 -0.33 -0.02    +0.042 C  ATOM      3  C   UNL     1      34.017  44.561  15.985 -0.32 -0.05    +0.087 C  ATOM      4  N   UNL     1      35.102  44.697  14.996 -0.07 +0.16    -0.301 NA ATOM      5  C   UNL     1      36.317  43.968  15.396 -0.37 -0.04    +0.111 C  ATOM      6  C   UNL     1      36.885  44.347  16.786 -0.32 -0.04    +0.118 C  ENDROOTBRANCH   1   7ATOM      7  N   UNL     1      36.133  44.394  19.160 -0.14 +0.06    -0.347 N  ATOM      8  C   UNL     1      36.071  43.098  19.627 -0.28 -0.02    +0.251 C  ATOM      9  O   UNL     1      35.729  42.149  18.929 -0.33 +0.04    -0.269 OA ATOM     10  H   UNL     1      36.178  45.153  19.829 +0.09 -0.02    +0.164 HD BRANCH   8  11ATOM     11  C   UNL     1      36.405  42.886  21.065 -0.43 +0.00    +0.039 A  ATOM     12  C   UNL     1      37.021  42.606  23.786 -0.40 +0.00    +0.023 A  ATOM     13  C   UNL     1      36.507  41.521  23.066 -0.47 +0.00    +0.013 A  ATOM     14  C   UNL     1      37.251  43.826  23.141 -0.34 +0.00    +0.013 A  ATOM     15  C   UNL     1      36.187  41.663  21.711 -0.55 +0.00    +0.014 A  ATOM     16  C   UNL     1      36.931  43.966  21.787 -0.38 +0.00    +0.014 A  BRANCH  12  17ATOM     17  C   UNL     1      37.366  42.406  25.214 -0.29 -0.01    +0.199 C  ATOM     18  O   UNL     1      38.387  41.779  25.496 -0.17 -0.01    -0.288 OA BRANCH  17  19ATOM     19  C   UNL     1      36.569  42.976  26.322 -0.33 -0.01    +0.104 A  ATOM     20  C   UNL     1      36.135  44.724  27.967 -0.35 -0.04    +0.155 A  ATOM     21  C   UNL     1      35.037  44.002  28.439 -0.54 -0.02    +0.053 A  ATOM     22  C   UNL     1      36.887  44.204  26.903 -0.26 -0.03    +0.179 A  ATOM     23  C   UNL     1      34.687  42.789  27.841 -0.52 -0.01    +0.051 A  ATOM     24  C   UNL     1      35.439  42.289  26.781 -0.42 -0.03    +0.130 A  ATOM     25  F   UNL     1      37.919  44.924  26.432 -0.04 +0.01    -0.202 F  BRANCH  20  26ATOM     26  O   UNL     1      36.564  45.929  28.457 -0.16 +0.11    -0.494 OA ATOM     27  C   UNL     1      36.556  47.036  27.564 -0.19 -0.07    +0.278 C  ENDBRANCH  20  26BRANCH  24  28ATOM     28  O   UNL     1      35.011  41.110  26.232 -0.22 +0.20    -0.507 OA ATOM     29  H   UNL     1      35.798  40.532  26.106 -0.24 -0.18    +0.293 HD ENDBRANCH  24  28ENDBRANCH  17  19ENDBRANCH  12  17ENDBRANCH   8  11ENDBRANCH   1   7BRANCH   6  30ATOM     30  N   UNL     1      37.885  45.417  16.699 -0.13 +0.11    -0.346 N  ATOM     31  C   UNL     1      38.600  45.818  17.807 -0.29 -0.05    +0.251 C  ATOM     32  H   UNL     1      38.138  45.753  15.782 +0.12 -0.05    +0.164 HD ATOM     33  O   UNL     1      38.335  45.451  18.945 -0.28 +0.03    -0.269 OA BRANCH  31  34ATOM     34  C   UNL     1      39.719  46.765  17.572 -0.43 -0.01    +0.042 A  ATOM     35  C   UNL     1      39.615  47.653  16.501 -0.46 -0.01    +0.034 A  ATOM     36  C   UNL     1      40.837  46.814  18.404 -0.46 -0.00    +0.034 A  ATOM     37  C   UNL     1      40.654  48.540  16.289 -0.47 -0.02    +0.112 A  ATOM     38  C   UNL     1      41.821  47.742  18.107 -0.41 -0.00    +0.112 A  ATOM     39  N   UNL     1      41.758  48.595  17.064 -0.72 -0.02    -0.265 NA ENDBRANCH  31  34ENDBRANCH   6  30BRANCH   4  40ATOM     40  C   UNL     1      35.379  46.093  14.626 -0.40 -0.07    +0.087 C  BRANCH  40  41ATOM     41  C   UNL     1      36.480  46.212  13.562 -0.53 -0.02    +0.044 C  BRANCH  41  42ATOM     42  C   UNL     1      36.033  46.993  12.334 -0.61 -0.08    +0.157 C  BRANCH  42  43ATOM     43  O   UNL     1      36.897  48.107  12.139 -0.94 +0.09    -0.396 OA ATOM     44  H   UNL     1      36.441  48.710  11.526 -0.31 -0.09    +0.210 HD ENDBRANCH  42  43ENDBRANCH  41  42ENDBRANCH  40  41ENDBRANCH   4  40TORSDOF 12TERENDMDL