MODEL        6USER    Run = 6USERUSER    Estimated Free Energy of Binding    = -11.85 kcal/mol  [=(1)+(2)+(3)-(4)]USERUSER    (1) Final Intermolecular Energy     = -13.94 kcal/molUSER        vdW + Hbond + desolv Energy     = -13.79 kcal/molUSER        Electrostatic Energy            =  -0.16 kcal/molUSER        Moving Ligand-Fixed Receptor    = -13.94 kcal/molUSER        Moving Ligand-Moving Receptor   =  +0.00 kcal/molUSER    (2) Final Total Internal Energy     =  -1.60 kcal/molUSER    (3) Torsional Free Energy           =  +2.09 kcal/molUSER    (4) Unbound System's Energy         =  -1.60 kcal/molUSERUSERREMARK SMILES Oc1ccc(-c2nc3ccccc3nc2-c2ccc(CN3CCC(n4c(O)nc5ccccc54)CC3)cc2)cc1REMARK SMILES IDX 16 1 17 2 18 3 19 4 37 5 38 6 15 7 6 8 7 9 8 10 14 11 9 12REMARK SMILES IDX 13 13 10 14 12 15 11 16 5 17 2 18 3 19 40 20 4 21 39 22 1 23REMARK SMILES IDX 20 25 21 26 22 27 36 28 23 29 35 30 24 31 25 32 26 33 34 34REMARK SMILES IDX 28 35 33 36 29 37 32 38 30 39 31 40 27 41REMARK H PARENT 1 24 27 42USER                              x       y       z     vdW  Elec       q    TypeUSER                           _______ _______ _______ _____ _____    ______ ____ROOTATOM      1  C   UNL     1      38.947  45.859  23.628 -0.29 +0.00    +0.002 A  ATOM      2  C   UNL     1      40.330  45.634  23.733 -0.18 +0.00    +0.011 A  ATOM      3  C   UNL     1      41.051  45.042  22.691 -0.20 +0.00    +0.006 A  ATOM      4  C   UNL     1      40.404  44.626  21.521 -0.27 -0.00    -0.034 A  ATOM      5  C   UNL     1      39.024  44.827  21.409 -0.34 +0.00    +0.006 A  ATOM      6  C   UNL     1      38.309  45.435  22.446 -0.30 +0.00    +0.011 A  ENDROOTBRANCH   1   7ATOM      7  C   UNL     1      38.162  46.490  24.708 -0.23 +0.01    +0.097 A  ATOM      8  C   UNL     1      37.621  45.829  25.822 -0.27 -0.00    +0.097 A  ATOM      9  N   UNL     1      36.863  46.497  26.739 -0.22 +0.04    -0.244 NA ATOM     10  C   UNL     1      36.685  47.817  26.559 -0.31 -0.01    +0.089 A  ATOM     11  N   UNL     1      37.978  47.832  24.535 -0.42 -0.04    -0.244 NA ATOM     12  C   UNL     1      35.939  48.541  27.481 -0.33 -0.00    +0.030 A  ATOM     13  C   UNL     1      37.249  48.489  25.453 -0.40 +0.00    +0.089 A  ATOM     14  C   UNL     1      35.737  49.914  27.335 -0.25 +0.00    +0.002 A  ATOM     15  C   UNL     1      37.042  49.857  25.315 -0.30 +0.00    +0.030 A  ATOM     16  C   UNL     1      36.291  50.575  26.246 -0.37 +0.00    +0.002 A  BRANCH   8  17ATOM     17  C   UNL     1      37.811  44.405  26.148 -0.26 -0.00    +0.003 A  ATOM     18  C   UNL     1      38.150  41.677  26.735 -0.30 -0.01    +0.115 A  ATOM     19  C   UNL     1      38.712  42.635  27.567 -0.29 -0.00    +0.047 A  ATOM     20  C   UNL     1      37.410  42.050  25.618 -0.33 -0.00    +0.047 A  ATOM     21  C   UNL     1      38.540  43.991  27.278 -0.24 -0.00    +0.014 A  ATOM     22  C   UNL     1      37.238  43.409  25.333 -0.32 -0.00    +0.014 A  BRANCH  18  23ATOM     23  O   UNL     1      38.342  40.365  27.053 -0.12 +0.02    -0.508 OA ATOM     24  H   UNL     1      37.753  39.823  26.500 -0.36 -0.06    +0.293 HD ENDBRANCH  18  23ENDBRANCH   8  17ENDBRANCH   1   7BRANCH   4  25ATOM     25  C   UNL     1      41.188  43.972  20.403 -0.26 +0.01    +0.120 C  BRANCH  25  26ATOM     26  N   UNL     1      41.650  44.924  19.381 -0.12 -0.04    -0.299 NA ATOM     27  C   UNL     1      41.483  46.324  19.804 -0.41 +0.01    +0.087 C  ATOM     28  C   UNL     1      41.089  44.630  18.057 -0.17 +0.00    +0.087 C  ATOM     29  C   UNL     1      41.178  47.278  18.651 -0.40 -0.00    +0.041 C  ATOM     30  C   UNL     1      39.759  45.329  17.791 -0.41 -0.00    +0.041 C  ATOM     31  C   UNL     1      39.873  46.854  17.961 -0.41 -0.02    +0.095 C  BRANCH  31  32ATOM     32  N   UNL     1      39.633  47.588  16.724 -0.27 +0.09    -0.291 N  ATOM     33  C   UNL     1      40.475  48.488  16.137 -0.32 -0.07    +0.295 A  ATOM     34  C   UNL     1      38.526  47.479  15.906 -0.40 -0.03    +0.072 A  ATOM     35  N   UNL     1      40.018  48.966  15.013 -0.40 +0.07    -0.195 NA ATOM     36  C   UNL     1      37.344  46.726  15.968 -0.38 -0.02    +0.029 A  ATOM     37  C   UNL     1      38.801  48.351  14.850 -0.45 -0.04    +0.092 A  ATOM     38  C   UNL     1      36.427  46.889  14.924 -0.40 -0.00    +0.002 A  ATOM     39  C   UNL     1      37.869  48.495  13.811 -0.45 -0.01    +0.031 A  ATOM     40  C   UNL     1      36.684  47.753  13.860 -0.54 -0.00    +0.002 A  BRANCH  33  41ATOM     41  O   UNL     1      41.634  48.871  16.632 -0.77 -0.05    -0.480 OA ATOM     42  H   UNL     1      42.174  48.070  16.501 -0.30 +0.00    +0.296 HD ENDBRANCH  33  41ENDBRANCH  31  32ENDBRANCH  25  26ENDBRANCH   4  25TORSDOF 7TERENDMDL