REMARK SMILES Cc1cccc(-c2nnc3sc(C(=O)NCCCO)cn23)c1
REMARK SMILES IDX 16 1 15 2 13 3 14 4 12 6 7 7 8 8 21 9 9 10 20 11 10 12 11 13
REMARK SMILES IDX 6 14 2 15 3 16 22 17 4 18 5 19 1 20 17 21 18 22 19 23
REMARK H PARENT 15 5 19 24
ROOT
ATOM      1  C   UNL     1      -4.924   0.490  -0.759  1.00  0.00     0.118 C 
ENDROOT
BRANCH   1   2
ATOM      2  N   UNL     1      -3.638   0.841  -0.190  1.00  0.00    -0.351 N 
ATOM      3  C   UNL     1      -2.476   0.200  -0.534  1.00  0.00     0.263 C 
ATOM      4  O   UNL     1      -2.414  -0.715  -1.349  1.00  0.00    -0.268 OA
ATOM      5  H   UNL     1      -3.611   1.575   0.509  1.00  0.00     0.163 HD
BRANCH   3   6
ATOM      6  C   UNL     1      -1.256   0.680   0.162  1.00  0.00     0.112 A 
ATOM      7  C   UNL     1       2.274   0.808   0.921  1.00  0.00     0.169 A 
ATOM      8  N   UNL     1       2.547   1.747   1.827  1.00  0.00    -0.128 NA
ATOM      9  N   UNL     1       0.918   0.825   0.705  1.00  0.00    -0.272 N 
ATOM     10  N   UNL     1       1.363   2.351   2.234  1.00  0.00    -0.118 NA
ATOM     11  C   UNL     1      -0.021   0.207  -0.088  1.00  0.00     0.120 A 
ATOM     12  C   UNL     1       0.424   1.773   1.546  1.00  0.00     0.217 A 
ATOM     13  S   UNL     1      -1.295   1.931   1.408  1.00  0.00    -0.089 S 
BRANCH   7  14
ATOM     14  C   UNL     1       3.251  -0.044   0.247  1.00  0.00     0.020 A 
ATOM     15  C   UNL     1       5.468  -0.284  -0.755  1.00  0.00    -0.050 A 
ATOM     16  C   UNL     1       5.187  -1.624  -1.037  1.00  0.00     0.003 A 
ATOM     17  C   UNL     1       4.502   0.492  -0.099  1.00  0.00     0.015 A 
ATOM     18  C   UNL     1       3.956  -2.175  -0.682  1.00  0.00     0.001 A 
ATOM     19  C   UNL     1       2.994  -1.390  -0.041  1.00  0.00     0.012 A 
ATOM     20  C   UNL     1       6.808   0.300  -1.090  1.00  0.00     0.044 C 
ENDBRANCH   7  14
ENDBRANCH   3   6
ENDBRANCH   1   2
BRANCH   1  21
ATOM     21  C   UNL     1      -5.544  -0.748  -0.112  1.00  0.00     0.049 C 
BRANCH  21  22
ATOM     22  C   UNL     1      -5.867  -0.561   1.364  1.00  0.00     0.158 C 
BRANCH  22  23
ATOM     23  O   UNL     1      -6.777   0.518   1.530  1.00  0.00    -0.396 OA
ATOM     24  H   UNL     1      -7.023   0.541   2.472  1.00  0.00     0.210 HD
ENDBRANCH  22  23
ENDBRANCH  21  22
ENDBRANCH   1  21
TORSDOF 6
