REMARK SMILES COc1ccc(O)c(C(=O)c2ccc(C(=O)N[C@@H]3CCN(CCCO)C[C@H]3NC(=O)c3ccncc3)cc2)c1F
REMARK SMILES IDX 18 1 19 2 20 3 21 4 26 5 27 6 17 7 15 8 16 9 14 11 11 12
REMARK SMILES IDX 12 13 38 14 13 15 37 16 9 17 10 18 8 19 3 20 4 21 39 22 5 23
REMARK SMILES IDX 6 24 40 25 2 26 1 27 7 28 28 30 29 31 30 33 31 34 32 35
REMARK SMILES IDX 36 36 33 37 35 38 34 39 22 40 23 41 24 42 25 43
REMARK H PARENT 17 10 7 29 28 32 25 44
ROOT
ATOM      1  C   UNL     1      -1.924   0.827   0.711  1.00  0.00     0.107 C 
ATOM      2  C   UNL     1      -2.062   2.090   1.562  1.00  0.00     0.042 C 
ATOM      3  C   UNL     1      -3.440   2.725   1.337  1.00  0.00     0.087 C 
ATOM      4  N   UNL     1      -4.566   1.775   1.276  1.00  0.00    -0.301 NA
ATOM      5  C   UNL     1      -4.209   0.451   1.812  1.00  0.00     0.111 C 
ATOM      6  C   UNL     1      -2.980  -0.219   1.149  1.00  0.00     0.118 C 
ENDROOT
BRANCH   1   7
ATOM      7  N   UNL     1      -0.570   0.273   0.762  1.00  0.00    -0.347 N 
ATOM      8  C   UNL     1       0.473   0.871   0.085  1.00  0.00     0.251 C 
ATOM      9  O   UNL     1       0.344   1.898  -0.572  1.00  0.00    -0.269 OA
ATOM     10  H   UNL     1      -0.464  -0.685   1.073  1.00  0.00     0.164 HD
BRANCH   8  11
ATOM     11  C   UNL     1       1.795   0.184   0.147  1.00  0.00     0.039 A 
ATOM     12  C   UNL     1       4.327  -1.021   0.195  1.00  0.00     0.023 A 
ATOM     13  C   UNL     1       3.409  -1.271   1.222  1.00  0.00     0.013 A 
ATOM     14  C   UNL     1       3.972  -0.186  -0.870  1.00  0.00     0.013 A 
ATOM     15  C   UNL     1       2.150  -0.661   1.206  1.00  0.00     0.014 A 
ATOM     16  C   UNL     1       2.713   0.423  -0.885  1.00  0.00     0.014 A 
BRANCH  12  17
ATOM     17  C   UNL     1       5.641  -1.704   0.240  1.00  0.00     0.199 C 
ATOM     18  O   UNL     1       5.689  -2.875   0.617  1.00  0.00    -0.288 OA
BRANCH  17  19
ATOM     19  C   UNL     1       6.898  -1.062  -0.203  1.00  0.00     0.104 A 
ATOM     20  C   UNL     1       8.310   0.906  -0.489  1.00  0.00     0.155 A 
ATOM     21  C   UNL     1       9.292   0.111  -1.084  1.00  0.00     0.053 A 
ATOM     22  C   UNL     1       7.122   0.306  -0.046  1.00  0.00     0.179 A 
ATOM     23  C   UNL     1       9.093  -1.266  -1.214  1.00  0.00     0.051 A 
ATOM     24  C   UNL     1       7.912  -1.848  -0.763  1.00  0.00     0.130 A 
ATOM     25  F   UNL     1       6.200   1.074   0.559  1.00  0.00    -0.202 F 
BRANCH  20  26
ATOM     26  O   UNL     1       8.396   2.258  -0.289  1.00  0.00    -0.494 OA
ATOM     27  C   UNL     1       9.588   2.906  -0.715  1.00  0.00     0.278 C 
ENDBRANCH  20  26
BRANCH  24  28
ATOM     28  O   UNL     1       7.810  -3.207  -0.901  1.00  0.00    -0.507 OA
ATOM     29  H   UNL     1       7.046  -3.509  -0.358  1.00  0.00     0.293 HD
ENDBRANCH  24  28
ENDBRANCH  17  19
ENDBRANCH  12  17
ENDBRANCH   8  11
ENDBRANCH   1   7
BRANCH   6  30
ATOM     30  N   UNL     1      -3.362  -1.079   0.024  1.00  0.00    -0.346 N 
ATOM     31  C   UNL     1      -3.812  -2.365   0.229  1.00  0.00     0.251 C 
ATOM     32  H   UNL     1      -3.423  -0.659  -0.892  1.00  0.00     0.164 HD
ATOM     33  O   UNL     1      -3.757  -2.930   1.315  1.00  0.00    -0.269 OA
BRANCH  31  34
ATOM     34  C   UNL     1      -4.357  -3.078  -0.954  1.00  0.00     0.042 A 
ATOM     35  C   UNL     1      -4.234  -4.467  -0.999  1.00  0.00     0.034 A 
ATOM     36  C   UNL     1      -5.013  -2.409  -1.987  1.00  0.00     0.034 A 
ATOM     37  C   UNL     1      -4.750  -5.130  -2.096  1.00  0.00     0.112 A 
ATOM     38  C   UNL     1      -5.497  -3.166  -3.040  1.00  0.00     0.112 A 
ATOM     39  N   UNL     1      -5.370  -4.507  -3.121  1.00  0.00    -0.265 NA
ENDBRANCH  31  34
ENDBRANCH   6  30
BRANCH   4  40
ATOM     40  C   UNL     1      -5.187   1.696  -0.055  1.00  0.00     0.087 C 
BRANCH  40  41
ATOM     41  C   UNL     1      -6.078   2.909  -0.360  1.00  0.00     0.044 C 
BRANCH  41  42
ATOM     42  C   UNL     1      -7.333   2.951   0.501  1.00  0.00     0.157 C 
BRANCH  42  43
ATOM     43  O   UNL     1      -8.191   1.873   0.144  1.00  0.00    -0.396 OA
ATOM     44  H   UNL     1      -8.949   1.906   0.754  1.00  0.00     0.210 HD
ENDBRANCH  42  43
ENDBRANCH  41  42
ENDBRANCH  40  41
ENDBRANCH   4  40
TORSDOF 12
