MODEL        5USER    Run = 5USERUSER    Estimated Free Energy of Binding    =  -9.09 kcal/mol  [=(1)+(2)+(3)-(4)]USERUSER    (1) Final Intermolecular Energy     = -10.88 kcal/molUSER        vdW + Hbond + desolv Energy     = -10.40 kcal/molUSER        Electrostatic Energy            =  -0.48 kcal/molUSER        Moving Ligand-Fixed Receptor    = -10.88 kcal/molUSER        Moving Ligand-Moving Receptor   =  +0.00 kcal/molUSER    (2) Final Total Internal Energy     =  -1.02 kcal/molUSER    (3) Torsional Free Energy           =  +1.79 kcal/molUSER    (4) Unbound System's Energy         =  -1.02 kcal/molUSERUSERREMARK SMILES Cc1cccc(-c2nnc3sc(C(=O)NCCCO)cn23)c1REMARK SMILES IDX 16 1 15 2 13 3 14 4 12 6 7 7 8 8 21 9 9 10 20 11 10 12 11 13REMARK SMILES IDX 6 14 2 15 3 16 22 17 4 18 5 19 1 20 17 21 18 22 19 23REMARK H PARENT 15 5 19 24USER                              x       y       z     vdW  Elec       q    TypeUSER                           _______ _______ _______ _____ _____    ______ ____ROOTATOM      1  C   UNL     1      32.049  44.841  16.564 -0.27 -0.05    +0.118 C  ENDROOTBRANCH   1   2ATOM      2  N   UNL     1      33.104  45.497  15.818 -0.11 +0.32    -0.351 N  ATOM      3  C   UNL     1      34.385  45.014  15.765 -0.20 -0.18    +0.263 C  ATOM      4  O   UNL     1      34.755  43.991  16.333 -0.20 +0.12    -0.268 OA ATOM      5  H   UNL     1      32.880  46.362  15.339 -0.39 -0.27    +0.163 HD BRANCH   3   6ATOM      6  C   UNL     1      35.338  45.825  14.967 -0.29 -0.09    +0.112 A  ATOM      7  C   UNL     1      38.372  47.686  14.347 -0.37 -0.07    +0.169 A  ATOM      8  N   UNL     1      38.429  48.125  13.089 -0.53 +0.01    -0.128 NA ATOM      9  N   UNL     1      37.189  47.005  14.492 -0.22 +0.15    -0.272 N  ATOM     10  N   UNL     1      37.264  47.765  12.423 -1.13 +0.02    -0.118 NA ATOM     11  C   UNL     1      36.513  46.276  15.444 -0.29 -0.08    +0.120 A  ATOM     12  C   UNL     1      36.557  47.105  13.292 -0.41 -0.11    +0.217 A  ATOM     13  S   UNL     1      35.027  46.294  13.293 -0.44 +0.06    -0.089 S  BRANCH   7  14ATOM     14  C   UNL     1      39.407  47.858  15.364 -0.51 -0.01    +0.020 A  ATOM     15  C   UNL     1      40.568  46.977  17.326 -0.48 +0.01    -0.050 A  ATOM     16  C   UNL     1      41.386  48.110  17.342 -0.50 -0.00    +0.003 A  ATOM     17  C   UNL     1      39.594  46.852  16.325 -0.46 -0.00    +0.015 A  ATOM     18  C   UNL     1      41.224  49.109  16.382 -0.46 -0.00    +0.001 A  ATOM     19  C   UNL     1      40.241  48.983  15.396 -0.59 -0.00    +0.012 A  ATOM     20  C   UNL     1      40.771  45.877  18.325 -0.51 -0.00    +0.044 C  ENDBRANCH   7  14ENDBRANCH   3   6ENDBRANCH   1   2BRANCH   1  21ATOM     21  C   UNL     1      30.733  44.761  15.792 -0.38 -0.02    +0.049 C  BRANCH  21  22ATOM     22  C   UNL     1      30.508  45.941  14.857 -0.44 -0.08    +0.158 C  BRANCH  22  23ATOM     23  O   UNL     1      30.871  47.152  15.507 -0.78 +0.14    -0.396 OA ATOM     24  H   UNL     1      31.799  47.334  15.273 -0.42 -0.36    +0.210 HD ENDBRANCH  22  23ENDBRANCH  21  22ENDBRANCH   1  21TORSDOF 6TERENDMDL