MODEL        2USER    Run = 2USERUSER    Estimated Free Energy of Binding    =  -8.04 kcal/mol  [=(1)+(2)+(3)-(4)]USERUSER    (1) Final Intermolecular Energy     =  -8.34 kcal/molUSER        vdW + Hbond + desolv Energy     =  -8.16 kcal/molUSER        Electrostatic Energy            =  -0.18 kcal/molUSER        Moving Ligand-Fixed Receptor    =  -8.34 kcal/molUSER        Moving Ligand-Moving Receptor   =  +0.00 kcal/molUSER    (2) Final Total Internal Energy     =  -0.19 kcal/molUSER    (3) Torsional Free Energy           =  +0.30 kcal/molUSER    (4) Unbound System's Energy         =  -0.19 kcal/molUSERUSERREMARK SMILES Cn1c2cccc(Cl)c2c2c(C(N)=O)cccc21REMARK SMILES IDX 1 1 2 2 3 3 4 4 5 5 6 6 7 7 8 8 9 9 10 10 11 11 15 12 16 13REMARK SMILES IDX 17 14 18 15 12 16 13 17 14 18REMARK H PARENT 13 19 13 20USER                              x       y       z     vdW  Elec       q    TypeUSER                           _______ _______ _______ _____ _____    ______ ____ROOTATOM      1  C   UNL     1      38.309  44.378  18.947 -0.31 -0.01    +0.150 C  ATOM      2  N   UNL     1      38.455  45.339  17.872 -0.17 +0.07    -0.344 N  ATOM      3  C   UNL     1      39.467  46.269  17.784 -0.41 -0.01    +0.050 A  ATOM      4  C   UNL     1      40.532  46.532  18.671 -0.43 -0.00    +0.027 A  ATOM      5  C   UNL     1      41.490  47.480  18.316 -0.50 -0.00    +0.004 A  ATOM      6  C   UNL     1      41.414  48.122  17.092 -0.46 -0.00    +0.021 A  ATOM      7  C   UNL     1      40.346  47.856  16.229 -0.51 -0.01    +0.051 A  ATOM      8  Cl  UNL     1      40.402  48.506  14.649 -0.75 +0.02    -0.084 Cl ATOM      9  C   UNL     1      39.299  46.962  16.573 -0.44 -0.01    +0.027 A  ATOM     10  C   UNL     1      38.034  46.520  16.013 -0.38 -0.01    +0.022 A  ATOM     11  C   UNL     1      37.192  46.884  14.926 -0.38 -0.03    +0.049 A  ATOM     12  C   UNL     1      36.040  46.136  14.613 -0.40 -0.01    +0.014 A  ATOM     13  C   UNL     1      35.680  45.045  15.385 -0.35 -0.00    +0.003 A  ATOM     14  C   UNL     1      36.435  44.700  16.503 -0.32 -0.01    +0.027 A  ATOM     15  C   UNL     1      37.590  45.448  16.806 -0.33 -0.02    +0.050 A  ENDROOTBRANCH  11  16ATOM     16  C   UNL     1      37.376  48.127  14.164 -0.41 -0.14    +0.249 C  ATOM     17  N   UNL     1      37.297  49.284  14.888 -0.23 +0.34    -0.366 N  ATOM     18  O   UNL     1      37.626  48.115  12.966 -0.90 +0.04    -0.270 OA ATOM     19  H   UNL     1      37.263  50.137  14.343 -0.45 -0.15    +0.159 HD ATOM     20  H   UNL     1      36.853  49.292  15.796 -0.03 -0.24    +0.159 HD ENDBRANCH  11  16TORSDOF 1TERENDMDL