REMARK SMILES Cn1c2cccc(Cl)c2c2c(C(N)=O)cccc21
REMARK SMILES IDX 1 1 2 2 3 3 4 4 5 5 6 6 7 7 8 8 9 9 10 10 11 11 15 12 16 13
REMARK SMILES IDX 17 14 18 15 12 16 13 17 14 18
REMARK H PARENT 13 19 13 20
ROOT
ATOM      1  C   UNL     1      -2.881   1.530   0.277  1.00  0.00     0.150 C 
ATOM      2  N   UNL     1      -1.662   0.762   0.121  1.00  0.00    -0.344 N 
ATOM      3  C   UNL     1      -1.614  -0.600  -0.076  1.00  0.00     0.050 A 
ATOM      4  C   UNL     1      -2.662  -1.542  -0.141  1.00  0.00     0.027 A 
ATOM      5  C   UNL     1      -2.362  -2.870  -0.438  1.00  0.00     0.004 A 
ATOM      6  C   UNL     1      -1.057  -3.246  -0.704  1.00  0.00     0.021 A 
ATOM      7  C   UNL     1      -0.028  -2.302  -0.626  1.00  0.00     0.051 A 
ATOM      8  Cl  UNL     1       1.529  -2.756  -1.165  1.00  0.00    -0.084 Cl
ATOM      9  C   UNL     1      -0.264  -0.954  -0.248  1.00  0.00     0.027 A 
ATOM     10  C   UNL     1       0.517   0.239   0.026  1.00  0.00     0.022 A 
ATOM     11  C   UNL     1       1.891   0.573   0.178  1.00  0.00     0.049 A 
ATOM     12  C   UNL     1       2.303   1.909   0.347  1.00  0.00     0.014 A 
ATOM     13  C   UNL     1       1.370   2.930   0.407  1.00  0.00     0.003 A 
ATOM     14  C   UNL     1       0.010   2.638   0.338  1.00  0.00     0.027 A 
ATOM     15  C   UNL     1      -0.395   1.300   0.162  1.00  0.00     0.050 A 
ENDROOT
BRANCH  11  16
ATOM     16  C   UNL     1       2.942  -0.445   0.319  1.00  0.00     0.249 C 
ATOM     17  N   UNL     1       3.943  -0.397  -0.611  1.00  0.00    -0.366 N 
ATOM     18  O   UNL     1       2.935  -1.252   1.238  1.00  0.00    -0.270 OA
ATOM     19  H   UNL     1       4.575  -1.188  -0.612  1.00  0.00     0.159 HD
ATOM     20  H   UNL     1       3.809   0.096  -1.484  1.00  0.00     0.159 HD
ENDBRANCH  11  16
TORSDOF 1
