MODEL        10USER    Run = 10USERUSER    Estimated Free Energy of Binding    =  -0.35 kcal/mol  [=(1)+(2)+(3)-(4)]USERUSER    (1) Final Intermolecular Energy     =  -4.23 kcal/molUSER        vdW + Hbond + desolv Energy     =  -7.11 kcal/molUSER        Electrostatic Energy            =  -0.05 kcal/molUSER        Moving Ligand-Fixed Receptor    =  -7.16 kcal/molUSER        Moving Ligand-Moving Receptor   =  +2.93 kcal/molUSER    (2) Final Total Internal Energy     =  -3.16 kcal/molUSER    (3) Torsional Free Energy           =  +3.88 kcal/molUSER    (4) Unbound System's Energy         =  -3.16 kcal/molUSERUSERREMARK SMILES COC1=c2cc[nH]c2=C2C[C@@H](C)C(=NN=NN1)c1ccc(cc1)C[C@@H]1CCN2C1=OREMARK SMILES IDX 17 1 3 3 2 4 1 5 4 6 5 7 8 8 6 9 7 10 9 12 10 13 28 15 27 16REMARK SMILES IDX 29 17 26 18 25 19 30 20 16 22 15 23 14 24 13 25 11 26 12 27REMARK SMILES IDX 18 29 19 30 23 31 20 32 22 33 21 34 24 35REMARK H PARENT 17 2 7 11REMARK Flexibility Score:  160.800USER                              x       y       z     vdW  Elec       q    TypeUSER                           _______ _______ _______ _____ _____    ______ ____ROOTATOM      1  N   UNL     1      40.580  59.515  10.554 -0.15 +0.14    -0.226 N  ATOM      2  H   UNL     1      40.281  59.349  11.506 +0.11 -0.10    +0.195 HD ENDROOTBRANCH   1   3ATOM      3  C   UNL     1      41.931  59.730  10.381 -0.17 -0.15    +0.218 C  BRANCH   3   4ATOM      4  O   UNL     1      42.559  60.525  11.345 -0.05 +0.30    -0.481 OA ATOM      5  C   UNL     1      42.351  60.023  12.665 -0.16 -0.14    +0.280 C  ENDBRANCH   3   4BRANCH   3   6ATOM      6  C   UNL     1      42.702  59.210   9.402 -0.11 -0.05    +0.063 A  ATOM      7  C   UNL     1      43.967  58.533   9.747 -0.07 -0.02    +0.033 A  ATOM      8  C   UNL     1      42.419  58.847   7.996 -0.09 -0.06    +0.071 A  ATOM      9  C   UNL     1      44.154  57.604   8.798 -0.04 -0.07    +0.084 A  ATOM     10  N   UNL     1      43.161  57.661   7.842 -0.02 +0.30    -0.360 N  ATOM     11  H   UNL     1      43.369  57.384   6.890 +0.04 -0.10    +0.166 HD BRANCH   8  12ATOM     12  C   UNL     1      41.928  59.510   6.915 -0.12 -0.04    +0.046 C  BRANCH  12  13ATOM     13  C   UNL     1      41.032  60.764   6.855 -0.08 -0.09    +0.066 CG0ATOM     14  G   UNL     1      39.707  60.979   7.634 +0.00 +0.00    +0.000 G0 ENDBRANCH  12  13BRANCH  12  15ATOM     15  N   UNL     1      42.456  59.074   5.664 -0.02 +0.27    -0.314 N  ATOM     16  C   UNL     1      43.049  59.957   4.656 -0.01 -0.14    +0.126 C  ATOM     17  C   UNL     1      41.623  58.168   4.971 -0.07 -0.17    +0.230 C  ATOM     18  C   UNL     1      42.630  59.350   3.291 -0.24 -0.02    +0.036 C  ATOM     19  C   UNL     1      41.251  58.877   3.680 -0.26 -0.06    +0.085 CG1ATOM     20  O   UNL     1      41.282  57.064   5.356 -0.09 +0.21    -0.274 OA ATOM     21  G   UNL     1      40.229  58.155   2.792 +0.00 +0.00    +0.000 G1 ENDBRANCH  12  15ENDBRANCH   8  12ENDBRANCH   3   6ENDBRANCH   1   3BRANCH   1  22ATOM     22  N   UNL     1      39.842  58.893   9.602 -0.05 +0.02    -0.046 NA BRANCH  22  23ATOM     23  N   UNL     1      38.629  59.210   9.608 -0.46 +0.01    -0.025 NA BRANCH  23  24ATOM     24  N   UNL     1      37.946  59.340   8.398 -1.00 +0.05    -0.133 NA BRANCH  24  25ATOM     25  C   UNL     1      38.604  59.886   7.415 -0.41 -0.05    +0.075 C  BRANCH  25  26ATOM     26  C   UNL     1      39.712  60.960   7.618 -0.33 -0.04    +0.044 CG0ATOM     27  C   UNL     1      39.141  62.365   7.382 -0.50 -0.01    +0.015 C  ATOM     28  G   UNL     1      41.039  60.762   6.838 +0.00 +0.00    +0.000 G0 ENDBRANCH  25  26BRANCH  25  29ATOM     29  C   UNL     1      38.327  59.345   6.050 -0.35 +0.00    -0.002 A  ATOM     30  C   UNL     1      38.161  60.175   4.941 -0.46 -0.01    +0.010 A  ATOM     31  C   UNL     1      38.378  57.960   5.869 -0.33 -0.01    +0.010 A  ATOM     32  C   UNL     1      38.390  59.661   3.663 -0.40 -0.00    +0.004 A  ATOM     33  C   UNL     1      38.611  57.445   4.593 -0.33 -0.00    +0.004 A  ATOM     34  C   UNL     1      38.876  58.346   3.554 -0.45 +0.02    -0.047 A  BRANCH  34  35ATOM     35  C   UNL     1      40.220  58.156   2.793 -0.43 -0.03    +0.049 CG1ATOM     36  G   UNL     1      41.246  58.873   3.680 +0.00 +0.00    +0.000 G1 ENDBRANCH  34  35ENDBRANCH  25  29ENDBRANCH  24  25ENDBRANCH  23  24ENDBRANCH  22  23ENDBRANCH   1  22TORSDOF 1TERENDMDL