REMARK SMILES Nc1ncnc2c1ncn2[C@H]1CC[C@@H](O)C[C@H]1NCc1ccc(C(F)(F)F)c(F)c1
REMARK SMILES IDX 18 1 17 3 11 4 12 5 13 6 16 7 14 8 10 9 2 10 3 11 7 12 4 13
REMARK SMILES IDX 6 14 8 15 5 16 9 17 1 18 15 21 19 23 20 24 21 25 30 26 22 27
REMARK SMILES IDX 28 28 23 29 29 30 24 31 25 32 26 33 27 34
REMARK H PARENT 18 2 1 19 1 20 15 22
ROOT
ATOM      1  N   UNL     1       0.781  -0.587   0.461  1.00  0.00    -0.308 NA
ATOM      2  H   UNL     1       0.993  -0.134   1.350  1.00  0.00     0.123 HD
ENDROOT
BRANCH   1   3
ATOM      3  C   UNL     1      -0.098  -1.752   0.676  1.00  0.00     0.079 C 
ATOM      4  C   UNL     1      -1.346  -1.370   1.536  1.00  0.00     0.107 C 
ATOM      5  C   UNL     1      -2.362  -2.517   1.679  1.00  0.00     0.030 C 
ATOM      6  C   UNL     1      -2.662  -3.270   0.389  1.00  0.00     0.034 C 
ATOM      7  C   UNL     1      -0.466  -2.497  -0.617  1.00  0.00     0.052 C 
ATOM      8  C   UNL     1      -1.396  -3.680  -0.350  1.00  0.00     0.116 C 
BRANCH   4   9
ATOM      9  N   UNL     1      -1.961  -0.081   1.238  1.00  0.00    -0.310 N 
ATOM     10  C   UNL     1      -3.699   2.315  -0.642  1.00  0.00     0.155 A 
ATOM     11  N   UNL     1      -3.951   1.665  -1.799  1.00  0.00    -0.217 NA
ATOM     12  C   UNL     1      -2.995   1.641   0.371  1.00  0.00     0.150 A 
ATOM     13  C   UNL     1      -3.535   0.386  -1.912  1.00  0.00     0.226 A 
ATOM     14  C   UNL     1      -2.620   0.331   0.112  1.00  0.00     0.165 A 
ATOM     15  N   UNL     1      -2.577   2.038   1.623  1.00  0.00    -0.231 NA
ATOM     16  N   UNL     1      -2.866  -0.358  -1.012  1.00  0.00    -0.217 NA
ATOM     17  C   UNL     1      -1.966   0.983   2.115  1.00  0.00     0.202 A 
BRANCH  10  18
ATOM     18  N   UNL     1      -4.133   3.630  -0.520  1.00  0.00    -0.382 N 
ATOM     19  H   UNL     1      -4.263   4.067  -1.423  1.00  0.00     0.158 HD
ATOM     20  H   UNL     1      -3.624   4.151   0.185  1.00  0.00     0.158 HD
ENDBRANCH  10  18
ENDBRANCH   4   9
BRANCH   8  21
ATOM     21  O   UNL     1      -1.771  -4.298  -1.576  1.00  0.00    -0.393 OA
ATOM     22  H   UNL     1      -0.964  -4.474  -2.088  1.00  0.00     0.210 HD
ENDBRANCH   8  21
ENDBRANCH   1   3
BRANCH   1  23
ATOM     23  C   UNL     1       2.039  -0.887  -0.217  1.00  0.00     0.117 C 
BRANCH  23  24
ATOM     24  C   UNL     1       2.926   0.337  -0.248  1.00  0.00    -0.031 A 
ATOM     25  C   UNL     1       4.149   0.359   0.436  1.00  0.00     0.006 A 
ATOM     26  C   UNL     1       2.531   1.476  -0.964  1.00  0.00     0.045 A 
ATOM     27  C   UNL     1       4.961   1.498   0.402  1.00  0.00     0.016 A 
ATOM     28  C   UNL     1       3.346   2.605  -0.991  1.00  0.00     0.135 A 
ATOM     29  C   UNL     1       4.563   2.635  -0.317  1.00  0.00     0.091 A 
ATOM     30  F   UNL     1       2.941   3.677  -1.685  1.00  0.00    -0.206 F 
BRANCH  29  31
ATOM     31  C   UNL     1       5.403   3.873  -0.379  1.00  0.00     0.419 C 
ATOM     32  F   UNL     1       5.777   4.201  -1.647  1.00  0.00    -0.166 F 
ATOM     33  F   UNL     1       4.778   4.969   0.132  1.00  0.00    -0.166 F 
ATOM     34  F   UNL     1       6.568   3.760   0.324  1.00  0.00    -0.166 F 
ENDBRANCH  29  31
ENDBRANCH  23  24
ENDBRANCH   1  23
TORSDOF 7
