REMARK SMILES COC(=O)c1ccc(CN[C@H]2C[C@H](O)CC[C@@H]2n2cnc3c(N)ncnc32)cc1
REMARK SMILES IDX 9 1 8 2 5 3 6 4 29 5 7 6 28 7 3 8 4 9 2 10 1 11 10 12 11 14
REMARK SMILES IDX 12 15 17 16 13 17 16 18 15 19 18 20 19 21 27 22 20 23 26 24
REMARK SMILES IDX 21 25 25 26 22 27 24 28 23 29 14 32
REMARK H PARENT 10 13 23 30 23 31 14 33
ROOT
ATOM      1  C   UNL     1       0.667  -1.035   2.659  1.00  0.00     0.117 C 
ENDROOT
BRANCH   1   2
ATOM      2  C   UNL     1       1.470  -0.013   1.886  1.00  0.00    -0.034 A 
ATOM      3  C   UNL     1       2.934   1.879   0.397  1.00  0.00     0.060 A 
ATOM      4  C   UNL     1       3.304   0.529   0.382  1.00  0.00     0.016 A 
ATOM      5  C   UNL     1       1.833   2.281   1.165  1.00  0.00     0.016 A 
ATOM      6  C   UNL     1       2.576  -0.409   1.121  1.00  0.00     0.006 A 
ATOM      7  C   UNL     1       1.109   1.343   1.905  1.00  0.00     0.006 A 
BRANCH   3   8
ATOM      8  C   UNL     1       3.664   2.917  -0.382  1.00  0.00     0.337 C 
ATOM      9  O   UNL     1       3.332   4.091  -0.417  1.00  0.00    -0.246 OA
BRANCH   8  10
ATOM     10  O   UNL     1       4.723   2.372  -1.031  1.00  0.00    -0.465 OA
ATOM     11  C   UNL     1       5.477   3.312  -1.799  1.00  0.00     0.282 C 
ENDBRANCH   8  10
ENDBRANCH   3   8
ENDBRANCH   1   2
BRANCH   1  12
ATOM     12  N   UNL     1      -0.694  -1.228   2.141  1.00  0.00    -0.308 NA
ATOM     13  H   UNL     1      -1.135  -0.308   2.117  1.00  0.00     0.123 HD
BRANCH  12  14
ATOM     14  C   UNL     1      -0.761  -1.845   0.796  1.00  0.00     0.079 C 
ATOM     15  C   UNL     1      -0.259  -3.306   0.853  1.00  0.00     0.052 C 
ATOM     16  C   UNL     1      -2.200  -1.788   0.198  1.00  0.00     0.107 C 
ATOM     17  C   UNL     1      -0.805  -4.199  -0.266  1.00  0.00     0.116 C 
ATOM     18  C   UNL     1      -2.270  -2.393  -1.222  1.00  0.00     0.030 C 
ATOM     19  C   UNL     1      -1.165  -3.405  -1.511  1.00  0.00     0.034 C 
BRANCH  16  20
ATOM     20  N   UNL     1      -2.791  -0.455   0.220  1.00  0.00    -0.310 N 
ATOM     21  C   UNL     1      -3.945  -0.106   0.874  1.00  0.00     0.202 A 
ATOM     22  C   UNL     1      -2.284   0.680  -0.353  1.00  0.00     0.165 A 
ATOM     23  N   UNL     1      -4.207   1.179   0.760  1.00  0.00    -0.231 NA
ATOM     24  N   UNL     1      -1.160   0.808  -1.077  1.00  0.00    -0.217 NA
ATOM     25  C   UNL     1      -3.178   1.682  -0.012  1.00  0.00     0.150 A 
ATOM     26  C   UNL     1      -0.971   2.091  -1.448  1.00  0.00     0.226 A 
ATOM     27  C   UNL     1      -2.883   2.975  -0.474  1.00  0.00     0.155 A 
ATOM     28  N   UNL     1      -1.749   3.163  -1.186  1.00  0.00    -0.217 NA
BRANCH  27  29
ATOM     29  N   UNL     1      -3.684   4.079  -0.212  1.00  0.00    -0.382 N 
ATOM     30  H   UNL     1      -4.303   3.953   0.581  1.00  0.00     0.158 HD
ATOM     31  H   UNL     1      -3.174   4.949  -0.285  1.00  0.00     0.158 HD
ENDBRANCH  27  29
ENDBRANCH  16  20
BRANCH  17  32
ATOM     32  O   UNL     1       0.146  -5.207  -0.587  1.00  0.00    -0.393 OA
ATOM     33  H   UNL     1       0.921  -4.781  -0.991  1.00  0.00     0.210 HD
ENDBRANCH  17  32
ENDBRANCH  12  14
ENDBRANCH   1  12
TORSDOF 8
