REMARK SMILES Nc1ncnc2c1ncn2[C@H]1CC[C@@H](O)C[C@H]1NCc1ccc(-c2nnn[nH]2)cc1
REMARK SMILES IDX 18 1 17 3 11 4 12 5 13 6 16 7 14 8 10 9 2 10 3 11 7 12 4 13
REMARK SMILES IDX 6 14 8 15 5 16 9 17 1 18 15 21 19 23 20 24 21 25 30 26 22 27
REMARK SMILES IDX 29 28 23 29 24 30 25 31 28 32 26 33 27 34
REMARK H PARENT 18 2 1 19 1 20 15 22 28 35
ROOT
ATOM      1  N   UNL     1       0.120   2.440   0.094  1.00  0.00    -0.308 NA
ATOM      2  H   UNL     1      -0.182   2.011   0.965  1.00  0.00     0.123 HD
ENDROOT
BRANCH   1   3
ATOM      3  C   UNL     1      -0.582   1.837  -1.064  1.00  0.00     0.079 C 
ATOM      4  C   UNL     1      -1.948   1.203  -0.670  1.00  0.00     0.107 C 
ATOM      5  C   UNL     1      -2.904   2.241  -0.045  1.00  0.00     0.030 C 
ATOM      6  C   UNL     1      -2.760   3.637  -0.653  1.00  0.00     0.034 C 
ATOM      7  C   UNL     1      -0.804   2.923  -2.134  1.00  0.00     0.052 C 
ATOM      8  C   UNL     1      -2.177   3.608  -2.064  1.00  0.00     0.116 C 
BRANCH   4   9
ATOM      9  N   UNL     1      -1.766  -0.025   0.095  1.00  0.00    -0.310 N 
ATOM     10  C   UNL     1      -0.641  -3.327   0.341  1.00  0.00     0.155 A 
ATOM     11  N   UNL     1      -0.424  -3.665  -0.954  1.00  0.00    -0.217 NA
ATOM     12  C   UNL     1      -1.155  -2.057   0.629  1.00  0.00     0.150 A 
ATOM     13  C   UNL     1      -0.733  -2.756  -1.909  1.00  0.00     0.226 A 
ATOM     14  C   UNL     1      -1.371  -1.218  -0.453  1.00  0.00     0.165 A 
ATOM     15  N   UNL     1      -1.478  -1.425   1.808  1.00  0.00    -0.231 NA
ATOM     16  N   UNL     1      -1.184  -1.496  -1.754  1.00  0.00    -0.217 NA
ATOM     17  C   UNL     1      -1.833  -0.206   1.450  1.00  0.00     0.202 A 
BRANCH  10  18
ATOM     18  N   UNL     1      -0.297  -4.243   1.312  1.00  0.00    -0.382 N 
ATOM     19  H   UNL     1      -0.193  -5.192   1.010  1.00  0.00     0.158 HD
ATOM     20  H   UNL     1      -0.629  -4.052   2.247  1.00  0.00     0.158 HD
ENDBRANCH  10  18
ENDBRANCH   4   9
BRANCH   8  21
ATOM     21  O   UNL     1      -2.079   4.934  -2.571  1.00  0.00    -0.393 OA
ATOM     22  H   UNL     1      -1.436   5.410  -2.022  1.00  0.00     0.210 HD
ENDBRANCH   8  21
ENDBRANCH   1   3
BRANCH   1  23
ATOM     23  C   UNL     1       1.576   2.273   0.028  1.00  0.00     0.117 C 
BRANCH  23  24
ATOM     24  C   UNL     1       2.006   0.892   0.462  1.00  0.00    -0.034 A 
ATOM     25  C   UNL     1       2.394  -0.067  -0.485  1.00  0.00     0.006 A 
ATOM     26  C   UNL     1       1.975   0.525   1.816  1.00  0.00     0.006 A 
ATOM     27  C   UNL     1       2.721  -1.372  -0.088  1.00  0.00     0.012 A 
ATOM     28  C   UNL     1       2.293  -0.790   2.210  1.00  0.00     0.012 A 
ATOM     29  C   UNL     1       2.661  -1.755   1.264  1.00  0.00     0.021 A 
BRANCH  29  30
ATOM     30  C   UNL     1       2.957  -3.119   1.691  1.00  0.00     0.179 A 
ATOM     31  N   UNL     1       3.192  -3.570   2.911  1.00  0.00    -0.109 NA
ATOM     32  N   UNL     1       3.004  -4.200   0.854  1.00  0.00    -0.239 N 
ATOM     33  N   UNL     1       3.406  -4.910   2.798  1.00  0.00    -0.024 NA
ATOM     34  N   UNL     1       3.311  -5.304   1.532  1.00  0.00    -0.048 NA
ATOM     35  H   UNL     1       2.820  -4.260  -0.145  1.00  0.00     0.194 HD
ENDBRANCH  29  30
ENDBRANCH  23  24
ENDBRANCH   1  23
TORSDOF 7
