REMARK SMILES COC1=c2cc[nH]c2=C(N2CC[C@H](Cc3ccc(C(=O)NO)cc3)C2=O)C[C@H]1C
REMARK SMILES IDX 14 1 13 2 10 3 11 4 25 5 12 6 26 7 9 8 3 9 4 10 28 11 5 12
REMARK SMILES IDX 8 13 27 14 6 15 7 16 29 17 2 19 1 20 15 21 16 22 24 23 17 24
REMARK SMILES IDX 23 25 18 26 19 27 21 28 20 29 22 31
REMARK H PARENT 7 18 21 30 22 32
ROOT
ATOM      1  C   UNL     1       2.711   1.160   2.484  1.00  0.00     0.049 C 
ENDROOT
BRANCH   1   2
ATOM      2  C   UNL     1       1.301   1.665   2.169  1.00  0.00     0.085 C 
ATOM      3  N   UNL     1      -0.673   1.064   1.003  1.00  0.00    -0.314 N 
ATOM      4  C   UNL     1      -0.327   2.423   0.629  1.00  0.00     0.126 C 
ATOM      5  C   UNL     1       0.274   0.572   1.930  1.00  0.00     0.230 C 
ATOM      6  C   UNL     1       1.152   2.544   0.940  1.00  0.00     0.036 C 
ATOM      7  O   UNL     1       0.275  -0.487   2.544  1.00  0.00    -0.274 OA
BRANCH   3   8
ATOM      8  C   UNL     1      -1.855   0.440   0.579  1.00  0.00     0.046 C 
ATOM      9  C   UNL     1      -4.345  -0.791  -0.370  1.00  0.00     0.108 C 
ATOM     10  C   UNL     1      -3.461  -1.437   0.401  1.00  0.00     0.039 A 
ATOM     11  C   UNL     1      -3.985   0.550  -0.963  1.00  0.00     0.058 C 
ATOM     12  C   UNL     1      -3.550  -2.776   0.960  1.00  0.00     0.031 A 
ATOM     13  C   UNL     1      -2.170  -0.854   0.792  1.00  0.00     0.069 A 
ATOM     14  C   UNL     1      -2.904   1.301  -0.136  1.00  0.00     0.067 C 
ATOM     15  C   UNL     1      -2.374  -2.979   1.579  1.00  0.00     0.083 A 
ATOM     16  N   UNL     1      -1.533  -1.899   1.425  1.00  0.00    -0.360 N 
ATOM     17  C   UNL     1      -3.519   0.358  -2.412  1.00  0.00     0.016 C 
ATOM     18  H   UNL     1      -0.776  -1.694   2.077  1.00  0.00     0.166 HD
BRANCH   9  19
ATOM     19  O   UNL     1      -5.542  -1.351  -0.774  1.00  0.00    -0.500 OA
ATOM     20  C   UNL     1      -6.596  -0.975   0.111  1.00  0.00     0.278 C 
ENDBRANCH   9  19
ENDBRANCH   3   8
ENDBRANCH   1   2
BRANCH   1  21
ATOM     21  C   UNL     1       3.453   0.499   1.344  1.00  0.00    -0.047 A 
ATOM     22  C   UNL     1       4.407   1.216   0.608  1.00  0.00     0.004 A 
ATOM     23  C   UNL     1       3.208  -0.840   1.012  1.00  0.00     0.004 A 
ATOM     24  C   UNL     1       5.094   0.611  -0.450  1.00  0.00     0.014 A 
ATOM     25  C   UNL     1       3.893  -1.448  -0.042  1.00  0.00     0.014 A 
ATOM     26  C   UNL     1       4.830  -0.722  -0.786  1.00  0.00     0.042 A 
BRANCH  26  27
ATOM     27  C   UNL     1       5.536  -1.409  -1.900  1.00  0.00     0.274 C 
ATOM     28  N   UNL     1       6.024  -0.605  -2.909  1.00  0.00    -0.234 N 
ATOM     29  O   UNL     1       5.636  -2.633  -1.942  1.00  0.00    -0.267 OA
ATOM     30  H   UNL     1       5.617   0.304  -3.099  1.00  0.00     0.199 HD
BRANCH  28  31
ATOM     31  O   UNL     1       6.490  -1.313  -4.046  1.00  0.00    -0.288 OA
ATOM     32  H   UNL     1       6.391  -2.249  -3.761  1.00  0.00     0.246 HD
ENDBRANCH  28  31
ENDBRANCH  26  27
ENDBRANCH   1  21
TORSDOF 6
