REMARK SMILES Nc1ncnc2c1ncn2[C@H]1CC[C@@H](O)C[C@H]1NCc1ccc(C(=O)NO)cc1
REMARK SMILES IDX 18 1 17 3 11 4 12 5 13 6 16 7 14 8 10 9 2 10 3 11 7 12 4 13
REMARK SMILES IDX 6 14 8 15 5 16 9 17 1 18 15 21 19 23 20 24 21 25 29 26 22 27
REMARK SMILES IDX 28 28 23 29 24 30 26 31 25 32 27 34
REMARK H PARENT 18 2 1 19 1 20 15 22 26 33 27 35
ROOT
ATOM      1  N   UNL     1       0.091  -0.946  -2.025  1.00  0.00    -0.308 NA
ATOM      2  H   UNL     1      -0.389  -0.090  -1.722  1.00  0.00     0.123 HD
ENDROOT
BRANCH   1   3
ATOM      3  C   UNL     1      -0.224  -2.068  -1.111  1.00  0.00     0.079 C 
ATOM      4  C   UNL     1      -1.524  -1.857  -0.278  1.00  0.00     0.107 C 
ATOM      5  C   UNL     1      -2.776  -1.778  -1.168  1.00  0.00     0.030 C 
ATOM      6  C   UNL     1      -2.902  -3.032  -2.040  1.00  0.00     0.034 C 
ATOM      7  C   UNL     1      -0.382  -3.351  -1.956  1.00  0.00     0.052 C 
ATOM      8  C   UNL     1      -1.633  -3.327  -2.843  1.00  0.00     0.116 C 
BRANCH   4   9
ATOM      9  N   UNL     1      -1.391  -0.775   0.689  1.00  0.00    -0.310 N 
ATOM     10  C   UNL     1      -1.117   2.563   1.705  1.00  0.00     0.155 A 
ATOM     11  N   UNL     1      -1.475   3.246   0.597  1.00  0.00    -0.217 NA
ATOM     12  C   UNL     1      -1.153   1.160   1.675  1.00  0.00     0.150 A 
ATOM     13  C   UNL     1      -1.819   2.542  -0.503  1.00  0.00     0.226 A 
ATOM     14  C   UNL     1      -1.507   0.572   0.472  1.00  0.00     0.165 A 
ATOM     15  N   UNL     1      -0.869   0.206   2.627  1.00  0.00    -0.231 NA
ATOM     16  N   UNL     1      -1.837   1.203  -0.668  1.00  0.00    -0.217 NA
ATOM     17  C   UNL     1      -1.023  -0.942   2.003  1.00  0.00     0.202 A 
BRANCH  10  18
ATOM     18  N   UNL     1      -0.690   3.292   2.815  1.00  0.00    -0.382 N 
ATOM     19  H   UNL     1      -0.809   2.764   3.679  1.00  0.00     0.158 HD
ATOM     20  H   UNL     1      -1.107   4.218   2.813  1.00  0.00     0.158 HD
ENDBRANCH  10  18
ENDBRANCH   4   9
BRANCH   8  21
ATOM     21  O   UNL     1      -1.495  -2.355  -3.876  1.00  0.00    -0.393 OA
ATOM     22  H   UNL     1      -0.955  -1.621  -3.511  1.00  0.00     0.210 HD
ENDBRANCH   8  21
ENDBRANCH   1   3
BRANCH   1  23
ATOM     23  C   UNL     1       1.531  -0.646  -2.094  1.00  0.00     0.117 C 
BRANCH  23  24
ATOM     24  C   UNL     1       2.010   0.161  -0.907  1.00  0.00    -0.034 A 
ATOM     25  C   UNL     1       1.731   1.534  -0.829  1.00  0.00     0.006 A 
ATOM     26  C   UNL     1       2.698  -0.450   0.151  1.00  0.00     0.006 A 
ATOM     27  C   UNL     1       2.089   2.274   0.301  1.00  0.00     0.014 A 
ATOM     28  C   UNL     1       3.062   0.288   1.280  1.00  0.00     0.014 A 
ATOM     29  C   UNL     1       2.736   1.645   1.369  1.00  0.00     0.042 A 
BRANCH  29  30
ATOM     30  C   UNL     1       3.110   2.387   2.599  1.00  0.00     0.274 C 
ATOM     31  N   UNL     1       2.283   3.428   2.971  1.00  0.00    -0.234 N 
ATOM     32  O   UNL     1       4.083   2.054   3.272  1.00  0.00    -0.267 OA
ATOM     33  H   UNL     1       1.292   3.420   2.713  1.00  0.00     0.199 HD
BRANCH  31  34
ATOM     34  O   UNL     1       2.569   3.954   4.260  1.00  0.00    -0.288 OA
ATOM     35  H   UNL     1       3.366   3.438   4.516  1.00  0.00     0.246 HD
ENDBRANCH  31  34
ENDBRANCH  29  30
ENDBRANCH  23  24
ENDBRANCH   1  23
TORSDOF 8
