MODEL        7USER    Run = 7USERUSER    Estimated Free Energy of Binding    =  -9.36 kcal/mol  [=(1)+(2)+(3)-(4)]USERUSER    (1) Final Intermolecular Energy     = -11.15 kcal/molUSER        vdW + Hbond + desolv Energy     = -11.07 kcal/molUSER        Electrostatic Energy            =  -0.07 kcal/molUSER        Moving Ligand-Fixed Receptor    = -11.15 kcal/molUSER        Moving Ligand-Moving Receptor   =  +0.00 kcal/molUSER    (2) Final Total Internal Energy     =  -1.74 kcal/molUSER    (3) Torsional Free Energy           =  +1.79 kcal/molUSER    (4) Unbound System's Energy         =  -1.74 kcal/molUSERUSERREMARK SMILES COC(=O)c1ccc(C[C@H]2CCN(C3=c4[nH]ccc4=C(OC)[C@@H](C)C3)C2=O)cc1REMARK SMILES IDX 9 1 8 2 5 3 6 4 29 5 7 6 28 7 3 8 4 9 2 10 1 11 10 12 11 13REMARK SMILES IDX 26 14 12 15 13 16 27 17 14 18 15 19 25 20 16 21 19 22 23 23REMARK SMILES IDX 17 24 18 25 20 26 24 28 21 29 22 30REMARK H PARENT 16 27USER                              x       y       z     vdW  Elec       q    TypeUSER                           _______ _______ _______ _____ _____    ______ ____ROOTATOM      1  C   UNL     1      40.842  47.921  16.984 -0.56 -0.01    +0.049 C  ENDROOTBRANCH   1   2ATOM      2  C   UNL     1      39.778  47.783  15.921 -0.49 +0.01    -0.047 A  ATOM      3  C   UNL     1      37.776  47.521  13.960 -0.47 -0.02    +0.060 A  ATOM      4  C   UNL     1      37.855  48.682  14.737 -0.49 -0.01    +0.016 A  ATOM      5  C   UNL     1      38.704  46.492  14.168 -0.41 -0.00    +0.016 A  ATOM      6  C   UNL     1      38.849  48.810  15.712 -0.45 -0.00    +0.004 A  ATOM      7  C   UNL     1      39.699  46.623  15.141 -0.46 -0.00    +0.004 A  BRANCH   3   8ATOM      8  C   UNL     1      36.739  47.328  12.909 -0.42 -0.14    +0.337 C  ATOM      9  O   UNL     1      36.566  48.103  11.982 -1.05 +0.09    -0.246 OA BRANCH   8  10ATOM     10  O   UNL     1      36.035  46.190  13.133 -0.21 +0.24    -0.465 OA ATOM     11  C   UNL     1      35.190  46.248  14.284 -0.26 -0.23    +0.282 C  ENDBRANCH   8  10ENDBRANCH   3   8ENDBRANCH   1   2BRANCH   1  12ATOM     12  C   UNL     1      41.033  46.640  17.792 -0.51 -0.01    +0.085 C  ATOM     13  C   UNL     1      41.960  46.779  18.993 -0.56 +0.00    +0.036 C  ATOM     14  C   UNL     1      39.739  46.185  18.444 -0.33 -0.02    +0.230 C  ATOM     15  C   UNL     1      41.496  45.654  19.898 -0.37 +0.02    +0.126 C  ATOM     16  N   UNL     1      40.067  45.594  19.681 -0.21 +0.00    -0.314 N  ATOM     17  O   UNL     1      38.641  46.279  17.915 -0.29 +0.06    -0.274 OA BRANCH  16  18ATOM     18  C   UNL     1      39.161  45.037  20.585 -0.39 +0.00    +0.046 C  ATOM     19  C   UNL     1      38.050  44.363  20.224 -0.32 -0.00    +0.069 A  ATOM     20  C   UNL     1      39.437  45.209  22.079 -0.32 +0.00    +0.067 C  ATOM     21  N   UNL     1      37.428  44.122  19.008 -0.11 +0.04    -0.360 N  ATOM     22  C   UNL     1      37.123  43.796  21.212 -0.38 +0.00    +0.039 A  ATOM     23  C   UNL     1      38.754  44.183  23.025 -0.29 +0.00    +0.058 C  ATOM     24  C   UNL     1      36.170  43.578  19.217 -0.31 -0.01    +0.083 A  ATOM     25  C   UNL     1      35.938  43.329  20.517 -0.41 -0.00    +0.031 A  ATOM     26  C   UNL     1      37.400  43.739  22.522 -0.36 +0.01    +0.108 C  ATOM     27  H   UNL     1      37.532  44.811  18.276 +0.11 -0.03    +0.166 HD ATOM     28  C   UNL     1      39.649  42.953  23.227 -0.30 +0.00    +0.016 C  BRANCH  26  29ATOM     29  O   UNL     1      36.541  43.167  23.441 -0.10 -0.07    -0.500 OA ATOM     30  C   UNL     1      36.543  41.745  23.318 -0.34 +0.01    +0.278 C  ENDBRANCH  26  29ENDBRANCH  16  18ENDBRANCH   1  12TORSDOF 6TERENDMDL