MODEL        6USER    Run = 6USERUSER    Estimated Free Energy of Binding    =  -9.71 kcal/mol  [=(1)+(2)+(3)-(4)]USERUSER    (1) Final Intermolecular Energy     = -11.20 kcal/molUSER        vdW + Hbond + desolv Energy     = -11.04 kcal/molUSER        Electrostatic Energy            =  -0.17 kcal/molUSER        Moving Ligand-Fixed Receptor    = -11.20 kcal/molUSER        Moving Ligand-Moving Receptor   =  +0.00 kcal/molUSER    (2) Final Total Internal Energy     =  -2.01 kcal/molUSER    (3) Torsional Free Energy           =  +1.49 kcal/molUSER    (4) Unbound System's Energy         =  -2.01 kcal/molUSERUSERREMARK SMILES COC1=c2cc[nH]c2=C(N2CC[C@H](Cc3ccc(C(N)=O)cc3)C2=O)C[C@H]1CREMARK SMILES IDX 10 1 11 2 12 3 13 4 24 5 25 6 9 7 3 8 4 9 27 10 5 11 8 12REMARK SMILES IDX 26 13 6 14 7 15 28 16 2 18 1 19 14 20 15 21 16 22 23 23REMARK SMILES IDX 17 24 22 25 18 26 19 27 20 28 21 29REMARK H PARENT 7 17 20 30 20 31USER                              x       y       z     vdW  Elec       q    TypeUSER                           _______ _______ _______ _____ _____    ______ ____ROOTATOM      1  N   UNL     1      36.190  44.241  17.727 -0.11 +0.09    -0.314 N  ATOM      2  C   UNL     1      35.741  43.190  16.835 -0.37 -0.04    +0.126 C  ATOM      3  C   UNL     1      34.923  43.901  15.780 -0.34 -0.02    +0.036 C  ATOM      4  C   UNL     1      35.600  45.259  15.657 -0.34 -0.05    +0.085 C  ATOM      5  C   UNL     1      36.116  45.487  17.066 -0.24 -0.12    +0.230 C  ATOM      6  O   UNL     1      36.459  46.595  17.456 -0.20 +0.17    -0.274 OA ENDROOTBRANCH   1   7ATOM      7  C   UNL     1      36.743  43.972  18.989 -0.37 -0.01    +0.046 C  ATOM      8  C   UNL     1      37.831  43.350  21.653 -0.34 +0.00    +0.108 C  ATOM      9  C   UNL     1      38.375  44.252  20.828 -0.33 +0.00    +0.039 A  ATOM     10  C   UNL     1      36.546  42.650  21.275 -0.49 +0.00    +0.058 C  ATOM     11  C   UNL     1      39.584  45.040  21.025 -0.32 +0.00    +0.031 A  ATOM     12  C   UNL     1      37.771  44.640  19.548 -0.31 -0.01    +0.069 A  ATOM     13  C   UNL     1      36.176  42.782  19.767 -0.42 -0.00    +0.067 C  ATOM     14  C   UNL     1      39.638  45.871  19.971 -0.26 -0.00    +0.083 A  ATOM     15  N   UNL     1      38.550  45.700  19.145 -0.13 +0.03    -0.360 N  ATOM     16  C   UNL     1      36.542  41.169  21.670 -0.61 +0.00    +0.016 C  ATOM     17  H   UNL     1      38.543  45.985  18.165 +0.09 -0.03    +0.166 HD BRANCH   8  18ATOM     18  O   UNL     1      38.423  43.007  22.856 -0.05 -0.03    -0.500 OA ATOM     19  C   UNL     1      37.764  43.646  23.948 -0.21 +0.02    +0.278 C  ENDBRANCH   8  18ENDBRANCH   1   7BRANCH   4  20ATOM     20  C   UNL     1      36.786  45.295  14.686 -0.42 -0.02    +0.049 C  BRANCH  20  21ATOM     21  C   UNL     1      37.827  46.322  15.060 -0.36 +0.02    -0.047 A  ATOM     22  C   UNL     1      37.634  47.675  14.748 -0.49 -0.00    +0.004 A  ATOM     23  C   UNL     1      39.004  45.937  15.715 -0.36 -0.00    +0.004 A  ATOM     24  C   UNL     1      38.600  48.629  15.084 -0.49 -0.01    +0.014 A  ATOM     25  C   UNL     1      39.972  46.887  16.049 -0.47 -0.00    +0.014 A  ATOM     26  C   UNL     1      39.770  48.237  15.744 -0.52 -0.01    +0.039 A  BRANCH  26  27ATOM     27  C   UNL     1      40.832  49.210  16.119 -0.44 -0.05    +0.248 C  ATOM     28  N   UNL     1      40.678  50.504  15.701 -0.31 +0.16    -0.366 N  ATOM     29  O   UNL     1      41.792  48.882  16.805 -0.94 -0.04    -0.270 OA ATOM     30  H   UNL     1      39.784  50.865  15.404 -0.41 -0.14    +0.159 HD ATOM     31  H   UNL     1      41.342  51.166  16.082 -0.45 -0.07    +0.159 HD ENDBRANCH  26  27ENDBRANCH  20  21ENDBRANCH   4  20TORSDOF 5TERENDMDL