REMARK SMILES Nc1ncnc2c1ncn2[C@H]1CC[C@@H](O)C[C@H]1NCc1cccc(C(F)(F)F)c1
REMARK SMILES IDX 18 1 17 3 11 4 12 5 13 6 16 7 14 8 10 9 2 10 3 11 7 12 4 13
REMARK SMILES IDX 6 14 8 15 5 16 9 17 1 18 15 21 19 23 20 24 21 25 29 26 22 27
REMARK SMILES IDX 24 28 23 29 25 30 26 31 27 32 28 33
REMARK H PARENT 18 2 1 19 1 20 15 22
ROOT
ATOM      1  N   UNL     1      -0.161   1.712   0.887  1.00  0.00    -0.308 NA
ATOM      2  H   UNL     1      -0.774   0.913   1.089  1.00  0.00     0.123 HD
ENDROOT
BRANCH   1   3
ATOM      3  C   UNL     1       0.096   1.822  -0.562  1.00  0.00     0.079 C 
ATOM      4  C   UNL     1      -0.980   1.121  -1.441  1.00  0.00     0.107 C 
ATOM      5  C   UNL     1      -2.390   1.715  -1.252  1.00  0.00     0.030 C 
ATOM      6  C   UNL     1      -2.367   3.220  -0.950  1.00  0.00     0.034 C 
ATOM      7  C   UNL     1       0.175   3.321  -0.926  1.00  0.00     0.052 C 
ATOM      8  C   UNL     1      -1.120   3.895  -1.509  1.00  0.00     0.116 C 
BRANCH   4   9
ATOM      9  N   UNL     1      -0.910  -0.332  -1.357  1.00  0.00    -0.310 N 
ATOM     10  C   UNL     1      -1.309  -3.463   0.158  1.00  0.00     0.155 A 
ATOM     11  N   UNL     1      -2.018  -3.170   1.269  1.00  0.00    -0.217 NA
ATOM     12  C   UNL     1      -0.973  -2.421  -0.721  1.00  0.00     0.150 A 
ATOM     13  C   UNL     1      -2.334  -1.879   1.501  1.00  0.00     0.226 A 
ATOM     14  C   UNL     1      -1.370  -1.145  -0.357  1.00  0.00     0.165 A 
ATOM     15  N   UNL     1      -0.300  -2.402  -1.924  1.00  0.00    -0.231 NA
ATOM     16  N   UNL     1      -2.040  -0.795   0.755  1.00  0.00    -0.217 NA
ATOM     17  C   UNL     1      -0.280  -1.136  -2.274  1.00  0.00     0.202 A 
BRANCH  10  18
ATOM     18  N   UNL     1      -0.958  -4.789  -0.065  1.00  0.00    -0.382 N 
ATOM     19  H   UNL     1      -0.740  -4.990  -1.036  1.00  0.00     0.158 HD
ATOM     20  H   UNL     1      -1.567  -5.431   0.422  1.00  0.00     0.158 HD
ENDBRANCH  10  18
ENDBRANCH   4   9
BRANCH   8  21
ATOM     21  O   UNL     1      -1.171   5.298  -1.279  1.00  0.00    -0.393 OA
ATOM     22  H   UNL     1      -1.248   5.435  -0.313  1.00  0.00     0.210 HD
ENDBRANCH   8  21
ENDBRANCH   1   3
BRANCH   1  23
ATOM     23  C   UNL     1       1.065   1.544   1.679  1.00  0.00     0.117 C 
BRANCH  23  24
ATOM     24  C   UNL     1       1.541   0.109   1.710  1.00  0.00    -0.034 A 
ATOM     25  C   UNL     1       0.979  -0.795   2.618  1.00  0.00     0.005 A 
ATOM     26  C   UNL     1       2.494  -0.359   0.797  1.00  0.00     0.018 A 
ATOM     27  C   UNL     1       1.347  -2.138   2.601  1.00  0.00     0.001 A 
ATOM     28  C   UNL     1       2.854  -1.714   0.756  1.00  0.00     0.056 A 
ATOM     29  C   UNL     1       2.274  -2.598   1.671  1.00  0.00     0.013 A 
BRANCH  28  30
ATOM     30  C   UNL     1       3.851  -2.195  -0.265  1.00  0.00     0.416 C 
ATOM     31  F   UNL     1       3.898  -3.548  -0.396  1.00  0.00    -0.166 F 
ATOM     32  F   UNL     1       3.604  -1.705  -1.513  1.00  0.00    -0.166 F 
ATOM     33  F   UNL     1       5.120  -1.806   0.038  1.00  0.00    -0.166 F 
ENDBRANCH  28  30
ENDBRANCH  23  24
ENDBRANCH   1  23
TORSDOF 7
