REMARK SMILES COC(=O)c1ccc(C[C@H]2CCN(C3=c4[nH]ccc4=C(OC)[C@@H](C)C3)C2=O)cc1
REMARK SMILES IDX 9 1 8 2 5 3 6 4 29 5 7 6 28 7 3 8 4 9 2 10 1 11 10 12 11 13
REMARK SMILES IDX 26 14 12 15 13 16 27 17 14 18 15 19 25 20 16 21 19 22 23 23
REMARK SMILES IDX 17 24 18 25 20 26 24 28 21 29 22 30
REMARK H PARENT 16 27
ROOT
ATOM      1  C   UNL     1       1.906  -1.136  -1.194  1.00  0.00     0.049 C 
ENDROOT
BRANCH   1   2
ATOM      2  C   UNL     1       3.364  -0.771  -1.043  1.00  0.00    -0.047 A 
ATOM      3  C   UNL     1       6.075  -0.079  -0.736  1.00  0.00     0.060 A 
ATOM      4  C   UNL     1       5.523  -1.122   0.017  1.00  0.00     0.016 A 
ATOM      5  C   UNL     1       5.264   0.615  -1.643  1.00  0.00     0.016 A 
ATOM      6  C   UNL     1       4.176  -1.464  -0.136  1.00  0.00     0.004 A 
ATOM      7  C   UNL     1       3.918   0.271  -1.796  1.00  0.00     0.004 A 
BRANCH   3   8
ATOM      8  C   UNL     1       7.501   0.330  -0.615  1.00  0.00     0.337 C 
ATOM      9  O   UNL     1       7.995   1.251  -1.247  1.00  0.00    -0.246 OA
BRANCH   8  10
ATOM     10  O   UNL     1       8.151  -0.455   0.281  1.00  0.00    -0.465 OA
ATOM     11  C   UNL     1       9.531  -0.125   0.446  1.00  0.00     0.282 C 
ENDBRANCH   8  10
ENDBRANCH   3   8
ENDBRANCH   1   2
BRANCH   1  12
ATOM     12  C   UNL     1       1.046  -0.598  -0.053  1.00  0.00     0.085 C 
ATOM     13  C   UNL     1       0.939   0.921   0.000  1.00  0.00     0.036 C 
ATOM     14  C   UNL     1      -0.408  -1.011  -0.199  1.00  0.00     0.230 C 
ATOM     15  C   UNL     1      -0.366   1.133   0.742  1.00  0.00     0.126 C 
ATOM     16  N   UNL     1      -1.204   0.040   0.300  1.00  0.00    -0.314 N 
ATOM     17  O   UNL     1      -0.767  -2.101  -0.619  1.00  0.00    -0.274 OA
BRANCH  16  18
ATOM     18  C   UNL     1      -2.599   0.050   0.357  1.00  0.00     0.046 C 
ATOM     19  C   UNL     1      -3.320   0.910   1.104  1.00  0.00     0.069 A 
ATOM     20  C   UNL     1      -3.360  -0.985  -0.473  1.00  0.00     0.067 C 
ATOM     21  N   UNL     1      -2.987   1.872   2.047  1.00  0.00    -0.360 N 
ATOM     22  C   UNL     1      -4.788   0.881   1.134  1.00  0.00     0.039 A 
ATOM     23  C   UNL     1      -4.838  -0.642  -0.809  1.00  0.00     0.058 C 
ATOM     24  C   UNL     1      -4.128   2.309   2.703  1.00  0.00     0.083 A 
ATOM     25  C   UNL     1      -5.245   1.776   2.181  1.00  0.00     0.031 A 
ATOM     26  C   UNL     1      -5.519   0.139   0.292  1.00  0.00     0.108 C 
ATOM     27  H   UNL     1      -2.149   1.731   2.594  1.00  0.00     0.166 HD
ATOM     28  C   UNL     1      -4.926   0.149  -2.121  1.00  0.00     0.016 C 
BRANCH  26  29
ATOM     29  O   UNL     1      -6.901   0.148   0.298  1.00  0.00    -0.500 OA
ATOM     30  C   UNL     1      -7.411  -0.978   1.011  1.00  0.00     0.278 C 
ENDBRANCH  26  29
ENDBRANCH  16  18
ENDBRANCH   1  12
TORSDOF 6
