REMARK SMILES COC1=c2cc[nH]c2=C(N2CC[C@H](Cc3ccc(C(N)=O)cc3)C2=O)C[C@H]1C
REMARK SMILES IDX 10 1 11 2 12 3 13 4 24 5 25 6 9 7 3 8 4 9 27 10 5 11 8 12
REMARK SMILES IDX 26 13 6 14 7 15 28 16 2 18 1 19 14 20 15 21 16 22 23 23
REMARK SMILES IDX 17 24 22 25 18 26 19 27 20 28 21 29
REMARK H PARENT 7 17 20 30 20 31
ROOT
ATOM      1  N   UNL     1      -0.738   0.113  -0.451  1.00  0.00    -0.314 N 
ATOM      2  C   UNL     1      -0.073  -1.171  -0.559  1.00  0.00     0.126 C 
ATOM      3  C   UNL     1       1.227  -0.874  -1.273  1.00  0.00     0.036 C 
ATOM      4  C   UNL     1       1.578   0.532  -0.808  1.00  0.00     0.085 C 
ATOM      5  C   UNL     1       0.208   1.151  -0.599  1.00  0.00     0.230 C 
ATOM      6  O   UNL     1       0.054   2.362  -0.512  1.00  0.00    -0.274 OA
ENDROOT
BRANCH   1   7
ATOM      7  C   UNL     1      -2.093   0.232  -0.101  1.00  0.00     0.046 C 
ATOM      8  C   UNL     1      -4.941   0.388   0.627  1.00  0.00     0.108 C 
ATOM      9  C   UNL     1      -4.170   1.465   0.437  1.00  0.00     0.039 A 
ATOM     10  C   UNL     1      -4.387  -0.997   0.386  1.00  0.00     0.058 C 
ATOM     11  C   UNL     1      -4.527   2.868   0.592  1.00  0.00     0.031 A 
ATOM     12  C   UNL     1      -2.781   1.388  -0.032  1.00  0.00     0.069 A 
ATOM     13  C   UNL     1      -2.832  -1.048   0.297  1.00  0.00     0.067 C 
ATOM     14  C   UNL     1      -3.449   3.554   0.178  1.00  0.00     0.083 A 
ATOM     15  N   UNL     1      -2.456   2.706  -0.258  1.00  0.00    -0.360 N 
ATOM     16  C   UNL     1      -4.868  -2.014   1.427  1.00  0.00     0.016 C 
ATOM     17  H   UNL     1      -1.474   2.979  -0.315  1.00  0.00     0.166 HD
BRANCH   8  18
ATOM     18  O   UNL     1      -6.249   0.493   1.067  1.00  0.00    -0.500 OA
ATOM     19  C   UNL     1      -7.163   0.381  -0.023  1.00  0.00     0.278 C 
ENDBRANCH   8  18
ENDBRANCH   1   7
BRANCH   4  20
ATOM     20  C   UNL     1       2.353   0.592   0.514  1.00  0.00     0.049 C 
BRANCH  20  21
ATOM     21  C   UNL     1       3.765   0.071   0.397  1.00  0.00    -0.047 A 
ATOM     22  C   UNL     1       4.731   0.793  -0.318  1.00  0.00     0.004 A 
ATOM     23  C   UNL     1       4.127  -1.144   0.992  1.00  0.00     0.004 A 
ATOM     24  C   UNL     1       6.038   0.309  -0.438  1.00  0.00     0.014 A 
ATOM     25  C   UNL     1       5.431  -1.631   0.872  1.00  0.00     0.014 A 
ATOM     26  C   UNL     1       6.394  -0.902   0.165  1.00  0.00     0.039 A 
BRANCH  26  27
ATOM     27  C   UNL     1       7.768  -1.464   0.064  1.00  0.00     0.248 C 
ATOM     28  N   UNL     1       8.790  -0.590  -0.188  1.00  0.00    -0.366 N 
ATOM     29  O   UNL     1       7.990  -2.656   0.233  1.00  0.00    -0.270 OA
ATOM     30  H   UNL     1       8.691   0.403  -0.038  1.00  0.00     0.159 HD
ATOM     31  H   UNL     1       9.722  -0.978  -0.118  1.00  0.00     0.159 HD
ENDBRANCH  26  27
ENDBRANCH  20  21
ENDBRANCH   4  20
TORSDOF 5
