REMARK SMILES NCCNc1ccc2cc(C(=O)c3c[nH]c4ncc(I)cc34)cnn12
REMARK SMILES IDX 4 1 3 3 2 4 1 5 5 8 6 9 25 10 7 11 24 12 8 13 23 14 9 15
REMARK SMILES IDX 10 16 11 17 12 18 13 19 14 20 22 21 15 22 21 23 16 24 19 25
REMARK SMILES IDX 17 26 18 27 20 29
REMARK H PARENT 4 2 1 6 1 7 15 28
ROOT
ATOM      1  N   UNL     1      -3.900   0.455  -0.616  1.00  0.00    -0.369 N 
ATOM      2  H   UNL     1      -3.490   0.872   0.224  1.00  0.00     0.162 HD
ENDROOT
BRANCH   1   3
ATOM      3  C   UNL     1      -5.260  -0.022  -0.371  1.00  0.00     0.129 C 
BRANCH   3   4
ATOM      4  C   UNL     1      -6.155   1.135   0.118  1.00  0.00     0.099 C 
BRANCH   4   5
ATOM      5  N   UNL     1      -5.592   1.869   1.260  1.00  0.00    -0.329 NA
ATOM      6  H   UNL     1      -4.752   2.350   0.935  1.00  0.00     0.118 HD
ATOM      7  H   UNL     1      -6.240   2.611   1.523  1.00  0.00     0.118 HD
ENDBRANCH   4   5
ENDBRANCH   3   4
ENDBRANCH   1   3
BRANCH   1   8
ATOM      8  C   UNL     1      -3.030  -0.292  -1.355  1.00  0.00     0.128 A 
ATOM      9  C   UNL     1      -3.220  -1.173  -2.400  1.00  0.00     0.049 A 
ATOM     10  N   UNL     1      -1.666  -0.220  -1.110  1.00  0.00    -0.218 N 
ATOM     11  C   UNL     1      -1.948  -1.655  -2.801  1.00  0.00     0.032 A 
ATOM     12  N   UNL     1      -1.086   0.557  -0.140  1.00  0.00    -0.174 NA
ATOM     13  C   UNL     1      -1.006  -1.057  -1.991  1.00  0.00     0.068 A 
ATOM     14  C   UNL     1       0.204   0.441  -0.105  1.00  0.00     0.146 A 
ATOM     15  C   UNL     1       0.403  -1.142  -1.902  1.00  0.00     0.042 A 
ATOM     16  C   UNL     1       1.045  -0.441  -0.954  1.00  0.00     0.045 A 
BRANCH  16  17
ATOM     17  C   UNL     1       2.520  -0.543  -0.854  1.00  0.00     0.196 C 
ATOM     18  O   UNL     1       3.222  -0.607  -1.858  1.00  0.00    -0.288 OA
BRANCH  17  19
ATOM     19  C   UNL     1       3.073  -0.567   0.498  1.00  0.00     0.050 A 
ATOM     20  C   UNL     1       2.437  -0.962   1.669  1.00  0.00     0.097 A 
ATOM     21  C   UNL     1       4.421  -0.237   0.866  1.00  0.00     0.031 A 
ATOM     22  N   UNL     1       3.326  -0.850   2.708  1.00  0.00    -0.345 N 
ATOM     23  C   UNL     1       5.572   0.202   0.183  1.00  0.00     0.029 A 
ATOM     24  C   UNL     1       4.531  -0.414   2.240  1.00  0.00     0.138 A 
ATOM     25  C   UNL     1       6.725   0.424   0.936  1.00  0.00     0.032 A 
ATOM     26  N   UNL     1       5.612  -0.212   3.014  1.00  0.00    -0.237 NA
ATOM     27  C   UNL     1       6.691   0.209   2.309  1.00  0.00     0.128 A 
ATOM     28  H   UNL     1       3.150  -1.068   3.679  1.00  0.00     0.167 HD
ATOM     29  I   UNL     1       8.465   1.070   0.013  1.00  0.00    -0.043 I 
ENDBRANCH  17  19
ENDBRANCH  16  17
ENDBRANCH   1   8
TORSDOF 6
