MODEL        10USER    Run = 10USERUSER    Estimated Free Energy of Binding    =  -8.98 kcal/mol  [=(1)+(2)+(3)-(4)]USERUSER    (1) Final Intermolecular Energy     = -11.67 kcal/molUSER        vdW + Hbond + desolv Energy     = -11.73 kcal/molUSER        Electrostatic Energy            =  +0.06 kcal/molUSER        Moving Ligand-Fixed Receptor    = -11.67 kcal/molUSER        Moving Ligand-Moving Receptor   =  +0.00 kcal/molUSER    (2) Final Total Internal Energy     =  -3.76 kcal/molUSER    (3) Torsional Free Energy           =  +2.68 kcal/molUSER    (4) Unbound System's Energy         =  -3.76 kcal/molUSERUSERREMARK SMILES CC(C)c1cccc([C@H](CN)CNC2=CCc3cc(Cl)ccc3C2)c1ONREMARK SMILES IDX 9 1 8 2 4 3 5 4 25 5 6 6 7 7 2 8 1 9 3 10 26 11 27 12 10 15REMARK SMILES IDX 11 16 12 19 13 20 14 22 15 23 24 24 16 25 23 26 17 27 22 28REMARK SMILES IDX 18 29 21 30 19 31 20 32REMARK H PARENT 27 13 27 14 11 17 11 18 13 21USER                              x       y       z     vdW  Elec       q    TypeUSER                           _______ _______ _______ _____ _____    ______ ____ROOTATOM      1  C   UNL     1      40.624  46.207  19.409 -0.42 +0.00    +0.056 C  ENDROOTBRANCH   1   2ATOM      2  C   UNL     1      39.665  46.067  18.223 -0.44 -0.00    +0.003 A  ATOM      3  C   UNL     1      38.704  46.745  16.055 -0.42 +0.00    -0.000 A  ATOM      4  C   UNL     1      37.947  45.560  16.045 -0.35 -0.00    +0.008 A  ATOM      5  C   UNL     1      39.527  47.007  17.177 -0.35 -0.04    +0.153 A  ATOM      6  C   UNL     1      38.041  44.643  17.085 -0.32 -0.00    +0.001 A  ATOM      7  C   UNL     1      38.901  44.887  18.152 -0.38 -0.00    +0.008 A  BRANCH   3   8ATOM      8  C   UNL     1      38.632  47.693  14.864 -0.56 -0.01    +0.017 C  ATOM      9  C   UNL     1      38.174  46.979  13.586 -0.51 -0.00    +0.012 C  ATOM     10  C   UNL     1      37.729  48.893  15.164 -0.55 -0.01    +0.012 C  ENDBRANCH   3   8BRANCH   5  11ATOM     11  O   UNL     1      40.289  48.156  17.204 -0.25 +0.09    -0.411 OA BRANCH  11  12ATOM     12  N   UNL     1      41.415  47.987  16.286 -0.45 +0.01    -0.170 NA ATOM     13  H   UNL     1      41.739  47.058  16.556 -0.36 -0.03    +0.164 HD ATOM     14  H   UNL     1      42.087  48.635  16.696 -0.04 +0.04    +0.164 HD ENDBRANCH  11  12ENDBRANCH   5  11ENDBRANCH   1   2BRANCH   1  15ATOM     15  C   UNL     1      42.126  46.239  19.053 -0.44 +0.01    +0.088 C  BRANCH  15  16ATOM     16  N   UNL     1      42.547  47.544  18.522 -0.33 -0.01    -0.330 NA ATOM     17  H   UNL     1      41.727  48.143  18.418 +0.03 -0.00    +0.118 HD ATOM     18  H   UNL     1      42.911  47.410  17.579 -0.54 -0.03    +0.118 HD ENDBRANCH  15  16ENDBRANCH   1  15BRANCH   1  19ATOM     19  C   UNL     1      40.306  45.213  20.552 -0.34 +0.01    +0.122 C  BRANCH  19  20ATOM     20  N   UNL     1      39.023  45.475  21.206 -0.14 -0.02    -0.388 N  ATOM     21  H   UNL     1      38.879  46.457  21.432 +0.07 +0.02    +0.160 HD BRANCH  20  22ATOM     22  C   UNL     1      38.376  44.617  22.089 -0.39 +0.00    +0.011 C  ATOM     23  C   UNL     1      38.056  43.367  21.716 -0.39 -0.00    -0.001 C  ATOM     24  C   UNL     1      38.060  45.115  23.491 -0.30 +0.01    +0.088 C  ATOM     25  C   UNL     1      37.372  42.359  22.587 -0.47 +0.00    +0.065 C  ATOM     26  C   UNL     1      37.397  44.118  24.417 -0.30 -0.00    -0.039 A  ATOM     27  C   UNL     1      37.069  42.821  23.989 -0.37 -0.00    -0.039 A  ATOM     28  C   UNL     1      37.100  44.506  25.735 -0.33 -0.00    +0.006 A  ATOM     29  C   UNL     1      36.448  41.935  24.884 -0.35 -0.00    +0.024 A  ATOM     30  C   UNL     1      36.484  43.618  26.617 -0.38 -0.00    +0.021 A  ATOM     31  C   UNL     1      36.160  42.336  26.188 -0.43 -0.01    +0.041 A  ATOM     32  Cl  UNL     1      35.399  41.236  27.271 -0.90 +0.03    -0.084 Cl ENDBRANCH  20  22ENDBRANCH  19  20ENDBRANCH   1  19TORSDOF 9TERENDMDL