MODEL        10USER    Run = 10USERUSER    Estimated Free Energy of Binding    =  -6.21 kcal/mol  [=(1)+(2)+(3)-(4)]USERUSER    (1) Final Intermolecular Energy     = -10.09 kcal/molUSER        vdW + Hbond + desolv Energy     = -10.54 kcal/molUSER        Electrostatic Energy            =  -0.04 kcal/molUSER        Moving Ligand-Fixed Receptor    = -10.58 kcal/molUSER        Moving Ligand-Moving Receptor   =  +0.49 kcal/molUSER    (2) Final Total Internal Energy     =  -2.84 kcal/molUSER    (3) Torsional Free Energy           =  +3.88 kcal/molUSER    (4) Unbound System's Energy         =  -2.84 kcal/molUSERUSERREMARK SMILES COc1cc2c(n1CCCN1CCCC[C@H]1C)=CC(Cl)=C(c1ccc([N+](=O)[O-])cc1)C=CN=2REMARK SMILES IDX 3 1 4 2 5 3 6 4 7 5 2 6 1 7 8 8 9 9 10 10 11 11 12 12 16 13REMARK SMILES IDX 13 14 15 15 14 16 17 17 33 18 32 19 18 21 19 22 20 23 21 24REMARK SMILES IDX 22 25 23 26 30 27 24 28 29 29 25 30 26 31 27 32 28 33 31 34REMARK H PARENTREMARK Flexibility Score:   79.900USER                              x       y       z     vdW  Elec       q    TypeUSER                           _______ _______ _______ _____ _____    ______ ____ROOTATOM      1  C   UNL     1      37.210  45.082  24.692 -0.13 +0.03    +0.195 A  ATOM      2  C   UNL     1      36.617  43.881  24.556 -0.12 +0.01    +0.097 A  ATOM      3  C   UNL     1      37.319  43.221  23.426 -0.31 +0.01    +0.092 A  ATOM      4  C   UNL     1      38.088  44.326  22.752 -0.30 +0.01    +0.071 A  ATOM      5  N   UNL     1      38.153  45.348  23.697 -0.16 -0.04    -0.311 N  ENDROOTBRANCH   1   6ATOM      6  O   UNL     1      36.976  46.031  25.650 -0.59 -0.00    -0.482 OA ATOM      7  C   UNL     1      36.970  45.583  27.000 -0.24 -0.05    +0.280 C  ENDBRANCH   1   6BRANCH   5   8ATOM      8  C   UNL     1      38.782  46.654  23.516 -0.31 +0.02    +0.127 C  BRANCH   8   9ATOM      9  C   UNL     1      40.066  46.777  24.342 -0.25 +0.00    +0.037 C  BRANCH   9  10ATOM     10  C   UNL     1      40.890  45.488  24.244 -0.13 +0.00    +0.086 C  BRANCH  10  11ATOM     11  N   UNL     1      41.156  44.988  22.899 -0.05 -0.02    -0.301 NA ATOM     12  C   UNL     1      41.964  45.848  22.047 -0.25 +0.01    +0.085 C  ATOM     13  C   UNL     1      41.413  43.546  22.742 -0.29 +0.00    +0.053 C  ATOM     14  C   UNL     1      41.667  45.573  20.569 -0.40 +0.00    +0.016 C  ATOM     15  C   UNL     1      41.992  43.206  21.349 -0.34 +0.00    +0.019 C  ATOM     16  C   UNL     1      41.400  44.097  20.267 -0.35 +0.00    +0.003 C  ATOM     17  C   UNL     1      42.309  42.901  23.806 -0.24 -0.00    +0.024 C  ENDBRANCH  10  11ENDBRANCH   9  10ENDBRANCH   8   9ENDBRANCH   5   8BRANCH   3  18ATOM     18  N   UNL     1      37.290  41.937  23.317 -0.29 -0.02    -0.254 NA BRANCH  18  19ATOM     19  C   UNL     1      36.742  41.380  22.197 -0.55 +0.00    +0.112 CG0ATOM     20  G   UNL     1      36.905  41.700  20.910 +0.00 +0.00    +0.000 G0 ENDBRANCH  18  19ENDBRANCH   3  18BRANCH   4  21ATOM     21  C   UNL     1      38.394  44.382  21.448 -0.38 +0.00    +0.049 C  BRANCH  21  22ATOM     22  C   UNL     1      37.548  43.994  20.331 -0.40 -0.00    +0.051 C  ATOM     23  Cl  UNL     1      37.835  45.008  18.922 -0.46 +0.01    -0.084 Cl BRANCH  22  24ATOM     24  C   UNL     1      36.651  42.983  20.289 -0.47 -0.00    +0.002 C  BRANCH  24  25ATOM     25  C   UNL     1      35.374  43.143  19.551 -0.41 +0.00    -0.016 A  ATOM     26  C   UNL     1      34.945  42.166  18.640 -0.40 -0.00    +0.016 A  ATOM     27  C   UNL     1      34.572  44.268  19.792 -0.33 -0.00    +0.016 A  ATOM     28  C   UNL     1      33.733  42.320  17.961 -0.33 -0.02    +0.086 A  ATOM     29  C   UNL     1      33.359  44.429  19.118 -0.37 -0.02    +0.086 A  ATOM     30  C   UNL     1      32.944  43.452  18.203 -0.15 -0.06    +0.269 A  BRANCH  30  31ATOM     31  N   UNL     1      31.669  43.617  17.492 -0.27 -0.01    +0.062 N  ATOM     32  O   UNL     1      30.903  42.643  17.451 -0.17 +0.06    -0.258 OA ATOM     33  O   UNL     1      31.433  44.718  16.977 -0.61 +0.05    -0.258 OA ENDBRANCH  30  31ENDBRANCH  24  25BRANCH  24  34ATOM     34  C   UNL     1      36.906  41.696  20.907 -0.49 -0.00    +0.030 CG0ATOM     35  G   UNL     1      36.742  41.377  22.194 +0.00 +0.00    +0.000 G0 ENDBRANCH  24  34ENDBRANCH  22  24ENDBRANCH  21  22ENDBRANCH   4  21TORSDOF 7TERENDMDL