MODEL        9USER    Run = 9USERUSER    Estimated Free Energy of Binding    =  -8.89 kcal/mol  [=(1)+(2)+(3)-(4)]USERUSER    (1) Final Intermolecular Energy     = -12.17 kcal/molUSER        vdW + Hbond + desolv Energy     = -11.91 kcal/molUSER        Electrostatic Energy            =  -0.27 kcal/molUSER        Moving Ligand-Fixed Receptor    = -12.17 kcal/molUSER        Moving Ligand-Moving Receptor   =  +0.00 kcal/molUSER    (2) Final Total Internal Energy     =  -4.54 kcal/molUSER    (3) Torsional Free Energy           =  +3.28 kcal/molUSER    (4) Unbound System's Energy         =  -4.54 kcal/molUSERUSERREMARK SMILES O=C(C=C1C=C(C(F)(F)F)C(c2ccccc2Cl)=C1OP)N[C@H](CO)Cc1ccccc1REMARK SMILES IDX 1 1 2 2 22 3 3 5 4 6 5 7 19 8 6 9 11 10 20 11 21 12 7 15REMARK SMILES IDX 8 16 9 17 10 18 12 19 13 20 17 21 14 22 16 23 15 24 18 25REMARK SMILES IDX 23 26 24 27 25 28 26 30 27 31 28 32 32 33 29 34 31 35 30 36REMARK H PARENT 22 4 21 13 21 14 25 29USER                              x       y       z     vdW  Elec       q    TypeUSER                           _______ _______ _______ _____ _____    ______ ____ROOTATOM      1  O   UNL     1      41.165  46.021  16.917 -0.24 +0.01    -0.270 OA ATOM      2  C   UNL     1      39.994  46.116  17.254 -0.34 -0.03    +0.245 C  ATOM      3  N   UNL     1      39.096  46.961  16.649 -0.20 +0.11    -0.347 N  ATOM      4  H   UNL     1      38.179  47.098  17.054 +0.09 -0.08    +0.164 HD ENDROOTBRANCH   2   5ATOM      5  C   UNL     1      39.390  45.345  18.369 -0.43 -0.01    +0.083 C  BRANCH   5   6ATOM      6  C   UNL     1      39.701  45.494  19.666 -0.44 -0.00    +0.024 C  ATOM      7  C   UNL     1      38.816  45.474  20.818 -0.32 +0.00    +0.026 C  ATOM      8  C   UNL     1      41.049  45.712  20.183 -0.35 +0.01    +0.138 C  ATOM      9  C   UNL     1      39.565  45.691  21.918 -0.31 +0.00    +0.068 C  ATOM     10  C   UNL     1      40.971  45.854  21.525 -0.32 +0.00    +0.038 C  BRANCH   8  11ATOM     11  O   UNL     1      42.120  45.882  19.353 -0.14 -0.09    -0.479 OA BRANCH  11  12ATOM     12  P   UNL     1      42.551  47.383  18.913 -0.65 +0.00    +0.059 P  ATOM     13  H   UNL     1      42.963  47.092  17.591 -0.55 -0.04    +0.099 HD ATOM     14  H   UNL     1      41.277  47.865  18.526 +0.03 -0.00    +0.099 HD ENDBRANCH  11  12ENDBRANCH   8  11BRANCH   9  15ATOM     15  C   UNL     1      39.096  45.792  23.326 -0.13 +0.04    +0.417 C  ATOM     16  F   UNL     1      37.885  45.201  23.499 -0.12 -0.02    -0.166 F  ATOM     17  F   UNL     1      38.969  47.078  23.739 -0.13 -0.02    -0.166 F  ATOM     18  F   UNL     1      39.946  45.189  24.198 -0.02 -0.01    -0.166 F  ENDBRANCH   9  15BRANCH  10  19ATOM     19  C   UNL     1      42.108  46.178  22.393 -0.24 +0.00    +0.005 A  ATOM     20  C   UNL     1      42.270  47.509  22.807 -0.28 +0.00    +0.010 A  ATOM     21  C   UNL     1      43.027  45.213  22.836 -0.15 +0.01    +0.049 A  ATOM     22  C   UNL     1      43.329  47.870  23.643 -0.29 +0.00    +0.001 A  ATOM     23  C   UNL     1      44.086  45.577  23.672 -0.10 +0.00    +0.021 A  ATOM     24  C   UNL     1      44.237  46.905  24.075 -0.13 +0.00    +0.002 A  ATOM     25  Cl  UNL     1      42.908  43.553  22.365 -0.42 -0.01    -0.084 Cl ENDBRANCH  10  19ENDBRANCH   5   6ENDBRANCH   2   5BRANCH   3  26ATOM     26  C   UNL     1      39.505  47.877  15.572 -0.50 -0.04    +0.112 C  BRANCH  26  27ATOM     27  C   UNL     1      40.389  49.006  16.139 -0.44 -0.05    +0.181 C  BRANCH  27  28ATOM     28  O   UNL     1      41.677  48.503  16.503 -0.71 -0.02    -0.394 OA ATOM     29  H   UNL     1      41.605  47.533  16.459 -0.25 -0.03    +0.210 HD ENDBRANCH  27  28ENDBRANCH  26  27BRANCH  26  30ATOM     30  C   UNL     1      38.252  48.411  14.851 -0.56 -0.04    +0.062 C  BRANCH  30  31ATOM     31  C   UNL     1      37.623  47.419  13.903 -0.48 +0.02    -0.046 A  ATOM     32  C   UNL     1      37.852  46.046  14.057 -0.43 -0.00    +0.004 A  ATOM     33  C   UNL     1      36.814  47.861  12.847 -0.60 -0.00    +0.004 A  ATOM     34  C   UNL     1      37.281  45.130  13.172 -0.47 -0.00    +0.000 A  ATOM     35  C   UNL     1      36.244  46.944  11.963 -0.69 -0.00    +0.000 A  ATOM     36  C   UNL     1      36.477  45.580  12.126 -0.59 -0.00    +0.000 A  ENDBRANCH  30  31ENDBRANCH  26  30ENDBRANCH   3  26TORSDOF 11TERENDMDL