MODEL        1USER    Run = 1USERUSER    Estimated Free Energy of Binding    =  -8.83 kcal/mol  [=(1)+(2)+(3)-(4)]USERUSER    (1) Final Intermolecular Energy     = -10.62 kcal/molUSER        vdW + Hbond + desolv Energy     = -10.51 kcal/molUSER        Electrostatic Energy            =  -0.11 kcal/molUSER        Moving Ligand-Fixed Receptor    = -10.62 kcal/molUSER        Moving Ligand-Moving Receptor   =  +0.00 kcal/molUSER    (2) Final Total Internal Energy     =  -1.54 kcal/molUSER    (3) Torsional Free Energy           =  +1.79 kcal/molUSER    (4) Unbound System's Energy         =  -1.54 kcal/molUSERUSERREMARK SMILES CCc1cc(NC(=O)Nc2cccc3ncccc23)ccc1C(=O)OOREMARK SMILES IDX 23 1 24 2 22 3 3 4 4 5 5 6 21 7 20 8 2 9 1 10 6 11 7 12 9 13REMARK SMILES IDX 8 15 10 17 11 18 19 19 12 20 18 21 14 22 13 23 17 24 15 25REMARK SMILES IDX 16 26 25 27 26 28REMARK H PARENT 6 14 9 16 26 29USER                              x       y       z     vdW  Elec       q    TypeUSER                           _______ _______ _______ _____ _____    ______ ____ROOTATOM      1  C   UNL     1      36.971  31.429  24.012 -0.25 +0.04    +0.373 C  ATOM      2  O   UNL     1      36.446  30.905  24.981 -0.38 -0.03    -0.243 OA ENDROOTBRANCH   1   3ATOM      3  C   UNL     1      37.289  30.767  22.719 -0.40 +0.00    +0.066 A  ATOM      4  C   UNL     1      36.339  29.993  22.026 -0.37 +0.00    -0.032 A  ATOM      5  C   UNL     1      36.705  29.427  20.786 -0.27 -0.01    +0.030 A  ATOM      6  C   UNL     1      37.981  29.615  20.235 -0.32 +0.00    +0.043 A  ATOM      7  C   UNL     1      38.568  30.950  22.169 -0.42 +0.00    +0.018 A  ATOM      8  C   UNL     1      38.910  30.374  20.942 -0.30 +0.00    +0.027 A  BRANCH   4   9ATOM      9  C   UNL     1      34.939  29.738  22.536 -0.51 -0.00    +0.033 C  ATOM     10  C   UNL     1      34.684  28.260  22.797 -0.43 -0.00    +0.009 C  ENDBRANCH   4   9BRANCH   6  11ATOM     11  N   UNL     1      38.249  28.997  18.997 -0.14 -0.03    -0.308 N  ATOM     12  C   UNL     1      39.038  29.488  17.964 -0.18 +0.11    +0.323 C  ATOM     13  N   UNL     1      39.175  28.521  16.977 -0.13 -0.04    -0.307 N  ATOM     14  H   UNL     1      37.667  28.207  18.759 +0.08 -0.01    +0.171 HD ATOM     15  O   UNL     1      39.538  30.603  17.936 -0.91 -0.15    -0.248 OA ATOM     16  H   UNL     1      39.012  27.582  17.291 +0.08 -0.00    +0.171 HD BRANCH  13  17ATOM     17  C   UNL     1      39.769  28.672  15.694 -0.31 -0.00    +0.052 A  ATOM     18  C   UNL     1      39.020  28.484  14.528 -0.37 -0.00    +0.027 A  ATOM     19  C   UNL     1      41.165  28.981  15.589 -0.32 -0.00    +0.024 A  ATOM     20  C   UNL     1      39.612  28.613  13.276 -0.48 -0.00    +0.004 A  ATOM     21  C   UNL     1      42.044  29.188  16.682 -0.30 +0.01    +0.014 A  ATOM     22  C   UNL     1      41.750  29.106  14.305 -0.44 -0.04    +0.072 A  ATOM     23  C   UNL     1      40.964  28.923  13.181 -0.57 -0.03    +0.029 A  ATOM     24  C   UNL     1      43.388  29.489  16.478 -0.29 +0.01    +0.021 A  ATOM     25  N   UNL     1      43.048  29.395  14.106 -0.29 +0.17    -0.256 NA ATOM     26  C   UNL     1      43.838  29.580  15.182 -0.34 -0.02    +0.112 A  ENDBRANCH  13  17ENDBRANCH   6  11ENDBRANCH   1   3BRANCH   1  27ATOM     27  O   UNL     1      37.412  32.722  23.995 -0.82 -0.05    -0.295 OA BRANCH  27  28ATOM     28  O   UNL     1      37.588  33.161  25.393 -0.78 +0.04    -0.200 OA ATOM     29  H   UNL     1      37.541  32.281  25.824 -0.33 -0.08    +0.270 HD ENDBRANCH  27  28ENDBRANCH   1  27TORSDOF 6TERENDMDL