REMARK SMILES COc1cc2c(n1CCCN1CCCC[C@H]1C)=CC(Cl)=C(c1ccc([N+](=O)[O-])cc1)C=CN=2
REMARK SMILES IDX 3 1 4 2 5 3 6 4 7 5 2 6 1 7 8 8 9 9 10 10 11 11 12 12 16 13
REMARK SMILES IDX 13 14 15 15 14 16 17 17 33 18 32 19 18 21 19 22 20 23 21 24
REMARK SMILES IDX 22 25 23 26 30 27 24 28 29 29 25 30 26 31 27 32 28 33 31 34
REMARK H PARENT
REMARK Flexibility Score:   79.900
ROOT
ATOM      1  C   UNL     1      -0.210   3.123  -0.545  1.00  0.00     0.195 A 
ATOM      2  C   UNL     1       0.899   3.445   0.147  1.00  0.00     0.097 A 
ATOM      3  C   UNL     1       1.950   2.516  -0.340  1.00  0.00     0.092 A 
ATOM      4  C   UNL     1       1.201   1.444  -1.086  1.00  0.00     0.071 A 
ATOM      5  N   UNL     1      -0.048   1.998  -1.356  1.00  0.00    -0.311 N 
ENDROOT
BRANCH   1   6
ATOM      6  O   UNL     1      -1.428   3.746  -0.516  1.00  0.00    -0.482 OA
ATOM      7  C   UNL     1      -1.543   4.877   0.339  1.00  0.00     0.280 C 
ENDBRANCH   1   6
BRANCH   5   8
ATOM      8  C   UNL     1      -1.154   1.341  -2.047  1.00  0.00     0.127 C 
BRANCH   8   9
ATOM      9  C   UNL     1      -1.988   0.487  -1.087  1.00  0.00     0.037 C 
BRANCH   9  10
ATOM     10  C   UNL     1      -3.118  -0.220  -1.846  1.00  0.00     0.086 C 
BRANCH  10  11
ATOM     11  N   UNL     1      -4.030  -1.031  -1.046  1.00  0.00    -0.301 NA
ATOM     12  C   UNL     1      -3.406  -1.973  -0.128  1.00  0.00     0.085 C 
ATOM     13  C   UNL     1      -5.251  -0.386  -0.533  1.00  0.00     0.053 C 
ATOM     14  C   UNL     1      -4.352  -3.142   0.167  1.00  0.00     0.016 C 
ATOM     15  C   UNL     1      -5.951  -1.241   0.549  1.00  0.00     0.019 C 
ATOM     16  C   UNL     1      -5.822  -2.728   0.253  1.00  0.00     0.003 C 
ATOM     17  C   UNL     1      -5.084   1.037   0.012  1.00  0.00     0.024 C 
ENDBRANCH  10  11
ENDBRANCH   9  10
ENDBRANCH   8   9
ENDBRANCH   5   8
BRANCH   3  18
ATOM     18  N   UNL     1       3.193   2.828  -0.203  1.00  0.00    -0.254 NA
BRANCH  18  19
ATOM     19  C   UNL     1       4.113   2.269  -1.044  1.00  0.00     0.112 CG0
ATOM     20  G   UNL     1       4.482   0.993  -1.187  1.00  0.00     0.000 G0
ENDBRANCH  18  19
ENDBRANCH   3  18
BRANCH   4  21
ATOM     21  C   UNL     1       1.585   0.165  -1.210  1.00  0.00     0.049 C 
BRANCH  21  22
ATOM     22  C   UNL     1       2.662  -0.501  -0.495  1.00  0.00     0.051 C 
ATOM     23  Cl  UNL     1       2.084  -1.929   0.355  1.00  0.00    -0.084 Cl
BRANCH  22  24
ATOM     24  C   UNL     1       3.967  -0.149  -0.457  1.00  0.00     0.002 C 
BRANCH  24  25
ATOM     25  C   UNL     1       4.942  -0.967   0.305  1.00  0.00    -0.016 A 
ATOM     26  C   UNL     1       5.518  -2.112  -0.265  1.00  0.00     0.016 A 
ATOM     27  C   UNL     1       5.317  -0.571   1.597  1.00  0.00     0.016 A 
ATOM     28  C   UNL     1       6.448  -2.867   0.456  1.00  0.00     0.086 A 
ATOM     29  C   UNL     1       6.246  -1.319   2.324  1.00  0.00     0.086 A 
ATOM     30  C   UNL     1       6.808  -2.467   1.750  1.00  0.00     0.269 A 
BRANCH  30  31
ATOM     31  N   UNL     1       7.785  -3.257   2.510  1.00  0.00     0.062 N 
ATOM     32  O   UNL     1       8.275  -4.253   1.958  1.00  0.00    -0.258 OA
ATOM     33  O   UNL     1       8.064  -2.882   3.657  1.00  0.00    -0.258 OA
ENDBRANCH  30  31
ENDBRANCH  24  25
BRANCH  24  34
ATOM     34  C   UNL     1       4.482   0.993  -1.187  1.00  0.00     0.030 CG0
ATOM     35  G   UNL     1       4.113   2.269  -1.044  1.00  0.00     0.000 G0
ENDBRANCH  24  34
ENDBRANCH  22  24
ENDBRANCH  21  22
ENDBRANCH   4  21
TORSDOF 7
