REMARK SMILES CCc1cc(NC(=O)Nc2cccc3ncccc23)ccc1C(=O)OO
REMARK SMILES IDX 23 1 24 2 22 3 3 4 4 5 5 6 21 7 20 8 2 9 1 10 6 11 7 12 9 13
REMARK SMILES IDX 8 15 10 17 11 18 19 19 12 20 18 21 14 22 13 23 17 24 15 25
REMARK SMILES IDX 16 26 25 27 26 28
REMARK H PARENT 6 14 9 16 26 29
ROOT
ATOM      1  C   UNL     1      -5.747  -0.255   0.671  1.00  0.00     0.373 C 
ATOM      2  O   UNL     1      -6.568   0.470   0.132  1.00  0.00    -0.243 OA
ENDROOT
BRANCH   1   3
ATOM      3  C   UNL     1      -4.273  -0.208   0.480  1.00  0.00     0.066 A 
ATOM      4  C   UNL     1      -3.694   0.130  -0.758  1.00  0.00    -0.032 A 
ATOM      5  C   UNL     1      -2.287   0.190  -0.851  1.00  0.00     0.030 A 
ATOM      6  C   UNL     1      -1.461  -0.080   0.250  1.00  0.00     0.043 A 
ATOM      7  C   UNL     1      -3.445  -0.483   1.580  1.00  0.00     0.018 A 
ATOM      8  C   UNL     1      -2.053  -0.425   1.462  1.00  0.00     0.027 A 
BRANCH   4   9
ATOM      9  C   UNL     1      -4.500   0.442  -1.999  1.00  0.00     0.033 C 
ATOM     10  C   UNL     1      -4.752   1.935  -2.159  1.00  0.00     0.009 C 
ENDBRANCH   4   9
BRANCH   6  11
ATOM     11  N   UNL     1      -0.068  -0.005   0.048  1.00  0.00    -0.308 N 
ATOM     12  C   UNL     1       0.926  -0.038   1.018  1.00  0.00     0.323 C 
ATOM     13  N   UNL     1       2.174  -0.090   0.411  1.00  0.00    -0.307 N 
ATOM     14  H   UNL     1       0.233   0.286  -0.871  1.00  0.00     0.171 HD
ATOM     15  O   UNL     1       0.727  -0.029   2.224  1.00  0.00    -0.248 OA
ATOM     16  H   UNL     1       2.162  -0.435  -0.532  1.00  0.00     0.171 HD
BRANCH  13  17
ATOM     17  C   UNL     1       3.446   0.018   1.036  1.00  0.00     0.052 A 
ATOM     18  C   UNL     1       3.567   0.505   2.342  1.00  0.00     0.027 A 
ATOM     19  C   UNL     1       4.628  -0.338   0.308  1.00  0.00     0.024 A 
ATOM     20  C   UNL     1       4.816   0.627   2.940  1.00  0.00     0.004 A 
ATOM     21  C   UNL     1       4.656  -0.834  -1.020  1.00  0.00     0.014 A 
ATOM     22  C   UNL     1       5.892  -0.204   0.934  1.00  0.00     0.072 A 
ATOM     23  C   UNL     1       5.958   0.271   2.232  1.00  0.00     0.029 A 
ATOM     24  C   UNL     1       5.858  -1.157  -1.643  1.00  0.00     0.021 A 
ATOM     25  N   UNL     1       7.054  -0.514   0.334  1.00  0.00    -0.256 NA
ATOM     26  C   UNL     1       7.021  -0.980  -0.930  1.00  0.00     0.112 A 
ENDBRANCH  13  17
ENDBRANCH   6  11
ENDBRANCH   1   3
BRANCH   1  27
ATOM     27  O   UNL     1      -6.076  -1.286   1.504  1.00  0.00    -0.295 OA
BRANCH  27  28
ATOM     28  O   UNL     1      -7.524  -1.204   1.779  1.00  0.00    -0.200 OA
ATOM     29  H   UNL     1      -7.798  -0.745   0.957  1.00  0.00     0.270 HD
ENDBRANCH  27  28
ENDBRANCH   1  27
TORSDOF 6
