REMARK SMILES CC(C)c1cccc([C@H](CN)CNC2=CCc3cc(Cl)ccc3C2)c1ON
REMARK SMILES IDX 9 1 8 2 4 3 5 4 25 5 6 6 7 7 2 8 1 9 3 10 26 11 27 12 10 15
REMARK SMILES IDX 11 16 12 19 13 20 14 22 15 23 24 24 16 25 23 26 17 27 22 28
REMARK SMILES IDX 18 29 21 30 19 31 20 32
REMARK H PARENT 27 13 27 14 11 17 11 18 13 21
ROOT
ATOM      1  C   UNL     1      -0.880  -2.315  -0.054  1.00  0.00     0.056 C 
ENDROOT
BRANCH   1   2
ATOM      2  C   UNL     1      -2.028  -1.484  -0.634  1.00  0.00     0.003 A 
ATOM      3  C   UNL     1      -3.528   0.472  -0.721  1.00  0.00    -0.000 A 
ATOM      4  C   UNL     1      -4.052  -0.011  -1.933  1.00  0.00     0.008 A 
ATOM      5  C   UNL     1      -2.545  -0.302  -0.058  1.00  0.00     0.153 A 
ATOM      6  C   UNL     1      -3.583  -1.194  -2.494  1.00  0.00     0.001 A 
ATOM      7  C   UNL     1      -2.573  -1.912  -1.860  1.00  0.00     0.008 A 
BRANCH   3   8
ATOM      8  C   UNL     1      -4.013   1.808  -0.172  1.00  0.00     0.017 C 
ATOM      9  C   UNL     1      -3.827   2.948  -1.182  1.00  0.00     0.012 C 
ATOM     10  C   UNL     1      -5.473   1.724   0.282  1.00  0.00     0.012 C 
ENDBRANCH   3   8
BRANCH   5  11
ATOM     11  O   UNL     1      -2.006   0.158   1.125  1.00  0.00    -0.411 OA
BRANCH  11  12
ATOM     12  N   UNL     1      -2.952  -0.121   2.205  1.00  0.00    -0.170 NA
ATOM     13  H   UNL     1      -3.120   0.822   2.555  1.00  0.00     0.164 HD
ATOM     14  H   UNL     1      -2.331  -0.554   2.888  1.00  0.00     0.164 HD
ENDBRANCH  11  12
ENDBRANCH   5  11
ENDBRANCH   1   2
BRANCH   1  15
ATOM     15  C   UNL     1      -0.977  -2.625   1.455  1.00  0.00     0.088 C 
BRANCH  15  16
ATOM     16  N   UNL     1      -0.200  -3.815   1.832  1.00  0.00    -0.330 NA
ATOM     17  H   UNL     1      -0.644  -4.644   1.435  1.00  0.00     0.118 HD
ATOM     18  H   UNL     1      -0.254  -3.932   2.844  1.00  0.00     0.118 HD
ENDBRANCH  15  16
ENDBRANCH   1  15
BRANCH   1  19
ATOM     19  C   UNL     1       0.512  -1.774  -0.461  1.00  0.00     0.122 C 
BRANCH  19  20
ATOM     20  N   UNL     1       0.783  -0.430   0.051  1.00  0.00    -0.388 N 
ATOM     21  H   UNL     1       0.017   0.222  -0.105  1.00  0.00     0.160 HD
BRANCH  20  22
ATOM     22  C   UNL     1       2.027   0.192   0.070  1.00  0.00     0.011 C 
ATOM     23  C   UNL     1       2.120   1.530   0.147  1.00  0.00    -0.001 C 
ATOM     24  C   UNL     1       3.277  -0.673   0.025  1.00  0.00     0.088 C 
ATOM     25  C   UNL     1       3.404   2.301   0.186  1.00  0.00     0.065 C 
ATOM     26  C   UNL     1       4.598   0.063   0.094  1.00  0.00    -0.039 A 
ATOM     27  C   UNL     1       4.657   1.464   0.166  1.00  0.00    -0.039 A 
ATOM     28  C   UNL     1       5.792  -0.679   0.082  1.00  0.00     0.006 A 
ATOM     29  C   UNL     1       5.907   2.101   0.221  1.00  0.00     0.024 A 
ATOM     30  C   UNL     1       7.029  -0.038   0.139  1.00  0.00     0.021 A 
ATOM     31  C   UNL     1       7.082   1.350   0.208  1.00  0.00     0.041 A 
ATOM     32  Cl  UNL     1       8.606   2.147   0.277  1.00  0.00    -0.084 Cl
ENDBRANCH  20  22
ENDBRANCH  19  20
ENDBRANCH   1  19
TORSDOF 9
