REMARK SMILES COCCNCCc1ccc(OC)c(O)c1C(=O)Cc1ccccc1C=O
REMARK SMILES IDX 7 1 6 2 5 3 4 5 3 6 2 7 1 8 8 9 9 10 16 11 10 12 14 13 11 14
REMARK SMILES IDX 17 15 18 16 19 17 20 18 21 19 25 20 22 21 24 22 23 23 26 24
REMARK SMILES IDX 27 25 15 26 12 28 13 29
REMARK H PARENT 5 4 15 27
ROOT
ATOM      1  C   UNL     1       0.717  -0.829   0.501  1.00  0.00     0.051 C 
ENDROOT
BRANCH   1   2
ATOM      2  C   UNL     1       1.558  -1.177  -0.739  1.00  0.00     0.086 C 
BRANCH   2   3
ATOM      3  N   UNL     1       2.980  -0.866  -0.536  1.00  0.00    -0.314 NA
ATOM      4  H   UNL     1       3.353  -1.404   0.249  1.00  0.00     0.122 HD
BRANCH   3   5
ATOM      5  C   UNL     1       3.771  -1.185  -1.731  1.00  0.00     0.109 C 
BRANCH   5   6
ATOM      6  C   UNL     1       5.274  -1.074  -1.423  1.00  0.00     0.175 C 
BRANCH   6   7
ATOM      7  O   UNL     1       5.675  -1.936  -0.350  1.00  0.00    -0.383 OA
ATOM      8  C   UNL     1       5.834  -3.291  -0.751  1.00  0.00     0.194 C 
ENDBRANCH   6   7
ENDBRANCH   5   6
ENDBRANCH   3   5
ENDBRANCH   2   3
ENDBRANCH   1   2
BRANCH   1   9
ATOM      9  C   UNL     1       0.448   0.654   0.655  1.00  0.00    -0.032 A 
ATOM     10  C   UNL     1       1.414   1.436   1.318  1.00  0.00     0.008 A 
ATOM     11  C   UNL     1      -0.719   1.284   0.173  1.00  0.00     0.067 A 
ATOM     12  C   UNL     1       1.235   2.809   1.511  1.00  0.00     0.051 A 
ATOM     13  C   UNL     1      -0.881   2.663   0.365  1.00  0.00     0.168 A 
ATOM     14  C   UNL     1       0.086   3.430   1.035  1.00  0.00     0.161 A 
BRANCH  11  15
ATOM     15  C   UNL     1      -1.763   0.505  -0.555  1.00  0.00     0.171 C 
ATOM     16  O   UNL     1      -1.420  -0.282  -1.439  1.00  0.00    -0.294 OA
BRANCH  15  17
ATOM     17  C   UNL     1      -3.220   0.736  -0.179  1.00  0.00     0.117 C 
BRANCH  17  18
ATOM     18  C   UNL     1      -4.095  -0.487  -0.384  1.00  0.00    -0.030 A 
ATOM     19  C   UNL     1      -4.986  -0.491  -1.475  1.00  0.00     0.005 A 
ATOM     20  C   UNL     1      -4.047  -1.627   0.441  1.00  0.00     0.018 A 
ATOM     21  C   UNL     1      -5.808  -1.588  -1.733  1.00  0.00     0.000 A 
ATOM     22  C   UNL     1      -4.873  -2.730   0.171  1.00  0.00     0.012 A 
ATOM     23  C   UNL     1      -5.753  -2.708  -0.911  1.00  0.00     0.001 A 
BRANCH  20  24
ATOM     24  C   UNL     1      -3.155  -1.753   1.623  1.00  0.00     0.260 C 
ATOM     25  O   UNL     1      -2.477  -0.839   2.073  1.00  0.00    -0.298 OA
ENDBRANCH  20  24
ENDBRANCH  17  18
ENDBRANCH  15  17
ENDBRANCH  11  15
BRANCH  13  26
ATOM     26  O   UNL     1      -1.984   3.321  -0.127  1.00  0.00    -0.504 OA
ATOM     27  H   UNL     1      -1.852   4.257   0.122  1.00  0.00     0.293 HD
ENDBRANCH  13  26
BRANCH  14  28
ATOM     28  O   UNL     1      -0.215   4.767   1.148  1.00  0.00    -0.493 OA
ATOM     29  C   UNL     1       0.742   5.581   1.820  1.00  0.00     0.278 C 
ENDBRANCH  14  28
ENDBRANCH   1   9
TORSDOF 12
