MODEL        10USER    Run = 10USERUSER    Estimated Free Energy of Binding    =  -7.01 kcal/mol  [=(1)+(2)+(3)-(4)]USERUSER    (1) Final Intermolecular Energy     = -10.59 kcal/molUSER        vdW + Hbond + desolv Energy     = -10.43 kcal/molUSER        Electrostatic Energy            =  -0.16 kcal/molUSER        Moving Ligand-Fixed Receptor    = -10.59 kcal/molUSER        Moving Ligand-Moving Receptor   =  +0.00 kcal/molUSER    (2) Final Total Internal Energy     =  -3.78 kcal/molUSER    (3) Torsional Free Energy           =  +3.58 kcal/molUSER    (4) Unbound System's Energy         =  -3.78 kcal/molUSERUSERREMARK SMILES COCCNCCc1ccc(OC)c(O)c1C(=O)Cc1ccccc1C=OREMARK SMILES IDX 7 1 6 2 5 3 4 5 3 6 2 7 1 8 8 9 9 10 16 11 10 12 14 13 11 14REMARK SMILES IDX 17 15 18 16 19 17 20 18 21 19 25 20 22 21 24 22 23 23 26 24REMARK SMILES IDX 27 25 15 26 12 28 13 29REMARK H PARENT 5 4 15 27USER                              x       y       z     vdW  Elec       q    TypeUSER                           _______ _______ _______ _____ _____    ______ ____ROOTATOM      1  C   UNL     1      37.846  45.902  15.696 -0.40 -0.02    +0.051 C  ENDROOTBRANCH   1   2ATOM      2  C   UNL     1      36.737  46.166  16.729 -0.37 -0.05    +0.086 C  BRANCH   2   3ATOM      3  N   UNL     1      36.581  45.038  17.659 -0.13 +0.11    -0.314 NA ATOM      4  H   UNL     1      37.345  45.030  18.338 +0.07 -0.03    +0.122 HD BRANCH   3   5ATOM      5  C   UNL     1      35.312  45.123  18.392 -0.35 -0.04    +0.109 C  BRANCH   5   6ATOM      6  C   UNL     1      35.420  44.383  19.736 -0.32 -0.03    +0.175 C  BRANCH   6   7ATOM      7  O   UNL     1      36.759  44.376  20.248 -0.21 +0.02    -0.383 OA ATOM      8  C   UNL     1      37.014  43.292  21.132 -0.34 +0.00    +0.194 C  ENDBRANCH   6   7ENDBRANCH   5   6ENDBRANCH   3   5ENDBRANCH   2   3ENDBRANCH   1   2BRANCH   1   9ATOM      9  C   UNL     1      38.904  46.985  15.653 -0.43 +0.01    -0.032 A  ATOM     10  C   UNL     1      38.937  47.834  14.530 -0.50 -0.00    +0.008 A  ATOM     11  C   UNL     1      39.857  47.179  16.676 -0.44 -0.02    +0.067 A  ATOM     12  C   UNL     1      39.890  48.850  14.409 -0.38 -0.02    +0.051 A  ATOM     13  C   UNL     1      40.801  48.207  16.546 -0.41 -0.03    +0.168 A  ATOM     14  C   UNL     1      40.827  49.041  15.417 -0.49 -0.03    +0.161 A  BRANCH  11  15ATOM     15  C   UNL     1      39.852  46.320  17.897 -0.40 -0.02    +0.171 C  ATOM     16  O   UNL     1      38.842  46.279  18.600 -0.26 +0.05    -0.294 OA BRANCH  15  17ATOM     17  C   UNL     1      41.118  45.542  18.228 -0.44 +0.00    +0.117 C  BRANCH  17  18ATOM     18  C   UNL     1      41.336  45.355  19.719 -0.39 -0.00    -0.030 A  ATOM     19  C   UNL     1      40.685  44.279  20.355 -0.32 +0.00    +0.005 A  ATOM     20  C   UNL     1      42.171  46.181  20.494 -0.36 +0.00    +0.018 A  ATOM     21  C   UNL     1      40.853  44.038  21.718 -0.30 +0.00    +0.000 A  ATOM     22  C   UNL     1      42.340  45.928  21.865 -0.27 +0.00    +0.012 A  ATOM     23  C   UNL     1      41.679  44.861  22.475 -0.21 +0.00    +0.001 A  BRANCH  20  24ATOM     24  C   UNL     1      42.913  47.347  19.950 -0.32 +0.05    +0.260 C  ATOM     25  O   UNL     1      43.581  47.319  18.924 -0.41 -0.09    -0.298 OA ENDBRANCH  20  24ENDBRANCH  17  18ENDBRANCH  15  17ENDBRANCH  11  15BRANCH  13  26ATOM     26  O   UNL     1      41.718  48.454  17.541 -0.55 -0.01    -0.504 OA ATOM     27  H   UNL     1      42.562  48.098  17.201 -0.31 +0.01    +0.293 HD ENDBRANCH  13  26BRANCH  14  28ATOM     28  O   UNL     1      41.812  50.001  15.433 -0.71 +0.02    -0.493 OA ATOM     29  C   UNL     1      42.322  50.411  14.167 -0.48 -0.06    +0.278 C  ENDBRANCH  14  28ENDBRANCH   1   9TORSDOF 12TERENDMDL