REMARK SMILES C[C@@H]1C[C@H](NC(=O)Nc2cccc(Cl)c2)CN1c1nc(C(=O)O)c2ncncc2n1
REMARK SMILES IDX 18 1 19 2 20 3 24 4 25 5 26 6 27 7 28 8 29 9 30 10 17 11
REMARK SMILES IDX 2 12 3 13 4 14 16 15 1 16 5 17 6 18 8 19 7 21 9 23 10 24
REMARK SMILES IDX 15 25 11 26 13 27 12 28 14 29 21 30 22 31 23 32
REMARK H PARENT 5 20 8 22 23 33
ROOT
ATOM      1  C   UNL     1      -2.617   0.242  -0.574  1.00  0.00     0.227 A 
ATOM      2  N   UNL     1      -2.699  -0.717   0.342  1.00  0.00    -0.203 NA
ATOM      3  C   UNL     1      -3.881  -0.865   1.005  1.00  0.00     0.180 A 
ATOM      4  C   UNL     1      -5.018  -0.097   0.806  1.00  0.00     0.125 A 
ATOM      5  N   UNL     1      -6.208  -0.215   1.464  1.00  0.00    -0.232 NA
ATOM      6  C   UNL     1      -7.193   0.624   1.126  1.00  0.00     0.222 A 
ATOM      7  N   UNL     1      -7.101   1.575   0.197  1.00  0.00    -0.243 NA
ATOM      8  C   UNL     1      -5.901   1.658  -0.422  1.00  0.00     0.143 A 
ATOM      9  C   UNL     1      -4.805   0.858  -0.173  1.00  0.00     0.114 A 
ATOM     10  N   UNL     1      -3.653   1.036  -0.852  1.00  0.00    -0.209 NA
ENDROOT
BRANCH   1  11
ATOM     11  N   UNL     1      -1.440   0.389  -1.274  1.00  0.00    -0.336 N 
ATOM     12  C   UNL     1      -1.240   1.550  -2.143  1.00  0.00     0.084 C 
ATOM     13  C   UNL     1       0.280   1.567  -2.350  1.00  0.00     0.051 C 
ATOM     14  C   UNL     1       0.811   1.124  -0.993  1.00  0.00     0.105 C 
ATOM     15  C   UNL     1      -0.209   0.054  -0.544  1.00  0.00     0.145 C 
ATOM     16  C   UNL     1      -1.958   1.404  -3.479  1.00  0.00     0.031 C 
BRANCH  14  17
ATOM     17  N   UNL     1       2.184   0.651  -1.069  1.00  0.00    -0.333 N 
ATOM     18  C   UNL     1       2.874   0.403   0.104  1.00  0.00     0.319 C 
ATOM     19  N   UNL     1       4.129  -0.093  -0.169  1.00  0.00    -0.308 N 
ATOM     20  H   UNL     1       2.387  -0.001  -1.813  1.00  0.00     0.165 HD
ATOM     21  O   UNL     1       2.391   0.624   1.205  1.00  0.00    -0.248 OA
ATOM     22  H   UNL     1       4.439   0.030  -1.121  1.00  0.00     0.171 HD
BRANCH  19  23
ATOM     23  C   UNL     1       5.089  -0.550   0.756  1.00  0.00     0.044 A 
ATOM     24  C   UNL     1       6.365  -0.850   0.257  1.00  0.00     0.026 A 
ATOM     25  C   UNL     1       4.832  -0.736   2.116  1.00  0.00     0.046 A 
ATOM     26  C   UNL     1       7.372  -1.317   1.106  1.00  0.00     0.004 A 
ATOM     27  C   UNL     1       5.842  -1.204   2.960  1.00  0.00     0.043 A 
ATOM     28  C   UNL     1       7.110  -1.494   2.462  1.00  0.00     0.020 A 
ATOM     29  Cl  UNL     1       5.519  -1.432   4.636  1.00  0.00    -0.084 Cl
ENDBRANCH  19  23
ENDBRANCH  14  17
ENDBRANCH   1  11
BRANCH   3  30
ATOM     30  C   UNL     1      -3.907  -1.967   2.018  1.00  0.00     0.356 C 
ATOM     31  O   UNL     1      -4.870  -2.457   2.578  1.00  0.00    -0.244 OA
BRANCH  30  32
ATOM     32  O   UNL     1      -2.667  -2.431   2.298  1.00  0.00    -0.476 OA
ATOM     33  H   UNL     1      -2.817  -3.138   2.958  1.00  0.00     0.297 HD
ENDBRANCH  30  32
ENDBRANCH   3  30
TORSDOF 5
