MODEL        6USER    Run = 6USERUSER    Estimated Free Energy of Binding    =  -8.69 kcal/mol  [=(1)+(2)+(3)-(4)]USERUSER    (1) Final Intermolecular Energy     = -11.37 kcal/molUSER        vdW + Hbond + desolv Energy     = -11.06 kcal/molUSER        Electrostatic Energy            =  -0.31 kcal/molUSER        Moving Ligand-Fixed Receptor    = -11.37 kcal/molUSER        Moving Ligand-Moving Receptor   =  +0.00 kcal/molUSER    (2) Final Total Internal Energy     =  -1.30 kcal/molUSER    (3) Torsional Free Energy           =  +2.68 kcal/molUSER    (4) Unbound System's Energy         =  -1.30 kcal/molUSERUSERREMARK SMILES C=CC(Cl)=C(C=CC=CNC=O)c1ccnc(C2CC2)c1REMARK SMILES IDX 6 1 5 2 3 3 4 4 2 5 1 6 13 7 14 8 21 9 15 10 17 11 16 12REMARK SMILES IDX 18 13 19 14 20 15 7 16 8 17 9 18 10 19 11 20 12 22REMARK H PARENT 10 21USER                              x       y       z     vdW  Elec       q    TypeUSER                           _______ _______ _______ _____ _____    ______ ____ROOTATOM      1  C   UNL     1      33.569  45.869  14.758 -0.22 -0.01    +0.010 C  ENDROOTBRANCH   1   2ATOM      2  C   UNL     1      35.019  45.709  14.988 -0.43 -0.00    +0.000 C  BRANCH   2   3ATOM      3  C   UNL     1      35.530  44.971  16.017 -0.36 -0.03    +0.048 C  ATOM      4  Cl  UNL     1      36.131  43.342  15.727 -0.60 +0.03    -0.084 Cl BRANCH   3   5ATOM      5  C   UNL     1      35.629  45.433  17.409 -0.40 -0.01    +0.013 C  ATOM      6  C   UNL     1      34.692  46.057  18.137 -0.51 -0.01    +0.010 C  ENDBRANCH   3   5ENDBRANCH   2   3BRANCH   2   7ATOM      7  C   UNL     1      35.977  46.378  14.063 -0.45 +0.01    -0.014 A  ATOM      8  C   UNL     1      35.803  46.291  12.684 -0.56 -0.02    +0.029 A  ATOM      9  C   UNL     1      37.077  47.077  14.570 -0.42 -0.02    +0.033 A  ATOM     10  C   UNL     1      36.730  46.922  11.878 -0.58 -0.04    +0.112 A  ATOM     11  C   UNL     1      37.968  47.695  13.692 -0.49 -0.01    +0.044 A  ATOM     12  N   UNL     1      37.790  47.614  12.350 -0.83 +0.01    -0.261 NA BRANCH  11  13ATOM     13  C   UNL     1      39.164  48.453  14.216 -0.51 -0.01    +0.038 C  ATOM     14  C   UNL     1      40.169  47.764  15.112 -0.59 -0.00    +0.010 C  ATOM     15  C   UNL     1      39.251  48.802  15.685 -0.58 -0.01    +0.010 C  ENDBRANCH  11  13ENDBRANCH   2   7ENDBRANCH   1   2BRANCH   1  16ATOM     16  C   UNL     1      32.592  45.244  15.439 -0.43 -0.00    +0.002 C  BRANCH  16  17ATOM     17  C   UNL     1      31.190  45.376  15.098 -0.51 -0.01    +0.018 C  BRANCH  17  18ATOM     18  C   UNL     1      30.739  46.301  14.242 -0.56 -0.05    +0.085 C  BRANCH  18  19ATOM     19  N   UNL     1      29.691  46.061  13.392 -0.21 +0.31    -0.335 N  ATOM     20  C   UNL     1      29.593  46.615  12.136 -0.35 -0.23    +0.341 C  ATOM     21  H   UNL     1      28.946  45.445  13.696 -0.44 -0.28    +0.169 HD ATOM     22  O   UNL     1      30.391  47.374  11.605 -1.03 +0.06    -0.279 OA ENDBRANCH  18  19ENDBRANCH  17  18ENDBRANCH  16  17ENDBRANCH   1  16TORSDOF 9TERENDMDL