REMARK SMILES C=CC(Cl)=C(C=CC=CNC=O)c1ccnc(C2CC2)c1
REMARK SMILES IDX 6 1 5 2 3 3 4 4 2 5 1 6 13 7 14 8 21 9 15 10 17 11 16 12
REMARK SMILES IDX 18 13 19 14 20 15 7 16 8 17 9 18 10 19 11 20 12 22
REMARK H PARENT 10 21
ROOT
ATOM      1  C   UNL     1       1.901   0.833  -0.621  1.00  0.00     0.010 C 
ENDROOT
BRANCH   1   2
ATOM      2  C   UNL     1       0.610   1.534  -0.469  1.00  0.00     0.000 C 
BRANCH   2   3
ATOM      3  C   UNL     1       0.326   2.710  -1.101  1.00  0.00     0.048 C 
ATOM      4  Cl  UNL     1       1.520   3.461  -2.154  1.00  0.00    -0.084 Cl
BRANCH   3   5
ATOM      5  C   UNL     1      -0.943   3.441  -0.978  1.00  0.00     0.013 C 
ATOM      6  C   UNL     1      -1.288   4.595  -1.567  1.00  0.00     0.010 C 
ENDBRANCH   3   5
ENDBRANCH   2   3
BRANCH   2   7
ATOM      7  C   UNL     1      -0.436   0.941   0.411  1.00  0.00    -0.014 A 
ATOM      8  C   UNL     1      -0.475   1.250   1.768  1.00  0.00     0.029 A 
ATOM      9  C   UNL     1      -1.374   0.045  -0.112  1.00  0.00     0.033 A 
ATOM     10  C   UNL     1      -1.460   0.660   2.534  1.00  0.00     0.112 A 
ATOM     11  C   UNL     1      -2.345  -0.506   0.724  1.00  0.00     0.044 A 
ATOM     12  N   UNL     1      -2.383  -0.196   2.044  1.00  0.00    -0.261 NA
BRANCH  11  13
ATOM     13  C   UNL     1      -3.366  -1.478   0.182  1.00  0.00     0.038 C 
ATOM     14  C   UNL     1      -4.367  -1.029  -0.859  1.00  0.00     0.010 C 
ATOM     15  C   UNL     1      -4.826  -1.315   0.539  1.00  0.00     0.010 C 
ENDBRANCH  11  13
ENDBRANCH   2   7
ENDBRANCH   1   2
BRANCH   1  16
ATOM     16  C   UNL     1       2.236  -0.332  -0.038  1.00  0.00     0.002 C 
BRANCH  16  17
ATOM     17  C   UNL     1       3.524  -0.965  -0.233  1.00  0.00     0.018 C 
BRANCH  17  18
ATOM     18  C   UNL     1       3.854  -2.125   0.348  1.00  0.00     0.085 C 
BRANCH  18  19
ATOM     19  N   UNL     1       5.077  -2.716   0.157  1.00  0.00    -0.335 N 
ATOM     20  C   UNL     1       5.441  -3.907   0.743  1.00  0.00     0.341 C 
ATOM     21  H   UNL     1       5.752  -2.259  -0.444  1.00  0.00     0.169 HD
ATOM     22  O   UNL     1       4.761  -4.594   1.492  1.00  0.00    -0.279 OA
ENDBRANCH  18  19
ENDBRANCH  17  18
ENDBRANCH  16  17
ENDBRANCH   1  16
TORSDOF 9
