MODEL        9USER    Run = 9USERUSER    Estimated Free Energy of Binding    = -10.81 kcal/mol  [=(1)+(2)+(3)-(4)]USERUSER    (1) Final Intermolecular Energy     = -12.60 kcal/molUSER        vdW + Hbond + desolv Energy     = -12.50 kcal/molUSER        Electrostatic Energy            =  -0.10 kcal/molUSER        Moving Ligand-Fixed Receptor    = -12.60 kcal/molUSER        Moving Ligand-Moving Receptor   =  +0.00 kcal/molUSER    (2) Final Total Internal Energy     =  -1.13 kcal/molUSER    (3) Torsional Free Energy           =  +1.79 kcal/molUSER    (4) Unbound System's Energy         =  -1.13 kcal/molUSERUSERREMARK SMILES CN1CCN(c2cc(N)c3cc(NC(=O)N[C@H](C(N)=O)c4cc5ccccc5s4)ccc3n2)CC1REMARK SMILES IDX 13 1 14 2 15 3 16 4 12 7 6 8 7 9 33 10 8 11 32 12 10 13REMARK SMILES IDX 31 14 11 15 30 16 5 17 2 18 3 19 35 20 4 21 34 22 1 23 9 24REMARK SMILES IDX 17 27 18 28 19 29 20 30 21 33 22 34 29 35 23 36 28 37 24 38REMARK SMILES IDX 27 39 25 40 26 41REMARK H PARENT 13 5 16 6 9 25 9 26 19 31 19 32USER                              x       y       z     vdW  Elec       q    TypeUSER                           _______ _______ _______ _____ _____    ______ ____ROOTATOM      1  N   UNL     1      36.352  42.381  22.807 -0.22 -0.03    -0.308 N  ATOM      2  C   UNL     1      37.041  42.367  24.000 -0.25 +0.02    +0.320 C  ATOM      3  O   UNL     1      38.187  42.750  24.182 -0.21 -0.02    -0.248 OA ATOM      4  N   UNL     1      36.274  41.810  24.997 -0.22 +0.04    -0.321 N  ATOM      5  H   UNL     1      35.580  41.734  22.747 +0.10 +0.01    +0.171 HD ATOM      6  H   UNL     1      35.275  41.909  24.885 +0.16 -0.00    +0.166 HD ENDROOTBRANCH   1   7ATOM      7  C   UNL     1      36.722  43.046  21.622 -0.40 +0.00    +0.043 A  ATOM      8  C   UNL     1      37.011  44.756  16.887 -0.25 -0.04    +0.131 A  ATOM      9  C   UNL     1      36.128  43.686  16.815 -0.32 -0.02    +0.073 A  ATOM     10  N   UNL     1      37.579  45.064  18.070 -0.22 +0.05    -0.231 NA ATOM     11  C   UNL     1      35.742  42.995  17.969 -0.28 -0.01    +0.045 A  ATOM     12  C   UNL     1      37.273  44.378  19.182 -0.31 -0.01    +0.075 A  ATOM     13  C   UNL     1      36.345  43.322  19.201 -0.31 -0.00    +0.025 A  ATOM     14  C   UNL     1      37.915  44.726  20.361 -0.31 -0.00    +0.031 A  ATOM     15  C   UNL     1      36.080  42.666  20.432 -0.44 -0.00    +0.038 A  ATOM     16  C   UNL     1      37.654  44.074  21.574 -0.36 +0.00    +0.028 A  BRANCH   8  17ATOM     17  N   UNL     1      37.354  45.529  15.798 -0.11 +0.14    -0.354 N  ATOM     18  N   UNL     1      37.229  47.060  13.228 -0.38 +0.11    -0.303 NA ATOM     19  C   UNL     1      37.380  47.695  14.553 -0.49 -0.06    +0.105 C  ATOM     20  C   UNL     1      37.345  45.585  13.323 -0.45 -0.04    +0.105 C  ATOM     21  C   UNL     1      36.817  46.899  15.751 -0.36 -0.10    +0.133 C  ATOM     22  C   UNL     1      38.043  45.048  14.598 -0.20 -0.04    +0.133 C  ATOM     23  C   UNL     1      35.956  47.420  12.599 -0.62 -0.06    +0.105 C  ENDBRANCH   8  17BRANCH  11  24ATOM     24  N   UNL     1      34.901  41.871  17.797 -0.15 +0.14    -0.398 N  ATOM     25  H   UNL     1      33.923  42.140  17.884 +0.10 -0.05    +0.156 HD ATOM     26  H   UNL     1      35.052  41.378  16.927 -0.46 -0.10    +0.156 HD ENDBRANCH  11  24ENDBRANCH   1   7BRANCH   4  27ATOM     27  C   UNL     1      36.744  41.833  26.388 -0.34 -0.04    +0.213 C  BRANCH  27  28ATOM     28  C   UNL     1      35.911  40.859  27.255 -0.42 -0.10    +0.245 C  ATOM     29  N   UNL     1      34.889  40.200  26.608 -0.22 +0.23    -0.368 N  ATOM     30  O   UNL     1      36.142  40.595  28.432 -0.49 +0.13    -0.273 OA ATOM     31  H   UNL     1      34.498  39.426  27.131 -0.34 -0.14    +0.159 HD ATOM     32  H   UNL     1      34.978  40.074  25.606 -0.44 -0.12    +0.159 HD ENDBRANCH  27  28BRANCH  27  33ATOM     33  C   UNL     1      36.606  43.247  26.890 -0.37 -0.01    +0.038 A  ATOM     34  C   UNL     1      37.378  44.358  26.606 -0.30 -0.00    +0.027 A  ATOM     35  S   UNL     1      35.365  43.631  28.001 -0.64 +0.04    -0.138 S  ATOM     36  C   UNL     1      36.943  45.543  27.285 -0.36 +0.00    -0.007 A  ATOM     37  C   UNL     1      35.831  45.284  28.087 -0.33 -0.01    +0.035 A  ATOM     38  C   UNL     1      37.451  46.864  27.251 -0.31 -0.00    +0.009 A  ATOM     39  C   UNL     1      35.213  46.297  28.843 -0.34 -0.00    +0.019 A  ATOM     40  C   UNL     1      36.827  47.879  27.987 -0.27 -0.00    +0.001 A  ATOM     41  C   UNL     1      35.724  47.596  28.779 -0.38 -0.00    +0.001 A  ENDBRANCH  27  33ENDBRANCH   4  27TORSDOF 6TERENDMDL