MODEL        10USER    Run = 10USERUSER    Estimated Free Energy of Binding    = -10.55 kcal/mol  [=(1)+(2)+(3)-(4)]USERUSER    (1) Final Intermolecular Energy     = -12.04 kcal/molUSER        vdW + Hbond + desolv Energy     = -11.84 kcal/molUSER        Electrostatic Energy            =  -0.19 kcal/molUSER        Moving Ligand-Fixed Receptor    = -12.04 kcal/molUSER        Moving Ligand-Moving Receptor   =  +0.00 kcal/molUSER    (2) Final Total Internal Energy     =  -1.39 kcal/molUSER    (3) Torsional Free Energy           =  +1.49 kcal/molUSER    (4) Unbound System's Energy         =  -1.39 kcal/molUSERUSERREMARK SMILES C[C@@H]1C[C@H](NC(=O)Nc2cccc(Cl)c2)CN1c1nc(C(=O)O)c2ncncc2n1REMARK SMILES IDX 18 1 19 2 20 3 24 4 25 5 26 6 27 7 28 8 29 9 30 10 17 11REMARK SMILES IDX 2 12 3 13 4 14 16 15 1 16 5 17 6 18 8 19 7 21 9 23 10 24REMARK SMILES IDX 15 25 11 26 13 27 12 28 14 29 21 30 22 31 23 32REMARK H PARENT 5 20 8 22 23 33USER                              x       y       z     vdW  Elec       q    TypeUSER                           _______ _______ _______ _____ _____    ______ ____ROOTATOM      1  C   UNL     1      38.235  45.767  16.573 -0.22 -0.07    +0.227 A  ATOM      2  N   UNL     1      37.734  46.146  15.402 -0.22 +0.08    -0.203 NA ATOM      3  C   UNL     1      38.317  47.205  14.773 -0.32 -0.07    +0.180 A  ATOM      4  C   UNL     1      39.399  47.930  15.249 -0.43 -0.04    +0.125 A  ATOM      5  N   UNL     1      39.992  49.001  14.647 -0.33 +0.09    -0.232 NA ATOM      6  C   UNL     1      41.032  49.568  15.268 -0.47 -0.05    +0.222 A  ATOM      7  N   UNL     1      41.532  49.172  16.438 -0.95 -0.02    -0.243 NA ATOM      8  C   UNL     1      40.906  48.112  16.999 -0.40 -0.02    +0.143 A  ATOM      9  C   UNL     1      39.828  47.434  16.468 -0.42 -0.03    +0.114 A  ATOM     10  N   UNL     1      39.280  46.390  17.123 -0.29 +0.05    -0.209 NA ENDROOTBRANCH   1  11ATOM     11  N   UNL     1      37.677  44.682  17.211 -0.13 +0.09    -0.336 N  ATOM     12  C   UNL     1      37.330  44.760  18.631 -0.36 -0.01    +0.084 C  ATOM     13  C   UNL     1      36.368  43.580  18.816 -0.34 -0.01    +0.051 C  ATOM     14  C   UNL     1      35.588  43.571  17.508 -0.32 -0.03    +0.105 C  ATOM     15  C   UNL     1      36.655  43.944  16.455 -0.32 -0.05    +0.145 C  ATOM     16  C   UNL     1      38.547  44.603  19.535 -0.40 -0.00    +0.031 C  BRANCH  14  17ATOM     17  N   UNL     1      34.929  42.296  17.271 -0.22 +0.13    -0.333 N  ATOM     18  C   UNL     1      33.777  41.996  17.975 -0.24 -0.09    +0.319 C  ATOM     19  N   UNL     1      33.268  40.781  17.573 -0.19 +0.13    -0.308 N  ATOM     20  H   UNL     1      34.925  41.971  16.315 -0.06 -0.08    +0.165 HD ATOM     21  O   UNL     1      33.324  42.738  18.834 -0.28 +0.03    -0.248 OA ATOM     22  H   UNL     1      33.905  40.205  17.043 -0.44 -0.15    +0.171 HD BRANCH  19  23ATOM     23  C   UNL     1      32.064  40.178  17.987 -0.41 -0.01    +0.044 A  ATOM     24  C   UNL     1      30.874  40.694  17.452 -0.33 -0.00    +0.026 A  ATOM     25  C   UNL     1      31.995  39.126  18.902 -0.34 +0.01    +0.046 A  ATOM     26  C   UNL     1      29.636  40.159  17.818 -0.31 +0.00    +0.004 A  ATOM     27  C   UNL     1      30.755  38.595  19.265 -0.40 +0.01    +0.043 A  ATOM     28  C   UNL     1      29.576  39.105  18.726 -0.32 +0.00    +0.020 A  ATOM     29  Cl  UNL     1      30.677  37.298  20.394 -0.63 -0.02    -0.084 Cl ENDBRANCH  19  23ENDBRANCH  14  17ENDBRANCH   1  11BRANCH   3  30ATOM     30  C   UNL     1      37.708  47.575  13.456 -0.31 -0.12    +0.356 C  ATOM     31  O   UNL     1      37.564  46.880  12.468 -0.68 +0.06    -0.244 OA BRANCH  30  32ATOM     32  O   UNL     1      37.284  48.860  13.434 -0.49 +0.19    -0.476 OA ATOM     33  H   UNL     1      38.022  49.365  13.832 -0.25 -0.19    +0.297 HD ENDBRANCH  30  32ENDBRANCH   3  30TORSDOF 5TERENDMDL