REMARK SMILES O=C(C=C1C=C(C(F)(F)F)C(c2ccccc2Cl)=C1OP)N[C@H](CO)Cc1ccccc1
REMARK SMILES IDX 1 1 2 2 22 3 3 5 4 6 5 7 19 8 6 9 11 10 20 11 21 12 7 15
REMARK SMILES IDX 8 16 9 17 10 18 12 19 13 20 17 21 14 22 16 23 15 24 18 25
REMARK SMILES IDX 23 26 24 27 25 28 26 30 27 31 28 32 32 33 29 34 31 35 30 36
REMARK H PARENT 22 4 21 13 21 14 25 29
ROOT
ATOM      1  O   UNL     1       1.475   1.139  -0.286  1.00  0.00    -0.270 OA
ATOM      2  C   UNL     1       0.954   0.121   0.144  1.00  0.00     0.245 C 
ATOM      3  N   UNL     1       1.666  -0.970   0.581  1.00  0.00    -0.347 N 
ATOM      4  H   UNL     1       1.185  -1.833   0.799  1.00  0.00     0.164 HD
ENDROOT
BRANCH   2   5
ATOM      5  C   UNL     1      -0.513  -0.081   0.238  1.00  0.00     0.083 C 
BRANCH   5   6
ATOM      6  C   UNL     1      -1.437   0.701  -0.341  1.00  0.00     0.024 C 
ATOM      7  C   UNL     1      -1.237   1.873  -1.177  1.00  0.00     0.026 C 
ATOM      8  C   UNL     1      -2.880   0.509  -0.236  1.00  0.00     0.138 C 
ATOM      9  C   UNL     1      -2.452   2.353  -1.512  1.00  0.00     0.068 C 
ATOM     10  C   UNL     1      -3.492   1.506  -0.913  1.00  0.00     0.038 C 
BRANCH   8  11
ATOM     11  O   UNL     1      -3.422  -0.456   0.564  1.00  0.00    -0.479 OA
BRANCH  11  12
ATOM     12  P   UNL     1      -3.935  -1.843  -0.103  1.00  0.00     0.059 P 
ATOM     13  H   UNL     1      -4.663  -2.340   1.004  1.00  0.00     0.099 HD
ATOM     14  H   UNL     1      -5.080  -1.346  -0.772  1.00  0.00     0.099 HD
ENDBRANCH  11  12
ENDBRANCH   8  11
BRANCH   9  15
ATOM     15  C   UNL     1      -2.753   3.560  -2.328  1.00  0.00     0.417 C 
ATOM     16  F   UNL     1      -3.456   4.484  -1.624  1.00  0.00    -0.166 F 
ATOM     17  F   UNL     1      -3.482   3.268  -3.434  1.00  0.00    -0.166 F 
ATOM     18  F   UNL     1      -1.626   4.183  -2.762  1.00  0.00    -0.166 F 
ENDBRANCH   9  15
BRANCH  10  19
ATOM     19  C   UNL     1      -4.943   1.707  -0.963  1.00  0.00     0.005 A 
ATOM     20  C   UNL     1      -5.551   2.428   0.077  1.00  0.00     0.010 A 
ATOM     21  C   UNL     1      -5.744   1.223  -2.010  1.00  0.00     0.049 A 
ATOM     22  C   UNL     1      -6.928   2.658   0.073  1.00  0.00     0.001 A 
ATOM     23  C   UNL     1      -7.123   1.455  -2.011  1.00  0.00     0.021 A 
ATOM     24  C   UNL     1      -7.714   2.172  -0.970  1.00  0.00     0.002 A 
ATOM     25  Cl  UNL     1      -5.080   0.316  -3.325  1.00  0.00    -0.084 Cl
ENDBRANCH  10  19
ENDBRANCH   5   6
ENDBRANCH   2   5
BRANCH   3  26
ATOM     26  C   UNL     1       3.135  -1.014   0.499  1.00  0.00     0.112 C 
BRANCH  26  27
ATOM     27  C   UNL     1       3.581  -1.286  -0.951  1.00  0.00     0.181 C 
BRANCH  27  28
ATOM     28  O   UNL     1       3.047  -2.527  -1.419  1.00  0.00    -0.394 OA
ATOM     29  H   UNL     1       2.108  -2.355  -1.612  1.00  0.00     0.210 HD
ENDBRANCH  27  28
ENDBRANCH  26  27
BRANCH  26  30
ATOM     30  C   UNL     1       3.671  -2.065   1.491  1.00  0.00     0.062 C 
BRANCH  30  31
ATOM     31  C   UNL     1       5.168  -2.019   1.680  1.00  0.00    -0.046 A 
ATOM     32  C   UNL     1       5.755  -1.015   2.461  1.00  0.00     0.004 A 
ATOM     33  C   UNL     1       5.991  -2.972   1.064  1.00  0.00     0.004 A 
ATOM     34  C   UNL     1       7.141  -0.966   2.624  1.00  0.00     0.000 A 
ATOM     35  C   UNL     1       7.376  -2.921   1.228  1.00  0.00     0.000 A 
ATOM     36  C   UNL     1       7.950  -1.919   2.008  1.00  0.00     0.000 A 
ENDBRANCH  30  31
ENDBRANCH  26  30
ENDBRANCH   3  26
TORSDOF 11
