MODEL        10USER    Run = 10USERUSER    Estimated Free Energy of Binding    =  -9.21 kcal/mol  [=(1)+(2)+(3)-(4)]USERUSER    (1) Final Intermolecular Energy     = -11.00 kcal/molUSER        vdW + Hbond + desolv Energy     = -10.84 kcal/molUSER        Electrostatic Energy            =  -0.16 kcal/molUSER        Moving Ligand-Fixed Receptor    = -11.00 kcal/molUSER        Moving Ligand-Moving Receptor   =  +0.00 kcal/molUSER    (2) Final Total Internal Energy     =  -1.34 kcal/molUSER    (3) Torsional Free Energy           =  +1.79 kcal/molUSER    (4) Unbound System's Energy         =  -1.34 kcal/molUSERUSERREMARK SMILES NCCNc1ccc2cc(C(=O)c3c[nH]c4ncc(I)cc34)cnn12REMARK SMILES IDX 4 1 3 3 2 4 1 5 5 8 6 9 25 10 7 11 24 12 8 13 23 14 9 15REMARK SMILES IDX 10 16 11 17 12 18 13 19 14 20 22 21 15 22 21 23 16 24 19 25REMARK SMILES IDX 17 26 18 27 20 29REMARK H PARENT 4 2 1 6 1 7 15 28USER                              x       y       z     vdW  Elec       q    TypeUSER                           _______ _______ _______ _____ _____    ______ ____ROOTATOM      1  N   UNL     1      36.729  45.240  25.141 -0.09 -0.03    -0.369 N  ATOM      2  H   UNL     1      36.170  45.879  25.713 -0.52 -0.03    +0.162 HD ENDROOTBRANCH   1   3ATOM      3  C   UNL     1      36.662  43.869  25.644 -0.33 -0.00    +0.129 C  BRANCH   3   4ATOM      4  C   UNL     1      36.180  43.857  27.109 -0.43 -0.02    +0.099 C  BRANCH   4   5ATOM      5  N   UNL     1      36.265  45.170  27.764 -0.21 +0.08    -0.329 NA ATOM      6  H   UNL     1      37.240  45.472  27.727 +0.04 -0.02    +0.118 HD ATOM      7  H   UNL     1      35.753  45.849  27.202 -0.46 -0.06    +0.118 HD ENDBRANCH   4   5ENDBRANCH   3   4ENDBRANCH   1   3BRANCH   1   8ATOM      8  C   UNL     1      37.916  45.760  24.714 -0.20 +0.02    +0.128 A  ATOM      9  C   UNL     1      38.844  46.578  25.326 -0.23 +0.00    +0.049 A  ATOM     10  N   UNL     1      38.390  45.465  23.444 -0.22 -0.02    -0.218 N  ATOM     11  C   UNL     1      39.906  46.792  24.411 -0.22 +0.00    +0.032 A  ATOM     12  N   UNL     1      37.740  44.674  22.531 -0.27 -0.02    -0.174 NA ATOM     13  C   UNL     1      39.604  46.100  23.258 -0.25 +0.01    +0.068 A  ATOM     14  C   UNL     1      38.384  44.560  21.413 -0.27 +0.00    +0.146 A  ATOM     15  C   UNL     1      40.258  45.938  22.014 -0.23 +0.00    +0.042 A  ATOM     16  C   UNL     1      39.671  45.209  21.053 -0.31 +0.00    +0.045 A  BRANCH  16  17ATOM     17  C   UNL     1      40.352  45.053  19.746 -0.34 +0.00    +0.196 C  ATOM     18  O   UNL     1      40.317  43.991  19.134 -0.25 -0.01    -0.288 OA BRANCH  17  19ATOM     19  C   UNL     1      41.061  46.229  19.245 -0.42 +0.00    +0.050 A  ATOM     20  C   UNL     1      42.216  46.806  19.758 -0.38 +0.01    +0.097 A  ATOM     21  C   UNL     1      40.722  46.985  18.073 -0.48 -0.00    +0.031 A  ATOM     22  N   UNL     1      42.555  47.878  18.972 -0.31 -0.01    -0.345 N  ATOM     23  C   UNL     1      39.709  46.926  17.095 -0.46 -0.01    +0.029 A  ATOM     24  C   UNL     1      41.662  48.000  17.948 -0.33 -0.01    +0.138 A  ATOM     25  C   UNL     1      39.730  47.887  16.085 -0.50 -0.01    +0.032 A  ATOM     26  N   UNL     1      41.728  48.952  17.000 -0.80 -0.03    -0.237 NA ATOM     27  C   UNL     1      40.732  48.851  16.085 -0.49 -0.02    +0.128 A  ATOM     28  H   UNL     1      43.349  48.491  19.097 -0.52 -0.02    +0.167 HD ATOM     29  I   UNL     1      38.279  47.876  14.604 -1.36 +0.02    -0.043 I  ENDBRANCH  17  19ENDBRANCH  16  17ENDBRANCH   1   8TORSDOF 6TERENDMDL