REMARK SMILES CN1CCN(c2cc(N)c3cc(NC(=O)N[C@H](C(N)=O)c4cc5ccccc5s4)ccc3n2)CC1
REMARK SMILES IDX 13 1 14 2 15 3 16 4 12 7 6 8 7 9 33 10 8 11 32 12 10 13
REMARK SMILES IDX 31 14 11 15 30 16 5 17 2 18 3 19 35 20 4 21 34 22 1 23 9 24
REMARK SMILES IDX 17 27 18 28 19 29 20 30 21 33 22 34 29 35 23 36 28 37 24 38
REMARK SMILES IDX 27 39 25 40 26 41
REMARK H PARENT 13 5 16 6 9 25 9 26 19 31 19 32
ROOT
ATOM      1  N   UNL     1       1.856  -1.390  -0.930  1.00  0.00    -0.308 N 
ATOM      2  C   UNL     1       3.006  -0.882  -1.492  1.00  0.00     0.320 C 
ATOM      3  O   UNL     1       3.076   0.009  -2.326  1.00  0.00    -0.248 OA
ATOM      4  N   UNL     1       4.113  -1.550  -1.020  1.00  0.00    -0.321 N 
ATOM      5  H   UNL     1       1.938  -2.319  -0.544  1.00  0.00     0.171 HD
ATOM      6  H   UNL     1       4.023  -1.941  -0.094  1.00  0.00     0.166 HD
ENDROOT
BRANCH   1   7
ATOM      7  C   UNL     1       0.561  -0.843  -1.009  1.00  0.00     0.043 A 
ATOM      8  C   UNL     1      -4.387   0.034  -0.585  1.00  0.00     0.131 A 
ATOM      9  C   UNL     1      -4.233  -1.284  -0.175  1.00  0.00     0.073 A 
ATOM     10  N   UNL     1      -3.308   0.725  -1.003  1.00  0.00    -0.231 NA
ATOM     11  C   UNL     1      -2.963  -1.866  -0.091  1.00  0.00     0.045 A 
ATOM     12  C   UNL     1      -2.086   0.171  -0.991  1.00  0.00     0.075 A 
ATOM     13  C   UNL     1      -1.841  -1.136  -0.535  1.00  0.00     0.025 A 
ATOM     14  C   UNL     1      -1.022   0.925  -1.462  1.00  0.00     0.031 A 
ATOM     15  C   UNL     1      -0.509  -1.628  -0.550  1.00  0.00     0.038 A 
ATOM     16  C   UNL     1       0.291   0.435  -1.479  1.00  0.00     0.028 A 
BRANCH   8  17
ATOM     17  N   UNL     1      -5.602   0.686  -0.599  1.00  0.00    -0.354 N 
ATOM     18  N   UNL     1      -7.873   2.510   0.093  1.00  0.00    -0.303 NA
ATOM     19  C   UNL     1      -7.034   2.668  -1.113  1.00  0.00     0.105 C 
ATOM     20  C   UNL     1      -7.572   1.239   0.794  1.00  0.00     0.105 C 
ATOM     21  C   UNL     1      -5.602   2.097  -1.017  1.00  0.00     0.133 C 
ATOM     22  C   UNL     1      -6.856   0.158  -0.054  1.00  0.00     0.133 C 
ATOM     23  C   UNL     1      -7.712   3.637   1.014  1.00  0.00     0.105 C 
ENDBRANCH   8  17
BRANCH  11  24
ATOM     24  N   UNL     1      -2.903  -3.235   0.260  1.00  0.00    -0.398 N 
ATOM     25  H   UNL     1      -3.202  -3.817  -0.520  1.00  0.00     0.156 HD
ATOM     26  H   UNL     1      -1.995  -3.532   0.590  1.00  0.00     0.156 HD
ENDBRANCH  11  24
ENDBRANCH   1   7
BRANCH   4  27
ATOM     27  C   UNL     1       5.460  -1.076  -1.362  1.00  0.00     0.213 C 
BRANCH  27  28
ATOM     28  C   UNL     1       6.383  -2.272  -1.700  1.00  0.00     0.245 C 
ATOM     29  N   UNL     1       5.747  -3.456  -2.001  1.00  0.00    -0.368 N 
ATOM     30  O   UNL     1       7.607  -2.212  -1.781  1.00  0.00    -0.273 OA
ATOM     31  H   UNL     1       6.350  -4.156  -2.416  1.00  0.00     0.159 HD
ATOM     32  H   UNL     1       4.801  -3.398  -2.361  1.00  0.00     0.159 HD
ENDBRANCH  27  28
BRANCH  27  33
ATOM     33  C   UNL     1       5.988  -0.313  -0.174  1.00  0.00     0.038 A 
ATOM     34  C   UNL     1       6.486  -0.790   1.024  1.00  0.00     0.027 A 
ATOM     35  S   UNL     1       5.984   1.396  -0.199  1.00  0.00    -0.138 S 
ATOM     36  C   UNL     1       6.890   0.247   1.927  1.00  0.00    -0.007 A 
ATOM     37  C   UNL     1       6.673   1.509   1.372  1.00  0.00     0.035 A 
ATOM     38  C   UNL     1       7.452   0.173   3.224  1.00  0.00     0.009 A 
ATOM     39  C   UNL     1       7.004   2.688   2.066  1.00  0.00     0.019 A 
ATOM     40  C   UNL     1       7.801   1.343   3.910  1.00  0.00     0.001 A 
ATOM     41  C   UNL     1       7.573   2.586   3.338  1.00  0.00     0.001 A 
ENDBRANCH  27  33
ENDBRANCH   4  27
TORSDOF 6
