MODEL        2USER    Run = 2USERUSER    Estimated Free Energy of Binding    = -10.75 kcal/mol  [=(1)+(2)+(3)-(4)]USERUSER    (1) Final Intermolecular Energy     = -12.84 kcal/molUSER        vdW + Hbond + desolv Energy     = -12.76 kcal/molUSER        Electrostatic Energy            =  -0.08 kcal/molUSER        Moving Ligand-Fixed Receptor    = -12.84 kcal/molUSER        Moving Ligand-Moving Receptor   =  +0.00 kcal/molUSER    (2) Final Total Internal Energy     =  -2.40 kcal/molUSER    (3) Torsional Free Energy           =  +2.09 kcal/molUSER    (4) Unbound System's Energy         =  -2.40 kcal/molUSERUSERREMARK SMILES C[C@H]1CN(C(=O)c2ccc(CCc3nc4ccccc4n3C)cc2)CCN1S(=O)(=O)c1ccc(F)cc1REMARK SMILES IDX 7 1 8 2 9 3 10 4 23 5 24 6 5 7 6 8 4 9 2 10 3 11 27 12 26 13REMARK SMILES IDX 25 14 1 15 28 16 29 17 30 18 31 19 32 20 37 21 33 22 36 23REMARK SMILES IDX 34 24 35 25 11 26 12 27 13 28 14 29 21 30 15 31 20 32 16 33REMARK SMILES IDX 19 34 17 35 18 36 22 37REMARK H PARENTUSER                              x       y       z     vdW  Elec       q    TypeUSER                           _______ _______ _______ _____ _____    ______ ____ROOTATOM      1  C   UNL     1      34.544  43.812  18.802 -0.34 -0.01    +0.040 A  ATOM      2  C   UNL     1      35.136  44.760  19.642 -0.26 -0.00    +0.014 A  ATOM      3  C   UNL     1      36.079  44.357  20.590 -0.30 -0.00    +0.004 A  ATOM      4  C   UNL     1      36.443  43.008  20.698 -0.41 +0.00    -0.048 A  ATOM      5  C   UNL     1      35.868  42.068  19.829 -0.39 -0.00    +0.004 A  ATOM      6  C   UNL     1      34.928  42.469  18.878 -0.40 -0.00    +0.014 A  ENDROOTBRANCH   1   7ATOM      7  C   UNL     1      33.558  44.263  17.795 -0.20 -0.09    +0.253 C  ATOM      8  O   UNL     1      32.549  44.839  18.193 -0.24 +0.07    -0.269 OA BRANCH   7   9ATOM      9  N   UNL     1      33.823  44.034  16.446 -0.10 +0.16    -0.336 N  ATOM     10  C   UNL     1      36.156  44.370  15.589 -0.37 -0.04    +0.089 C  ATOM     11  C   UNL     1      35.082  43.369  16.088 -0.36 -0.06    +0.139 C  ATOM     12  N   UNL     1      35.558  45.212  14.503 -0.23 +0.11    -0.192 NA ATOM     13  C   UNL     1      34.284  45.888  14.859 -0.24 -0.12    +0.124 C  ATOM     14  C   UNL     1      33.261  44.848  15.358 -0.24 -0.09    +0.136 C  ATOM     15  C   UNL     1      36.717  45.207  16.736 -0.38 -0.01    +0.028 C  BRANCH  12  16ATOM     16  S   UNL     1      36.515  45.838  13.270 -0.52 -0.11    +0.243 S  ATOM     17  O   UNL     1      35.694  46.718  12.466 -0.55 +0.12    -0.207 OA ATOM     18  O   UNL     1      37.236  44.737  12.667 -0.43 +0.06    -0.207 OA BRANCH  16  19ATOM     19  C   UNL     1      37.705  46.868  14.103 -0.40 -0.03    +0.082 A  ATOM     20  C   UNL     1      39.021  46.414  14.258 -0.38 -0.01    +0.025 A  ATOM     21  C   UNL     1      37.300  48.085  14.664 -0.50 -0.02    +0.025 A  ATOM     22  C   UNL     1      39.945  47.208  14.939 -0.46 -0.01    +0.040 A  ATOM     23  C   UNL     1      38.229  48.871  15.347 -0.45 -0.03    +0.040 A  ATOM     24  C   UNL     1      39.542  48.429  15.473 -0.44 -0.05    +0.123 A  ATOM     25  F   UNL     1      40.431  49.184  16.130 -0.18 +0.06    -0.207 F  ENDBRANCH  16  19ENDBRANCH  12  16ENDBRANCH   7   9ENDBRANCH   1   7BRANCH   4  26ATOM     26  C   UNL     1      37.473  42.571  21.714 -0.43 +0.00    +0.043 C  BRANCH  26  27ATOM     27  C   UNL     1      38.246  43.763  22.285 -0.34 +0.00    +0.080 C  BRANCH  27  28ATOM     28  C   UNL     1      39.086  44.443  21.249 -0.26 +0.00    +0.109 A  ATOM     29  N   UNL     1      38.905  44.390  19.944 -0.21 +0.01    -0.233 NA ATOM     30  N   UNL     1      40.173  45.235  21.557 -0.12 -0.02    -0.331 N  ATOM     31  C   UNL     1      39.892  45.167  19.395 -0.36 -0.00    +0.089 A  ATOM     32  C   UNL     1      40.706  45.713  20.383 -0.32 +0.00    +0.068 A  ATOM     33  C   UNL     1      40.152  45.452  18.046 -0.43 -0.00    +0.030 A  ATOM     34  C   UNL     1      41.791  46.549  20.084 -0.37 +0.00    +0.028 A  ATOM     35  C   UNL     1      41.232  46.283  17.728 -0.42 -0.00    +0.002 A  ATOM     36  C   UNL     1      42.036  46.822  18.733 -0.54 +0.00    +0.002 A  ATOM     37  C   UNL     1      40.652  45.510  22.891 -0.18 +0.01    +0.151 C  ENDBRANCH  27  28ENDBRANCH  26  27ENDBRANCH   4  26TORSDOF 7TERENDMDL