MODEL        9USER    Run = 9USERUSER    Estimated Free Energy of Binding    =  -9.47 kcal/mol  [=(1)+(2)+(3)-(4)]USERUSER    (1) Final Intermolecular Energy     = -11.25 kcal/molUSER        vdW + Hbond + desolv Energy     = -11.18 kcal/molUSER        Electrostatic Energy            =  -0.08 kcal/molUSER        Moving Ligand-Fixed Receptor    = -11.25 kcal/molUSER        Moving Ligand-Moving Receptor   =  +0.00 kcal/molUSER    (2) Final Total Internal Energy     =  -1.22 kcal/molUSER    (3) Torsional Free Energy           =  +1.79 kcal/molUSER    (4) Unbound System's Energy         =  -1.22 kcal/molUSERUSERREMARK SMILES O=C1C(N2CCN(Cc3cnco3)CC2)=Cc2oc(NS(=O)(=O)c3ccc(F)cc3F)cc21REMARK SMILES IDX 1 1 2 2 3 3 16 4 17 5 18 6 19 7 32 8 33 9 4 10 5 11 15 12REMARK SMILES IDX 6 13 14 14 7 15 8 16 9 17 10 18 13 19 11 20 12 21 20 22REMARK SMILES IDX 21 24 22 25 23 26 24 27 25 28 30 29 26 30 29 31 27 32 31 33REMARK SMILES IDX 28 34REMARK H PARENT 20 23USER                              x       y       z     vdW  Elec       q    TypeUSER                           _______ _______ _______ _____ _____    ______ ____ROOTATOM      1  O   UNL     1      42.573  48.302  18.654 -0.46 -0.00    -0.287 OA ATOM      2  C   UNL     1      41.701  47.557  18.246 -0.40 -0.01    +0.213 C  ATOM      3  C   UNL     1      41.225  46.199  18.836 -0.49 +0.00    +0.089 C  ATOM      4  C   UNL     1      40.254  45.723  18.017 -0.47 -0.01    +0.078 C  ATOM      5  C   UNL     1      40.068  46.644  16.978 -0.38 -0.02    +0.143 A  ATOM      6  O   UNL     1      39.279  46.746  15.888 -0.14 +0.12    -0.439 OA ATOM      7  C   UNL     1      39.634  47.925  15.286 -0.37 -0.06    +0.208 A  ATOM      8  C   UNL     1      40.622  48.577  16.007 -0.52 -0.02    +0.083 A  ATOM      9  C   UNL     1      40.890  47.727  17.080 -0.47 -0.01    +0.072 A  ENDROOTBRANCH   3  10ATOM     10  N   UNL     1      41.760  45.640  19.994 -0.16 -0.06    -0.366 N  ATOM     11  C   UNL     1      41.419  44.270  20.440 -0.31 +0.02    +0.132 C  ATOM     12  C   UNL     1      42.625  46.397  20.919 -0.32 +0.04    +0.132 C  ATOM     13  C   UNL     1      42.479  43.709  21.415 -0.24 +0.02    +0.106 C  ATOM     14  C   UNL     1      42.418  45.947  22.382 -0.22 +0.02    +0.106 C  ATOM     15  N   UNL     1      42.669  44.515  22.646 -0.08 -0.04    -0.292 NA BRANCH  15  16ATOM     16  C   UNL     1      44.004  44.298  23.227 -0.13 +0.03    +0.161 C  BRANCH  16  17ATOM     17  C   UNL     1      44.411  42.870  23.206 -0.20 +0.01    +0.138 A  ATOM     18  C   UNL     1      44.081  41.758  23.947 -0.15 -0.01    +0.158 A  ATOM     19  O   UNL     1      45.321  42.480  22.258 -0.19 -0.05    -0.447 OA ATOM     20  N   UNL     1      44.773  40.666  23.490 -0.63 +0.03    -0.225 NA ATOM     21  C   UNL     1      45.482  41.148  22.493 -0.17 -0.05    +0.308 A  ENDBRANCH  16  17ENDBRANCH  15  16ENDBRANCH   3  10BRANCH   7  22ATOM     22  N   UNL     1      39.001  48.385  14.067 -0.32 +0.09    -0.249 N  ATOM     23  H   UNL     1      39.394  49.244  13.684 -0.16 -0.09    +0.183 HD BRANCH  22  24ATOM     24  S   UNL     1      37.314  48.452  14.090 -0.55 -0.16    +0.267 S  ATOM     25  O   UNL     1      36.937  49.493  15.022 -0.53 +0.23    -0.201 OA ATOM     26  O   UNL     1      36.846  48.476  12.720 -1.01 +0.06    -0.201 OA BRANCH  24  27ATOM     27  C   UNL     1      36.814  46.915  14.800 -0.33 -0.08    +0.123 A  ATOM     28  C   UNL     1      36.321  46.861  16.108 -0.34 -0.03    +0.028 A  ATOM     29  C   UNL     1      36.921  45.757  14.035 -0.32 -0.06    +0.146 A  ATOM     30  C   UNL     1      35.928  45.630  16.638 -0.32 -0.02    +0.041 A  ATOM     31  C   UNL     1      36.531  44.531  14.562 -0.31 -0.03    +0.080 A  ATOM     32  C   UNL     1      36.037  44.479  15.859 -0.27 -0.05    +0.126 A  ATOM     33  F   UNL     1      37.370  45.805  12.774 -0.13 +0.06    -0.205 F  ATOM     34  F   UNL     1      35.657  43.302  16.372 -0.10 +0.08    -0.207 F  ENDBRANCH  24  27ENDBRANCH  22  24ENDBRANCH   7  22TORSDOF 6TERENDMDL