MODEL        8USER    Run = 8USERUSER    Estimated Free Energy of Binding    = -10.24 kcal/mol  [=(1)+(2)+(3)-(4)]USERUSER    (1) Final Intermolecular Energy     = -12.33 kcal/molUSER        vdW + Hbond + desolv Energy     = -12.20 kcal/molUSER        Electrostatic Energy            =  -0.13 kcal/molUSER        Moving Ligand-Fixed Receptor    = -12.33 kcal/molUSER        Moving Ligand-Moving Receptor   =  +0.00 kcal/molUSER    (2) Final Total Internal Energy     =  -1.90 kcal/molUSER    (3) Torsional Free Energy           =  +2.09 kcal/molUSER    (4) Unbound System's Energy         =  -1.90 kcal/molUSERUSERREMARK SMILES C[C@@H]1N=C([C@H]2C[C@H]2c2ccc(C(=O)N3CCN(CC(N)=O)CC3)cc2)c2ccc(CO)c(F)c2N1CREMARK SMILES IDX 8 1 9 2 10 3 11 4 24 5 25 6 7 7 5 8 6 9 4 10 2 11 3 12 35 13REMARK SMILES IDX 34 14 26 15 32 16 27 17 29 18 28 19 1 20 36 21 33 22 30 23REMARK SMILES IDX 31 24 12 26 14 27 15 28 23 29 16 30 22 31 17 32 13 33 18 34REMARK SMILES IDX 19 35 20 36 21 37REMARK H PARENT 31 25 20 38 20 39USER                              x       y       z     vdW  Elec       q    TypeUSER                           _______ _______ _______ _____ _____    ______ ____ROOTATOM      1  C   UNL     1      40.787  45.201  20.483 -0.34 -0.00    -0.044 A  ATOM      2  C   UNL     1      41.107  44.259  21.477 -0.31 +0.00    +0.005 A  ATOM      3  C   UNL     1      40.253  44.004  22.555 -0.24 +0.00    +0.014 A  ATOM      4  C   UNL     1      39.053  44.704  22.668 -0.27 +0.00    +0.040 A  ATOM      5  C   UNL     1      38.687  45.621  21.681 -0.22 +0.00    +0.014 A  ATOM      6  C   UNL     1      39.555  45.871  20.615 -0.22 +0.00    +0.005 A  ENDROOTBRANCH   1   7ATOM      7  C   UNL     1      41.677  45.519  19.291 -0.41 +0.00    +0.029 C  ATOM      8  C   UNL     1      41.133  45.620  17.868 -0.48 -0.00    +0.047 C  ATOM      9  C   UNL     1      41.642  46.847  18.592 -0.58 -0.00    +0.019 C  BRANCH   8  10ATOM     10  C   UNL     1      39.690  45.387  17.574 -0.39 -0.01    +0.050 C  ATOM     11  C   UNL     1      37.739  44.170  18.064 -0.16 -0.03    +0.197 C  ATOM     12  N   UNL     1      39.156  44.441  18.256 -0.20 +0.02    -0.264 NA ATOM     13  N   UNL     1      36.918  45.150  17.344 -0.12 +0.12    -0.350 N  ATOM     14  C   UNL     1      37.589  46.030  16.479 -0.32 -0.03    +0.084 A  ATOM     15  C   UNL     1      38.983  46.173  16.548 -0.40 -0.01    +0.022 A  ATOM     16  C   UNL     1      36.932  46.848  15.529 -0.29 -0.10    +0.152 A  ATOM     17  C   UNL     1      39.687  47.010  15.665 -0.47 -0.00    +0.013 A  ATOM     18  C   UNL     1      37.613  47.715  14.662 -0.49 -0.01    +0.015 A  ATOM     19  C   UNL     1      39.004  47.778  14.728 -0.50 -0.00    +0.010 A  ATOM     20  C   UNL     1      37.176  43.988  19.483 -0.38 -0.01    +0.057 C  ATOM     21  C   UNL     1      35.583  44.701  16.944 -0.27 -0.07    +0.146 C  ATOM     22  F   UNL     1      35.591  46.817  15.427 -0.06 +0.23    -0.204 F  BRANCH  18  23ATOM     23  C   UNL     1      36.864  48.543  13.656 -0.42 -0.11    +0.194 C  BRANCH  23  24ATOM     24  O   UNL     1      37.167  48.098  12.339 -0.90 +0.04    -0.392 OA ATOM     25  H   UNL     1      36.550  48.552  11.740 -0.19 -0.07    +0.211 HD ENDBRANCH  23  24ENDBRANCH  18  23ENDBRANCH   8  10ENDBRANCH   1   7BRANCH   4  26ATOM     26  C   UNL     1      38.146  44.401  23.796 -0.20 +0.02    +0.253 C  ATOM     27  N   UNL     1      38.027  45.318  24.834 -0.12 -0.03    -0.336 N  ATOM     28  C   UNL     1      39.023  46.329  25.190 -0.20 +0.01    +0.135 C  ATOM     29  C   UNL     1      37.023  45.043  25.863 -0.31 -0.01    +0.135 C  ATOM     30  C   UNL     1      38.369  47.646  25.670 -0.31 +0.01    +0.106 C  ATOM     31  C   UNL     1      36.893  46.172  26.907 -0.28 -0.02    +0.106 C  ATOM     32  N   UNL     1      37.027  47.497  26.273 -0.29 +0.02    -0.291 NA ATOM     33  O   UNL     1      37.511  43.348  23.755 -0.23 -0.02    -0.269 OA BRANCH  32  34ATOM     34  C   UNL     1      36.747  48.598  27.221 -0.29 -0.01    +0.184 C  BRANCH  34  35ATOM     35  C   UNL     1      36.297  49.851  26.465 -0.31 +0.01    +0.231 C  ATOM     36  N   UNL     1      36.132  49.668  25.119 -0.18 +0.05    -0.369 N  ATOM     37  O   UNL     1      36.135  50.946  26.990 -0.19 -0.04    -0.274 OA ATOM     38  H   UNL     1      35.721  50.424  24.591 -0.50 -0.06    +0.159 HD ATOM     39  H   UNL     1      35.960  48.716  24.809 -0.17 -0.02    +0.159 HD ENDBRANCH  34  35ENDBRANCH  32  34ENDBRANCH   4  26TORSDOF 7TERENDMDL