REMARK SMILES C[C@H]1CN(C(=O)c2ccc(CCc3nc4ccccc4n3C)cc2)CCN1S(=O)(=O)c1ccc(F)cc1
REMARK SMILES IDX 7 1 8 2 9 3 10 4 23 5 24 6 5 7 6 8 4 9 2 10 3 11 27 12 26 13
REMARK SMILES IDX 25 14 1 15 28 16 29 17 30 18 31 19 32 20 37 21 33 22 36 23
REMARK SMILES IDX 34 24 35 25 11 26 12 27 13 28 14 29 21 30 15 31 20 32 16 33
REMARK SMILES IDX 19 34 17 35 18 36 22 37
REMARK H PARENT
ROOT
ATOM      1  C   UNL     1      -0.330   0.047  -1.388  1.00  0.00     0.040 A 
ATOM      2  C   UNL     1       0.052   1.149  -0.618  1.00  0.00     0.014 A 
ATOM      3  C   UNL     1       1.264   1.126   0.075  1.00  0.00     0.004 A 
ATOM      4  C   UNL     1       2.105   0.007  -0.004  1.00  0.00    -0.048 A 
ATOM      5  C   UNL     1       1.728  -1.081  -0.805  1.00  0.00     0.004 A 
ATOM      6  C   UNL     1       0.519  -1.059  -1.503  1.00  0.00     0.014 A 
ENDROOT
BRANCH   1   7
ATOM      7  C   UNL     1      -1.612   0.098  -2.127  1.00  0.00     0.253 C 
ATOM      8  O   UNL     1      -1.862   1.109  -2.778  1.00  0.00    -0.269 OA
BRANCH   7   9
ATOM      9  N   UNL     1      -2.465  -1.002  -2.068  1.00  0.00    -0.336 N 
ATOM     10  C   UNL     1      -4.944  -0.623  -2.071  1.00  0.00     0.089 C 
ATOM     11  C   UNL     1      -3.680  -0.986  -2.892  1.00  0.00     0.139 C 
ATOM     12  N   UNL     1      -5.010  -1.519  -0.872  1.00  0.00    -0.192 NA
ATOM     13  C   UNL     1      -3.784  -1.540  -0.033  1.00  0.00     0.124 C 
ATOM     14  C   UNL     1      -2.561  -1.894  -0.902  1.00  0.00     0.136 C 
ATOM     15  C   UNL     1      -4.964   0.857  -1.697  1.00  0.00     0.028 C 
BRANCH  12  16
ATOM     16  S   UNL     1      -6.488  -1.948  -0.195  1.00  0.00     0.243 S 
ATOM     17  O   UNL     1      -6.257  -3.025   0.745  1.00  0.00    -0.207 OA
ATOM     18  O   UNL     1      -7.443  -2.095  -1.273  1.00  0.00    -0.207 OA
BRANCH  16  19
ATOM     19  C   UNL     1      -6.973  -0.528   0.764  1.00  0.00     0.082 A 
ATOM     20  C   UNL     1      -6.346  -0.278   1.991  1.00  0.00     0.025 A 
ATOM     21  C   UNL     1      -8.028   0.281   0.325  1.00  0.00     0.025 A 
ATOM     22  C   UNL     1      -6.749   0.817   2.757  1.00  0.00     0.040 A 
ATOM     23  C   UNL     1      -8.428   1.371   1.098  1.00  0.00     0.040 A 
ATOM     24  C   UNL     1      -7.782   1.632   2.303  1.00  0.00     0.123 A 
ATOM     25  F   UNL     1      -8.168   2.678   3.044  1.00  0.00    -0.207 F 
ENDBRANCH  16  19
ENDBRANCH  12  16
ENDBRANCH   7   9
ENDBRANCH   1   7
BRANCH   4  26
ATOM     26  C   UNL     1       3.423  -0.015   0.735  1.00  0.00     0.043 C 
BRANCH  26  27
ATOM     27  C   UNL     1       4.576   0.468  -0.150  1.00  0.00     0.080 C 
BRANCH  27  28
ATOM     28  C   UNL     1       5.894   0.414   0.557  1.00  0.00     0.109 A 
ATOM     29  N   UNL     1       6.099  -0.007   1.789  1.00  0.00    -0.233 NA
ATOM     30  N   UNL     1       7.083   0.802  -0.028  1.00  0.00    -0.331 N 
ATOM     31  C   UNL     1       7.448   0.107   2.007  1.00  0.00     0.089 A 
ATOM     32  C   UNL     1       8.095   0.612   0.883  1.00  0.00     0.068 A 
ATOM     33  C   UNL     1       8.193  -0.208   3.153  1.00  0.00     0.030 A 
ATOM     34  C   UNL     1       9.480   0.822   0.846  1.00  0.00     0.028 A 
ATOM     35  C   UNL     1       9.577  -0.004   3.136  1.00  0.00     0.002 A 
ATOM     36  C   UNL     1      10.207   0.503   1.999  1.00  0.00     0.002 A 
ATOM     37  C   UNL     1       7.223   1.312  -1.371  1.00  0.00     0.151 C 
ENDBRANCH  27  28
ENDBRANCH  26  27
ENDBRANCH   4  26
TORSDOF 7
