REMARK SMILES O=C1C(N2CCN(Cc3cnco3)CC2)=Cc2oc(NS(=O)(=O)c3ccc(F)cc3F)cc21
REMARK SMILES IDX 1 1 2 2 3 3 16 4 17 5 18 6 19 7 32 8 33 9 4 10 5 11 15 12
REMARK SMILES IDX 6 13 14 14 7 15 8 16 9 17 10 18 13 19 11 20 12 21 20 22
REMARK SMILES IDX 21 24 22 25 23 26 24 27 25 28 30 29 26 30 29 31 27 32 31 33
REMARK SMILES IDX 28 34
REMARK H PARENT 20 23
ROOT
ATOM      1  O   UNL     1      -0.035   2.398   0.249  1.00  0.00    -0.287 OA
ATOM      2  C   UNL     1       0.379   1.467  -0.417  1.00  0.00     0.213 C 
ATOM      3  C   UNL     1      -0.288   0.087  -0.684  1.00  0.00     0.089 C 
ATOM      4  C   UNL     1       0.567  -0.630  -1.455  1.00  0.00     0.078 C 
ATOM      5  C   UNL     1       1.697   0.159  -1.705  1.00  0.00     0.143 A 
ATOM      6  O   UNL     1       2.857   0.024  -2.382  1.00  0.00    -0.439 OA
ATOM      7  C   UNL     1       3.530   1.204  -2.198  1.00  0.00     0.208 A 
ATOM      8  C   UNL     1       2.787   2.089  -1.433  1.00  0.00     0.083 A 
ATOM      9  C   UNL     1       1.622   1.388  -1.120  1.00  0.00     0.072 A 
ENDROOT
BRANCH   3  10
ATOM     10  N   UNL     1      -1.534  -0.270  -0.175  1.00  0.00    -0.366 N 
ATOM     11  C   UNL     1      -2.403   0.696   0.536  1.00  0.00     0.132 C 
ATOM     12  C   UNL     1      -2.044  -1.654  -0.212  1.00  0.00     0.132 C 
ATOM     13  C   UNL     1      -3.877   0.231   0.549  1.00  0.00     0.106 C 
ATOM     14  C   UNL     1      -2.925  -1.964   1.018  1.00  0.00     0.106 C 
ATOM     15  N   UNL     1      -4.100  -1.086   1.194  1.00  0.00    -0.292 NA
BRANCH  15  16
ATOM     16  C   UNL     1      -5.331  -1.723   0.698  1.00  0.00     0.161 C 
BRANCH  16  17
ATOM     17  C   UNL     1      -6.552  -0.950   1.038  1.00  0.00     0.138 A 
ATOM     18  C   UNL     1      -7.291  -0.762   2.184  1.00  0.00     0.158 A 
ATOM     19  O   UNL     1      -7.144  -0.221   0.039  1.00  0.00    -0.447 OA
ATOM     20  N   UNL     1      -8.351   0.070   1.928  1.00  0.00    -0.225 NA
ATOM     21  C   UNL     1      -8.211   0.362   0.654  1.00  0.00     0.308 A 
ENDBRANCH  16  17
ENDBRANCH  15  16
ENDBRANCH   3  10
BRANCH   7  22
ATOM     22  N   UNL     1       4.836   1.440  -2.777  1.00  0.00    -0.249 N 
ATOM     23  H   UNL     1       5.138   0.730  -3.444  1.00  0.00     0.183 HD
BRANCH  22  24
ATOM     24  S   UNL     1       6.073   1.806  -1.688  1.00  0.00     0.267 S 
ATOM     25  O   UNL     1       7.328   1.530  -2.353  1.00  0.00    -0.201 OA
ATOM     26  O   UNL     1       5.803   3.111  -1.122  1.00  0.00    -0.201 OA
BRANCH  24  27
ATOM     27  C   UNL     1       5.898   0.615  -0.396  1.00  0.00     0.123 A 
ATOM     28  C   UNL     1       5.689   1.023   0.926  1.00  0.00     0.028 A 
ATOM     29  C   UNL     1       5.973  -0.737  -0.716  1.00  0.00     0.146 A 
ATOM     30  C   UNL     1       5.548   0.056   1.923  1.00  0.00     0.041 A 
ATOM     31  C   UNL     1       5.834  -1.701   0.276  1.00  0.00     0.080 A 
ATOM     32  C   UNL     1       5.622  -1.295   1.588  1.00  0.00     0.126 A 
ATOM     33  F   UNL     1       6.149  -1.135  -1.983  1.00  0.00    -0.205 F 
ATOM     34  F   UNL     1       5.484  -2.218   2.548  1.00  0.00    -0.207 F 
ENDBRANCH  24  27
ENDBRANCH  22  24
ENDBRANCH   7  22
TORSDOF 6
