REMARK SMILES C[C@@H]1N=C([C@H]2C[C@H]2c2ccc(C(=O)N3CCN(CC(N)=O)CC3)cc2)c2ccc(CO)c(F)c2N1C
REMARK SMILES IDX 8 1 9 2 10 3 11 4 24 5 25 6 7 7 5 8 6 9 4 10 2 11 3 12 35 13
REMARK SMILES IDX 34 14 26 15 32 16 27 17 29 18 28 19 1 20 36 21 33 22 30 23
REMARK SMILES IDX 31 24 12 26 14 27 15 28 23 29 16 30 22 31 17 32 13 33 18 34
REMARK SMILES IDX 19 35 20 36 21 37
REMARK H PARENT 31 25 20 38 20 39
ROOT
ATOM      1  C   UNL     1      -0.297   2.897   0.328  1.00  0.00    -0.044 A 
ATOM      2  C   UNL     1      -0.533   2.088   1.455  1.00  0.00     0.005 A 
ATOM      3  C   UNL     1       0.460   1.259   1.989  1.00  0.00     0.014 A 
ATOM      4  C   UNL     1       1.718   1.214   1.393  1.00  0.00     0.040 A 
ATOM      5  C   UNL     1       1.998   2.029   0.295  1.00  0.00     0.014 A 
ATOM      6  C   UNL     1       0.994   2.845  -0.233  1.00  0.00     0.005 A 
ENDROOT
BRANCH   1   7
ATOM      7  C   UNL     1      -1.337   3.815  -0.295  1.00  0.00     0.029 C 
ATOM      8  C   UNL     1      -2.612   3.285  -0.946  1.00  0.00     0.047 C 
ATOM      9  C   UNL     1      -2.671   4.071   0.345  1.00  0.00     0.019 C 
BRANCH   8  10
ATOM     10  C   UNL     1      -2.889   1.822  -1.022  1.00  0.00     0.050 C 
ATOM     11  C   UNL     1      -2.164  -0.299  -1.734  1.00  0.00     0.197 C 
ATOM     12  N   UNL     1      -1.996   1.144  -1.646  1.00  0.00    -0.264 NA
ATOM     13  N   UNL     1      -3.158  -0.953  -0.876  1.00  0.00    -0.350 N 
ATOM     14  C   UNL     1      -4.203  -0.153  -0.387  1.00  0.00     0.084 A 
ATOM     15  C   UNL     1      -4.119   1.247  -0.451  1.00  0.00     0.022 A 
ATOM     16  C   UNL     1      -5.367  -0.673   0.228  1.00  0.00     0.152 A 
ATOM     17  C   UNL     1      -5.168   2.073  -0.013  1.00  0.00     0.013 A 
ATOM     18  C   UNL     1      -6.410   0.136   0.703  1.00  0.00     0.015 A 
ATOM     19  C   UNL     1      -6.307   1.519   0.563  1.00  0.00     0.010 A 
ATOM     20  C   UNL     1      -0.773  -0.877  -1.425  1.00  0.00     0.057 C 
ATOM     21  C   UNL     1      -3.473  -2.345  -1.203  1.00  0.00     0.146 C 
ATOM     22  F   UNL     1      -5.511  -2.001   0.380  1.00  0.00    -0.204 F 
BRANCH  18  23
ATOM     23  C   UNL     1      -7.634  -0.473   1.326  1.00  0.00     0.194 C 
BRANCH  23  24
ATOM     24  O   UNL     1      -7.830   0.058   2.631  1.00  0.00    -0.392 OA
ATOM     25  H   UNL     1      -6.997  -0.073   3.116  1.00  0.00     0.211 HD
ENDBRANCH  23  24
ENDBRANCH  18  23
ENDBRANCH   8  10
ENDBRANCH   1   7
BRANCH   4  26
ATOM     26  C   UNL     1       2.767   0.357   1.988  1.00  0.00     0.253 C 
ATOM     27  N   UNL     1       3.478  -0.511   1.167  1.00  0.00    -0.336 N 
ATOM     28  C   UNL     1       3.017  -1.027  -0.122  1.00  0.00     0.135 C 
ATOM     29  C   UNL     1       4.593  -1.244   1.769  1.00  0.00     0.135 C 
ATOM     30  C   UNL     1       4.175  -1.174  -1.137  1.00  0.00     0.106 C 
ATOM     31  C   UNL     1       5.385  -2.094   0.753  1.00  0.00     0.106 C 
ATOM     32  N   UNL     1       5.510  -1.393  -0.539  1.00  0.00    -0.291 NA
ATOM     33  O   UNL     1       2.982   0.467   3.194  1.00  0.00    -0.269 OA
BRANCH  32  34
ATOM     34  C   UNL     1       6.399  -2.112  -1.478  1.00  0.00     0.184 C 
BRANCH  34  35
ATOM     35  C   UNL     1       7.861  -1.967  -1.046  1.00  0.00     0.231 C 
ATOM     36  N   UNL     1       8.207  -0.705  -0.646  1.00  0.00    -0.369 N 
ATOM     37  O   UNL     1       8.681  -2.876  -1.089  1.00  0.00    -0.274 OA
ATOM     38  H   UNL     1       9.121  -0.579  -0.237  1.00  0.00     0.159 HD
ATOM     39  H   UNL     1       7.450  -0.108  -0.326  1.00  0.00     0.159 HD
ENDBRANCH  34  35
ENDBRANCH  32  34
ENDBRANCH   4  26
TORSDOF 7
