REMARK SMILES CN1CCCC[C@H]1Cc1ccc2c(c1)CN(S(=O)(=O)c1ccc(F)cc1F)c1ccccc1[C@@H]2c1noc(CO)n1
REMARK SMILES IDX 9 1 10 2 11 3 12 4 13 5 14 6 15 7 16 8 28 9 29 10 30 11
REMARK SMILES IDX 31 12 32 13 33 14 34 15 8 16 7 17 2 18 3 19 4 20 6 21 5 22
REMARK SMILES IDX 1 23 35 24 36 25 41 26 37 27 38 28 39 29 40 30 17 32 18 33
REMARK SMILES IDX 19 34 20 35 21 36 26 37 22 38 25 39 23 40 27 41 24 42
REMARK H PARENT 40 31
ROOT
ATOM      1  C   UNL     1      -2.460   1.038   0.032  1.00  0.00    -0.046 A 
ATOM      2  C   UNL     1      -2.442   1.951  -1.021  1.00  0.00     0.004 A 
ATOM      3  C   UNL     1      -1.230   2.345  -1.592  1.00  0.00     0.005 A 
ATOM      4  C   UNL     1       0.005   1.839  -1.130  1.00  0.00    -0.028 A 
ATOM      5  C   UNL     1      -0.015   0.937  -0.054  1.00  0.00    -0.023 A 
ATOM      6  C   UNL     1      -1.242   0.545   0.514  1.00  0.00     0.009 A 
ATOM      7  C   UNL     1       1.258   0.326   0.452  1.00  0.00     0.171 C 
ATOM      8  N   UNL     1       1.898  -0.446  -0.621  1.00  0.00    -0.262 N 
ATOM      9  C   UNL     1       2.810   0.226  -1.513  1.00  0.00     0.056 A 
ATOM     10  C   UNL     1       4.024  -0.393  -1.872  1.00  0.00     0.027 A 
ATOM     11  C   UNL     1       4.948   0.218  -2.721  1.00  0.00     0.002 A 
ATOM     12  C   UNL     1       4.681   1.472  -3.235  1.00  0.00     0.000 A 
ATOM     13  C   UNL     1       3.491   2.105  -2.893  1.00  0.00     0.007 A 
ATOM     14  C   UNL     1       2.531   1.513  -2.022  1.00  0.00    -0.008 A 
ATOM     15  C   UNL     1       1.276   2.351  -1.788  1.00  0.00     0.124 C 
ENDROOT
BRANCH   1  16
ATOM     16  C   UNL     1      -3.770   0.578   0.635  1.00  0.00     0.054 C 
BRANCH  16  17
ATOM     17  C   UNL     1      -4.095  -0.922   0.395  1.00  0.00     0.060 C 
ATOM     18  N   UNL     1      -5.234  -1.450   1.194  1.00  0.00    -0.303 NA
ATOM     19  C   UNL     1      -5.806  -2.701   0.661  1.00  0.00     0.084 C 
ATOM     20  C   UNL     1      -4.805  -3.528  -0.140  1.00  0.00     0.016 C 
ATOM     21  C   UNL     1      -4.269  -1.239  -1.104  1.00  0.00     0.019 C 
ATOM     22  C   UNL     1      -4.315  -2.749  -1.357  1.00  0.00     0.003 C 
ATOM     23  C   UNL     1      -6.308  -0.498   1.468  1.00  0.00     0.105 C 
ENDBRANCH  16  17
ENDBRANCH   1  16
BRANCH  15  24
ATOM     24  C   UNL     1       1.694   3.538  -0.958  1.00  0.00     0.183 A 
ATOM     25  N   UNL     1       1.491   4.799  -1.381  1.00  0.00    -0.061 NA
ATOM     26  N   UNL     1       2.325   3.451   0.267  1.00  0.00    -0.193 NA
ATOM     27  O   UNL     1       2.002   5.578  -0.345  1.00  0.00    -0.337 OA
ATOM     28  C   UNL     1       2.475   4.714   0.597  1.00  0.00     0.252 A 
BRANCH  28  29
ATOM     29  C   UNL     1       3.059   5.326   1.813  1.00  0.00     0.256 C 
BRANCH  29  30
ATOM     30  O   UNL     1       2.006   5.689   2.706  1.00  0.00    -0.387 OA
ATOM     31  H   UNL     1       1.364   6.222   2.203  1.00  0.00     0.211 HD
ENDBRANCH  29  30
ENDBRANCH  28  29
ENDBRANCH  15  24
BRANCH   8  32
ATOM     32  S   UNL     1       1.728  -2.133  -0.556  1.00  0.00     0.267 S 
ATOM     33  O   UNL     1       0.448  -2.426   0.060  1.00  0.00    -0.201 OA
ATOM     34  O   UNL     1       2.092  -2.692  -1.841  1.00  0.00    -0.201 OA
BRANCH  32  35
ATOM     35  C   UNL     1       2.948  -2.692   0.605  1.00  0.00     0.123 A 
ATOM     36  C   UNL     1       3.783  -1.826   1.320  1.00  0.00     0.028 A 
ATOM     37  C   UNL     1       3.049  -4.070   0.792  1.00  0.00     0.146 A 
ATOM     38  C   UNL     1       4.717  -2.356   2.214  1.00  0.00     0.041 A 
ATOM     39  C   UNL     1       3.978  -4.599   1.683  1.00  0.00     0.080 A 
ATOM     40  C   UNL     1       4.806  -3.735   2.386  1.00  0.00     0.126 A 
ATOM     41  F   UNL     1       2.255  -4.919   0.128  1.00  0.00    -0.205 F 
ATOM     42  F   UNL     1       5.705  -4.234   3.243  1.00  0.00    -0.207 F 
ENDBRANCH  32  35
ENDBRANCH   8  32
TORSDOF 7
