MODEL        8USER    Run = 8USERUSER    Estimated Free Energy of Binding    = -12.67 kcal/mol  [=(1)+(2)+(3)-(4)]USERUSER    (1) Final Intermolecular Energy     = -14.46 kcal/molUSER        vdW + Hbond + desolv Energy     = -14.28 kcal/molUSER        Electrostatic Energy            =  -0.18 kcal/molUSER        Moving Ligand-Fixed Receptor    = -14.46 kcal/molUSER        Moving Ligand-Moving Receptor   =  +0.00 kcal/molUSER    (2) Final Total Internal Energy     =  -2.12 kcal/molUSER    (3) Torsional Free Energy           =  +1.79 kcal/molUSER    (4) Unbound System's Energy         =  -2.12 kcal/molUSERUSERREMARK SMILES C[C@H]1N=C([C@@H]2C[C@H]2c2ccc(C(=O)N3CCN(S(=O)(=O)c4ccc(F)cc4)CC3)cc2)C(=C2C=CC=C2F)N1REMARK SMILES IDX 8 1 9 2 10 3 11 4 30 5 31 6 7 7 5 8 6 9 4 10 2 11 3 12 39 13REMARK SMILES IDX 32 14 1 15 33 17 34 18 37 19 35 20 36 21 38 22 12 23 14 24REMARK SMILES IDX 15 25 29 26 16 27 28 28 17 29 13 30 18 31 19 32 20 33 21 34REMARK SMILES IDX 22 35 27 36 23 37 26 38 24 39 25 40REMARK H PARENT 39 16USER                              x       y       z     vdW  Elec       q    TypeUSER                           _______ _______ _______ _____ _____    ______ ____ROOTATOM      1  C   UNL     1      36.490  45.181  16.735 -0.31 +0.02    -0.044 A  ATOM      2  C   UNL     1      35.596  45.833  17.608 -0.37 -0.00    +0.005 A  ATOM      3  C   UNL     1      34.268  45.414  17.750 -0.39 -0.01    +0.014 A  ATOM      4  C   UNL     1      33.811  44.313  17.029 -0.28 -0.02    +0.040 A  ATOM      5  C   UNL     1      34.659  43.658  16.137 -0.35 -0.01    +0.014 A  ATOM      6  C   UNL     1      35.982  44.092  16.000 -0.37 -0.00    +0.005 A  ENDROOTBRANCH   1   7ATOM      7  C   UNL     1      37.936  45.598  16.541 -0.40 -0.01    +0.029 C  ATOM      8  C   UNL     1      38.375  47.009  16.911 -0.37 -0.02    +0.048 C  ATOM      9  C   UNL     1      38.882  45.815  17.689 -0.46 -0.00    +0.019 C  BRANCH   8  10ATOM     10  C   UNL     1      39.270  47.742  16.003 -0.51 -0.02    +0.065 C  ATOM     11  C   UNL     1      41.000  48.862  15.256 -0.51 -0.03    +0.194 C  ATOM     12  N   UNL     1      40.433  48.161  16.437 -0.36 +0.06    -0.263 NA ATOM     13  N   UNL     1      39.979  48.911  14.225 -0.20 +0.13    -0.362 N  ATOM     14  C   UNL     1      38.944  48.070  14.581 -0.54 -0.03    +0.068 C  ATOM     15  C   UNL     1      41.410  50.268  15.657 -0.66 -0.01    +0.057 C  ATOM     16  H   UNL     1      40.271  48.864  13.253 +0.16 -0.03    +0.162 HD BRANCH  14  17ATOM     17  C   UNL     1      37.943  47.623  13.810 -0.57 -0.01    +0.035 C  ATOM     18  C   UNL     1      36.831  48.344  13.205 -0.59 -0.01    +0.013 C  ATOM     19  C   UNL     1      37.766  46.232  13.420 -0.39 -0.04    +0.132 C  ATOM     20  C   UNL     1      36.096  47.452  12.513 -0.74 -0.00    +0.004 C  ATOM     21  C   UNL     1      36.680  46.133  12.645 -0.64 -0.02    +0.040 C  ATOM     22  F   UNL     1      38.559  45.219  13.792 -0.07 +0.05    -0.206 F  ENDBRANCH  14  17ENDBRANCH   8  10ENDBRANCH   1   7BRANCH   4  23ATOM     23  C   UNL     1      32.401  43.890  17.170 -0.19 -0.08    +0.253 C  ATOM     24  N   UNL     1      32.128  42.547  17.445 -0.09 +0.10    -0.336 N  ATOM     25  C   UNL     1      30.715  42.191  17.599 -0.24 -0.03    +0.136 C  ATOM     26  C   UNL     1      33.059  41.703  18.214 -0.37 -0.03    +0.136 C  ATOM     27  C   UNL     1      30.458  40.689  17.417 -0.31 -0.02    +0.124 C  ATOM     28  C   UNL     1      32.785  40.205  18.020 -0.31 -0.03    +0.124 C  ATOM     29  N   UNL     1      31.350  39.898  18.329 -0.28 +0.00    -0.194 NA ATOM     30  O   UNL     1      31.528  44.742  17.019 -0.59 +0.05    -0.269 OA BRANCH  29  31ATOM     31  S   UNL     1      31.029  38.221  18.370 -0.43 +0.06    +0.243 S  ATOM     32  O   UNL     1      29.812  37.995  17.618 -0.16 -0.15    -0.207 OA ATOM     33  O   UNL     1      32.254  37.520  18.052 -0.37 -0.03    -0.207 OA BRANCH  31  34ATOM     34  C   UNL     1      30.697  37.930  20.091 -0.39 +0.01    +0.082 A  ATOM     35  C   UNL     1      29.576  37.185  20.474 -0.31 +0.00    +0.025 A  ATOM     36  C   UNL     1      31.579  38.452  21.047 -0.45 +0.00    +0.025 A  ATOM     37  C   UNL     1      29.333  36.972  21.831 -0.32 -0.00    +0.040 A  ATOM     38  C   UNL     1      31.327  38.233  22.401 -0.20 -0.00    +0.040 A  ATOM     39  C   UNL     1      30.207  37.496  22.781 -0.24 +0.00    +0.123 A  ATOM     40  F   UNL     1      29.968  37.288  24.082 -0.11 -0.04    -0.207 F  ENDBRANCH  31  34ENDBRANCH  29  31ENDBRANCH   4  23TORSDOF 6TERENDMDL