REMARK SMILES C[C@H]1N=C([C@@H]2C[C@H]2c2ccc(C(=O)N3CCN(S(=O)(=O)c4ccc(F)cc4)CC3)cc2)C(=C2C=CC=C2F)N1
REMARK SMILES IDX 8 1 9 2 10 3 11 4 30 5 31 6 7 7 5 8 6 9 4 10 2 11 3 12 39 13
REMARK SMILES IDX 32 14 1 15 33 17 34 18 37 19 35 20 36 21 38 22 12 23 14 24
REMARK SMILES IDX 15 25 29 26 16 27 28 28 17 29 13 30 18 31 19 32 20 33 21 34
REMARK SMILES IDX 22 35 27 36 23 37 26 38 24 39 25 40
REMARK H PARENT 39 16
ROOT
ATOM      1  C   UNL     1      -1.997   0.105  -0.164  1.00  0.00    -0.044 A 
ATOM      2  C   UNL     1      -1.447   1.173   0.572  1.00  0.00     0.005 A 
ATOM      3  C   UNL     1      -0.170   1.097   1.139  1.00  0.00     0.014 A 
ATOM      4  C   UNL     1       0.596  -0.054   0.961  1.00  0.00     0.040 A 
ATOM      5  C   UNL     1       0.076  -1.141   0.260  1.00  0.00     0.014 A 
ATOM      6  C   UNL     1      -1.205  -1.053  -0.295  1.00  0.00     0.005 A 
ENDROOT
BRANCH   1   7
ATOM      7  C   UNL     1      -3.378   0.135  -0.794  1.00  0.00     0.029 C 
ATOM      8  C   UNL     1      -4.580   0.567   0.035  1.00  0.00     0.048 C 
ATOM      9  C   UNL     1      -4.096   1.414  -1.121  1.00  0.00     0.019 C 
BRANCH   8  10
ATOM     10  C   UNL     1      -5.835  -0.193  -0.072  1.00  0.00     0.065 C 
ATOM     11  C   UNL     1      -7.231  -1.870  -0.278  1.00  0.00     0.194 C 
ATOM     12  N   UNL     1      -5.797  -1.500  -0.158  1.00  0.00    -0.263 NA
ATOM     13  N   UNL     1      -8.006  -0.649  -0.405  1.00  0.00    -0.362 N 
ATOM     14  C   UNL     1      -7.195   0.427  -0.104  1.00  0.00     0.068 C 
ATOM     15  C   UNL     1      -7.421  -2.744  -1.505  1.00  0.00     0.057 C 
ATOM     16  H   UNL     1      -8.939  -0.625  -0.004  1.00  0.00     0.162 HD
BRANCH  14  17
ATOM     17  C   UNL     1      -7.564   1.690   0.153  1.00  0.00     0.035 C 
ATOM     18  C   UNL     1      -6.759   2.844   0.532  1.00  0.00     0.013 C 
ATOM     19  C   UNL     1      -8.937   2.169   0.109  1.00  0.00     0.132 C 
ATOM     20  C   UNL     1      -7.592   3.893   0.671  1.00  0.00     0.004 C 
ATOM     21  C   UNL     1      -8.953   3.473   0.406  1.00  0.00     0.040 C 
ATOM     22  F   UNL     1     -10.009   1.415  -0.170  1.00  0.00    -0.206 F 
ENDBRANCH  14  17
ENDBRANCH   8  10
ENDBRANCH   1   7
BRANCH   4  23
ATOM     23  C   UNL     1       1.937  -0.133   1.580  1.00  0.00     0.253 C 
ATOM     24  N   UNL     1       3.035  -0.424   0.766  1.00  0.00    -0.336 N 
ATOM     25  C   UNL     1       4.341  -0.465   1.430  1.00  0.00     0.136 C 
ATOM     26  C   UNL     1       3.082  -0.029  -0.652  1.00  0.00     0.136 C 
ATOM     27  C   UNL     1       5.393  -1.238   0.623  1.00  0.00     0.124 C 
ATOM     28  C   UNL     1       4.140  -0.811  -1.442  1.00  0.00     0.124 C 
ATOM     29  N   UNL     1       5.477  -0.692  -0.773  1.00  0.00    -0.194 NA
ATOM     30  O   UNL     1       2.020   0.043   2.794  1.00  0.00    -0.269 OA
BRANCH  29  31
ATOM     31  S   UNL     1       6.747  -1.331  -1.719  1.00  0.00     0.243 S 
ATOM     32  O   UNL     1       6.707  -2.772  -1.579  1.00  0.00    -0.207 OA
ATOM     33  O   UNL     1       6.703  -0.697  -3.019  1.00  0.00    -0.207 OA
BRANCH  31  34
ATOM     34  C   UNL     1       8.195  -0.719  -0.892  1.00  0.00     0.082 A 
ATOM     35  C   UNL     1       9.121  -1.613  -0.342  1.00  0.00     0.025 A 
ATOM     36  C   UNL     1       8.392   0.666  -0.810  1.00  0.00     0.025 A 
ATOM     37  C   UNL     1      10.250  -1.110   0.305  1.00  0.00     0.040 A 
ATOM     38  C   UNL     1       9.524   1.159  -0.161  1.00  0.00     0.040 A 
ATOM     39  C   UNL     1      10.441   0.267   0.391  1.00  0.00     0.123 A 
ATOM     40  F   UNL     1      11.527   0.743   1.014  1.00  0.00    -0.207 F 
ENDBRANCH  31  34
ENDBRANCH  29  31
ENDBRANCH   4  23
TORSDOF 6
