MODEL        10USER    Run = 10USERUSER    Estimated Free Energy of Binding    = -10.76 kcal/mol  [=(1)+(2)+(3)-(4)]USERUSER    (1) Final Intermolecular Energy     = -12.85 kcal/molUSER        vdW + Hbond + desolv Energy     = -12.79 kcal/molUSER        Electrostatic Energy            =  -0.06 kcal/molUSER        Moving Ligand-Fixed Receptor    = -12.85 kcal/molUSER        Moving Ligand-Moving Receptor   =  +0.00 kcal/molUSER    (2) Final Total Internal Energy     =  -3.08 kcal/molUSER    (3) Torsional Free Energy           =  +2.09 kcal/molUSER    (4) Unbound System's Energy         =  -3.08 kcal/molUSERUSERREMARK SMILES CN1CCCC[C@H]1Cc1ccc2c(c1)CN(S(=O)(=O)c1ccc(F)cc1F)c1ccccc1[C@@H]2c1noc(CO)n1REMARK SMILES IDX 9 1 10 2 11 3 12 4 13 5 14 6 15 7 16 8 28 9 29 10 30 11REMARK SMILES IDX 31 12 32 13 33 14 34 15 8 16 7 17 2 18 3 19 4 20 6 21 5 22REMARK SMILES IDX 1 23 35 24 36 25 41 26 37 27 38 28 39 29 40 30 17 32 18 33REMARK SMILES IDX 19 34 20 35 21 36 26 37 22 38 25 39 23 40 27 41 24 42REMARK H PARENT 40 31USER                              x       y       z     vdW  Elec       q    TypeUSER                           _______ _______ _______ _____ _____    ______ ____ROOTATOM      1  C   UNL     1      39.841  44.713  22.651 -0.22 -0.00    -0.046 A  ATOM      2  C   UNL     1      38.918  43.693  22.424 -0.29 +0.00    +0.004 A  ATOM      3  C   UNL     1      38.055  43.284  23.443 -0.32 +0.00    +0.005 A  ATOM      4  C   UNL     1      38.085  43.880  24.723 -0.25 -0.00    -0.028 A  ATOM      5  C   UNL     1      39.032  44.891  24.955 -0.17 -0.00    -0.023 A  ATOM      6  C   UNL     1      39.896  45.298  23.921 -0.18 +0.00    +0.009 A  ATOM      7  C   UNL     1      39.083  45.598  26.277 -0.15 +0.00    +0.171 C  ATOM      8  N   UNL     1      37.803  46.272  26.529 -0.17 +0.02    -0.262 N  ATOM      9  C   UNL     1      36.749  45.541  27.187 -0.28 -0.01    +0.056 A  ATOM     10  C   UNL     1      35.994  46.161  28.202 -0.20 -0.01    +0.027 A  ATOM     11  C   UNL     1      34.971  45.496  28.880 -0.39 -0.00    +0.002 A  ATOM     12  C   UNL     1      34.676  44.185  28.559 -0.63 -0.00    +0.000 A  ATOM     13  C   UNL     1      35.409  43.551  27.562 -0.55 -0.00    +0.007 A  ATOM     14  C   UNL     1      36.465  44.198  26.857 -0.39 +0.00    -0.008 A  ATOM     15  C   UNL     1      37.133  43.346  25.781 -0.31 -0.01    +0.124 C  ENDROOTBRANCH   1  16ATOM     16  C   UNL     1      40.757  45.188  21.543 -0.31 +0.00    +0.054 C  BRANCH  16  17ATOM     17  C   UNL     1      40.025  45.584  20.232 -0.37 +0.00    +0.060 C  ATOM     18  N   UNL     1      40.745  46.578  19.390 -0.18 -0.00    -0.303 NA ATOM     19  C   UNL     1      40.285  46.617  17.989 -0.49 -0.01    +0.084 C  ATOM     20  C   UNL     1      38.836  46.171  17.818 -0.45 -0.00    +0.016 C  ATOM     21  C   UNL     1      39.613  44.347  19.408 -0.38 -0.00    +0.019 C  ATOM     22  C   UNL     1      38.662  44.723  18.268 -0.44 -0.00    +0.003 C  ATOM     23  C   UNL     1      42.204  46.494  19.424 -0.44 +0.02    +0.105 C  ENDBRANCH  16  17ENDBRANCH   1  16BRANCH  15  24ATOM     24  C   UNL     1      37.910  42.270  26.497 -0.22 -0.02    +0.183 A  ATOM     25  N   UNL     1      37.478  40.997  26.533 -0.33 +0.01    -0.061 NA ATOM     26  N   UNL     1      39.090  42.484  27.182 -0.17 +0.01    -0.193 NA ATOM     27  O   UNL     1      38.461  40.339  27.269 -0.23 +0.00    -0.337 OA ATOM     28  C   UNL     1      39.385  41.279  27.617 -0.21 -0.01    +0.252 A  BRANCH  28  29ATOM     29  C   UNL     1      40.545  40.799  28.402 -0.17 -0.01    +0.256 C  BRANCH  29  30ATOM     30  O   UNL     1      40.656  39.384  28.256 -0.46 +0.04    -0.387 OA ATOM     31  H   UNL     1      40.306  39.150  27.377 -0.45 -0.06    +0.211 HD ENDBRANCH  29  30ENDBRANCH  28  29ENDBRANCH  15  24BRANCH   8  32ATOM     32  S   UNL     1      37.759  47.949  26.275 -0.34 -0.00    +0.267 S  ATOM     33  O   UNL     1      36.933  48.200  25.109 -0.62 -0.02    -0.201 OA ATOM     34  O   UNL     1      37.501  48.609  27.538 -0.21 +0.01    -0.201 OA BRANCH  32  35ATOM     35  C   UNL     1      39.405  48.403  25.792 -0.22 +0.01    +0.123 A  ATOM     36  C   UNL     1      40.393  48.797  26.701 -0.26 +0.00    +0.028 A  ATOM     37  C   UNL     1      39.695  48.348  24.429 -0.26 +0.02    +0.146 A  ATOM     38  C   UNL     1      41.663  49.138  26.230 -0.24 +0.00    +0.041 A  ATOM     39  C   UNL     1      40.960  48.686  23.958 -0.27 +0.01    +0.080 A  ATOM     40  C   UNL     1      41.934  49.080  24.865 -0.30 +0.02    +0.126 A  ATOM     41  F   UNL     1      38.771  47.964  23.539 -0.14 -0.03    -0.205 F  ATOM     42  F   UNL     1      43.153  49.411  24.422 -0.14 -0.07    -0.207 F  ENDBRANCH  32  35ENDBRANCH   8  32TORSDOF 7TERENDMDL