
     RDKit          3D

 44 46  0  0  0  0  0  0  0  0999 V2000
    4.6833   -1.8608   -0.9756 C   0  0  0  0  0  0  0  0  0  0  0  0
    4.0036   -0.7215   -0.2679 C   0  0  0  0  0  0  0  0  0  0  0  0
    2.7296   -0.4635   -0.6644 N   0  0  0  0  0  0  0  0  0  0  0  0
    2.0246    0.5328   -0.0887 C   0  0  0  0  0  0  0  0  0  0  0  0
    0.7369    0.7820   -0.5316 N   0  0  0  0  0  0  0  0  0  0  0  0
    0.2802    0.0066   -1.6951 C   0  0  0  0  0  0  0  0  0  0  0  0
   -1.1167    0.4904   -2.1451 C   0  0  0  0  0  0  0  0  0  0  0  0
   -2.1787    0.4082   -1.1147 N   0  0  0  0  0  0  0  0  0  0  0  0
   -3.0779   -0.7292   -1.3645 C   0  0  0  0  0  0  0  0  0  0  0  0
   -4.2962   -0.7356   -0.4689 C   0  0  0  0  0  0  0  0  0  0  0  0
   -5.1880    0.3420   -0.4697 C   0  0  0  0  0  0  0  0  0  0  0  0
   -6.2936    0.2925    0.3637 C   0  0  0  0  0  0  0  0  0  0  0  0
   -6.5710   -0.7443    1.1829 N   0  0  0  0  0  0  0  0  0  0  0  0
   -5.7016   -1.7766    1.1663 C   0  0  0  0  0  0  0  0  0  0  0  0
   -4.5671   -1.8200    0.3701 C   0  0  0  0  0  0  0  0  0  0  0  0
   -1.5956    0.3509    0.2463 C   0  0  0  0  0  0  0  0  0  0  0  0
   -0.3078    1.1902    0.4233 C   0  0  0  0  0  0  0  0  0  0  0  0
    2.6155    1.3164    0.8962 C   0  0  0  0  0  0  0  0  0  0  0  0
    3.9316    1.0662    1.3199 C   0  0  0  0  0  0  0  0  0  0  0  0
    4.5545    1.9233    2.3873 C   0  0  0  0  0  0  0  0  0  0  0  0
    5.6638    2.5750    1.9497 F   0  0  0  0  0  0  0  0  0  0  0  0
    3.7187    2.8900    2.8591 F   0  0  0  0  0  0  0  0  0  0  0  0
    4.9328    1.2018    3.4755 F   0  0  0  0  0  0  0  0  0  0  0  0
    4.6421    0.0179    0.7246 C   0  0  0  0  0  0  0  0  0  0  0  0
    5.9878   -0.2897    1.1115 C   0  0  0  0  0  0  0  0  0  0  0  0
    7.0758   -0.5442    1.4215 N   0  0  0  0  0  0  0  0  0  0  0  0
    4.9635   -2.6424   -0.2625 H   0  0  0  0  0  0  0  0  0  0  0  0
    5.5753   -1.5073   -1.5021 H   0  0  0  0  0  0  0  0  0  0  0  0
    4.0141   -2.3102   -1.7173 H   0  0  0  0  0  0  0  0  0  0  0  0
    0.9738    0.1420   -2.5345 H   0  0  0  0  0  0  0  0  0  0  0  0
    0.2367   -1.0639   -1.4553 H   0  0  0  0  0  0  0  0  0  0  0  0
   -1.4042   -0.0358   -3.0637 H   0  0  0  0  0  0  0  0  0  0  0  0
   -1.0344    1.5487   -2.4261 H   0  0  0  0  0  0  0  0  0  0  0  0
   -2.5326   -1.6785   -1.2778 H   0  0  0  0  0  0  0  0  0  0  0  0
   -3.4553   -0.6846   -2.3951 H   0  0  0  0  0  0  0  0  0  0  0  0
   -5.0167    1.2076   -1.1017 H   0  0  0  0  0  0  0  0  0  0  0  0
   -7.0063    1.1116    0.3951 H   0  0  0  0  0  0  0  0  0  0  0  0
   -5.9483   -2.5981    1.8328 H   0  0  0  0  0  0  0  0  0  0  0  0
   -3.9125   -2.6839    0.4098 H   0  0  0  0  0  0  0  0  0  0  0  0
   -2.3374    0.7062    0.9709 H   0  0  0  0  0  0  0  0  0  0  0  0
   -1.3526   -0.6873    0.5126 H   0  0  0  0  0  0  0  0  0  0  0  0
   -0.5319    2.2520    0.2657 H   0  0  0  0  0  0  0  0  0  0  0  0
    0.0180    1.0728    1.4638 H   0  0  0  0  0  0  0  0  0  0  0  0
    2.0641    2.1500    1.3245 H   0  0  0  0  0  0  0  0  0  0  0  0
  1  2  1  0
  2  3  2  0
  3  4  1  0
  4  5  1  0
  5  6  1  0
  6  7  1  0
  7  8  1  0
  8  9  1  0
  9 10  1  0
 10 11  2  0
 11 12  1  0
 12 13  2  0
 13 14  1  0
 14 15  2  0
  8 16  1  0
 16 17  1  0
  4 18  2  0
 18 19  1  0
 19 20  1  0
 20 21  1  0
 20 22  1  0
 20 23  1  0
 19 24  2  0
 24 25  1  0
 25 26  3  0
 24  2  1  0
 17  5  1  0
 15 10  1  0
  1 27  1  0
  1 28  1  0
  1 29  1  0
  6 30  1  0
  6 31  1  0
  7 32  1  0
  7 33  1  0
  9 34  1  0
  9 35  1  0
 11 36  1  0
 12 37  1  0
 14 38  1  0
 15 39  1  0
 16 40  1  0
 16 41  1  0
 17 42  1  0
 17 43  1  0
 18 44  1  0
M  END
$$$$
