
     RDKit          3D

 45 48  0  0  0  0  0  0  0  0999 V2000
    6.1172    0.8238    0.0543 C   0  0  0  0  0  0  0  0  0  0  0  0
    5.1518    0.9072    1.0949 O   0  0  0  0  0  0  0  0  0  0  0  0
    3.9146    0.3865    0.8334 C   0  0  0  0  0  0  0  0  0  0  0  0
    3.5011   -0.1833   -0.3711 C   0  0  0  0  0  0  0  0  0  0  0  0
    2.1991   -0.6789   -0.5049 C   0  0  0  0  0  0  0  0  0  0  0  0
    1.2970   -0.6022    0.5633 C   0  0  0  0  0  0  0  0  0  0  0  0
   -0.0797   -1.1427    0.4244 C   0  0  0  0  0  0  0  0  0  0  0  0
   -0.3657   -2.5576    0.7505 C   0  0  0  0  0  0  0  0  0  0  0  0
    0.6877   -3.4194    1.1914 C   0  0  0  0  0  0  0  0  0  0  0  0
    1.5203   -4.1442    1.5502 N   0  0  0  0  0  0  0  0  0  0  0  0
   -1.6087   -3.0635    0.6361 C   0  0  0  0  0  0  0  0  0  0  0  0
   -2.6704   -2.2370    0.1964 C   0  0  0  0  0  0  0  0  0  0  0  0
   -4.0067   -2.4107   -0.0322 C   0  0  0  0  0  0  0  0  0  0  0  0
   -4.7275   -3.5210    0.1326 N   0  0  0  0  0  0  0  0  0  0  0  0
   -4.5979   -1.2800   -0.4628 N   0  0  0  0  0  0  0  0  0  0  0  0
   -3.6364   -0.3737   -0.5193 C   0  0  0  0  0  0  0  0  0  0  0  0
   -3.8760    1.0249   -0.9578 C   0  0  0  0  0  0  0  0  0  0  0  0
   -2.4050   -0.9047   -0.1200 N   0  0  0  0  0  0  0  0  0  0  0  0
   -1.1040   -0.3455   -0.0074 C   0  0  0  0  0  0  0  0  0  0  0  0
   -0.8446    1.0702   -0.3483 C   0  0  0  0  0  0  0  0  0  0  0  0
   -0.4741    1.4265   -1.6526 C   0  0  0  0  0  0  0  0  0  0  0  0
   -0.2099    2.7600   -1.9687 C   0  0  0  0  0  0  0  0  0  0  0  0
   -0.3083    3.7430   -0.9850 C   0  0  0  0  0  0  0  0  0  0  0  0
   -0.6685    3.3961    0.3164 C   0  0  0  0  0  0  0  0  0  0  0  0
   -0.9342    2.0639    0.6364 C   0  0  0  0  0  0  0  0  0  0  0  0
    1.7167   -0.0407    1.7737 C   0  0  0  0  0  0  0  0  0  0  0  0
    3.0167    0.4536    1.9016 C   0  0  0  0  0  0  0  0  0  0  0  0
    6.3237   -0.2184   -0.2111 H   0  0  0  0  0  0  0  0  0  0  0  0
    7.0479    1.2632    0.4258 H   0  0  0  0  0  0  0  0  0  0  0  0
    5.8032    1.4009   -0.8218 H   0  0  0  0  0  0  0  0  0  0  0  0
    4.1653   -0.2593   -1.2253 H   0  0  0  0  0  0  0  0  0  0  0  0
    1.8968   -1.1220   -1.4510 H   0  0  0  0  0  0  0  0  0  0  0  0
   -1.8206   -4.1044    0.8673 H   0  0  0  0  0  0  0  0  0  0  0  0
   -5.7354   -3.3998    0.1124 H   0  0  0  0  0  0  0  0  0  0  0  0
   -4.4272   -4.2377    0.7807 H   0  0  0  0  0  0  0  0  0  0  0  0
   -4.9339    1.1599   -1.2095 H   0  0  0  0  0  0  0  0  0  0  0  0
   -3.3031    1.2640   -1.8567 H   0  0  0  0  0  0  0  0  0  0  0  0
   -3.6460    1.7368   -0.1618 H   0  0  0  0  0  0  0  0  0  0  0  0
   -0.3878    0.6695   -2.4287 H   0  0  0  0  0  0  0  0  0  0  0  0
    0.0778    3.0320   -2.9811 H   0  0  0  0  0  0  0  0  0  0  0  0
   -0.0974    4.7808   -1.2314 H   0  0  0  0  0  0  0  0  0  0  0  0
   -0.7366    4.1633    1.0836 H   0  0  0  0  0  0  0  0  0  0  0  0
   -1.2075    1.8074    1.6573 H   0  0  0  0  0  0  0  0  0  0  0  0
    1.0408    0.0205    2.6227 H   0  0  0  0  0  0  0  0  0  0  0  0
    3.3355    0.8927    2.8439 H   0  0  0  0  0  0  0  0  0  0  0  0
  1  2  1  0
  2  3  1  0
  3  4  2  0
  4  5  1  0
  5  6  2  0
  6  7  1  0
  7  8  1  0
  8  9  1  0
  9 10  3  0
  8 11  2  0
 11 12  1  0
 12 13  2  0
 13 14  1  0
 13 15  1  0
 15 16  2  0
 16 17  1  0
 16 18  1  0
 18 19  1  0
 19 20  1  0
 20 21  2  0
 21 22  1  0
 22 23  2  0
 23 24  1  0
 24 25  2  0
  6 26  1  0
 26 27  2  0
 27  3  1  0
 19  7  2  0
 25 20  1  0
 18 12  1  0
  1 28  1  0
  1 29  1  0
  1 30  1  0
  4 31  1  0
  5 32  1  0
 11 33  1  0
 14 34  1  0
 14 35  1  0
 17 36  1  0
 17 37  1  0
 17 38  1  0
 21 39  1  0
 22 40  1  0
 23 41  1  0
 24 42  1  0
 25 43  1  0
 26 44  1  0
 27 45  1  0
M  END
$$$$
