
     RDKit          3D

 42 43  0  0  0  0  0  0  0  0999 V2000
    7.5593   -1.4833   -0.1938 C   0  0  0  0  0  0  0  0  0  0  0  0
    6.8371   -1.8963    1.0007 N   0  0  0  0  0  0  0  0  0  0  0  0
    5.1918   -1.5672    1.1353 S   0  0  0  0  0  0  0  0  0  0  0  0
    4.8288   -2.1048    2.4289 O   0  0  0  0  0  0  0  0  0  0  0  0
    4.5811   -2.0392   -0.0881 O   0  0  0  0  0  0  0  0  0  0  0  0
    5.0862    0.1579    1.2075 C   0  0  0  0  0  0  0  0  0  0  0  0
    3.9274    0.8368    1.1831 C   0  0  0  0  0  0  0  0  0  0  0  0
    2.5713    0.3215    1.1406 C   0  0  0  0  0  0  0  0  0  0  0  0
    2.4327   -0.9926    1.4269 F   0  0  0  0  0  0  0  0  0  0  0  0
    1.4516    1.0374    0.8952 C   0  0  0  0  0  0  0  0  0  0  0  0
    1.4559    2.4977    0.5182 C   0  0  0  0  0  0  0  0  0  0  0  0
    1.4137    3.5117    1.9860 Cl  0  0  0  0  0  0  0  0  0  0  0  0
    0.1328    0.4647    0.9272 C   0  0  0  0  0  0  0  0  0  0  0  0
   -0.3083   -0.5068    1.8001 C   0  0  0  0  0  0  0  0  0  0  0  0
   -1.9440   -0.8844    1.4707 S   0  0  0  0  0  0  0  0  0  0  0  0
   -1.9577    0.2683    0.1870 C   0  0  0  0  0  0  0  0  0  0  0  0
   -3.1555    0.5179   -0.6317 C   0  0  0  0  0  0  0  0  0  0  0  0
   -3.1386    1.5579   -1.5590 C   0  0  0  0  0  0  0  0  0  0  0  0
   -4.1704    1.8940   -2.3710 N   0  0  0  0  0  0  0  0  0  0  0  0
   -5.2932    1.1641   -2.2742 C   0  0  0  0  0  0  0  0  0  0  0  0
   -6.3645    1.5132   -3.1201 N   0  0  0  0  0  0  0  0  0  0  0  0
   -5.4255    0.0881   -1.3790 C   0  0  0  0  0  0  0  0  0  0  0  0
   -6.6319   -0.5668   -1.3951 O   0  0  0  0  0  0  0  0  0  0  0  0
   -6.7872   -1.6657   -0.5054 C   0  0  0  0  0  0  0  0  0  0  0  0
   -4.3402   -0.2280   -0.5560 C   0  0  0  0  0  0  0  0  0  0  0  0
   -0.8124    0.9056    0.0209 N   0  0  0  0  0  0  0  0  0  0  0  0
    8.4653   -2.0892   -0.2869 H   0  0  0  0  0  0  0  0  0  0  0  0
    6.9671   -1.6284   -1.1005 H   0  0  0  0  0  0  0  0  0  0  0  0
    7.8589   -0.4354   -0.1131 H   0  0  0  0  0  0  0  0  0  0  0  0
    7.3285   -1.9113    1.8925 H   0  0  0  0  0  0  0  0  0  0  0  0
    6.0225    0.6932    1.2684 H   0  0  0  0  0  0  0  0  0  0  0  0
    4.0194    1.9201    1.2242 H   0  0  0  0  0  0  0  0  0  0  0  0
    0.6171    2.7999   -0.1155 H   0  0  0  0  0  0  0  0  0  0  0  0
    2.3574    2.7697   -0.0401 H   0  0  0  0  0  0  0  0  0  0  0  0
    0.2309   -1.0047    2.5943 H   0  0  0  0  0  0  0  0  0  0  0  0
   -2.2571    2.1838   -1.6847 H   0  0  0  0  0  0  0  0  0  0  0  0
   -6.6020    0.6865   -3.6625 H   0  0  0  0  0  0  0  0  0  0  0  0
   -7.1706    1.6939   -2.5274 H   0  0  0  0  0  0  0  0  0  0  0  0
   -7.7935   -2.0711   -0.6480 H   0  0  0  0  0  0  0  0  0  0  0  0
   -6.7029   -1.3436    0.5376 H   0  0  0  0  0  0  0  0  0  0  0  0
   -6.0720   -2.4626   -0.7341 H   0  0  0  0  0  0  0  0  0  0  0  0
   -4.4093   -1.0544    0.1410 H   0  0  0  0  0  0  0  0  0  0  0  0
  1  2  1  0
  2  3  1  0
  3  4  2  0
  3  5  2  0
  3  6  1  0
  6  7  2  3
  7  8  1  0
  8  9  1  0
  8 10  2  3
 10 11  1  0
 11 12  1  0
 10 13  1  0
 13 14  2  0
 14 15  1  0
 15 16  1  0
 16 17  1  0
 17 18  2  0
 18 19  1  0
 19 20  2  0
 20 21  1  0
 20 22  1  0
 22 23  1  0
 23 24  1  0
 22 25  2  0
 16 26  2  0
 26 13  1  0
 25 17  1  0
  1 27  1  0
  1 28  1  0
  1 29  1  0
  2 30  1  0
  6 31  1  0
  7 32  1  0
 11 33  1  0
 11 34  1  0
 14 35  1  0
 18 36  1  0
 21 37  1  0
 21 38  1  0
 24 39  1  0
 24 40  1  0
 24 41  1  0
 25 42  1  0
M  END
$$$$
