
     RDKit          3D

 44 47  0  0  0  0  0  0  0  0999 V2000
    5.4774    1.5445   -1.6689 O   0  0  0  0  0  0  0  0  0  0  0  0
    4.6207    1.0143   -0.6616 C   0  0  0  0  0  0  0  0  0  0  0  0
    3.1665    0.9875   -1.1576 C   0  0  0  0  0  0  0  0  0  0  0  0
    2.2139    0.4459   -0.1734 N   0  0  0  0  0  0  0  0  0  0  0  0
    2.1069    1.2768    1.0372 C   0  0  0  0  0  0  0  0  0  0  0  0
    0.6526    1.1795    1.4569 C   0  0  0  0  0  0  0  0  0  0  0  0
   -0.0642    1.2212    0.1086 C   0  0  0  0  0  0  0  0  0  0  0  0
   -1.5661    1.0313    0.1572 C   0  0  0  0  0  0  0  0  0  0  0  0
   -2.3170    1.7118    1.1351 C   0  0  0  0  0  0  0  0  0  0  0  0
   -3.7048    1.6289    1.1465 C   0  0  0  0  0  0  0  0  0  0  0  0
   -4.4010    2.3005    2.1103 O   0  0  0  0  0  0  0  0  0  0  0  0
   -4.3848    0.8908    0.1864 C   0  0  0  0  0  0  0  0  0  0  0  0
   -5.7498    0.8633    0.2512 O   0  0  0  0  0  0  0  0  0  0  0  0
   -3.6791    0.2209   -0.7996 C   0  0  0  0  0  0  0  0  0  0  0  0
   -2.2779    0.2851   -0.8002 C   0  0  0  0  0  0  0  0  0  0  0  0
   -1.6484   -0.3958   -1.8189 O   0  0  0  0  0  0  0  0  0  0  0  0
   -0.8643   -1.4324   -1.3630 C   0  0  0  0  0  0  0  0  0  0  0  0
   -1.3523   -2.7334   -1.5215 C   0  0  0  0  0  0  0  0  0  0  0  0
   -0.5846   -3.7960   -1.0690 C   0  0  0  0  0  0  0  0  0  0  0  0
   -1.0120   -5.0853   -1.1865 O   0  0  0  0  0  0  0  0  0  0  0  0
    0.6511   -3.5704   -0.4795 C   0  0  0  0  0  0  0  0  0  0  0  0
    1.1310   -2.2655   -0.3519 C   0  0  0  0  0  0  0  0  0  0  0  0
    2.3637   -2.1419    0.2264 O   0  0  0  0  0  0  0  0  0  0  0  0
    0.3902   -1.1593   -0.7946 C   0  0  0  0  0  0  0  0  0  0  0  0
    0.8400    0.2956   -0.7531 C   0  0  0  0  0  0  0  0  0  0  0  0
    5.2447    2.4803   -1.7924 H   0  0  0  0  0  0  0  0  0  0  0  0
    4.9636    0.0013   -0.4274 H   0  0  0  0  0  0  0  0  0  0  0  0
    4.7355    1.6295    0.2363 H   0  0  0  0  0  0  0  0  0  0  0  0
    2.8704    1.9951   -1.4790 H   0  0  0  0  0  0  0  0  0  0  0  0
    3.1441    0.3673   -2.0635 H   0  0  0  0  0  0  0  0  0  0  0  0
    2.3486    2.3273    0.8298 H   0  0  0  0  0  0  0  0  0  0  0  0
    2.7772    0.9183    1.8244 H   0  0  0  0  0  0  0  0  0  0  0  0
    0.4523    0.2392    1.9856 H   0  0  0  0  0  0  0  0  0  0  0  0
    0.3828    2.0087    2.1179 H   0  0  0  0  0  0  0  0  0  0  0  0
    0.0725    2.2393   -0.2926 H   0  0  0  0  0  0  0  0  0  0  0  0
   -1.8369    2.3303    1.8882 H   0  0  0  0  0  0  0  0  0  0  0  0
   -5.3394    2.0980    1.9227 H   0  0  0  0  0  0  0  0  0  0  0  0
   -6.0791    0.3128   -0.4801 H   0  0  0  0  0  0  0  0  0  0  0  0
   -4.1866   -0.3544   -1.5662 H   0  0  0  0  0  0  0  0  0  0  0  0
   -2.3197   -2.8910   -1.9845 H   0  0  0  0  0  0  0  0  0  0  0  0
   -1.8800   -5.0915   -1.6210 H   0  0  0  0  0  0  0  0  0  0  0  0
    1.2490   -4.4055   -0.1263 H   0  0  0  0  0  0  0  0  0  0  0  0
    2.5699   -1.1825    0.2109 H   0  0  0  0  0  0  0  0  0  0  0  0
    0.8235    0.6598   -1.7907 H   0  0  0  0  0  0  0  0  0  0  0  0
  1  2  1  0
  2  3  1  0
  3  4  1  0
  4  5  1  0
  5  6  1  0
  6  7  1  0
  7  8  1  0
  8  9  2  0
  9 10  1  0
 10 11  1  0
 10 12  2  0
 12 13  1  0
 12 14  1  0
 14 15  2  0
 15 16  1  0
 16 17  1  0
 17 18  2  0
 18 19  1  0
 19 20  1  0
 19 21  2  0
 21 22  1  0
 22 23  1  0
 22 24  2  0
 24 25  1  0
 25  4  1  0
 25  7  1  0
 15  8  1  0
 24 17  1  0
  1 26  1  0
  2 27  1  0
  2 28  1  0
  3 29  1  0
  3 30  1  0
  5 31  1  0
  5 32  1  0
  6 33  1  0
  6 34  1  0
  7 35  1  0
  9 36  1  0
 11 37  1  0
 13 38  1  0
 14 39  1  0
 18 40  1  0
 20 41  1  0
 21 42  1  0
 23 43  1  0
 25 44  1  0
M  END
$$$$
