REMARK SMILES Cc1[nH]c2ccccc2c1C=CCC[C@H](c1ccc(C(=O)NC2CC2)cc1)[C@@H](C)O
REMARK SMILES IDX 13 1 12 2 11 3 10 4 2 5 3 6 4 7 9 8 5 9 8 10 6 11 7 12 1 13
REMARK SMILES IDX 14 15 15 16 16 17 17 18 27 19 18 20 26 21 19 22 20 23 22 24
REMARK SMILES IDX 21 25 23 27 24 28 25 29 28 30 29 31 30 32
REMARK H PARENT 3 14 22 26 30 33
ROOT
ATOM      1  C   UNL     1      -1.607  -0.767   1.586  1.00  0.00     0.028 C 
ENDROOT
BRANCH   1   2
ATOM      2  C   UNL     1      -1.074   0.560   1.126  1.00  0.00    -0.026 C 
BRANCH   2   3
ATOM      3  C   UNL     1      -1.795   1.639   0.773  1.00  0.00     0.006 C 
BRANCH   3   4
ATOM      4  C   UNL     1      -3.217   1.731   0.742  1.00  0.00     0.002 A 
ATOM      5  C   UNL     1      -4.036   1.184  -0.228  1.00  0.00     0.020 A 
ATOM      6  N   UNL     1      -5.329   1.505   0.115  1.00  0.00    -0.358 N 
ATOM      7  C   UNL     1      -5.357   2.262   1.264  1.00  0.00     0.046 A 
ATOM      8  C   UNL     1      -4.036   2.430   1.677  1.00  0.00     0.007 A 
ATOM      9  C   UNL     1      -6.444   2.807   1.960  1.00  0.00     0.027 A 
ATOM     10  C   UNL     1      -3.785   3.185   2.843  1.00  0.00     0.011 A 
ATOM     11  C   UNL     1      -6.168   3.550   3.113  1.00  0.00     0.002 A 
ATOM     12  C   UNL     1      -4.859   3.739   3.550  1.00  0.00     0.001 A 
ATOM     13  C   UNL     1      -3.743   0.394  -1.451  1.00  0.00     0.065 C 
ATOM     14  H   UNL     1      -6.151   1.237  -0.408  1.00  0.00     0.166 HD
ENDBRANCH   3   4
ENDBRANCH   2   3
ENDBRANCH   1   2
BRANCH   1  15
ATOM     15  C   UNL     1      -1.424  -1.918   0.583  1.00  0.00     0.015 C 
BRANCH  15  16
ATOM     16  C   UNL     1      -0.004  -2.540   0.553  1.00  0.00     0.048 C 
BRANCH  16  17
ATOM     17  C   UNL     1       1.075  -1.666  -0.081  1.00  0.00    -0.042 A 
ATOM     18  C   UNL     1       2.340  -1.588   0.527  1.00  0.00     0.005 A 
ATOM     19  C   UNL     1       0.860  -0.939  -1.262  1.00  0.00     0.005 A 
ATOM     20  C   UNL     1       3.360  -0.807  -0.025  1.00  0.00     0.014 A 
ATOM     21  C   UNL     1       1.875  -0.153  -1.815  1.00  0.00     0.014 A 
ATOM     22  C   UNL     1       3.132  -0.096  -1.207  1.00  0.00     0.039 A 
BRANCH  22  23
ATOM     23  C   UNL     1       4.189   0.745  -1.833  1.00  0.00     0.251 C 
ATOM     24  N   UNL     1       5.486   0.290  -1.684  1.00  0.00    -0.349 N 
ATOM     25  O   UNL     1       3.881   1.753  -2.459  1.00  0.00    -0.269 OA
ATOM     26  H   UNL     1       5.636  -0.645  -1.328  1.00  0.00     0.164 HD
BRANCH  24  27
ATOM     27  C   UNL     1       6.595   0.963  -2.283  1.00  0.00     0.082 C 
ATOM     28  C   UNL     1       7.392   1.968  -1.497  1.00  0.00     0.027 C 
ATOM     29  C   UNL     1       8.002   0.644  -1.856  1.00  0.00     0.027 C 
ENDBRANCH  24  27
ENDBRANCH  22  23
ENDBRANCH  16  17
BRANCH  16  30
ATOM     30  C   UNL     1      -0.043  -3.973  -0.061  1.00  0.00     0.118 C 
ATOM     31  C   UNL     1      -0.346  -4.042  -1.553  1.00  0.00     0.039 C 
BRANCH  30  32
ATOM     32  O   UNL     1       1.188  -4.664   0.170  1.00  0.00    -0.393 OA
ATOM     33  H   UNL     1       1.347  -4.669   1.128  1.00  0.00     0.210 HD
ENDBRANCH  30  32
ENDBRANCH  16  30
ENDBRANCH  15  16
ENDBRANCH   1  15
TORSDOF 10
