MODEL        4USER    Run = 4USERUSER    Estimated Free Energy of Binding    = -10.89 kcal/mol  [=(1)+(2)+(3)-(4)]USERUSER    (1) Final Intermolecular Energy     = -13.57 kcal/molUSER        vdW + Hbond + desolv Energy     = -13.42 kcal/molUSER        Electrostatic Energy            =  -0.15 kcal/molUSER        Moving Ligand-Fixed Receptor    = -13.57 kcal/molUSER        Moving Ligand-Moving Receptor   =  +0.00 kcal/molUSER    (2) Final Total Internal Energy     =  -2.05 kcal/molUSER    (3) Torsional Free Energy           =  +2.68 kcal/molUSER    (4) Unbound System's Energy         =  -2.05 kcal/molUSERUSERREMARK SMILES Cc1[nH]c2ccccc2c1CCCC[C@@H](CO)c1ccc(-c2nnn[nH]2)cc1REMARK SMILES IDX 13 1 12 2 11 3 10 4 2 5 3 6 4 7 9 8 5 9 8 10 6 11 7 12 1 13REMARK SMILES IDX 14 15 15 16 16 17 17 18 18 20 19 21 28 22 20 23 27 24 21 25REMARK SMILES IDX 22 26 23 27 26 28 24 29 25 30REMARK H PARENT 3 14 17 19 26 31USER                              x       y       z     vdW  Elec       q    TypeUSER                           _______ _______ _______ _____ _____    ______ ____ROOTATOM      1  C   UNL     1      36.632  43.954  19.855 -0.46 -0.00    +0.001 C  ENDROOTBRANCH   1   2ATOM      2  C   UNL     1      37.875  44.379  19.061 -0.41 -0.00    +0.005 C  BRANCH   2   3ATOM      3  C   UNL     1      38.830  45.316  19.810 -0.39 -0.00    +0.038 C  BRANCH   3   4ATOM      4  C   UNL     1      39.822  45.996  18.913 -0.41 +0.00    -0.020 A  ATOM      5  C   UNL     1      41.194  46.067  19.104 -0.46 +0.00    +0.016 A  ATOM      6  N   UNL     1      41.726  46.777  18.058 -0.24 +0.02    -0.358 N  ATOM      7  C   UNL     1      40.741  47.166  17.184 -0.48 -0.01    +0.046 A  ATOM      8  C   UNL     1      39.534  46.686  17.689 -0.43 -0.00    +0.003 A  ATOM      9  C   UNL     1      40.829  47.899  15.994 -0.48 -0.00    +0.026 A  ATOM     10  C   UNL     1      38.353  46.954  16.965 -0.33 -0.00    +0.010 A  ATOM     11  C   UNL     1      39.643  48.155  15.300 -0.55 -0.00    +0.002 A  ATOM     12  C   UNL     1      38.421  47.690  15.777 -0.47 -0.00    +0.001 A  ATOM     13  C   UNL     1      42.053  45.531  20.191 -0.27 +0.01    +0.064 C  ATOM     14  H   UNL     1      42.706  46.989  17.937 -0.45 -0.02    +0.166 HD ENDBRANCH   3   4ENDBRANCH   2   3ENDBRANCH   1   2BRANCH   1  15ATOM     15  C   UNL     1      35.818  42.862  19.147 -0.43 -0.00    +0.011 C  BRANCH  15  16ATOM     16  C   UNL     1      34.666  43.440  18.289 -0.36 -0.01    +0.045 C  BRANCH  16  17ATOM     17  C   UNL     1      33.709  44.337  19.101 -0.36 -0.04    +0.164 C  BRANCH  17  18ATOM     18  O   UNL     1      33.169  43.660  20.235 -0.80 -0.03    -0.396 OA ATOM     19  H   UNL     1      33.039  44.335  20.924 -0.21 -0.00    +0.210 HD ENDBRANCH  17  18ENDBRANCH  16  17BRANCH  16  20ATOM     20  C   UNL     1      35.165  44.183  17.051 -0.28 +0.02    -0.043 A  ATOM     21  C   UNL     1      34.729  45.494  16.817 -0.33 -0.00    +0.005 A  ATOM     22  C   UNL     1      36.072  43.615  16.148 -0.41 -0.00    +0.005 A  ATOM     23  C   UNL     1      35.180  46.209  15.703 -0.26 -0.01    +0.012 A  ATOM     24  C   UNL     1      36.523  44.330  15.031 -0.37 -0.00    +0.012 A  ATOM     25  C   UNL     1      36.080  45.639  14.791 -0.37 -0.01    +0.021 A  BRANCH  25  26ATOM     26  C   UNL     1      36.522  46.421  13.639 -0.36 -0.09    +0.179 A  ATOM     27  N   UNL     1      37.727  46.436  13.094 -0.42 +0.03    -0.109 NA ATOM     28  N   UNL     1      35.753  47.292  12.915 -0.42 +0.15    -0.239 N  ATOM     29  N   UNL     1      37.674  47.315  12.041 -1.14 +0.00    -0.024 NA ATOM     30  N   UNL     1      36.466  47.843  11.925 -1.00 +0.02    -0.048 NA ATOM     31  H   UNL     1      34.784  47.553  13.030 -0.07 -0.16    +0.194 HD ENDBRANCH  25  26ENDBRANCH  16  20ENDBRANCH  15  16ENDBRANCH   1  15TORSDOF 9TERENDMDL