MODEL        8USER    Run = 8USERUSER    Estimated Free Energy of Binding    = -11.62 kcal/mol  [=(1)+(2)+(3)-(4)]USERUSER    (1) Final Intermolecular Energy     = -14.30 kcal/molUSER        vdW + Hbond + desolv Energy     = -14.12 kcal/molUSER        Electrostatic Energy            =  -0.18 kcal/molUSER        Moving Ligand-Fixed Receptor    = -14.30 kcal/molUSER        Moving Ligand-Moving Receptor   =  +0.00 kcal/molUSER    (2) Final Total Internal Energy     =  -2.31 kcal/molUSER    (3) Torsional Free Energy           =  +2.68 kcal/molUSER    (4) Unbound System's Energy         =  -2.31 kcal/molUSERUSERREMARK SMILES Cc1[nH]c2ccccc2c1C=CCC[C@H](c1ccc(-c2nnn[nH]2)cc1)[C@@H](C)OREMARK SMILES IDX 13 1 12 2 11 3 10 4 2 5 3 6 4 7 9 8 5 9 8 10 6 11 7 12 1 13REMARK SMILES IDX 14 15 15 16 16 17 17 18 26 19 18 20 25 21 19 22 20 23 21 24REMARK SMILES IDX 24 25 22 26 23 27 27 29 28 30 29 31REMARK H PARENT 3 14 24 28 29 32USER                              x       y       z     vdW  Elec       q    TypeUSER                           _______ _______ _______ _____ _____    ______ ____ROOTATOM      1  C   UNL     1      37.227  43.590  20.106 -0.40 -0.00    +0.028 C  ENDROOTBRANCH   1   2ATOM      2  C   UNL     1      38.338  44.210  19.303 -0.36 +0.00    -0.026 C  BRANCH   2   3ATOM      3  C   UNL     1      38.312  45.396  18.674 -0.42 -0.00    +0.006 C  BRANCH   3   4ATOM      4  C   UNL     1      39.442  46.101  18.168 -0.43 -0.00    +0.002 A  ATOM      5  C   UNL     1      40.743  45.932  18.598 -0.47 -0.00    +0.020 A  ATOM      6  N   UNL     1      41.522  46.793  17.862 -0.22 +0.03    -0.358 N  ATOM      7  C   UNL     1      40.756  47.491  16.954 -0.48 -0.01    +0.046 A  ATOM      8  C   UNL     1      39.435  47.075  17.126 -0.44 -0.00    +0.007 A  ATOM      9  C   UNL     1      41.129  48.455  16.008 -0.50 -0.00    +0.027 A  ATOM     10  C   UNL     1      38.435  47.653  16.316 -0.36 -0.01    +0.011 A  ATOM     11  C   UNL     1      40.118  49.014  15.220 -0.56 -0.00    +0.002 A  ATOM     12  C   UNL     1      38.790  48.622  15.371 -0.51 -0.00    +0.001 A  ATOM     13  C   UNL     1      41.335  45.049  19.635 -0.40 +0.01    +0.065 C  ATOM     14  H   UNL     1      42.521  46.899  17.961 -0.41 -0.02    +0.166 HD ENDBRANCH   3   4ENDBRANCH   2   3ENDBRANCH   1   2BRANCH   1  15ATOM     15  C   UNL     1      35.845  44.190  19.817 -0.45 -0.00    +0.015 C  BRANCH  15  16ATOM     16  C   UNL     1      35.053  43.603  18.619 -0.37 -0.01    +0.048 C  BRANCH  16  17ATOM     17  C   UNL     1      35.453  44.359  17.352 -0.28 +0.02    -0.042 A  ATOM     18  C   UNL     1      35.165  45.720  17.186 -0.36 -0.00    +0.005 A  ATOM     19  C   UNL     1      36.135  43.690  16.328 -0.39 -0.00    +0.005 A  ATOM     20  C   UNL     1      35.543  46.389  16.017 -0.29 -0.01    +0.012 A  ATOM     21  C   UNL     1      36.514  44.362  15.158 -0.38 -0.00    +0.012 A  ATOM     22  C   UNL     1      36.221  45.723  14.987 -0.36 -0.01    +0.021 A  BRANCH  22  23ATOM     23  C   UNL     1      36.590  46.463  13.783 -0.34 -0.09    +0.179 A  ATOM     24  N   UNL     1      37.797  46.592  13.259 -0.42 +0.03    -0.109 NA ATOM     25  N   UNL     1      35.733  47.160  12.973 -0.41 +0.15    -0.239 N  ATOM     26  N   UNL     1      37.661  47.373  12.140 -1.17 +0.00    -0.024 NA ATOM     27  N   UNL     1      36.397  47.727  11.959 -1.00 +0.02    -0.048 NA ATOM     28  H   UNL     1      34.732  47.288  13.042 -0.10 -0.16    +0.194 HD ENDBRANCH  22  23ENDBRANCH  16  17BRANCH  16  29ATOM     29  C   UNL     1      33.514  43.598  18.840 -0.35 -0.02    +0.118 C  ATOM     30  C   UNL     1      32.830  42.353  18.272 -0.40 -0.01    +0.039 C  BRANCH  29  31ATOM     31  O   UNL     1      33.224  43.625  20.241 -0.81 -0.03    -0.393 OA ATOM     32  H   UNL     1      33.192  44.559  20.517 -0.24 -0.04    +0.210 HD ENDBRANCH  29  31ENDBRANCH  16  29ENDBRANCH  15  16ENDBRANCH   1  15TORSDOF 9TERENDMDL