REMARK SMILES NC(=O)c1ccccc1CCNc1cnccc1C1=CC=C(C(=O)N2CCOCC2)[C@H]1F
REMARK SMILES IDX 11 1 10 2 9 3 4 4 5 5 6 6 8 7 7 8 2 9 1 10 3 13 12 14 13 16
REMARK SMILES IDX 14 17 18 18 15 19 17 20 16 21 19 22 20 23 31 24 21 25 22 26
REMARK SMILES IDX 32 27 23 28 25 29 26 30 30 31 27 32 29 33 28 34 24 35
REMARK H PARENT 1 11 1 12 12 15
ROOT
ATOM      1  C   UNL     1       2.786  -0.167  -1.550  1.00  0.00     0.118 C 
ENDROOT
BRANCH   1   2
ATOM      2  C   UNL     1       3.508  -0.553  -0.252  1.00  0.00     0.057 C 
BRANCH   2   3
ATOM      3  C   UNL     1       5.001  -0.306  -0.313  1.00  0.00    -0.034 A 
ATOM      4  C   UNL     1       5.585   0.978  -0.260  1.00  0.00     0.042 A 
ATOM      5  C   UNL     1       6.985   1.112  -0.312  1.00  0.00     0.014 A 
ATOM      6  C   UNL     1       7.803  -0.010  -0.441  1.00  0.00     0.001 A 
ATOM      7  C   UNL     1       5.848  -1.423  -0.450  1.00  0.00     0.004 A 
ATOM      8  C   UNL     1       7.234  -1.276  -0.515  1.00  0.00     0.000 A 
BRANCH   4   9
ATOM      9  C   UNL     1       4.762   2.217  -0.131  1.00  0.00     0.248 C 
ATOM     10  N   UNL     1       5.208   3.320  -0.806  1.00  0.00    -0.366 N 
ATOM     11  H   UNL     1       5.920   3.267  -1.522  1.00  0.00     0.159 HD
ATOM     12  H   UNL     1       4.596   4.126  -0.808  1.00  0.00     0.159 HD
ATOM     13  O   UNL     1       3.719   2.259   0.506  1.00  0.00    -0.270 OA
ENDBRANCH   4   9
ENDBRANCH   2   3
ENDBRANCH   1   2
BRANCH   1  14
ATOM     14  N   UNL     1       1.347  -0.434  -1.471  1.00  0.00    -0.383 N 
ATOM     15  H   UNL     1       0.906   0.127  -0.744  1.00  0.00     0.160 HD
BRANCH  14  16
ATOM     16  C   UNL     1       0.839  -1.742  -1.506  1.00  0.00     0.060 A 
ATOM     17  C   UNL     1       1.530  -2.817  -2.080  1.00  0.00     0.137 A 
ATOM     18  C   UNL     1      -0.473  -2.029  -1.061  1.00  0.00     0.007 A 
ATOM     19  N   UNL     1       1.086  -4.096  -2.161  1.00  0.00    -0.263 NA
ATOM     20  C   UNL     1      -0.950  -3.346  -1.132  1.00  0.00     0.031 A 
ATOM     21  C   UNL     1      -0.144  -4.330  -1.676  1.00  0.00     0.112 A 
BRANCH  18  22
ATOM     22  C   UNL     1      -1.373  -1.003  -0.513  1.00  0.00     0.000 C 
ATOM     23  C   UNL     1      -1.697   0.172  -1.085  1.00  0.00     0.008 C 
ATOM     24  C   UNL     1      -2.118  -1.155   0.795  1.00  0.00     0.233 C 
ATOM     25  C   UNL     1      -2.605   0.890  -0.227  1.00  0.00     0.013 C 
ATOM     26  C   UNL     1      -2.872   0.132   0.848  1.00  0.00     0.056 C 
ATOM     27  F   UNL     1      -2.981  -2.208   0.754  1.00  0.00    -0.237 F 
BRANCH  26  28
ATOM     28  C   UNL     1      -3.658   0.498   2.027  1.00  0.00     0.253 C 
ATOM     29  N   UNL     1      -4.962   0.930   1.829  1.00  0.00    -0.334 N 
ATOM     30  C   UNL     1      -5.738   1.244   3.031  1.00  0.00     0.148 C 
ATOM     31  C   UNL     1      -5.785   0.476   0.698  1.00  0.00     0.148 C 
ATOM     32  C   UNL     1      -6.943   2.131   2.712  1.00  0.00     0.181 C 
ATOM     33  C   UNL     1      -6.989   1.395   0.475  1.00  0.00     0.181 C 
ATOM     34  O   UNL     1      -7.754   1.552   1.678  1.00  0.00    -0.378 OA
ATOM     35  O   UNL     1      -3.126   0.422   3.133  1.00  0.00    -0.269 OA
ENDBRANCH  26  28
ENDBRANCH  18  22
ENDBRANCH  14  16
ENDBRANCH   1  14
TORSDOF 7
