MODEL        6USER    Run = 6USERUSER    Estimated Free Energy of Binding    = -10.84 kcal/mol  [=(1)+(2)+(3)-(4)]USERUSER    (1) Final Intermolecular Energy     = -13.82 kcal/molUSER        vdW + Hbond + desolv Energy     = -13.61 kcal/molUSER        Electrostatic Energy            =  -0.22 kcal/molUSER        Moving Ligand-Fixed Receptor    = -13.82 kcal/molUSER        Moving Ligand-Moving Receptor   =  +0.00 kcal/molUSER    (2) Final Total Internal Energy     =  -1.33 kcal/molUSER    (3) Torsional Free Energy           =  +2.98 kcal/molUSER    (4) Unbound System's Energy         =  -1.33 kcal/molUSERUSERREMARK SMILES Cc1[nH]c2ccccc2c1C=CCC[C@H](c1ccc(C(=O)NC2CC2)cc1)[C@@H](C)OREMARK SMILES IDX 13 1 12 2 11 3 10 4 2 5 3 6 4 7 9 8 5 9 8 10 6 11 7 12 1 13REMARK SMILES IDX 14 15 15 16 16 17 17 18 27 19 18 20 26 21 19 22 20 23 22 24REMARK SMILES IDX 21 25 23 27 24 28 25 29 28 30 29 31 30 32REMARK H PARENT 3 14 22 26 30 33USER                              x       y       z     vdW  Elec       q    TypeUSER                           _______ _______ _______ _____ _____    ______ ____ROOTATOM      1  C   UNL     1      35.414  44.916  15.069 -0.35 -0.02    +0.028 C  ENDROOTBRANCH   1   2ATOM      2  C   UNL     1      36.574  44.503  14.208 -0.37 +0.01    -0.026 C  BRANCH   2   3ATOM      3  C   UNL     1      37.407  45.316  13.536 -0.50 -0.00    +0.006 C  BRANCH   3   4ATOM      4  C   UNL     1      37.769  46.645  13.903 -0.46 -0.00    +0.002 A  ATOM      5  C   UNL     1      37.209  47.801  13.390 -0.56 -0.01    +0.020 A  ATOM      6  N   UNL     1      37.842  48.856  14.006 -0.22 +0.19    -0.358 N  ATOM      7  C   UNL     1      38.806  48.408  14.879 -0.49 -0.02    +0.046 A  ATOM      8  C   UNL     1      38.791  47.015  14.827 -0.45 -0.00    +0.007 A  ATOM      9  C   UNL     1      39.684  49.126  15.701 -0.51 -0.01    +0.027 A  ATOM     10  C   UNL     1      39.702  46.300  15.634 -0.42 -0.00    +0.011 A  ATOM     11  C   UNL     1      40.576  48.393  16.492 -0.54 -0.00    +0.002 A  ATOM     12  C   UNL     1      40.588  47.001  16.460 -0.48 -0.00    +0.001 A  ATOM     13  C   UNL     1      36.146  48.030  12.379 -0.62 -0.03    +0.065 C  ATOM     14  H   UNL     1      37.640  49.832  13.835 -0.45 -0.13    +0.166 HD ENDBRANCH   3   4ENDBRANCH   2   3ENDBRANCH   1   2BRANCH   1  15ATOM     15  C   UNL     1      35.265  44.120  16.376 -0.39 -0.01    +0.015 C  BRANCH  15  16ATOM     16  C   UNL     1      35.348  44.968  17.671 -0.36 -0.02    +0.048 C  BRANCH  16  17ATOM     17  C   UNL     1      35.757  44.200  18.925 -0.34 +0.01    -0.042 A  ATOM     18  C   UNL     1      36.883  44.622  19.652 -0.27 -0.00    +0.005 A  ATOM     19  C   UNL     1      35.043  43.086  19.395 -0.41 -0.00    +0.005 A  ATOM     20  C   UNL     1      37.287  43.954  20.812 -0.39 -0.00    +0.014 A  ATOM     21  C   UNL     1      35.446  42.412  20.551 -0.44 +0.00    +0.014 A  ATOM     22  C   UNL     1      36.560  42.852  21.271 -0.43 +0.00    +0.039 A  BRANCH  22  23ATOM     23  C   UNL     1      36.950  42.112  22.502 -0.38 +0.02    +0.251 C  ATOM     24  N   UNL     1      36.717  42.767  23.697 -0.18 -0.03    -0.349 N  ATOM     25  O   UNL     1      37.417  40.981  22.417 -0.39 -0.03    -0.269 OA ATOM     26  H   UNL     1      36.151  43.606  23.690 +0.09 +0.04    +0.164 HD BRANCH  24  27ATOM     27  C   UNL     1      36.986  42.153  24.959 -0.41 -0.00    +0.082 C  ATOM     28  C   UNL     1      36.786  42.920  26.238 -0.42 -0.00    +0.027 C  ATOM     29  C   UNL     1      35.858  41.793  25.888 -0.48 -0.01    +0.027 C  ENDBRANCH  24  27ENDBRANCH  22  23ENDBRANCH  16  17BRANCH  16  30ATOM     30  C   UNL     1      34.037  45.787  17.878 -0.42 -0.08    +0.118 C  ATOM     31  C   UNL     1      32.951  45.096  18.695 -0.29 -0.01    +0.039 C  BRANCH  30  32ATOM     32  O   UNL     1      34.312  47.049  18.491 -0.89 +0.32    -0.393 OA ATOM     33  H   UNL     1      33.966  47.742  17.906 -0.38 -0.39    +0.210 HD ENDBRANCH  30  32ENDBRANCH  16  30ENDBRANCH  15  16ENDBRANCH   1  15TORSDOF 10TERENDMDL