MODEL        6USER    Run = 6USERUSER    Estimated Free Energy of Binding    = -10.68 kcal/mol  [=(1)+(2)+(3)-(4)]USERUSER    (1) Final Intermolecular Energy     = -12.77 kcal/molUSER        vdW + Hbond + desolv Energy     = -12.61 kcal/molUSER        Electrostatic Energy            =  -0.17 kcal/molUSER        Moving Ligand-Fixed Receptor    = -12.77 kcal/molUSER        Moving Ligand-Moving Receptor   =  +0.00 kcal/molUSER    (2) Final Total Internal Energy     =  -1.94 kcal/molUSER    (3) Torsional Free Energy           =  +2.09 kcal/molUSER    (4) Unbound System's Energy         =  -1.94 kcal/molUSERUSERREMARK SMILES NC(=O)c1ccccc1CCNc1cnccc1C1=CC=C(C(=O)N2CCOCC2)[C@H]1FREMARK SMILES IDX 11 1 10 2 9 3 4 4 5 5 6 6 8 7 7 8 2 9 1 10 3 13 12 14 13 16REMARK SMILES IDX 14 17 18 18 15 19 17 20 16 21 19 22 20 23 31 24 21 25 22 26REMARK SMILES IDX 32 27 23 28 25 29 26 30 30 31 27 32 29 33 28 34 24 35REMARK H PARENT 1 11 1 12 12 15USER                              x       y       z     vdW  Elec       q    TypeUSER                           _______ _______ _______ _____ _____    ______ ____ROOTATOM      1  C   UNL     1      32.476  44.955  15.937 -0.32 -0.07    +0.118 C  ENDROOTBRANCH   1   2ATOM      2  C   UNL     1      32.585  43.424  15.946 -0.35 -0.03    +0.057 C  BRANCH   2   3ATOM      3  C   UNL     1      31.293  42.744  16.349 -0.30 +0.01    -0.034 A  ATOM      4  C   UNL     1      31.219  41.709  17.306 -0.28 -0.01    +0.042 A  ATOM      5  C   UNL     1      29.972  41.142  17.627 -0.26 -0.00    +0.014 A  ATOM      6  C   UNL     1      28.808  41.575  16.991 -0.25 -0.00    +0.001 A  ATOM      7  C   UNL     1      30.105  43.159  15.716 -0.30 -0.00    +0.004 A  ATOM      8  C   UNL     1      28.877  42.579  16.033 -0.26 -0.00    +0.000 A  BRANCH   4   9ATOM      9  C   UNL     1      32.430  41.197  18.014 -0.29 -0.06    +0.248 C  ATOM     10  N   UNL     1      33.548  41.003  17.250 -0.01 +0.21    -0.366 N  ATOM     11  H   UNL     1      33.638  41.377  16.315 -0.44 -0.14    +0.159 HD ATOM     12  H   UNL     1      34.396  40.761  17.745 -0.45 -0.08    +0.159 HD ATOM     13  O   UNL     1      32.458  40.992  19.219 -0.53 -0.02    -0.270 OA ENDBRANCH   4   9ENDBRANCH   2   3ENDBRANCH   1   2BRANCH   1  14ATOM     14  N   UNL     1      33.113  45.552  17.114 -0.09 +0.28    -0.383 N  ATOM     15  H   UNL     1      33.566  46.434  16.882 -0.33 -0.27    +0.160 HD BRANCH  14  16ATOM     16  C   UNL     1      33.883  44.784  18.002 -0.32 -0.03    +0.060 A  ATOM     17  C   UNL     1      33.411  44.351  19.248 -0.33 -0.03    +0.137 A  ATOM     18  C   UNL     1      35.243  44.500  17.733 -0.31 -0.00    +0.007 A  ATOM     19  N   UNL     1      34.110  43.625  20.155 -0.52 -0.00    -0.263 NA ATOM     20  C   UNL     1      35.983  43.747  18.657 -0.32 -0.01    +0.031 A  ATOM     21  C   UNL     1      35.380  43.334  19.831 -0.35 -0.01    +0.112 A  BRANCH  18  22ATOM     22  C   UNL     1      35.928  44.955  16.515 -0.39 -0.00    +0.000 C  ATOM     23  C   UNL     1      36.030  44.286  15.350 -0.42 -0.00    +0.008 C  ATOM     24  C   UNL     1      36.599  46.305  16.386 -0.27 -0.15    +0.233 C  ATOM     25  C   UNL     1      36.780  45.075  14.407 -0.46 -0.01    +0.013 C  ATOM     26  C   UNL     1      37.098  46.246  14.980 -0.41 -0.03    +0.056 C  ATOM     27  F   UNL     1      35.702  47.320  16.527 -0.01 +0.34    -0.237 F  BRANCH  26  28ATOM     28  C   UNL     1      37.941  47.310  14.433 -0.35 -0.11    +0.253 C  ATOM     29  N   UNL     1      39.008  47.753  15.203 -0.23 +0.13    -0.334 N  ATOM     30  C   UNL     1      39.861  48.785  14.609 -0.44 -0.05    +0.148 C  ATOM     31  C   UNL     1      39.712  46.884  16.158 -0.43 -0.03    +0.148 C  ATOM     32  C   UNL     1      40.681  49.522  15.670 -0.56 -0.05    +0.181 C  ATOM     33  C   UNL     1      40.539  47.700  17.156 -0.44 -0.03    +0.181 C  ATOM     34  O   UNL     1      41.427  48.601  16.481 -0.83 +0.01    -0.378 OA ATOM     35  O   UNL     1      37.660  47.772  13.329 -0.76 +0.08    -0.269 OA ENDBRANCH  26  28ENDBRANCH  18  22ENDBRANCH  14  16ENDBRANCH   1  14TORSDOF 7TERENDMDL