MODEL        8USER    Run = 8USERUSER    Estimated Free Energy of Binding    = -12.95 kcal/mol  [=(1)+(2)+(3)-(4)]USERUSER    (1) Final Intermolecular Energy     = -15.33 kcal/molUSER        vdW + Hbond + desolv Energy     = -15.13 kcal/molUSER        Electrostatic Energy            =  -0.21 kcal/molUSER        Moving Ligand-Fixed Receptor    = -15.33 kcal/molUSER        Moving Ligand-Moving Receptor   =  +0.00 kcal/molUSER    (2) Final Total Internal Energy     =  -1.69 kcal/molUSER    (3) Torsional Free Energy           =  +2.39 kcal/molUSER    (4) Unbound System's Energy         =  -1.69 kcal/molUSERUSERREMARK SMILES CN1CCN(S(=O)(=O)c2ccc(-c3nc4cccnc4nc3-c3ccc(CN4CCC(n5c(O)nc6ncccc65)CC4)cc3)cn2)CC1REMARK SMILES IDX 23 1 24 2 25 3 26 4 44 5 45 6 22 7 13 8 14 9 15 10 21 11REMARK SMILES IDX 16 12 20 13 17 14 19 15 18 16 12 17 9 18 10 19 47 20 11 21REMARK SMILES IDX 46 22 6 23 7 24 8 25 5 26 2 27 3 28 49 29 4 30 48 31 1 32REMARK SMILES IDX 27 33 28 34 29 35 43 36 30 37 42 38 31 39 32 40 33 41 41 42REMARK SMILES IDX 35 43 40 44 36 45 39 46 37 47 38 48 34 49REMARK H PARENT 34 50USER                              x       y       z     vdW  Elec       q    TypeUSER                           _______ _______ _______ _____ _____    ______ ____ROOTATOM      1  C   UNL     1      42.497  44.202  21.881 -0.28 +0.00    +0.002 A  ATOM      2  C   UNL     1      41.313  43.920  21.181 -0.32 +0.00    +0.011 A  ATOM      3  C   UNL     1      40.818  44.809  20.222 -0.37 +0.00    +0.006 A  ATOM      4  C   UNL     1      41.480  46.014  19.959 -0.39 -0.00    -0.034 A  ATOM      5  C   UNL     1      42.652  46.310  20.665 -0.33 +0.00    +0.006 A  ATOM      6  C   UNL     1      43.154  45.414  21.614 -0.14 +0.00    +0.011 A  ENDROOTBRANCH   1   7ATOM      7  C   UNL     1      43.024  43.252  22.870 -0.25 +0.00    +0.099 A  ATOM      8  C   UNL     1      42.419  42.981  24.104 -0.16 -0.00    +0.099 A  ATOM      9  N   UNL     1      42.932  42.033  24.932 -0.08 +0.03    -0.242 NA ATOM     10  C   UNL     1      44.050  41.403  24.518 -0.09 -0.01    +0.108 A  ATOM     11  N   UNL     1      44.159  42.612  22.476 -0.23 -0.01    -0.224 NA ATOM     12  C   UNL     1      44.623  40.430  25.322 -0.14 -0.00    +0.034 A  ATOM     13  C   UNL     1      44.680  41.688  23.283 -0.21 -0.01    +0.178 A  ATOM     14  C   UNL     1      45.775  39.766  24.918 -0.15 -0.00    +0.022 A  ATOM     15  N   UNL     1      45.788  41.051  22.886 -0.23 +0.04    -0.235 NA ATOM     16  C   UNL     1      46.317  40.111  23.697 -0.18 -0.03    +0.114 A  BRANCH   8  17ATOM     17  C   UNL     1      41.229  43.659  24.633 -0.14 +0.00    +0.021 A  ATOM     18  C   UNL     1      38.933  44.887  25.509 -0.10 +0.00    +0.170 A  ATOM     19  C   UNL     1      40.012  44.836  26.377 -0.12 +0.00    +0.043 A  ATOM     20  N   UNL     1      38.916  44.346  24.264 -0.09 -0.01    -0.243 NA ATOM     21  C   UNL     1      41.172  44.211  25.923 -0.09 +0.00    +0.015 A  ATOM     22  C   UNL     1      40.064  43.750  23.865 -0.14 +0.00    +0.123 A  BRANCH  18  23ATOM     23  S   UNL     1      37.384  45.599  26.062 -0.33 -0.01    +0.260 S  ATOM     24  O   UNL     1      37.538  45.941  27.464 -0.26 +0.03    -0.205 OA ATOM     25  O   UNL     1      37.001  46.609  25.095 -0.88 -0.05    -0.205 OA BRANCH  23  26ATOM     26  N   UNL     1      36.250  44.327  25.991 -0.27 +0.02    -0.194 NA ATOM     27  N   UNL     1      35.938  41.467  26.921 -0.31 +0.10    -0.304 NA ATOM     28  C   UNL     1      37.044  41.947  26.069 -0.38 -0.01    +0.101 C  ATOM     29  C   UNL     1      35.025  42.567  27.296 -0.58 -0.02    +0.101 C  ATOM     30  C   UNL     1      36.652  43.139  25.175 -0.35 +0.00    +0.118 C  ATOM     31  C   UNL     1      35.683  43.961  27.324 -0.46 -0.03    +0.118 C  ATOM     32  C   UNL     1      36.462  40.776  28.096 -0.38 -0.04    +0.105 C  ENDBRANCH  23  26ENDBRANCH  18  23ENDBRANCH   8  17ENDBRANCH   1   7BRANCH   4  33ATOM     33  C   UNL     1      40.919  46.991  18.948 -0.23 -0.00    +0.120 C  BRANCH  33  34ATOM     34  N   UNL     1      40.447  46.358  17.707 -0.26 +0.03    -0.299 NA ATOM     35  C   UNL     1      40.697  47.160  16.501 -0.47 -0.01    +0.087 C  ATOM     36  C   UNL     1      39.051  45.917  17.850 -0.42 -0.02    +0.087 C  ATOM     37  C   UNL     1      39.587  48.162  16.191 -0.53 -0.01    +0.041 C  ATOM     38  C   UNL     1      38.240  46.021  16.560 -0.41 -0.01    +0.041 C  ATOM     39  C   UNL     1      38.209  47.484  16.098 -0.41 -0.05    +0.095 C  BRANCH  39  40ATOM     40  N   UNL     1      37.573  47.637  14.796 -0.25 +0.17    -0.289 N  ATOM     41  C   UNL     1      37.056  48.788  14.267 -0.24 -0.22    +0.296 A  ATOM     42  C   UNL     1      37.374  46.647  13.860 -0.40 -0.04    +0.091 A  ATOM     43  N   UNL     1      36.542  48.630  13.078 -0.69 +0.08    -0.175 NA ATOM     44  C   UNL     1      37.668  45.284  13.794 -0.38 -0.01    +0.032 A  ATOM     45  C   UNL     1      36.730  47.303  12.809 -0.49 -0.08    +0.181 A  ATOM     46  C   UNL     1      37.273  44.641  12.622 -0.36 -0.01    +0.022 A  ATOM     47  N   UNL     1      36.345  46.684  11.670 -0.51 +0.11    -0.235 NA ATOM     48  C   UNL     1      36.635  45.368  11.623 -0.35 -0.04    +0.114 A  BRANCH  41  49ATOM     49  O   UNL     1      37.053  49.956  14.876 -0.17 +0.53    -0.480 OA ATOM     50  H   UNL     1      36.166  49.960  15.281 -0.11 -0.60    +0.296 HD ENDBRANCH  41  49ENDBRANCH  39  40ENDBRANCH  33  34ENDBRANCH   4  33TORSDOF 8TERENDMDL