REMARK SMILES CN1CCN(C(=O)c2cc(-c3nc4cccnc4nc3-c3ccc(CN4CCC(n5c(O)nc6ncccc65)CC4)cc3)ccn2)CC1
REMARK SMILES IDX 21 1 22 2 23 3 24 4 42 5 43 6 20 7 11 8 12 9 13 10 19 11
REMARK SMILES IDX 14 12 18 13 15 14 17 15 16 16 10 17 8 18 9 19 46 20 45 21
REMARK SMILES IDX 44 22 6 23 2 24 3 25 48 26 4 27 47 28 5 29 1 30 7 31 25 32
REMARK SMILES IDX 26 33 27 34 41 35 28 36 40 37 29 38 30 39 31 40 39 41 33 42
REMARK SMILES IDX 38 43 34 44 37 45 35 46 36 47 32 48
REMARK H PARENT 32 49
ROOT
ATOM      1  C   UNL     1      -0.114  -3.070  -0.232  1.00  0.00     0.002 A 
ATOM      2  C   UNL     1      -0.433  -2.233   0.850  1.00  0.00     0.011 A 
ATOM      3  C   UNL     1      -1.737  -1.756   1.030  1.00  0.00     0.006 A 
ATOM      4  C   UNL     1      -2.757  -2.101   0.135  1.00  0.00    -0.034 A 
ATOM      5  C   UNL     1      -2.438  -2.908  -0.966  1.00  0.00     0.006 A 
ATOM      6  C   UNL     1      -1.138  -3.389  -1.139  1.00  0.00     0.011 A 
ENDROOT
BRANCH   1   7
ATOM      7  C   UNL     1       1.220  -3.675  -0.384  1.00  0.00     0.099 A 
ATOM      8  C   UNL     1       2.433  -2.976  -0.407  1.00  0.00     0.098 A 
ATOM      9  N   UNL     1       3.617  -3.641  -0.480  1.00  0.00    -0.242 NA
ATOM     10  C   UNL     1       3.562  -4.986  -0.559  1.00  0.00     0.108 A 
ATOM     11  N   UNL     1       1.191  -5.035  -0.479  1.00  0.00    -0.224 NA
ATOM     12  C   UNL     1       4.736  -5.717  -0.650  1.00  0.00     0.034 A 
ATOM     13  C   UNL     1       2.343  -5.700  -0.566  1.00  0.00     0.178 A 
ATOM     14  C   UNL     1       4.699  -7.103  -0.747  1.00  0.00     0.022 A 
ATOM     15  N   UNL     1       2.298  -7.033  -0.661  1.00  0.00    -0.235 NA
ATOM     16  C   UNL     1       3.461  -7.710  -0.748  1.00  0.00     0.114 A 
BRANCH   8  17
ATOM     17  C   UNL     1       2.585  -1.514  -0.442  1.00  0.00     0.006 A 
ATOM     18  C   UNL     1       3.665   0.495   0.308  1.00  0.00     0.128 A 
ATOM     19  C   UNL     1       3.450  -0.870   0.451  1.00  0.00     0.044 A 
ATOM     20  N   UNL     1       3.070   1.266  -0.638  1.00  0.00    -0.251 NA
ATOM     21  C   UNL     1       2.213   0.635  -1.463  1.00  0.00     0.112 A 
ATOM     22  C   UNL     1       1.948  -0.726  -1.411  1.00  0.00     0.030 A 
BRANCH  18  23
ATOM     23  C   UNL     1       4.590   1.175   1.256  1.00  0.00     0.272 C 
ATOM     24  N   UNL     1       8.355   2.803  -0.044  1.00  0.00    -0.303 NA
ATOM     25  C   UNL     1       7.687   3.337   1.161  1.00  0.00     0.105 C 
ATOM     26  C   UNL     1       7.330   2.500  -1.061  1.00  0.00     0.105 C 
ATOM     27  C   UNL     1       6.662   2.347   1.740  1.00  0.00     0.135 C 
ATOM     28  C   UNL     1       6.293   1.481  -0.548  1.00  0.00     0.135 C 
ATOM     29  N   UNL     1       5.709   1.847   0.747  1.00  0.00    -0.335 N 
ATOM     30  C   UNL     1       9.335   3.761  -0.561  1.00  0.00     0.105 C 
ATOM     31  O   UNL     1       4.341   1.091   2.460  1.00  0.00    -0.267 OA
ENDBRANCH  18  23
ENDBRANCH   8  17
ENDBRANCH   1   7
BRANCH   4  32
ATOM     32  C   UNL     1      -4.194  -1.685   0.379  1.00  0.00     0.120 C 
BRANCH  32  33
ATOM     33  N   UNL     1      -4.592  -0.365  -0.098  1.00  0.00    -0.299 NA
ATOM     34  C   UNL     1      -4.290   0.742   0.796  1.00  0.00     0.087 C 
ATOM     35  C   UNL     1      -4.393  -0.093  -1.509  1.00  0.00     0.087 C 
ATOM     36  C   UNL     1      -4.533   2.105   0.142  1.00  0.00     0.041 C 
ATOM     37  C   UNL     1      -5.336   1.023  -1.986  1.00  0.00     0.041 C 
ATOM     38  C   UNL     1      -5.673   2.055  -0.887  1.00  0.00     0.095 C 
BRANCH  38  39
ATOM     39  N   UNL     1      -6.980   1.940  -0.240  1.00  0.00    -0.289 N 
ATOM     40  C   UNL     1      -7.810   0.856  -0.126  1.00  0.00     0.296 A 
ATOM     41  C   UNL     1      -7.608   2.974   0.434  1.00  0.00     0.091 A 
ATOM     42  N   UNL     1      -8.870   1.082   0.601  1.00  0.00    -0.175 NA
ATOM     43  C   UNL     1      -7.307   4.319   0.659  1.00  0.00     0.032 A 
ATOM     44  C   UNL     1      -8.761   2.394   0.959  1.00  0.00     0.181 A 
ATOM     45  C   UNL     1      -8.226   5.016   1.441  1.00  0.00     0.022 A 
ATOM     46  N   UNL     1      -9.654   3.062   1.724  1.00  0.00    -0.235 NA
ATOM     47  C   UNL     1      -9.345   4.357   1.936  1.00  0.00     0.114 A 
BRANCH  40  48
ATOM     48  O   UNL     1      -7.622  -0.321  -0.682  1.00  0.00    -0.480 OA
ATOM     49  H   UNL     1      -8.392  -0.816  -0.346  1.00  0.00     0.296 HD
ENDBRANCH  40  48
ENDBRANCH  38  39
ENDBRANCH  32  33
ENDBRANCH   4  32
TORSDOF 7
