MODEL        7USER    Run = 7USERUSER    Estimated Free Energy of Binding    = -11.35 kcal/mol  [=(1)+(2)+(3)-(4)]USERUSER    (1) Final Intermolecular Energy     = -13.44 kcal/molUSER        vdW + Hbond + desolv Energy     = -13.35 kcal/molUSER        Electrostatic Energy            =  -0.09 kcal/molUSER        Moving Ligand-Fixed Receptor    = -13.44 kcal/molUSER        Moving Ligand-Moving Receptor   =  +0.00 kcal/molUSER    (2) Final Total Internal Energy     =  -3.74 kcal/molUSER    (3) Torsional Free Energy           =  +2.09 kcal/molUSER    (4) Unbound System's Energy         =  -3.74 kcal/molUSERUSERREMARK SMILES CN1CCN(C(=O)c2cc(-c3nc4cccnc4nc3-c3ccc(CN4CCC(n5c(O)nc6ncccc65)CC4)cc3)ccn2)CC1REMARK SMILES IDX 21 1 22 2 23 3 24 4 42 5 43 6 20 7 11 8 12 9 13 10 19 11REMARK SMILES IDX 14 12 18 13 15 14 17 15 16 16 10 17 8 18 9 19 46 20 45 21REMARK SMILES IDX 44 22 6 23 2 24 3 25 48 26 4 27 47 28 5 29 1 30 7 31 25 32REMARK SMILES IDX 26 33 27 34 41 35 28 36 40 37 29 38 30 39 31 40 39 41 33 42REMARK SMILES IDX 38 43 34 44 37 45 35 46 36 47 32 48REMARK H PARENT 32 49USER                              x       y       z     vdW  Elec       q    TypeUSER                           _______ _______ _______ _____ _____    ______ ____ROOTATOM      1  C   UNL     1      39.030  44.516  21.413 -0.33 +0.00    +0.002 A  ATOM      2  C   UNL     1      39.783  43.550  22.102 -0.25 +0.00    +0.011 A  ATOM      3  C   UNL     1      39.230  42.836  23.172 -0.26 +0.00    +0.006 A  ATOM      4  C   UNL     1      37.912  43.067  23.583 -0.32 -0.00    -0.034 A  ATOM      5  C   UNL     1      37.167  44.054  22.923 -0.32 +0.00    +0.006 A  ATOM      6  C   UNL     1      37.718  44.759  21.851 -0.34 +0.00    +0.011 A  ENDROOTBRANCH   1   7ATOM      7  C   UNL     1      39.548  45.201  20.217 -0.31 +0.00    +0.099 A  ATOM      8  C   UNL     1      40.821  45.769  20.091 -0.33 +0.01    +0.098 A  ATOM      9  N   UNL     1      41.225  46.317  18.913 -0.31 -0.00    -0.242 NA ATOM     10  C   UNL     1      40.337  46.312  17.898 -0.41 -0.01    +0.108 A  ATOM     11  N   UNL     1      38.664  45.221  19.179 -0.26 +0.02    -0.224 NA ATOM     12  C   UNL     1      40.687  46.869  16.678 -0.44 -0.00    +0.034 A  ATOM     13  C   UNL     1      39.039  45.768  18.023 -0.30 -0.03    +0.178 A  ATOM     14  C   UNL     1      39.780  46.887  15.624 -0.46 -0.00    +0.022 A  ATOM     15  N   UNL     1      38.160  45.783  17.015 -0.23 +0.07    -0.235 NA ATOM     16  C   UNL     1      38.537  46.333  15.843 -0.32 -0.04    +0.114 A  BRANCH   8  17ATOM     17  C   UNL     1      41.807  45.923  21.171 -0.32 +0.00    +0.006 A  ATOM     18  C   UNL     1      42.594  47.049  23.140 -0.18 +0.02    +0.128 A  ATOM     19  C   UNL     1      41.724  47.003  22.057 -0.13 +0.01    +0.044 A  ATOM     20  N   UNL     1      43.549  46.117  23.391 -0.06 -0.06    -0.251 NA ATOM     21  C   UNL     1      43.638  45.107  22.506 -0.16 +0.04    +0.112 A  ATOM     22  C   UNL     1      42.803  44.964  21.407 -0.08 +0.01    +0.030 A  BRANCH  18  23ATOM     23  C   UNL     1      42.499  48.197  24.084 -0.24 +0.05    +0.272 C  ATOM     24  N   UNL     1      41.919  47.601  28.305 -0.40 -0.03    -0.303 NA ATOM     25  C   UNL     1      42.555  48.838  27.806 -0.16 +0.00    +0.105 C  ATOM     26  C   UNL     1      42.388  46.463  27.492 -0.08 +0.01    +0.105 C  ATOM     27  C   UNL     1      42.234  49.096  26.325 -0.16 +0.01    +0.135 C  ATOM     28  C   UNL     1      42.059  46.650  25.997 -0.08 +0.01    +0.135 C  ATOM     29  N   UNL     1      42.498  47.943  25.461 -0.07 -0.04    -0.335 N  ATOM     30  C   UNL     1      42.231  47.393  29.721 -0.04 +0.01    +0.105 C  ATOM     31  O   UNL     1      42.396  49.327  23.604 -0.94 -0.10    -0.267 OA ENDBRANCH  18  23ENDBRANCH   8  17ENDBRANCH   1   7BRANCH   4  32ATOM     32  C   UNL     1      37.265  42.225  24.665 -0.36 +0.00    +0.120 C  BRANCH  32  33ATOM     33  N   UNL     1      37.054  42.858  25.962 -0.15 +0.02    -0.299 NA ATOM     34  C   UNL     1      35.670  43.147  26.301 -0.39 -0.01    +0.087 C  ATOM     35  C   UNL     1      37.875  42.386  27.060 -0.35 -0.01    +0.087 C  ATOM     36  C   UNL     1      35.506  43.605  27.753 -0.58 -0.01    +0.041 C  ATOM     37  C   UNL     1      37.988  43.459  28.155 -0.35 -0.01    +0.041 C  ATOM     38  C   UNL     1      36.742  44.365  28.259 -0.35 -0.02    +0.095 C  BRANCH  38  39ATOM     39  N   UNL     1      36.835  45.700  27.668 -0.22 +0.06    -0.289 N  ATOM     40  C   UNL     1      36.194  46.860  28.016 -0.11 -0.08    +0.296 A  ATOM     41  C   UNL     1      37.670  46.027  26.613 -0.27 -0.01    +0.091 A  ATOM     42  N   UNL     1      36.582  47.899  27.328 -0.26 +0.03    -0.175 NA ATOM     43  C   UNL     1      38.551  45.306  25.804 -0.20 +0.00    +0.032 A  ATOM     44  C   UNL     1      37.501  47.401  26.451 -0.25 -0.01    +0.181 A  ATOM     45  C   UNL     1      39.238  46.054  24.850 -0.20 +0.00    +0.022 A  ATOM     46  N   UNL     1      38.169  48.135  25.532 -0.24 -0.02    -0.235 NA ATOM     47  C   UNL     1      39.018  47.424  24.764 -0.27 +0.01    +0.114 A  BRANCH  40  48ATOM     48  O   UNL     1      35.260  46.980  28.934 -0.23 +0.11    -0.480 OA ATOM     49  H   UNL     1      34.451  46.910  28.393 -0.29 -0.08    +0.296 HD ENDBRANCH  40  48ENDBRANCH  38  39ENDBRANCH  32  33ENDBRANCH   4  32TORSDOF 7TERENDMDL