MODEL        8USER    Run = 8USERUSER    Estimated Free Energy of Binding    = -13.07 kcal/mol  [=(1)+(2)+(3)-(4)]USERUSER    (1) Final Intermolecular Energy     = -15.16 kcal/molUSER        vdW + Hbond + desolv Energy     = -14.97 kcal/molUSER        Electrostatic Energy            =  -0.18 kcal/molUSER        Moving Ligand-Fixed Receptor    = -15.16 kcal/molUSER        Moving Ligand-Moving Receptor   =  +0.00 kcal/molUSER    (2) Final Total Internal Energy     =  -2.24 kcal/molUSER    (3) Torsional Free Energy           =  +2.09 kcal/molUSER    (4) Unbound System's Energy         =  -2.24 kcal/molUSERUSERREMARK SMILES Oc1nc2ccccc2n1C1CCN(Cc2ccc(-c3nc4cc(F)ccc4nc3-c3ccc(N4CCOCC4)cc3)cc2)CC1REMARK SMILES IDX 15 1 14 2 11 3 12 4 46 5 13 6 45 7 10 8 2 9 3 10 4 11 9 12REMARK SMILES IDX 5 13 8 14 6 15 7 16 1 17 16 19 17 20 44 21 18 22 43 23 19 24REMARK SMILES IDX 20 25 21 26 30 27 22 28 29 29 23 30 28 31 24 32 27 33 26 34REMARK SMILES IDX 25 35 31 36 32 37 42 38 33 39 41 40 34 41 35 42 36 43 40 44REMARK SMILES IDX 37 45 39 46 38 47REMARK H PARENT 1 18USER                              x       y       z     vdW  Elec       q    TypeUSER                           _______ _______ _______ _____ _____    ______ ____ROOTATOM      1  C   UNL     1      36.640  45.412  13.713 -0.42 -0.05    +0.120 C  ENDROOTBRANCH   1   2ATOM      2  N   UNL     1      36.490  46.874  13.603 -0.27 +0.16    -0.299 NA ATOM      3  C   UNL     1      38.601  48.244  15.125 -0.52 -0.05    +0.095 C  ATOM      4  C   UNL     1      38.898  47.567  13.780 -0.34 -0.01    +0.041 C  ATOM      5  C   UNL     1      37.395  47.611  15.828 -0.42 -0.03    +0.041 C  ATOM      6  C   UNL     1      37.633  47.496  12.924 -0.46 -0.02    +0.087 C  ATOM      7  C   UNL     1      36.198  47.539  14.879 -0.17 -0.09    +0.087 C  BRANCH   3   8ATOM      8  N   UNL     1      39.769  48.339  15.991 -0.30 +0.10    -0.291 N  ATOM      9  C   UNL     1      40.769  49.279  15.886 -0.35 -0.07    +0.295 A  ATOM     10  N   UNL     1      41.750  49.055  16.722 -0.89 -0.03    -0.195 NA ATOM     11  C   UNL     1      41.361  47.961  17.446 -0.42 -0.01    +0.092 A  ATOM     12  C   UNL     1      40.117  47.488  17.023 -0.43 -0.02    +0.072 A  ATOM     13  C   UNL     1      42.033  47.312  18.492 -0.51 -0.00    +0.031 A  ATOM     14  C   UNL     1      39.506  46.376  17.621 -0.43 -0.01    +0.029 A  ATOM     15  C   UNL     1      41.436  46.200  19.096 -0.48 +0.00    +0.002 A  ATOM     16  C   UNL     1      40.191  45.744  18.666 -0.46 -0.00    +0.002 A  BRANCH   9  17ATOM     17  O   UNL     1      40.785  50.300  15.047 -0.22 +0.21    -0.480 OA ATOM     18  H   UNL     1      40.094  50.920  15.314 -0.25 -0.24    +0.296 HD ENDBRANCH   9  17ENDBRANCH   3   8ENDBRANCH   1   2BRANCH   1  19ATOM     19  C   UNL     1      36.534  44.897  15.134 -0.35 +0.01    -0.034 A  ATOM     20  C   UNL     1      35.295  44.845  15.784 -0.33 -0.00    +0.006 A  ATOM     21  C   UNL     1      37.677  44.487  15.832 -0.24 -0.00    +0.006 A  ATOM     22  C   UNL     1      35.202  44.368  17.095 -0.30 -0.00    +0.011 A  ATOM     23  C   UNL     1      37.579  44.008  17.143 -0.22 -0.00    +0.011 A  ATOM     24  C   UNL     1      36.337  43.922  17.793 -0.31 -0.00    +0.002 A  BRANCH  24  25ATOM     25  C   UNL     1      36.211  43.400  19.165 -0.29 -0.01    +0.097 A  ATOM     26  N   UNL     1      37.323  43.590  19.931 -0.19 +0.01    -0.244 NA ATOM     27  C   UNL     1      35.081  42.743  19.678 -0.37 -0.01    +0.097 A  ATOM     28  C   UNL     1      37.309  43.097  21.182 -0.33 +0.00    +0.092 A  ATOM     29  N   UNL     1      35.078  42.236  20.943 -0.20 -0.03    -0.244 NA ATOM     30  C   UNL     1      38.424  43.258  21.990 -0.26 +0.00    +0.069 A  ATOM     31  C   UNL     1      36.180  42.412  21.689 -0.38 +0.01    +0.090 A  ATOM     32  C   UNL     1      38.435  42.755  23.284 -0.23 +0.01    +0.125 A  ATOM     33  C   UNL     1      36.212  41.917  22.988 -0.34 +0.00    +0.033 A  ATOM     34  C   UNL     1      37.336  42.084  23.794 -0.36 +0.00    +0.041 A  ATOM     35  F   UNL     1      39.521  42.920  24.049 -0.04 -0.01    -0.207 F  BRANCH  27  36ATOM     36  C   UNL     1      33.810  42.551  18.958 -0.40 -0.00    +0.003 A  ATOM     37  C   UNL     1      33.577  41.379  18.225 -0.36 -0.00    +0.012 A  ATOM     38  C   UNL     1      32.784  43.502  18.982 -0.39 -0.00    +0.012 A  ATOM     39  C   UNL     1      32.376  41.178  17.528 -0.27 -0.01    +0.026 A  ATOM     40  C   UNL     1      31.586  43.292  18.284 -0.29 -0.00    +0.026 A  ATOM     41  C   UNL     1      31.341  42.121  17.550 -0.27 -0.01    +0.037 A  BRANCH  41  42ATOM     42  N   UNL     1      30.138  41.967  16.862 -0.08 +0.10    -0.367 N  ATOM     43  C   UNL     1      29.948  42.807  15.653 -0.24 -0.08    +0.145 C  ATOM     44  C   UNL     1      28.864  41.786  17.593 -0.16 -0.02    +0.145 C  ATOM     45  C   UNL     1      29.260  44.131  16.026 -0.23 -0.08    +0.181 C  ATOM     46  C   UNL     1      28.193  43.139  17.883 -0.10 -0.02    +0.181 C  ATOM     47  O   UNL     1      28.000  43.901  16.680 -0.10 +0.09    -0.378 OA ENDBRANCH  41  42ENDBRANCH  27  36ENDBRANCH  24  25ENDBRANCH   1  19TORSDOF 7TERENDMDL