REMARK SMILES COc1ccc(O)c(C(=O)c2ccc(C(=O)N[C@@H]3CCCNC[C@@H]3NC(=O)c3nc4cc(F)ccc4nc3-c3ccccc3)cc2)c1F
REMARK SMILES IDX 18 1 17 3 15 4 16 5 14 7 11 8 12 9 46 10 13 11 45 12 9 13
REMARK SMILES IDX 10 14 8 15 3 16 4 17 47 18 5 19 6 20 48 21 2 22 1 23 7 24
REMARK SMILES IDX 24 26 23 27 22 28 21 30 20 31 19 32 25 34 26 35 27 37 28 38
REMARK SMILES IDX 29 39 38 40 30 41 37 42 31 43 36 44 32 45 35 46 34 47 33 48
REMARK SMILES IDX 39 49 40 50 44 51 41 52 43 53 42 54
REMARK H PARENT 17 6 7 25 22 29 25 36
REMARK Flexibility Score:  164.900
ROOT
ATOM      1  C   UNL     1      -0.499   3.123  -0.556  1.00  0.00     0.106 CG0
ATOM      2  G   UNL     1      -0.930   3.731   0.792  1.00  0.00     0.000 G0
ENDROOT
BRANCH   1   3
ATOM      3  N   UNL     1       0.395   1.982  -0.292  1.00  0.00    -0.347 N 
ATOM      4  C   UNL     1       1.737   2.132  -0.029  1.00  0.00     0.251 C 
ATOM      5  O   UNL     1       2.304   3.216   0.023  1.00  0.00    -0.269 OA
ATOM      6  H   UNL     1      -0.055   1.094  -0.112  1.00  0.00     0.164 HD
BRANCH   4   7
ATOM      7  C   UNL     1       2.497   0.875   0.229  1.00  0.00     0.039 A 
ATOM      8  C   UNL     1       4.006  -1.431   0.733  1.00  0.00     0.023 A 
ATOM      9  C   UNL     1       2.843  -1.509  -0.043  1.00  0.00     0.013 A 
ATOM     10  C   UNL     1       4.408  -0.204   1.273  1.00  0.00     0.013 A 
ATOM     11  C   UNL     1       2.097  -0.357  -0.307  1.00  0.00     0.014 A 
ATOM     12  C   UNL     1       3.659   0.947   1.010  1.00  0.00     0.014 A 
BRANCH   8  13
ATOM     13  C   UNL     1       4.751  -2.681   1.004  1.00  0.00     0.199 C 
ATOM     14  O   UNL     1       4.113  -3.700   1.277  1.00  0.00    -0.288 OA
BRANCH  13  15
ATOM     15  C   UNL     1       6.229  -2.759   1.008  1.00  0.00     0.104 A 
ATOM     16  C   UNL     1       8.414  -2.017   0.214  1.00  0.00     0.155 A 
ATOM     17  C   UNL     1       9.031  -2.945   1.054  1.00  0.00     0.053 A 
ATOM     18  C   UNL     1       7.013  -1.938   0.195  1.00  0.00     0.179 A 
ATOM     19  C   UNL     1       8.256  -3.794   1.849  1.00  0.00     0.051 A 
ATOM     20  C   UNL     1       6.866  -3.710   1.813  1.00  0.00     0.130 A 
ATOM     21  F   UNL     1       6.431  -1.069  -0.647  1.00  0.00    -0.202 F 
BRANCH  16  22
ATOM     22  O   UNL     1       9.062  -1.146  -0.620  1.00  0.00    -0.494 OA
ATOM     23  C   UNL     1      10.476  -1.265  -0.713  1.00  0.00     0.278 C 
ENDBRANCH  16  22
BRANCH  20  24
ATOM     24  O   UNL     1       6.183  -4.600   2.600  1.00  0.00    -0.507 OA
ATOM     25  H   UNL     1       5.234  -4.568   2.340  1.00  0.00     0.293 HD
ENDBRANCH  20  24
ENDBRANCH  13  15
ENDBRANCH   8  13
ENDBRANCH   4   7
ENDBRANCH   1   3
BRANCH   1  26
ATOM     26  C   UNL     1      -1.668   2.613  -1.437  1.00  0.00     0.118 C 
BRANCH  26  27
ATOM     27  C   UNL     1      -2.449   3.717  -2.185  1.00  0.00     0.108 C 
BRANCH  27  28
ATOM     28  N   UNL     1      -2.620   5.024  -1.555  1.00  0.00    -0.315 NA
ATOM     29  H   UNL     1      -3.321   5.545  -2.083  1.00  0.00     0.122 HD
BRANCH  28  30
ATOM     30  C   UNL     1      -2.980   5.001  -0.148  1.00  0.00     0.081 C 
BRANCH  30  31
ATOM     31  C   UNL     1      -1.730   5.027   0.726  1.00  0.00     0.017 C 
BRANCH  31  32
ATOM     32  C   UNL     1      -0.930   3.731   0.792  1.00  0.00     0.028 CG0
ATOM     33  G   UNL     1      -0.499   3.123  -0.556  1.00  0.00     0.000 G0
ENDBRANCH  31  32
ENDBRANCH  30  31
ENDBRANCH  28  30
ENDBRANCH  27  28
ENDBRANCH  26  27
BRANCH  26  34
ATOM     34  N   UNL     1      -2.558   1.712  -0.690  1.00  0.00    -0.345 N 
ATOM     35  C   UNL     1      -3.220   0.652  -1.285  1.00  0.00     0.272 C 
ATOM     36  H   UNL     1      -2.987   2.041   0.171  1.00  0.00     0.164 HD
ATOM     37  O   UNL     1      -2.981   0.277  -2.422  1.00  0.00    -0.267 OA
BRANCH  35  38
ATOM     38  C   UNL     1      -4.273   0.039  -0.407  1.00  0.00     0.155 A 
ATOM     39  N   UNL     1      -4.604   0.816   0.677  1.00  0.00    -0.239 NA
ATOM     40  C   UNL     1      -4.884  -1.185  -0.666  1.00  0.00     0.102 A 
ATOM     41  C   UNL     1      -5.577   0.350   1.478  1.00  0.00     0.093 A 
ATOM     42  N   UNL     1      -5.877  -1.638   0.154  1.00  0.00    -0.244 NA
ATOM     43  C   UNL     1      -5.962   1.094   2.584  1.00  0.00     0.069 A 
ATOM     44  C   UNL     1      -6.221  -0.883   1.213  1.00  0.00     0.090 A 
ATOM     45  C   UNL     1      -6.968   0.636   3.424  1.00  0.00     0.125 A 
ATOM     46  C   UNL     1      -7.224  -1.323   2.069  1.00  0.00     0.033 A 
ATOM     47  C   UNL     1      -7.606  -0.569   3.178  1.00  0.00     0.041 A 
ATOM     48  F   UNL     1      -7.329   1.373   4.483  1.00  0.00    -0.207 F 
BRANCH  40  49
ATOM     49  C   UNL     1      -4.539  -2.122  -1.743  1.00  0.00     0.003 A 
ATOM     50  C   UNL     1      -3.267  -2.716  -1.822  1.00  0.00     0.010 A 
ATOM     51  C   UNL     1      -5.502  -2.495  -2.697  1.00  0.00     0.010 A 
ATOM     52  C   UNL     1      -2.960  -3.631  -2.834  1.00  0.00     0.001 A 
ATOM     53  C   UNL     1      -5.196  -3.408  -3.710  1.00  0.00     0.001 A 
ATOM     54  C   UNL     1      -3.925  -3.974  -3.779  1.00  0.00     0.000 A 
ENDBRANCH  40  49
ENDBRANCH  35  38
ENDBRANCH  26  34
ENDBRANCH   1  26
TORSDOF 9
