MODEL        6USER    Run = 6USERUSER    Estimated Free Energy of Binding    =  -7.06 kcal/mol  [=(1)+(2)+(3)-(4)]USERUSER    (1) Final Intermolecular Energy     = -11.53 kcal/molUSER        vdW + Hbond + desolv Energy     = -12.03 kcal/molUSER        Electrostatic Energy            =  -0.22 kcal/molUSER        Moving Ligand-Fixed Receptor    = -12.25 kcal/molUSER        Moving Ligand-Moving Receptor   =  +0.72 kcal/molUSER    (2) Final Total Internal Energy     =  -5.47 kcal/molUSER    (3) Torsional Free Energy           =  +4.47 kcal/molUSER    (4) Unbound System's Energy         =  -5.47 kcal/molUSERUSERREMARK SMILES COc1ccc(O)c(C(=O)c2ccc(C(=O)N[C@@H]3CCCNC[C@@H]3NC(=O)c3nc4cc(F)ccc4nc3-c3ccccc3)cc2)c1FREMARK SMILES IDX 18 1 17 3 15 4 16 5 14 7 11 8 12 9 46 10 13 11 45 12 9 13REMARK SMILES IDX 10 14 8 15 3 16 4 17 47 18 5 19 6 20 48 21 2 22 1 23 7 24REMARK SMILES IDX 24 26 23 27 22 28 21 30 20 31 19 32 25 34 26 35 27 37 28 38REMARK SMILES IDX 29 39 38 40 30 41 37 42 31 43 36 44 32 45 35 46 34 47 33 48REMARK SMILES IDX 39 49 40 50 44 51 41 52 43 53 42 54REMARK H PARENT 17 6 7 25 22 29 25 36REMARK Flexibility Score:  164.900USER                              x       y       z     vdW  Elec       q    TypeUSER                           _______ _______ _______ _____ _____    ______ ____ROOTATOM      1  C   UNL     1      36.544  44.473  25.640 -0.31 -0.00    +0.106 CG0ATOM      2  G   UNL     1      36.424  44.283  27.164 +0.00 +0.00    +0.000 G0 ENDROOTBRANCH   1   3ATOM      3  N   UNL     1      37.869  45.043  25.341 -0.11 -0.01    -0.347 N  ATOM      4  C   UNL     1      38.072  46.387  25.132 -0.22 +0.02    +0.251 C  ATOM      5  O   UNL     1      37.183  47.227  25.187 -0.77 -0.05    -0.269 OA ATOM      6  H   UNL     1      38.662  44.434  25.494 +0.08 +0.00    +0.164 HD BRANCH   4   7ATOM      7  C   UNL     1      39.478  46.800  24.852 -0.22 +0.00    +0.039 A  ATOM      8  C   UNL     1      42.125  47.609  24.422 -0.21 +0.00    +0.023 A  ATOM      9  C   UNL     1      41.254  47.454  23.337 -0.24 +0.00    +0.013 A  ATOM     10  C   UNL     1      41.681  47.344  25.723 -0.14 +0.00    +0.013 A  ATOM     11  C   UNL     1      39.929  47.065  23.552 -0.27 +0.00    +0.014 A  ATOM     12  C   UNL     1      40.356  46.951  25.935 -0.16 +0.00    +0.014 A  BRANCH   8  13ATOM     13  C   UNL     1      43.525  48.002  24.144 -0.22 +0.04    +0.199 C  ATOM     14  O   UNL     1      43.768  49.187  23.907 -0.63 -0.11    -0.288 OA BRANCH  13  15ATOM     15  C   UNL     1      44.643  47.034  24.093 -0.10 +0.02    +0.104 A  ATOM     16  C   UNL     1      46.133  45.424  25.163 -0.00 +0.02    +0.155 A  ATOM     17  C   UNL     1      46.770  45.206  23.941 -0.05 +0.02    +0.053 A  ATOM     18  C   UNL     1      45.076  46.345  25.228 -0.01 +0.02    +0.179 A  ATOM     19  C   UNL     1      46.367  45.913  22.805 -0.11 +0.04    +0.051 A  ATOM     20  C   UNL     1      45.322  46.831  22.886 -0.16 +0.07    +0.130 A  ATOM     21  F   UNL     1      44.497  46.576  26.417 +0.01 -0.01    -0.202 F  BRANCH  16  22ATOM     22  O   UNL     1      46.446  44.807  26.344 +0.01 -0.01    -0.494 OA ATOM     23  C   UNL     1      45.576  43.774  26.789 +0.01 -0.00    +0.278 C  ENDBRANCH  16  22BRANCH  20  24ATOM     24  O   UNL     1      45.013  47.502  21.732 -0.60 -0.38    -0.507 OA ATOM     25  H   UNL     1      44.515  48.315  21.980 -0.36 +0.06    +0.293 HD ENDBRANCH  20  24ENDBRANCH  13  15ENDBRANCH   8  13ENDBRANCH   4   7ENDBRANCH   1   3BRANCH   1  26ATOM     26  C   UNL     1      36.393  43.170  24.814 -0.21 +0.01    +0.118 C  BRANCH  26  27ATOM     27  C   UNL     1      36.961  41.901  25.489 -0.35 -0.01    +0.108 C  BRANCH  27  28ATOM     28  N   UNL     1      36.140  41.178  26.458 -0.17 +0.11    -0.315 NA ATOM     29  H   UNL     1      36.518  40.235  26.558 -0.48 -0.07    +0.122 HD BRANCH  28  30ATOM     30  C   UNL     1      36.015  41.800  27.764 -0.48 -0.03    +0.081 C  BRANCH  30  31ATOM     31  C   UNL     1      35.451  43.211  27.635 -0.60 -0.00    +0.017 C  BRANCH  31  32ATOM     32  C   UNL     1      36.427  44.284  27.166 -0.45 -0.01    +0.028 CG0ATOM     33  G   UNL     1      36.555  44.474  25.643 +0.00 +0.00    +0.000 G0 ENDBRANCH  31  32ENDBRANCH  30  31ENDBRANCH  28  30ENDBRANCH  27  28ENDBRANCH  26  27BRANCH  26  34ATOM     34  N   UNL     1      36.889  43.338  23.440 -0.16 -0.04    -0.345 N  ATOM     35  C   UNL     1      38.238  43.382  23.133 -0.21 +0.02    +0.272 C  ATOM     36  H   UNL     1      36.289  43.775  22.746 +0.09 +0.04    +0.164 HD ATOM     37  O   UNL     1      39.111  43.110  23.942 -0.15 -0.02    -0.267 OA BRANCH  35  38ATOM     38  C   UNL     1      38.513  43.827  21.725 -0.23 +0.01    +0.155 A  ATOM     39  N   UNL     1      37.377  44.006  20.974 -0.24 -0.00    -0.239 NA ATOM     40  C   UNL     1      39.789  44.064  21.221 -0.19 +0.00    +0.102 A  ATOM     41  C   UNL     1      37.548  44.452  19.718 -0.29 -0.01    +0.093 A  ATOM     42  N   UNL     1      39.943  44.526  19.945 -0.21 -0.00    -0.244 NA ATOM     43  C   UNL     1      36.437  44.662  18.913 -0.30 -0.01    +0.069 A  ATOM     44  C   UNL     1      38.839  44.718  19.201 -0.32 -0.01    +0.090 A  ATOM     45  C   UNL     1      36.588  45.127  17.614 -0.25 -0.04    +0.125 A  ATOM     46  C   UNL     1      38.966  45.181  17.897 -0.38 -0.00    +0.033 A  ATOM     47  C   UNL     1      37.845  45.390  17.094 -0.34 -0.01    +0.041 A  ATOM     48  F   UNL     1      35.502  45.328  16.855 -0.04 +0.12    -0.207 F  BRANCH  40  49ATOM     49  C   UNL     1      41.061  43.819  21.914 -0.30 +0.00    +0.003 A  ATOM     50  C   UNL     1      42.107  43.107  21.301 -0.21 +0.00    +0.010 A  ATOM     51  C   UNL     1      41.284  44.347  23.198 -0.17 +0.00    +0.010 A  ATOM     52  C   UNL     1      43.325  42.907  21.959 -0.22 +0.00    +0.001 A  ATOM     53  C   UNL     1      42.500  44.146  23.857 -0.13 +0.00    +0.001 A  ATOM     54  C   UNL     1      43.519  43.425  23.238 -0.23 +0.00    +0.000 A  ENDBRANCH  40  49ENDBRANCH  35  38ENDBRANCH  26  34ENDBRANCH   1  26TORSDOF 9TERENDMDL