REMARK SMILES O=C(C1CC1)N1CCN(Cc2ccc(-c3nc4ccccc4nc3-c3ccc(CN4CCC(n5c(O)nc6ccccc65)CC4)cc3)cc2)CC1
REMARK SMILES IDX 25 1 26 2 27 3 28 4 46 5 47 6 24 7 15 8 16 9 17 10 23 11
REMARK SMILES IDX 18 12 22 13 19 14 21 15 20 16 14 17 11 18 12 19 49 20 13 21
REMARK SMILES IDX 48 22 10 23 9 24 2 25 6 26 7 27 51 28 8 29 50 30 1 31 3 32
REMARK SMILES IDX 4 33 5 34 29 35 30 36 31 37 45 38 32 39 44 40 33 41 34 42
REMARK SMILES IDX 35 43 43 44 37 45 42 46 38 47 41 48 39 49 40 50 36 51
REMARK H PARENT 36 52
ROOT
ATOM      1  C   UNL     1      -0.791  -1.777   0.608  1.00  0.00     0.002 A 
ATOM      2  C   UNL     1      -0.649  -0.713   1.514  1.00  0.00     0.011 A 
ATOM      3  C   UNL     1      -1.449   0.431   1.421  1.00  0.00     0.006 A 
ATOM      4  C   UNL     1      -2.426   0.537   0.425  1.00  0.00    -0.034 A 
ATOM      5  C   UNL     1      -2.587  -0.526  -0.474  1.00  0.00     0.006 A 
ATOM      6  C   UNL     1      -1.787  -1.668  -0.377  1.00  0.00     0.011 A 
ENDROOT
BRANCH   1   7
ATOM      7  C   UNL     1       0.051  -2.986   0.686  1.00  0.00     0.097 A 
ATOM      8  C   UNL     1       1.454  -2.990   0.725  1.00  0.00     0.097 A 
ATOM      9  N   UNL     1       2.154  -4.152   0.871  1.00  0.00    -0.244 NA
ATOM     10  C   UNL     1       1.450  -5.296   0.934  1.00  0.00     0.089 A 
ATOM     11  N   UNL     1      -0.655  -4.152   0.739  1.00  0.00    -0.244 NA
ATOM     12  C   UNL     1       2.118  -6.507   1.074  1.00  0.00     0.030 A 
ATOM     13  C   UNL     1       0.039  -5.297   0.858  1.00  0.00     0.089 A 
ATOM     14  C   UNL     1       1.428  -7.718   1.134  1.00  0.00     0.002 A 
ATOM     15  C   UNL     1      -0.640  -6.508   0.918  1.00  0.00     0.030 A 
ATOM     16  C   UNL     1       0.042  -7.718   1.056  1.00  0.00     0.002 A 
BRANCH   8  17
ATOM     17  C   UNL     1       2.301  -1.792   0.588  1.00  0.00     0.002 A 
ATOM     18  C   UNL     1       3.920   0.527   0.366  1.00  0.00    -0.034 A 
ATOM     19  C   UNL     1       4.055  -0.332   1.463  1.00  0.00     0.006 A 
ATOM     20  C   UNL     1       2.990   0.206  -0.630  1.00  0.00     0.006 A 
ATOM     21  C   UNL     1       3.260  -1.479   1.566  1.00  0.00     0.011 A 
ATOM     22  C   UNL     1       2.193  -0.938  -0.522  1.00  0.00     0.011 A 
BRANCH  18  23
ATOM     23  C   UNL     1       4.772   1.772   0.238  1.00  0.00     0.120 C 
BRANCH  23  24
ATOM     24  N   UNL     1       5.801   1.659  -0.808  1.00  0.00    -0.296 NA
ATOM     25  C   UNL     1      10.056   2.506  -0.326  1.00  0.00     0.225 C 
ATOM     26  N   UNL     1       8.728   2.215  -0.588  1.00  0.00    -0.340 N 
ATOM     27  C   UNL     1       7.731   3.264  -0.385  1.00  0.00     0.135 C 
ATOM     28  C   UNL     1       8.218   0.915  -1.035  1.00  0.00     0.135 C 
ATOM     29  C   UNL     1       6.411   2.968  -1.116  1.00  0.00     0.106 C 
ATOM     30  C   UNL     1       6.817   0.640  -0.458  1.00  0.00     0.106 C 
ATOM     31  O   UNL     1      10.440   3.603   0.067  1.00  0.00    -0.275 OA
BRANCH  25  32
ATOM     32  C   UNL     1      11.044   1.412  -0.535  1.00  0.00     0.079 C 
ATOM     33  C   UNL     1      11.347   0.454   0.597  1.00  0.00     0.014 C 
ATOM     34  C   UNL     1      12.386   1.443   0.165  1.00  0.00     0.014 C 
ENDBRANCH  25  32
ENDBRANCH  23  24
ENDBRANCH  18  23
ENDBRANCH   8  17
ENDBRANCH   1   7
BRANCH   4  35
ATOM     35  C   UNL     1      -3.267   1.790   0.297  1.00  0.00     0.120 C 
BRANCH  35  36
ATOM     36  N   UNL     1      -4.706   1.525   0.189  1.00  0.00    -0.299 NA
ATOM     37  C   UNL     1      -5.426   2.663  -0.388  1.00  0.00     0.087 C 
ATOM     38  C   UNL     1      -5.302   0.998   1.410  1.00  0.00     0.087 C 
ATOM     39  C   UNL     1      -6.834   2.886   0.165  1.00  0.00     0.041 C 
ATOM     40  C   UNL     1      -6.716   0.503   1.110  1.00  0.00     0.041 C 
ATOM     41  C   UNL     1      -7.596   1.592   0.475  1.00  0.00     0.095 C 
BRANCH  41  42
ATOM     42  N   UNL     1      -8.402   1.131  -0.651  1.00  0.00    -0.291 N 
ATOM     43  C   UNL     1      -7.964   0.526  -1.798  1.00  0.00     0.295 A 
ATOM     44  C   UNL     1      -9.774   1.268  -0.776  1.00  0.00     0.072 A 
ATOM     45  N   UNL     1      -8.924   0.255  -2.641  1.00  0.00    -0.195 NA
ATOM     46  C   UNL     1     -10.772   1.813   0.045  1.00  0.00     0.029 A 
ATOM     47  C   UNL     1     -10.060   0.715  -2.026  1.00  0.00     0.092 A 
ATOM     48  C   UNL     1     -12.088   1.780  -0.433  1.00  0.00     0.002 A 
ATOM     49  C   UNL     1     -11.386   0.691  -2.486  1.00  0.00     0.031 A 
ATOM     50  C   UNL     1     -12.395   1.227  -1.677  1.00  0.00     0.002 A 
BRANCH  43  51
ATOM     51  O   UNL     1      -6.713   0.223  -2.065  1.00  0.00    -0.480 OA
ATOM     52  H   UNL     1      -6.798  -0.205  -2.936  1.00  0.00     0.296 HD
ENDBRANCH  43  51
ENDBRANCH  41  42
ENDBRANCH  35  36
ENDBRANCH   4  35
TORSDOF 9
