MODEL        6USER    Run = 6USERUSER    Estimated Free Energy of Binding    = -14.26 kcal/mol  [=(1)+(2)+(3)-(4)]USERUSER    (1) Final Intermolecular Energy     = -16.94 kcal/molUSER        vdW + Hbond + desolv Energy     = -16.87 kcal/molUSER        Electrostatic Energy            =  -0.07 kcal/molUSER        Moving Ligand-Fixed Receptor    = -16.94 kcal/molUSER        Moving Ligand-Moving Receptor   =  +0.00 kcal/molUSER    (2) Final Total Internal Energy     =  -2.11 kcal/molUSER    (3) Torsional Free Energy           =  +2.68 kcal/molUSER    (4) Unbound System's Energy         =  -2.11 kcal/molUSERUSERREMARK SMILES O=C(C1CC1)N1CCN(Cc2ccc(-c3nc4ccccc4nc3-c3ccc(CN4CCC(n5c(O)nc6ccccc65)CC4)cc3)cc2)CC1REMARK SMILES IDX 25 1 26 2 27 3 28 4 46 5 47 6 24 7 15 8 16 9 17 10 23 11REMARK SMILES IDX 18 12 22 13 19 14 21 15 20 16 14 17 11 18 12 19 49 20 13 21REMARK SMILES IDX 48 22 10 23 9 24 2 25 6 26 7 27 51 28 8 29 50 30 1 31 3 32REMARK SMILES IDX 4 33 5 34 29 35 30 36 31 37 45 38 32 39 44 40 33 41 34 42REMARK SMILES IDX 35 43 43 44 37 45 42 46 38 47 41 48 39 49 40 50 36 51REMARK H PARENT 36 52USER                              x       y       z     vdW  Elec       q    TypeUSER                           _______ _______ _______ _____ _____    ______ ____ROOTATOM      1  C   UNL     1      37.750  43.929  21.281 -0.38 +0.00    +0.002 A  ATOM      2  C   UNL     1      37.278  44.719  22.342 -0.22 +0.00    +0.011 A  ATOM      3  C   UNL     1      36.999  44.161  23.595 -0.23 +0.00    +0.006 A  ATOM      4  C   UNL     1      37.199  42.795  23.825 -0.37 -0.00    -0.034 A  ATOM      5  C   UNL     1      37.686  42.001  22.778 -0.40 +0.00    +0.006 A  ATOM      6  C   UNL     1      37.964  42.563  21.529 +0.03 +0.00    +0.011 A  ENDROOTBRANCH   1   7ATOM      7  C   UNL     1      38.039  44.501  19.952 -0.30 -0.00    +0.097 A  ATOM      8  C   UNL     1      37.228  44.351  18.817 -0.29 -0.01    +0.097 A  ATOM      9  N   UNL     1      37.533  44.975  17.642 -0.20 +0.06    -0.244 NA ATOM     10  C   UNL     1      38.663  45.704  17.603 -0.34 -0.02    +0.089 A  ATOM     11  N   UNL     1      39.189  45.232  19.900 -0.24 +0.00    -0.244 NA ATOM     12  C   UNL     1      39.022  46.352  16.427 -0.40 -0.01    +0.030 A  ATOM     13  C   UNL     1      39.500  45.825  18.735 -0.37 -0.01    +0.089 A  ATOM     14  C   UNL     1      40.190  47.110  16.339 -0.50 -0.00    +0.002 A  ATOM     15  C   UNL     1      40.662  46.582  18.638 -0.45 -0.00    +0.030 A  ATOM     16  C   UNL     1      41.013  47.226  17.450 -0.51 -0.00    +0.002 A  BRANCH   8  17ATOM     17  C   UNL     1      36.017  43.513  18.754 -0.34 -0.00    +0.002 A  ATOM     18  C   UNL     1      33.676  41.920  18.595 -0.38 +0.01    -0.034 A  ATOM     19  C   UNL     1      34.567  41.983  17.517 -0.36 -0.00    +0.006 A  ATOM     20  C   UNL     1      33.975  42.637  19.759 -0.30 +0.00    +0.006 A  ATOM     21  C   UNL     1      35.725  42.765  17.602 -0.29 -0.00    +0.011 A  ATOM     22  C   UNL     1      35.130  43.421  19.839 -0.42 -0.00    +0.011 A  BRANCH  18  23ATOM     23  C   UNL     1      32.418  41.080  18.521 -0.38 -0.01    +0.120 C  BRANCH  23  24ATOM     24  N   UNL     1      31.227  41.859  18.148 -0.11 +0.05    -0.296 NA ATOM     25  C   UNL     1      31.147  45.295  15.456 -0.32 -0.11    +0.225 C  ATOM     26  N   UNL     1      31.061  44.220  16.325 -0.10 +0.12    -0.340 N  ATOM     27  C   UNL     1      31.839  44.260  17.562 -0.23 -0.03    +0.135 C  ATOM     28  C   UNL     1      30.265  43.010  16.099 -0.27 -0.06    +0.135 C  ATOM     29  C   UNL     1      31.325  43.258  18.609 -0.24 -0.01    +0.106 C  ATOM     30  C   UNL     1      30.958  41.770  16.694 -0.28 -0.04    +0.106 C  ATOM     31  O   UNL     1      31.843  46.282  15.672 -0.33 +0.26    -0.275 OA BRANCH  25  32ATOM     32  C   UNL     1      30.350  45.218  14.201 -0.34 -0.07    +0.079 C  ATOM     33  C   UNL     1      30.921  45.782  12.918 -0.54 -0.01    +0.014 C  ATOM     34  C   UNL     1      29.767  46.470  13.582 -0.47 -0.01    +0.014 C  ENDBRANCH  25  32ENDBRANCH  23  24ENDBRANCH  18  23ENDBRANCH   8  17ENDBRANCH   1   7BRANCH   4  35ATOM     35  C   UNL     1      36.861  42.180  25.167 -0.38 -0.01    +0.120 C  BRANCH  35  36ATOM     36  N   UNL     1      36.339  43.144  26.142 -0.19 +0.03    -0.299 NA ATOM     37  C   UNL     1      37.409  43.733  26.950 -0.32 -0.01    +0.087 C  ATOM     38  C   UNL     1      35.210  42.645  26.918 -0.53 -0.02    +0.087 C  ATOM     39  C   UNL     1      37.031  44.041  28.400 -0.28 -0.01    +0.041 C  ATOM     40  C   UNL     1      34.577  43.801  27.690 -0.60 -0.01    +0.041 C  ATOM     41  C   UNL     1      35.592  44.539  28.578 -0.38 -0.03    +0.095 C  BRANCH  41  42ATOM     42  N   UNL     1      35.490  45.994  28.525 -0.25 +0.08    -0.291 N  ATOM     43  C   UNL     1      34.463  46.775  28.982 -0.16 -0.06    +0.295 A  ATOM     44  C   UNL     1      36.414  46.851  27.952 -0.26 -0.02    +0.072 A  ATOM     45  N   UNL     1      34.645  48.050  28.764 -0.28 +0.02    -0.195 NA ATOM     46  C   UNL     1      37.646  46.659  27.311 -0.28 -0.00    +0.029 A  ATOM     47  C   UNL     1      35.852  48.119  28.117 -0.31 -0.02    +0.092 A  ATOM     48  C   UNL     1      38.311  47.798  26.839 -0.27 -0.00    +0.002 A  ATOM     49  C   UNL     1      36.535  49.247  27.638 -0.29 -0.00    +0.031 A  ATOM     50  C   UNL     1      37.769  49.073  26.999 -0.28 +0.00    +0.002 A  BRANCH  43  51ATOM     51  O   UNL     1      33.386  46.331  29.591 -0.67 +0.05    -0.480 OA ATOM     52  H   UNL     1      33.549  46.617  30.508 -0.29 -0.15    +0.296 HD ENDBRANCH  43  51ENDBRANCH  41  42ENDBRANCH  35  36ENDBRANCH   4  35TORSDOF 9TERENDMDL