REMARK SMILES Cn1ncc2cc(-c3ccnc(Nc4ccc(N)c(-c5nnc(O)o5)c4)n3)ccc21
REMARK SMILES IDX 14 1 15 2 16 3 17 4 19 5 26 6 13 7 12 9 8 10 9 11 27 12
REMARK SMILES IDX 10 13 11 14 7 15 2 16 3 17 30 18 4 19 29 20 5 21 28 22 6 23
REMARK SMILES IDX 1 24 20 25 21 26 25 27 22 28 23 29 24 30 18 32
REMARK H PARENT 13 8 24 31 18 33 18 34
ROOT
ATOM      1  C   UNL     1       2.770  -0.508   0.759  1.00  0.00     0.042 A 
ATOM      2  C   UNL     1       3.334  -1.365   1.700  1.00  0.00     0.028 A 
ATOM      3  C   UNL     1       4.723  -1.485   1.830  1.00  0.00     0.028 A 
ATOM      4  C   UNL     1       5.597  -0.719   1.050  1.00  0.00     0.044 A 
ATOM      5  C   UNL     1       5.053   0.123   0.058  1.00  0.00     0.064 A 
ATOM      6  C   UNL     1       3.649   0.225  -0.056  1.00  0.00     0.042 A 
ENDROOT
BRANCH   1   7
ATOM      7  N   UNL     1       1.394  -0.335   0.583  1.00  0.00    -0.324 N 
ATOM      8  H   UNL     1       1.095   0.289  -0.152  1.00  0.00     0.170 HD
BRANCH   7   9
ATOM      9  C   UNL     1       0.263  -0.875   1.189  1.00  0.00     0.227 A 
ATOM     10  C   UNL     1      -2.053  -0.919   1.215  1.00  0.00     0.076 A 
ATOM     11  C   UNL     1      -2.046  -1.831   2.251  1.00  0.00     0.049 A 
ATOM     12  N   UNL     1      -0.904  -0.435   0.690  1.00  0.00    -0.213 NA
ATOM     13  C   UNL     1      -0.810  -2.217   2.703  1.00  0.00     0.117 A 
ATOM     14  N   UNL     1       0.344  -1.759   2.191  1.00  0.00    -0.221 NA
BRANCH  10  15
ATOM     15  C   UNL     1      -3.300  -0.398   0.616  1.00  0.00     0.001 A 
ATOM     16  N   UNL     1      -6.908   0.842  -1.018  1.00  0.00    -0.268 N 
ATOM     17  N   UNL     1      -7.698  -0.249  -0.956  1.00  0.00    -0.181 NA
ATOM     18  C   UNL     1      -5.643   0.643  -0.521  1.00  0.00     0.068 A 
ATOM     19  C   UNL     1      -6.912  -1.171  -0.397  1.00  0.00     0.143 A 
ATOM     20  C   UNL     1      -4.528   1.480  -0.410  1.00  0.00     0.029 A 
ATOM     21  C   UNL     1      -5.622  -0.681  -0.098  1.00  0.00     0.021 A 
ATOM     22  C   UNL     1      -3.369   0.933   0.160  1.00  0.00     0.012 A 
ATOM     23  C   UNL     1      -4.447  -1.208   0.473  1.00  0.00     0.022 A 
ATOM     24  C   UNL     1      -7.429   2.060  -1.591  1.00  0.00     0.174 C 
ENDBRANCH  10  15
ENDBRANCH   7   9
ENDBRANCH   1   7
BRANCH   5  25
ATOM     25  C   UNL     1       5.915   0.913  -0.820  1.00  0.00     0.253 A 
ATOM     26  N   UNL     1       7.218   1.148  -0.755  1.00  0.00    -0.104 NA
ATOM     27  O   UNL     1       5.323   1.544  -1.891  1.00  0.00    -0.389 OA
ATOM     28  N   UNL     1       7.530   1.964  -1.825  1.00  0.00    -0.071 NA
ATOM     29  C   UNL     1       6.395   2.154  -2.443  1.00  0.00     0.412 A 
BRANCH  29  30
ATOM     30  O   UNL     1       6.199   2.872  -3.525  1.00  0.00    -0.465 OA
ATOM     31  H   UNL     1       7.096   3.189  -3.722  1.00  0.00     0.298 HD
ENDBRANCH  29  30
ENDBRANCH   5  25
BRANCH   4  32
ATOM     32  N   UNL     1       6.973  -0.993   1.143  1.00  0.00    -0.398 N 
ATOM     33  H   UNL     1       7.570  -0.261   0.753  1.00  0.00     0.156 HD
ATOM     34  H   UNL     1       7.281  -1.292   2.062  1.00  0.00     0.156 HD
ENDBRANCH   4  32
TORSDOF 6
