MODEL        7USER    Run = 7USERUSER    Estimated Free Energy of Binding    = -12.47 kcal/mol  [=(1)+(2)+(3)-(4)]USERUSER    (1) Final Intermolecular Energy     = -14.56 kcal/molUSER        vdW + Hbond + desolv Energy     = -14.41 kcal/molUSER        Electrostatic Energy            =  -0.15 kcal/molUSER        Moving Ligand-Fixed Receptor    = -14.56 kcal/molUSER        Moving Ligand-Moving Receptor   =  +0.00 kcal/molUSER    (2) Final Total Internal Energy     =  -1.69 kcal/molUSER    (3) Torsional Free Energy           =  +2.09 kcal/molUSER    (4) Unbound System's Energy         =  -1.69 kcal/molUSERUSERREMARK SMILES Nc1ccc(-c2nc3ccc(F)cc3nc2-c2ccc(CN3CCC(n4c(O)nc5ccccc54)CC3)cc2)cc1REMARK SMILES IDX 17 1 18 2 19 3 20 4 38 5 39 6 16 7 6 8 7 9 8 10 15 11 9 12REMARK SMILES IDX 14 13 10 14 13 15 11 16 12 17 5 18 2 19 3 20 41 21 4 22REMARK SMILES IDX 40 23 1 24 21 27 22 28 23 29 37 30 24 31 36 32 25 33 26 34REMARK SMILES IDX 27 35 35 36 29 37 34 38 30 39 33 40 31 41 32 42 28 43REMARK H PARENT 1 25 1 26 28 44USER                              x       y       z     vdW  Elec       q    TypeUSER                           _______ _______ _______ _____ _____    ______ ____ROOTATOM      1  C   UNL     1      38.409  45.906  23.842 -0.30 +0.00    +0.002 A  ATOM      2  C   UNL     1      39.533  46.528  23.276 -0.29 +0.00    +0.011 A  ATOM      3  C   UNL     1      40.120  46.038  22.103 -0.22 +0.00    +0.006 A  ATOM      4  C   UNL     1      39.587  44.920  21.450 -0.30 -0.00    -0.034 A  ATOM      5  C   UNL     1      38.458  44.300  21.999 -0.33 +0.00    +0.006 A  ATOM      6  C   UNL     1      37.877  44.790  23.172 -0.31 +0.00    +0.011 A  ENDROOTBRANCH   1   7ATOM      7  C   UNL     1      37.778  46.402  25.079 -0.21 +0.01    +0.097 A  ATOM      8  C   UNL     1      37.602  45.657  26.256 -0.27 -0.01    +0.097 A  ATOM      9  N   UNL     1      37.067  46.225  27.375 -0.22 +0.05    -0.244 NA ATOM     10  C   UNL     1      36.687  47.511  27.302 -0.28 -0.02    +0.090 A  ATOM     11  N   UNL     1      37.377  47.704  25.007 -0.58 -0.04    -0.244 NA ATOM     12  C   UNL     1      36.127  48.122  28.418 -0.32 -0.01    +0.033 A  ATOM     13  C   UNL     1      36.839  48.255  26.108 -0.38 -0.00    +0.092 A  ATOM     14  C   UNL     1      35.717  49.454  28.379 -0.26 -0.00    +0.041 A  ATOM     15  C   UNL     1      36.428  49.579  26.077 -0.40 -0.00    +0.069 A  ATOM     16  C   UNL     1      35.873  50.170  27.203 -0.21 +0.01    +0.125 A  ATOM     17  F   UNL     1      35.482  51.450  27.153 -0.05 -0.03    -0.207 F  BRANCH   8  18ATOM     18  C   UNL     1      37.934  44.230  26.418 -0.25 -0.00    +0.003 A  ATOM     19  C   UNL     1      38.530  41.468  26.692 -0.33 -0.00    +0.031 A  ATOM     20  C   UNL     1      39.551  42.417  26.659 -0.22 -0.00    +0.026 A  ATOM     21  C   UNL     1      37.208  41.911  26.657 -0.40 -0.00    +0.026 A  ATOM     22  C   UNL     1      39.261  43.777  26.496 -0.17 -0.00    +0.012 A  ATOM     23  C   UNL     1      36.914  43.268  26.495 -0.35 -0.00    +0.012 A  BRANCH  19  24ATOM     24  N   UNL     1      38.819  40.129  26.976 -0.02 -0.01    -0.399 N  ATOM     25  H   UNL     1      38.145  39.474  26.590 -0.42 +0.00    +0.156 HD ATOM     26  H   UNL     1      39.776  39.863  26.764 -0.40 -0.03    +0.156 HD ENDBRANCH  19  24ENDBRANCH   8  18ENDBRANCH   1   7BRANCH   4  27ATOM     27  C   UNL     1      40.220  44.394  20.178 -0.32 +0.00    +0.120 C  BRANCH  27  28ATOM     28  N   UNL     1      39.779  45.004  18.913 -0.22 +0.01    -0.299 NA ATOM     29  C   UNL     1      38.394  45.480  18.951 -0.34 -0.01    +0.087 C  ATOM     30  C   UNL     1      40.699  46.030  18.414 -0.49 -0.00    +0.087 C  ATOM     31  C   UNL     1      37.921  45.862  17.549 -0.40 -0.01    +0.041 C  ATOM     32  C   UNL     1      40.324  46.435  16.989 -0.51 -0.01    +0.041 C  ATOM     33  C   UNL     1      38.863  46.898  16.926 -0.41 -0.03    +0.095 C  BRANCH  33  34ATOM     34  N   UNL     1      38.456  47.300  15.587 -0.22 +0.13    -0.291 N  ATOM     35  C   UNL     1      38.589  48.564  15.079 -0.27 -0.17    +0.295 A  ATOM     36  C   UNL     1      37.883  46.531  14.596 -0.37 -0.03    +0.072 A  ATOM     37  N   UNL     1      38.159  48.679  13.854 -0.46 +0.09    -0.195 NA ATOM     38  C   UNL     1      37.499  45.185  14.508 -0.36 -0.01    +0.029 A  ATOM     39  C   UNL     1      37.715  47.420  13.531 -0.46 -0.03    +0.092 A  ATOM     40  C   UNL     1      36.936  44.752  13.301 -0.44 -0.00    +0.002 A  ATOM     41  C   UNL     1      37.149  46.966  12.330 -0.62 -0.01    +0.031 A  ATOM     42  C   UNL     1      36.763  45.624  12.228 -0.59 -0.00    +0.002 A  BRANCH  35  43ATOM     43  O   UNL     1      39.094  49.588  15.734 -0.14 +0.33    -0.480 OA ATOM     44  H   UNL     1      38.576  50.325  15.362 -0.29 -0.32    +0.296 HD ENDBRANCH  35  43ENDBRANCH  33  34ENDBRANCH  27  28ENDBRANCH   4  27TORSDOF 7TERENDMDL