MODEL        2USER    Run = 2USERUSER    Estimated Free Energy of Binding    =  -9.59 kcal/mol  [=(1)+(2)+(3)-(4)]USERUSER    (1) Final Intermolecular Energy     = -11.38 kcal/molUSER        vdW + Hbond + desolv Energy     = -11.35 kcal/molUSER        Electrostatic Energy            =  -0.03 kcal/molUSER        Moving Ligand-Fixed Receptor    = -11.38 kcal/molUSER        Moving Ligand-Moving Receptor   =  +0.00 kcal/molUSER    (2) Final Total Internal Energy     =  -1.27 kcal/molUSER    (3) Torsional Free Energy           =  +1.79 kcal/molUSER    (4) Unbound System's Energy         =  -1.27 kcal/molUSERUSERREMARK SMILES Cc1cc(-c2nnc3ccc(-c4cnn(CCN5C[C@@H](F)O[C@H](F)C5)c4F)cn23)ccc1OREMARK SMILES IDX 12 1 13 2 14 3 15 4 26 5 27 6 11 7 5 8 6 9 29 10 7 11 28 12REMARK SMILES IDX 8 13 9 14 10 15 4 16 2 17 3 18 32 19 31 20 30 21 1 22 33 23REMARK SMILES IDX 16 25 17 26 18 27 19 28 25 29 20 30 23 31 22 32 21 33 24 34REMARK H PARENT 33 24USER                              x       y       z     vdW  Elec       q    TypeUSER                           _______ _______ _______ _____ _____    ______ ____ROOTATOM      1  C   UNL     1      38.765  44.870  19.792 -0.34 -0.00    +0.058 A  ATOM      2  C   UNL     1      38.897  44.634  21.184 -0.26 +0.00    +0.147 A  ATOM      3  N   UNL     1      38.036  43.721  21.645 -0.24 -0.01    -0.178 NA ATOM      4  N   UNL     1      37.348  43.357  20.541 -0.22 +0.00    -0.238 N  ATOM      5  C   UNL     1      37.742  44.027  19.423 -0.18 -0.02    +0.219 A  ATOM      6  F   UNL     1      37.213  43.887  18.200 -0.06 +0.03    -0.185 F  ENDROOTBRANCH   1   7ATOM      7  C   UNL     1      39.501  45.775  18.958 -0.42 -0.00    +0.005 A  ATOM      8  C   UNL     1      39.561  47.602  15.713 -0.38 -0.05    +0.168 A  ATOM      9  N   UNL     1      40.525  48.466  15.445 -0.48 +0.03    -0.129 NA ATOM     10  N   UNL     1      39.792  47.056  16.964 -0.28 +0.06    -0.282 N  ATOM     11  N   UNL     1      41.431  48.454  16.478 -0.90 +0.00    -0.130 NA ATOM     12  C   UNL     1      39.049  46.168  17.746 -0.35 -0.02    +0.104 A  ATOM     13  C   UNL     1      40.992  47.609  17.381 -0.39 -0.02    +0.161 A  ATOM     14  C   UNL     1      41.496  47.205  18.642 -0.45 -0.00    +0.050 A  ATOM     15  C   UNL     1      40.794  46.335  19.392 -0.37 +0.00    +0.014 A  BRANCH   8  16ATOM     16  C   UNL     1      38.419  47.316  14.847 -0.46 -0.01    +0.020 A  ATOM     17  C   UNL     1      36.153  46.416  14.601 -0.41 +0.01    -0.009 A  ATOM     18  C   UNL     1      37.274  46.714  15.394 -0.39 -0.01    +0.019 A  ATOM     19  C   UNL     1      36.196  46.753  13.245 -0.48 -0.06    +0.118 A  ATOM     20  C   UNL     1      37.316  47.369  12.691 -0.56 -0.01    +0.047 A  ATOM     21  C   UNL     1      38.423  47.658  13.491 -0.41 -0.00    +0.016 A  ATOM     22  C   UNL     1      34.957  45.766  15.232 -0.38 -0.04    +0.048 C  BRANCH  19  23ATOM     23  O   UNL     1      35.160  46.515  12.387 -0.14 +0.35    -0.508 OA ATOM     24  H   UNL     1      34.341  46.875  12.761 -0.21 -0.28    +0.293 HD ENDBRANCH  19  23ENDBRANCH   8  16ENDBRANCH   1   7BRANCH   4  25ATOM     25  C   UNL     1      36.275  42.394  20.638 -0.42 -0.00    +0.163 C  BRANCH  25  26ATOM     26  C   UNL     1      35.394  42.284  19.382 -0.40 -0.01    +0.108 C  BRANCH  26  27ATOM     27  N   UNL     1      33.969  42.591  19.639 -0.47 -0.01    -0.291 NA ATOM     28  C   UNL     1      33.732  44.051  19.847 -0.32 -0.02    +0.152 C  ATOM     29  C   UNL     1      33.109  42.168  18.502 -0.34 -0.02    +0.152 C  ATOM     30  C   UNL     1      33.699  44.925  18.568 -0.25 -0.12    +0.314 C  ATOM     31  C   UNL     1      33.170  43.076  17.256 -0.17 -0.11    +0.314 C  ATOM     32  O   UNL     1      32.811  44.415  17.580 -0.17 +0.10    -0.311 OA ATOM     33  F   UNL     1      34.933  44.992  18.005 -0.04 +0.09    -0.215 F  ATOM     34  F   UNL     1      32.246  42.637  16.360 -0.05 +0.11    -0.215 F  ENDBRANCH  26  27ENDBRANCH  25  26ENDBRANCH   4  25TORSDOF 6TERENDMDL