REMARK SMILES CNc1ccc2c(n1)N=C2C(=O)Nc1ccc(O)c(CN2CCN(CF)CC2)c1F
REMARK SMILES IDX 14 1 15 2 16 3 17 4 19 5 29 6 30 7 13 8 11 9 12 10 10 12
REMARK SMILES IDX 3 13 4 14 8 15 5 16 7 17 6 18 9 19 2 20 1 21 20 23 21 24
REMARK SMILES IDX 22 25 28 26 23 27 27 28 24 29 25 30 26 31 18 32
REMARK H PARENT 13 11 2 22 18 33
ROOT
ATOM      1  C   UNL     1       0.344   0.686   2.090  1.00  0.00     0.078 A 
ATOM      2  C   UNL     1       0.270   0.279   3.426  1.00  0.00     0.033 A 
ATOM      3  C   UNL     1      -0.970   0.174   4.061  1.00  0.00     0.049 A 
ATOM      4  C   UNL     1      -2.136   0.499   3.369  1.00  0.00     0.123 A 
ATOM      5  C   UNL     1      -2.090   0.966   2.048  1.00  0.00     0.046 A 
ATOM      6  C   UNL     1      -0.834   1.070   1.432  1.00  0.00     0.154 A 
ATOM      7  F   UNL     1      -0.768   1.632   0.212  1.00  0.00    -0.204 F 
ENDROOT
BRANCH   1   8
ATOM      8  N   UNL     1       1.615   0.684   1.484  1.00  0.00    -0.318 N 
ATOM      9  C   UNL     1       1.856   0.431   0.151  1.00  0.00     0.275 C 
ATOM     10  O   UNL     1       1.084   0.182  -0.759  1.00  0.00    -0.267 OA
ATOM     11  H   UNL     1       2.431   0.597   2.084  1.00  0.00     0.170 HD
BRANCH   9  12
ATOM     12  C   UNL     1       3.295   0.352  -0.145  1.00  0.00     0.142 C 
ATOM     13  C   UNL     1       6.602  -0.276  -2.087  1.00  0.00     0.128 A 
ATOM     14  C   UNL     1       5.519  -0.484  -2.994  1.00  0.00     0.047 A 
ATOM     15  N   UNL     1       6.413   0.090  -0.795  1.00  0.00    -0.211 NA
ATOM     16  C   UNL     1       4.187  -0.324  -2.583  1.00  0.00     0.018 A 
ATOM     17  C   UNL     1       5.135   0.222  -0.501  1.00  0.00     0.164 A 
ATOM     18  C   UNL     1       4.051   0.038  -1.286  1.00  0.00     0.051 A 
ATOM     19  N   UNL     1       4.348   0.501   0.615  1.00  0.00    -0.222 NA
BRANCH  13  20
ATOM     20  N   UNL     1       7.903  -0.426  -2.605  1.00  0.00    -0.373 N 
ATOM     21  C   UNL     1       8.964  -0.209  -1.636  1.00  0.00     0.141 C 
ATOM     22  H   UNL     1       7.983  -1.330  -3.063  1.00  0.00     0.161 HD
ENDBRANCH  13  20
ENDBRANCH   9  12
ENDBRANCH   1   8
BRANCH   5  23
ATOM     23  C   UNL     1      -3.336   1.361   1.291  1.00  0.00     0.127 C 
BRANCH  23  24
ATOM     24  N   UNL     1      -3.905   0.275   0.469  1.00  0.00    -0.296 NA
ATOM     25  C   UNL     1      -3.187   0.094  -0.804  1.00  0.00     0.100 C 
ATOM     26  C   UNL     1      -5.341   0.522   0.221  1.00  0.00     0.100 C 
ATOM     27  C   UNL     1      -3.792  -1.005  -1.724  1.00  0.00     0.102 C 
ATOM     28  C   UNL     1      -5.943  -0.254  -0.981  1.00  0.00     0.102 C 
ATOM     29  N   UNL     1      -5.175  -1.426  -1.432  1.00  0.00    -0.274 NA
BRANCH  29  30
ATOM     30  C   UNL     1      -5.190  -2.475  -0.414  1.00  0.00     0.303 C 
ATOM     31  F   UNL     1      -6.483  -2.824  -0.167  1.00  0.00    -0.234 F 
ENDBRANCH  29  30
ENDBRANCH  23  24
ENDBRANCH   5  23
BRANCH   4  32
ATOM     32  O   UNL     1      -3.343   0.391   4.000  1.00  0.00    -0.508 OA
ATOM     33  H   UNL     1      -3.235  -0.151   4.801  1.00  0.00     0.293 HD
ENDBRANCH   4  32
TORSDOF 7
