REMARK SMILES Cc1cc(-c2nnc3ccc(-c4cnn(CCN5C[C@@H](F)O[C@H](F)C5)c4F)cn23)ccc1O
REMARK SMILES IDX 12 1 13 2 14 3 15 4 26 5 27 6 11 7 5 8 6 9 29 10 7 11 28 12
REMARK SMILES IDX 8 13 9 14 10 15 4 16 2 17 3 18 32 19 31 20 30 21 1 22 33 23
REMARK SMILES IDX 16 25 17 26 18 27 19 28 25 29 20 30 23 31 22 32 21 33 24 34
REMARK H PARENT 33 24
ROOT
ATOM      1  C   UNL     1       0.514   0.926   0.182  1.00  0.00     0.058 A 
ATOM      2  C   UNL     1       0.593   0.366  -1.118  1.00  0.00     0.147 A 
ATOM      3  N   UNL     1       1.706   0.715  -1.772  1.00  0.00    -0.178 NA
ATOM      4  N   UNL     1       2.356   1.498  -0.885  1.00  0.00    -0.238 N 
ATOM      5  C   UNL     1       1.674   1.659   0.283  1.00  0.00     0.219 A 
ATOM      6  F   UNL     1       2.069   2.406   1.323  1.00  0.00    -0.185 F 
ENDROOT
BRANCH   1   7
ATOM      7  C   UNL     1      -0.523   0.784   1.162  1.00  0.00     0.005 A 
ATOM      8  C   UNL     1      -4.143   0.110   1.727  1.00  0.00     0.168 A 
ATOM      9  N   UNL     1      -4.621  -0.013   2.954  1.00  0.00    -0.129 NA
ATOM     10  N   UNL     1      -2.786   0.377   1.806  1.00  0.00    -0.282 N 
ATOM     11  N   UNL     1      -3.609   0.232   3.851  1.00  0.00    -0.130 NA
ATOM     12  C   UNL     1      -1.804   0.514   0.822  1.00  0.00     0.104 A 
ATOM     13  C   UNL     1      -2.517   0.468   3.162  1.00  0.00     0.161 A 
ATOM     14  C   UNL     1      -1.185   0.762   3.547  1.00  0.00     0.050 A 
ATOM     15  C   UNL     1      -0.238   0.914   2.602  1.00  0.00     0.014 A 
BRANCH   8  16
ATOM     16  C   UNL     1      -4.916  -0.059   0.499  1.00  0.00     0.020 A 
ATOM     17  C   UNL     1      -6.494  -1.398  -0.813  1.00  0.00    -0.009 A 
ATOM     18  C   UNL     1      -5.735  -1.190   0.351  1.00  0.00     0.019 A 
ATOM     19  C   UNL     1      -6.430  -0.434  -1.824  1.00  0.00     0.118 A 
ATOM     20  C   UNL     1      -5.638   0.703  -1.684  1.00  0.00     0.047 A 
ATOM     21  C   UNL     1      -4.888   0.896  -0.523  1.00  0.00     0.016 A 
ATOM     22  C   UNL     1      -7.348  -2.627  -0.925  1.00  0.00     0.048 C 
BRANCH  19  23
ATOM     23  O   UNL     1      -7.131  -0.534  -2.991  1.00  0.00    -0.508 OA
ATOM     24  H   UNL     1      -7.709  -1.312  -2.956  1.00  0.00     0.293 HD
ENDBRANCH  19  23
ENDBRANCH   8  16
ENDBRANCH   1   7
BRANCH   4  25
ATOM     25  C   UNL     1       3.612   2.115  -1.243  1.00  0.00     0.163 C 
BRANCH  25  26
ATOM     26  C   UNL     1       4.772   1.131  -1.469  1.00  0.00     0.108 C 
BRANCH  26  27
ATOM     27  N   UNL     1       5.366   0.627  -0.210  1.00  0.00    -0.291 NA
ATOM     28  C   UNL     1       4.729  -0.643   0.249  1.00  0.00     0.152 C 
ATOM     29  C   UNL     1       6.819   0.354  -0.367  1.00  0.00     0.152 C 
ATOM     30  C   UNL     1       5.173  -1.933  -0.488  1.00  0.00     0.314 C 
ATOM     31  C   UNL     1       7.168  -0.930  -1.147  1.00  0.00     0.314 C 
ATOM     32  O   UNL     1       6.588  -2.076  -0.533  1.00  0.00    -0.311 OA
ATOM     33  F   UNL     1       4.727  -1.927  -1.770  1.00  0.00    -0.215 F 
ATOM     34  F   UNL     1       8.515  -1.109  -1.098  1.00  0.00    -0.215 F 
ENDBRANCH  26  27
ENDBRANCH  25  26
ENDBRANCH   4  25
TORSDOF 6
