MODEL        1USER    Run = 1USERUSER    Estimated Free Energy of Binding    = -12.24 kcal/mol  [=(1)+(2)+(3)-(4)]USERUSER    (1) Final Intermolecular Energy     = -14.03 kcal/molUSER        vdW + Hbond + desolv Energy     = -13.93 kcal/molUSER        Electrostatic Energy            =  -0.11 kcal/molUSER        Moving Ligand-Fixed Receptor    = -14.03 kcal/molUSER        Moving Ligand-Moving Receptor   =  +0.00 kcal/molUSER    (2) Final Total Internal Energy     =  -1.35 kcal/molUSER    (3) Torsional Free Energy           =  +1.79 kcal/molUSER    (4) Unbound System's Energy         =  -1.35 kcal/molUSERUSERREMARK SMILES Oc1nc2ccccc2n1C1CCN(Cc2ccc(-c3nc4ncccc4nc3-c3ccncc3)cc2)CC1REMARK SMILES IDX 11 1 12 2 13 3 14 4 38 5 39 6 10 7 2 8 3 9 4 10 9 11 5 12REMARK SMILES IDX 8 13 6 14 7 15 1 16 15 18 16 19 17 20 37 21 18 22 36 23REMARK SMILES IDX 19 24 20 25 21 26 29 27 22 28 28 29 23 30 27 31 24 32 26 33REMARK SMILES IDX 25 34 30 35 31 36 35 37 32 38 34 39 33 40REMARK H PARENT 1 17USER                              x       y       z     vdW  Elec       q    TypeUSER                           _______ _______ _______ _____ _____    ______ ____ROOTATOM      1  C   UNL     1      39.813  46.560  18.263 -0.41 -0.01    +0.095 C  ATOM      2  C   UNL     1      41.021  45.622  18.344 -0.51 +0.00    +0.041 C  ATOM      3  C   UNL     1      41.142  45.013  19.747 -0.39 +0.01    +0.087 C  ATOM      4  N   UNL     1      39.852  44.875  20.429 -0.17 -0.01    -0.299 NA ATOM      5  C   UNL     1      38.748  44.610  19.516 -0.37 -0.00    +0.087 C  ATOM      6  C   UNL     1      38.506  45.838  18.633 -0.34 -0.01    +0.041 C  ENDROOTBRANCH   1   7ATOM      7  N   UNL     1      39.721  47.283  17.002 -0.28 +0.07    -0.291 N  ATOM      8  C   UNL     1      40.672  48.132  16.480 -0.31 -0.05    +0.295 A  ATOM      9  N   UNL     1      40.366  48.535  15.273 -0.41 +0.05    -0.195 NA ATOM     10  C   UNL     1      39.142  47.986  15.010 -0.45 -0.03    +0.092 A  ATOM     11  C   UNL     1      38.695  47.208  16.079 -0.39 -0.03    +0.072 A  ATOM     12  C   UNL     1      38.343  48.117  13.863 -0.48 -0.01    +0.031 A  ATOM     13  C   UNL     1      37.452  46.557  16.054 -0.37 -0.02    +0.029 A  ATOM     14  C   UNL     1      37.105  47.467  13.821 -0.53 -0.00    +0.002 A  ATOM     15  C   UNL     1      36.669  46.702  14.902 -0.41 -0.00    +0.002 A  BRANCH   8  16ATOM     16  O   UNL     1      41.787  48.521  17.077 -0.64 -0.03    -0.480 OA ATOM     17  H   UNL     1      42.380  47.763  17.168 -0.35 -0.04    +0.296 HD ENDBRANCH   8  16ENDBRANCH   1   7BRANCH   4  18ATOM     18  C   UNL     1      39.895  44.004  21.612 -0.25 +0.00    +0.120 C  BRANCH  18  19ATOM     19  C   UNL     1      39.161  44.489  22.845 -0.25 -0.00    -0.034 A  ATOM     20  C   UNL     1      39.704  45.496  23.653 -0.22 +0.00    +0.006 A  ATOM     21  C   UNL     1      37.924  43.940  23.205 -0.33 +0.00    +0.006 A  ATOM     22  C   UNL     1      39.022  45.952  24.786 -0.22 +0.00    +0.011 A  ATOM     23  C   UNL     1      37.243  44.400  24.336 -0.31 +0.00    +0.011 A  ATOM     24  C   UNL     1      37.782  45.405  25.155 -0.30 +0.00    +0.002 A  BRANCH  24  25ATOM     25  C   UNL     1      37.044  45.874  26.342 -0.25 -0.01    +0.099 A  ATOM     26  N   UNL     1      36.895  47.228  26.391 -0.33 +0.03    -0.224 NA ATOM     27  C   UNL     1      36.546  45.048  27.360 -0.32 -0.02    +0.098 A  ATOM     28  C   UNL     1      36.289  47.767  27.449 -0.20 -0.04    +0.178 A  ATOM     29  N   UNL     1      35.944  45.587  28.454 -0.30 +0.06    -0.242 NA ATOM     30  N   UNL     1      36.150  49.097  27.490 -0.21 +0.01    -0.235 NA ATOM     31  C   UNL     1      35.819  46.930  28.486 -0.30 -0.03    +0.108 A  ATOM     32  C   UNL     1      35.545  49.648  28.562 -0.20 +0.00    +0.114 A  ATOM     33  C   UNL     1      35.204  47.534  29.571 -0.34 -0.01    +0.034 A  ATOM     34  C   UNL     1      35.058  48.915  29.623 -0.28 -0.00    +0.022 A  BRANCH  27  35ATOM     35  C   UNL     1      36.582  43.574  27.367 -0.41 -0.00    +0.005 A  ATOM     36  C   UNL     1      37.776  42.858  27.527 -0.33 -0.00    +0.030 A  ATOM     37  C   UNL     1      35.406  42.835  27.176 -0.52 -0.01    +0.030 A  ATOM     38  C   UNL     1      37.736  41.472  27.526 -0.38 -0.02    +0.111 A  ATOM     39  C   UNL     1      35.467  41.451  27.186 -0.52 -0.04    +0.111 A  ATOM     40  N   UNL     1      36.606  40.753  27.367 -0.33 +0.09    -0.265 NA ENDBRANCH  27  35ENDBRANCH  24  25ENDBRANCH  18  19ENDBRANCH   4  18TORSDOF 6TERENDMDL