MODEL        7USER    Run = 7USERUSER    Estimated Free Energy of Binding    =  -7.99 kcal/mol  [=(1)+(2)+(3)-(4)]USERUSER    (1) Final Intermolecular Energy     = -10.08 kcal/molUSER        vdW + Hbond + desolv Energy     =  -9.96 kcal/molUSER        Electrostatic Energy            =  -0.12 kcal/molUSER        Moving Ligand-Fixed Receptor    = -10.08 kcal/molUSER        Moving Ligand-Moving Receptor   =  +0.00 kcal/molUSER    (2) Final Total Internal Energy     =  -0.99 kcal/molUSER    (3) Torsional Free Energy           =  +2.09 kcal/molUSER    (4) Unbound System's Energy         =  -0.99 kcal/molUSERUSERREMARK SMILES CNc1ccc2c(n1)N=C2C(=O)Nc1ccc(O)c(CN2CCN(CF)CC2)c1FREMARK SMILES IDX 14 1 15 2 16 3 17 4 19 5 29 6 30 7 13 8 11 9 12 10 10 12REMARK SMILES IDX 3 13 4 14 8 15 5 16 7 17 6 18 9 19 2 20 1 21 20 23 21 24REMARK SMILES IDX 22 25 28 26 23 27 27 28 24 29 25 30 26 31 18 32REMARK H PARENT 13 11 2 22 18 33USER                              x       y       z     vdW  Elec       q    TypeUSER                           _______ _______ _______ _____ _____    ______ ____ROOTATOM      1  C   UNL     1      39.524  46.662  18.012 -0.33 -0.01    +0.078 A  ATOM      2  C   UNL     1      40.861  47.010  17.800 -0.50 -0.00    +0.033 A  ATOM      3  C   UNL     1      41.205  47.881  16.763 -0.36 -0.01    +0.049 A  ATOM      4  C   UNL     1      40.215  48.386  15.921 -0.47 -0.03    +0.123 A  ATOM      5  C   UNL     1      38.873  48.009  16.071 -0.42 -0.02    +0.046 A  ATOM      6  C   UNL     1      38.551  47.129  17.115 -0.12 -0.06    +0.154 A  ATOM      7  F   UNL     1      37.291  46.665  17.191 -0.09 +0.10    -0.204 F  ENDROOTBRANCH   1   8ATOM      8  N   UNL     1      39.236  45.853  19.128 -0.22 +0.02    -0.318 N  ATOM      9  C   UNL     1      38.326  44.819  19.142 -0.25 -0.02    +0.275 C  ATOM     10  O   UNL     1      37.615  44.378  18.255 -0.23 +0.05    -0.267 OA ATOM     11  H   UNL     1      39.499  46.196  20.048 +0.08 -0.00    +0.170 HD BRANCH   9  12ATOM     12  C   UNL     1      38.141  44.265  20.493 -0.32 -0.00    +0.142 C  ATOM     13  C   UNL     1      36.767  42.069  23.390 -0.37 +0.01    +0.128 A  ATOM     14  C   UNL     1      36.177  41.605  22.176 -0.50 +0.00    +0.047 A  ATOM     15  N   UNL     1      37.654  43.095  23.427 -0.23 -0.02    -0.211 NA ATOM     16  C   UNL     1      36.486  42.202  20.944 -0.49 +0.00    +0.018 A  ATOM     17  C   UNL     1      37.887  43.588  22.227 -0.26 +0.01    +0.164 A  ATOM     18  C   UNL     1      37.372  43.221  21.033 -0.34 +0.00    +0.051 A  ATOM     19  N   UNL     1      38.614  44.631  21.655 -0.21 -0.01    -0.222 NA BRANCH  13  20ATOM     20  N   UNL     1      36.420  41.381  24.569 -0.00 +0.06    -0.373 N  ATOM     21  C   UNL     1      36.136  42.242  25.705 -0.37 -0.02    +0.141 C  ATOM     22  H   UNL     1      35.655  40.740  24.375 -0.21 -0.06    +0.161 HD ENDBRANCH  13  20ENDBRANCH   9  12ENDBRANCH   1   8BRANCH   5  23ATOM     23  C   UNL     1      37.788  48.512  15.148 -0.49 -0.09    +0.127 C  BRANCH  23  24ATOM     24  N   UNL     1      37.275  47.488  14.216 -0.26 +0.16    -0.296 NA ATOM     25  C   UNL     1      36.867  48.057  12.920 -0.54 -0.04    +0.100 C  ATOM     26  C   UNL     1      36.151  46.754  14.835 -0.38 -0.08    +0.100 C  ATOM     27  C   UNL     1      36.267  47.016  11.931 -0.66 -0.05    +0.102 C  ATOM     28  C   UNL     1      35.231  45.999  13.838 -0.33 -0.07    +0.102 C  ATOM     29  N   UNL     1      35.810  45.739  12.509 -0.27 +0.13    -0.274 NA BRANCH  29  30ATOM     30  C   UNL     1      36.918  44.791  12.606 -0.32 -0.10    +0.303 C  ATOM     31  F   UNL     1      36.934  44.023  11.482 -0.18 +0.07    -0.234 F  ENDBRANCH  29  30ENDBRANCH  23  24ENDBRANCH   5  23BRANCH   4  32ATOM     32  O   UNL     1      40.563  49.238  14.911 -0.23 +0.16    -0.508 OA ATOM     33  H   UNL     1      39.998  50.030  14.955 -0.10 -0.20    +0.293 HD ENDBRANCH   4  32TORSDOF 7TERENDMDL