REMARK SMILES COc1cc(CN[C@H]2C[C@H](O)CC[C@@H]2n2cnc3c(N)ncnc32)ccc1O
REMARK SMILES IDX 7 1 6 3 5 4 3 5 4 6 27 7 26 8 25 9 2 10 1 11 28 12 8 14 9 15
REMARK SMILES IDX 14 16 10 17 13 18 12 19 15 20 16 21 24 22 17 23 23 24 18 25
REMARK SMILES IDX 22 26 19 27 21 28 20 29 11 32
REMARK H PARENT 7 2 28 13 20 30 20 31 11 33
ROOT
ATOM      1  N   UNL     1      -0.440  -0.010   1.408  1.00  0.00    -0.308 NA
ATOM      2  H   UNL     1      -1.399   0.338   1.530  1.00  0.00     0.123 HD
ENDROOT
BRANCH   1   3
ATOM      3  C   UNL     1       0.412   1.190   1.394  1.00  0.00     0.117 C 
BRANCH   3   4
ATOM      4  C   UNL     1       1.888   0.893   1.494  1.00  0.00    -0.030 A 
ATOM      5  C   UNL     1       4.103   0.832   0.489  1.00  0.00     0.160 A 
ATOM      6  C   UNL     1       2.740   1.118   0.396  1.00  0.00     0.055 A 
ATOM      7  C   UNL     1       4.604   0.320   1.691  1.00  0.00     0.157 A 
ATOM      8  C   UNL     1       3.783   0.093   2.787  1.00  0.00     0.050 A 
ATOM      9  C   UNL     1       2.423   0.381   2.688  1.00  0.00     0.009 A 
BRANCH   5  10
ATOM     10  O   UNL     1       5.036   1.001  -0.502  1.00  0.00    -0.493 OA
ATOM     11  C   UNL     1       4.571   1.554  -1.728  1.00  0.00     0.278 C 
ENDBRANCH   5  10
BRANCH   7  12
ATOM     12  O   UNL     1       5.936   0.027   1.811  1.00  0.00    -0.504 OA
ATOM     13  H   UNL     1       6.323   0.260   0.945  1.00  0.00     0.293 HD
ENDBRANCH   7  12
ENDBRANCH   3   4
ENDBRANCH   1   3
BRANCH   1  14
ATOM     14  C   UNL     1      -0.364  -0.795   0.151  1.00  0.00     0.079 C 
ATOM     15  C   UNL     1       0.548  -2.022   0.351  1.00  0.00     0.052 C 
ATOM     16  C   UNL     1      -1.798  -1.220  -0.309  1.00  0.00     0.107 C 
ATOM     17  C   UNL     1      -0.219  -3.232   0.875  1.00  0.00     0.116 C 
ATOM     18  C   UNL     1      -1.786  -2.572  -1.037  1.00  0.00     0.030 C 
ATOM     19  C   UNL     1      -1.288  -3.692  -0.121  1.00  0.00     0.034 C 
BRANCH  16  20
ATOM     20  N   UNL     1      -2.429  -0.151  -1.077  1.00  0.00    -0.310 N 
ATOM     21  C   UNL     1      -2.416   0.027  -2.435  1.00  0.00     0.202 A 
ATOM     22  C   UNL     1      -3.103   0.911  -0.533  1.00  0.00     0.165 A 
ATOM     23  N   UNL     1      -3.054   1.121  -2.797  1.00  0.00    -0.231 NA
ATOM     24  N   UNL     1      -3.331   1.158   0.769  1.00  0.00    -0.217 NA
ATOM     25  C   UNL     1      -3.481   1.689  -1.614  1.00  0.00     0.150 A 
ATOM     26  C   UNL     1      -4.040   2.296   0.921  1.00  0.00     0.226 A 
ATOM     27  C   UNL     1      -4.197   2.862  -1.326  1.00  0.00     0.155 A 
ATOM     28  N   UNL     1      -4.483   3.143  -0.034  1.00  0.00    -0.217 NA
BRANCH  27  29
ATOM     29  N   UNL     1      -4.639   3.744  -2.304  1.00  0.00    -0.382 N 
ATOM     30  H   UNL     1      -5.420   4.303  -1.987  1.00  0.00     0.158 HD
ATOM     31  H   UNL     1      -4.703   3.325  -3.225  1.00  0.00     0.158 HD
ENDBRANCH  27  29
ENDBRANCH  16  20
BRANCH  17  32
ATOM     32  O   UNL     1       0.676  -4.316   1.100  1.00  0.00    -0.393 OA
ATOM     33  H   UNL     1       1.342  -4.014   1.744  1.00  0.00     0.210 HD
ENDBRANCH  17  32
ENDBRANCH   1  14
TORSDOF 8
