MODEL        8USER    Run = 8USERUSER    Estimated Free Energy of Binding    =  -6.99 kcal/mol  [=(1)+(2)+(3)-(4)]USERUSER    (1) Final Intermolecular Energy     = -11.46 kcal/molUSER        vdW + Hbond + desolv Energy     = -11.64 kcal/molUSER        Electrostatic Energy            =  -0.14 kcal/molUSER        Moving Ligand-Fixed Receptor    = -11.78 kcal/molUSER        Moving Ligand-Moving Receptor   =  +0.32 kcal/molUSER    (2) Final Total Internal Energy     =  -2.91 kcal/molUSER    (3) Torsional Free Energy           =  +4.47 kcal/molUSER    (4) Unbound System's Energy         =  -2.91 kcal/molUSERUSERREMARK SMILES COc1ccc(O)c(C(=O)c2ccc(C(=O)N[C@@H]3CCCNC[C@@H]3NC(=O)c3cccc(O)c3)cc2)c1FREMARK SMILES IDX 15 1 16 2 17 3 14 5 11 6 12 7 36 8 13 9 35 10 9 11 10 12REMARK SMILES IDX 8 13 3 14 4 15 37 16 5 17 6 18 38 19 2 20 1 21 7 22 18 24REMARK SMILES IDX 19 25 24 27 23 28 22 29 21 31 20 32 25 34 26 35 27 37 28 38REMARK SMILES IDX 29 39 34 40 30 41 32 42 31 43 33 44REMARK H PARENT 17 4 7 23 22 30 25 36 33 45REMARK Flexibility Score:   88.900USER                              x       y       z     vdW  Elec       q    TypeUSER                           _______ _______ _______ _____ _____    ______ ____ROOTATOM      1  C   UNL     1      39.063  44.734  19.655 -0.27 -0.01    +0.251 C  ATOM      2  O   UNL     1      39.143  43.657  19.070 -0.04 +0.01    -0.269 OA ATOM      3  N   UNL     1      39.286  45.939  19.033 -0.19 +0.03    -0.347 N  ATOM      4  H   UNL     1      39.199  46.817  19.544 +0.10 -0.01    +0.164 HD ENDROOTBRANCH   1   5ATOM      5  C   UNL     1      38.683  44.774  21.097 -0.33 +0.00    +0.039 A  ATOM      6  C   UNL     1      37.859  44.793  23.782 -0.29 +0.00    +0.023 A  ATOM      7  C   UNL     1      36.998  44.310  22.791 -0.19 +0.00    +0.013 A  ATOM      8  C   UNL     1      39.142  45.230  23.436 -0.25 +0.00    +0.013 A  ATOM      9  C   UNL     1      37.410  44.304  21.455 -0.38 +0.00    +0.014 A  ATOM     10  C   UNL     1      39.553  45.224  22.098 -0.30 +0.00    +0.014 A  BRANCH   6  11ATOM     11  C   UNL     1      37.477  44.786  25.214 -0.25 +0.01    +0.199 C  ATOM     12  O   UNL     1      37.261  45.861  25.777 -0.46 +0.00    -0.288 OA BRANCH  11  13ATOM     13  C   UNL     1      37.397  43.552  26.025 -0.24 -0.01    +0.104 A  ATOM     14  C   UNL     1      38.389  41.516  26.934 -0.29 -0.01    +0.155 A  ATOM     15  C   UNL     1      37.191  41.229  27.592 -0.47 -0.01    +0.053 A  ATOM     16  C   UNL     1      38.477  42.676  26.148 -0.16 -0.01    +0.179 A  ATOM     17  C   UNL     1      36.092  42.081  27.449 -0.47 -0.02    +0.051 A  ATOM     18  C   UNL     1      36.193  43.224  26.661 -0.34 -0.02    +0.130 A  ATOM     19  F   UNL     1      39.622  42.920  25.490 -0.03 -0.00    -0.202 F  BRANCH  14  20ATOM     20  O   UNL     1      39.523  40.751  26.983 -0.14 +0.03    -0.494 OA ATOM     21  C   UNL     1      40.424  40.987  28.056 -0.18 -0.02    +0.278 C  ENDBRANCH  14  20BRANCH  18  22ATOM     22  O   UNL     1      35.060  43.986  26.549 -0.12 +0.09    -0.507 OA ATOM     23  H   UNL     1      35.335  44.903  26.316 -0.26 -0.14    +0.293 HD ENDBRANCH  18  22ENDBRANCH  11  13ENDBRANCH   6  11ENDBRANCH   1   5BRANCH   3  24ATOM     24  C   UNL     1      39.751  46.048  17.646 -0.44 -0.01    +0.106 C  BRANCH  24  25ATOM     25  C   UNL     1      40.685  47.263  17.525 -0.57 -0.00    +0.028 CG0ATOM     26  G   UNL     1      40.942  47.848  16.137 +0.00 +0.00    +0.000 G0 ENDBRANCH  24  25BRANCH  24  27ATOM     27  C   UNL     1      38.542  46.034  16.678 -0.37 -0.03    +0.118 C  BRANCH  27  28ATOM     28  C   UNL     1      38.021  47.462  16.406 -0.27 -0.06    +0.108 C  BRANCH  28  29ATOM     29  N   UNL     1      38.639  48.145  15.262 -0.25 +0.16    -0.315 NA ATOM     30  H   UNL     1      38.850  47.434  14.558 +0.09 -0.04    +0.122 HD BRANCH  29  31ATOM     31  C   UNL     1      39.892  48.821  15.608 -0.58 -0.03    +0.081 C  BRANCH  31  32ATOM     32  C   UNL     1      40.940  47.851  16.139 -0.53 -0.00    +0.017 CG0ATOM     33  G   UNL     1      40.684  47.265  17.526 +0.00 +0.00    +0.000 G0 ENDBRANCH  31  32ENDBRANCH  29  31ENDBRANCH  28  29ENDBRANCH  27  28BRANCH  27  34ATOM     34  N   UNL     1      37.445  45.167  17.120 -0.13 +0.11    -0.346 N  ATOM     35  C   UNL     1      36.260  45.038  16.436 -0.22 -0.12    +0.251 C  ATOM     36  H   UNL     1      37.627  44.639  17.965 +0.10 -0.03    +0.164 HD ATOM     37  O   UNL     1      36.007  45.668  15.414 -0.22 +0.17    -0.269 OA BRANCH  35  38ATOM     38  C   UNL     1      35.266  44.082  16.995 -0.29 -0.02    +0.043 A  ATOM     39  C   UNL     1      34.736  43.027  16.240 -0.39 -0.01    +0.014 A  ATOM     40  C   UNL     1      34.834  44.275  18.313 -0.29 -0.02    +0.060 A  ATOM     41  C   UNL     1      33.798  42.161  16.809 -0.30 -0.00    +0.005 A  ATOM     42  C   UNL     1      33.901  43.405  18.866 -0.29 -0.02    +0.116 A  ATOM     43  C   UNL     1      33.381  42.347  18.128 -0.35 -0.01    +0.046 A  BRANCH  42  44ATOM     44  O   UNL     1      33.515  43.627  20.155 -0.67 -0.02    -0.508 OA ATOM     45  H   UNL     1      33.455  44.586  20.306 -0.12 -0.07    +0.293 HD ENDBRANCH  42  44ENDBRANCH  35  38ENDBRANCH  27  34ENDBRANCH  24  27ENDBRANCH   3  24TORSDOF 9TERENDMDL