MODEL        10USER    Run = 10USERUSER    Estimated Free Energy of Binding    =  -8.58 kcal/mol  [=(1)+(2)+(3)-(4)]USERUSER    (1) Final Intermolecular Energy     = -12.75 kcal/molUSER        vdW + Hbond + desolv Energy     = -12.81 kcal/molUSER        Electrostatic Energy            =  -0.11 kcal/molUSER        Moving Ligand-Fixed Receptor    = -12.92 kcal/molUSER        Moving Ligand-Moving Receptor   =  +0.17 kcal/molUSER    (2) Final Total Internal Energy     =  -2.72 kcal/molUSER    (3) Torsional Free Energy           =  +4.18 kcal/molUSER    (4) Unbound System's Energy         =  -2.72 kcal/molUSERUSERREMARK SMILES COc1ccc(O)c(C(=O)c2ccc(C(=O)N[C@@H]3CCCNC[C@@H]3NC(=O)c3nc4ccccc4s3)cc2)c1FREMARK SMILES IDX 18 1 17 3 15 4 16 5 14 7 11 8 12 9 38 10 13 11 37 12 9 13REMARK SMILES IDX 10 14 8 15 3 16 4 17 39 18 5 19 6 20 40 21 2 22 1 23 7 24REMARK SMILES IDX 24 26 23 27 22 28 21 30 20 31 19 32 25 34 26 35 27 37 28 38REMARK SMILES IDX 29 39 36 40 30 41 35 42 31 43 34 44 32 45 33 46REMARK H PARENT 17 6 7 25 22 29 25 36REMARK Flexibility Score:  100.900USER                              x       y       z     vdW  Elec       q    TypeUSER                           _______ _______ _______ _____ _____    ______ ____ROOTATOM      1  C   UNL     1      38.190  42.252  24.712 -0.14 +0.01    +0.106 CG0ATOM      2  G   UNL     1      36.673  42.044  24.564 +0.00 +0.00    +0.000 G0 ENDROOTBRANCH   1   3ATOM      3  N   UNL     1      38.749  42.964  23.566 -0.10 -0.02    -0.347 N  ATOM      4  C   UNL     1      38.048  43.939  22.892 -0.24 +0.02    +0.251 C  ATOM      5  O   UNL     1      36.972  44.385  23.275 -0.27 -0.05    -0.269 OA ATOM      6  H   UNL     1      39.530  42.517  23.103 +0.08 +0.02    +0.164 HD BRANCH   4   7ATOM      7  C   UNL     1      38.661  44.439  21.636 -0.32 +0.00    +0.039 A  ATOM      8  C   UNL     1      39.890  45.414  19.318 -0.41 -0.00    +0.023 A  ATOM      9  C   UNL     1      40.299  45.879  20.573 -0.28 +0.00    +0.013 A  ATOM     10  C   UNL     1      38.835  44.498  19.222 -0.36 -0.00    +0.013 A  ATOM     11  C   UNL     1      39.685  45.391  21.730 -0.31 +0.00    +0.014 A  ATOM     12  C   UNL     1      38.223  44.007  20.379 -0.31 -0.00    +0.014 A  BRANCH   8  13ATOM     13  C   UNL     1      40.501  45.918  18.066 -0.40 -0.01    +0.199 C  ATOM     14  O   UNL     1      41.628  45.532  17.754 -0.29 -0.00    -0.288 OA BRANCH  13  15ATOM     15  C   UNL     1      39.798  46.831  17.139 -0.40 -0.02    +0.104 A  ATOM     16  C   UNL     1      37.864  47.424  15.777 -0.31 -0.09    +0.155 A  ATOM     17  C   UNL     1      38.512  48.595  15.374 -0.47 -0.03    +0.053 A  ATOM     18  C   UNL     1      38.515  46.555  16.665 -0.28 -0.06    +0.179 A  ATOM     19  C   UNL     1      39.784  48.898  15.868 -0.48 -0.02    +0.051 A  ATOM     20  C   UNL     1      40.413  48.029  16.755 -0.41 -0.03    +0.130 A  ATOM     21  F   UNL     1      37.867  45.452  17.076 -0.08 +0.06    -0.202 F  BRANCH  16  22ATOM     22  O   UNL     1      36.613  47.035  15.383 -0.10 +0.40    -0.494 OA ATOM     23  C   UNL     1      36.311  47.108  13.996 -0.33 -0.18    +0.278 C  ENDBRANCH  16  22BRANCH  20  24ATOM     24  O   UNL     1      41.642  48.416  17.220 -0.59 -0.01    -0.507 OA ATOM     25  H   UNL     1      42.221  47.620  17.237 -0.34 -0.05    +0.293 HD ENDBRANCH  20  24ENDBRANCH  13  15ENDBRANCH   8  13ENDBRANCH   4   7ENDBRANCH   1   3BRANCH   1  26ATOM     26  C   UNL     1      38.558  42.892  26.077 -0.22 -0.00    +0.118 C  BRANCH  26  27ATOM     27  C   UNL     1      38.168  42.028  27.303 -0.37 -0.01    +0.108 C  BRANCH  27  28ATOM     28  N   UNL     1      36.823  42.195  27.874 -0.14 +0.11    -0.315 NA ATOM     29  H   UNL     1      36.784  41.622  28.721 -0.49 -0.07    +0.122 HD BRANCH  28  30ATOM     30  C   UNL     1      35.755  41.775  26.974 -0.58 -0.02    +0.081 C  BRANCH  30  31ATOM     31  C   UNL     1      35.780  42.589  25.682 -0.21 -0.00    +0.017 C  BRANCH  31  32ATOM     32  C   UNL     1      36.673  42.044  24.566 -0.45 -0.00    +0.028 CG0ATOM     33  G   UNL     1      38.190  42.252  24.711 +0.00 +0.00    +0.000 G0 ENDBRANCH  31  32ENDBRANCH  30  31ENDBRANCH  28  30ENDBRANCH  27  28ENDBRANCH  26  27BRANCH  26  34ATOM     34  N   UNL     1      37.966  44.229  26.191 -0.06 +0.02    -0.344 N  ATOM     35  C   UNL     1      38.621  45.371  25.760 -0.13 +0.00    +0.280 C  ATOM     36  H   UNL     1      37.087  44.316  26.703 +0.10 -0.02    +0.164 HD ATOM     37  O   UNL     1      39.718  45.271  25.204 -0.06 -0.01    -0.267 OA BRANCH  35  38ATOM     38  C   UNL     1      37.945  46.651  25.997 -0.22 +0.00    +0.182 A  ATOM     39  N   UNL     1      37.825  47.568  25.054 -0.53 -0.03    -0.231 NA ATOM     40  S   UNL     1      37.268  47.069  27.518 -0.37 +0.02    -0.109 S  ATOM     41  C   UNL     1      37.148  48.669  25.545 -0.40 +0.00    +0.082 A  ATOM     42  C   UNL     1      36.763  48.587  26.885 -0.34 -0.00    +0.055 A  ATOM     43  C   UNL     1      36.829  49.834  24.819 -0.25 -0.00    +0.030 A  ATOM     44  C   UNL     1      36.073  49.630  27.524 -0.30 +0.00    +0.021 A  ATOM     45  C   UNL     1      36.140  50.879  25.444 -0.43 +0.00    +0.002 A  ATOM     46  C   UNL     1      35.767  50.776  26.781 -0.23 +0.00    +0.002 A  ENDBRANCH  35  38ENDBRANCH  26  34ENDBRANCH   1  26TORSDOF 8TERENDMDL