MODEL        6USER    Run = 6USERUSER    Estimated Free Energy of Binding    = -11.89 kcal/mol  [=(1)+(2)+(3)-(4)]USERUSER    (1) Final Intermolecular Energy     = -13.97 kcal/molUSER        vdW + Hbond + desolv Energy     = -13.85 kcal/molUSER        Electrostatic Energy            =  -0.12 kcal/molUSER        Moving Ligand-Fixed Receptor    = -13.97 kcal/molUSER        Moving Ligand-Moving Receptor   =  +0.00 kcal/molUSER    (2) Final Total Internal Energy     =  -1.40 kcal/molUSER    (3) Torsional Free Energy           =  +2.09 kcal/molUSER    (4) Unbound System's Energy         =  -1.40 kcal/molUSERUSERREMARK SMILES O=C1Nc2ccc(C(F)(F)F)cc2/C1=C/N1C[C@@H](O)c2cc(-n3cc(Cc4ccccc4)nn3)ccc2O1REMARK SMILES IDX 16 1 17 2 18 3 20 4 21 5 22 6 35 7 36 8 37 9 38 10 15 11REMARK SMILES IDX 14 12 2 13 3 14 4 15 13 16 5 17 12 18 6 19 7 20 1 21 8 23REMARK SMILES IDX 9 24 10 25 11 26 19 27 23 29 24 30 34 31 25 32 33 33 26 34REMARK SMILES IDX 27 35 28 36 32 37 29 38 31 39 30 40REMARK H PARENT 3 22 19 28USER                              x       y       z     vdW  Elec       q    TypeUSER                           _______ _______ _______ _____ _____    ______ ____ROOTATOM      1  N   UNL     1      41.699  46.933  19.156 -0.36 -0.01    -0.213 N  ATOM      2  C   UNL     1      42.864  46.624  20.006 -0.28 +0.06    +0.198 C  ATOM      3  C   UNL     1      42.436  46.727  21.479 -0.28 +0.03    +0.171 C  ATOM      4  C   UNL     1      41.036  46.203  21.683 -0.23 +0.00    +0.030 A  ATOM      5  C   UNL     1      40.495  46.082  22.971 -0.22 +0.00    +0.039 A  ATOM      6  C   UNL     1      39.175  45.640  23.155 -0.26 +0.01    +0.067 A  ATOM      7  C   UNL     1      38.401  45.297  22.039 -0.30 +0.00    +0.032 A  ATOM      8  C   UNL     1      38.941  45.404  20.753 -0.29 +0.00    +0.052 A  ATOM      9  C   UNL     1      40.242  45.872  20.578 -0.19 +0.01    +0.161 A  ATOM     10  O   UNL     1      40.706  45.949  19.281 -0.23 -0.00    -0.380 OA ENDROOTBRANCH   1  11ATOM     11  C   UNL     1      41.806  47.624  17.963 -0.45 -0.01    +0.138 C  BRANCH  11  12ATOM     12  C   UNL     1      40.920  48.039  17.045 -0.54 -0.01    +0.068 C  ATOM     13  C   UNL     1      40.938  49.276  16.175 -0.40 -0.04    +0.257 C  ATOM     14  N   UNL     1      39.721  49.254  15.499 -0.28 +0.16    -0.321 N  ATOM     15  C   UNL     1      38.971  48.134  15.827 -0.45 -0.02    +0.049 A  ATOM     16  C   UNL     1      39.656  47.340  16.753 -0.48 -0.00    +0.013 A  ATOM     17  C   UNL     1      37.725  47.800  15.338 -0.46 -0.02    +0.027 A  ATOM     18  C   UNL     1      39.101  46.153  17.202 -0.41 -0.01    +0.024 A  ATOM     19  C   UNL     1      37.155  46.610  15.794 -0.38 -0.01    +0.015 A  ATOM     20  C   UNL     1      37.830  45.778  16.721 -0.34 -0.02    +0.056 A  ATOM     21  O   UNL     1      41.789  50.133  16.050 -1.00 -0.01    -0.269 OA ATOM     22  H   UNL     1      39.453  49.981  14.855 -0.25 -0.16    +0.170 HD BRANCH  20  23ATOM     23  C   UNL     1      37.191  44.484  17.170 -0.12 -0.12    +0.416 C  ATOM     24  F   UNL     1      35.867  44.609  17.461 -0.06 +0.06    -0.166 F  ATOM     25  F   UNL     1      37.780  43.978  18.289 -0.09 +0.03    -0.166 F  ATOM     26  F   UNL     1      37.276  43.502  16.228 -0.12 +0.05    -0.166 F  ENDBRANCH  20  23ENDBRANCH  11  12ENDBRANCH   1  11BRANCH   3  27ATOM     27  O   UNL     1      42.498  48.099  21.898 +0.01 -0.04    -0.386 OA ATOM     28  H   UNL     1      43.204  48.517  21.375 -0.44 -0.03    +0.211 HD ENDBRANCH   3  27BRANCH   6  29ATOM     29  N   UNL     1      38.642  45.568  24.468 -0.15 -0.02    -0.220 N  ATOM     30  C   UNL     1      38.929  44.677  25.476 -0.11 +0.00    +0.141 A  ATOM     31  N   UNL     1      37.698  46.441  24.901 -0.81 -0.01    -0.062 NA ATOM     32  C   UNL     1      38.080  45.017  26.509 -0.22 -0.00    +0.088 A  ATOM     33  N   UNL     1      37.357  46.119  26.139 -0.37 +0.01    -0.135 NA BRANCH  32  34ATOM     34  C   UNL     1      37.899  44.403  27.847 -0.27 -0.01    +0.095 C  BRANCH  34  35ATOM     35  C   UNL     1      36.937  43.253  27.666 -0.35 +0.01    -0.042 A  ATOM     36  C   UNL     1      35.558  43.482  27.534 -0.53 -0.00    +0.004 A  ATOM     37  C   UNL     1      37.405  41.929  27.654 -0.44 -0.00    +0.004 A  ATOM     38  C   UNL     1      34.669  42.416  27.381 -0.58 -0.00    +0.000 A  ATOM     39  C   UNL     1      36.513  40.863  27.505 -0.51 -0.00    +0.000 A  ATOM     40  C   UNL     1      35.148  41.108  27.366 -0.64 -0.00    +0.000 A  ENDBRANCH  34  35ENDBRANCH  32  34ENDBRANCH   6  29TORSDOF 7TERENDMDL