REMARK SMILES O=C1Nc2ccc(C(F)(F)F)cc2/C1=C/N1C[C@@H](O)c2cc(-n3cc(Cc4ccccc4)nn3)ccc2O1
REMARK SMILES IDX 16 1 17 2 18 3 20 4 21 5 22 6 35 7 36 8 37 9 38 10 15 11
REMARK SMILES IDX 14 12 2 13 3 14 4 15 13 16 5 17 12 18 6 19 7 20 1 21 8 23
REMARK SMILES IDX 9 24 10 25 11 26 19 27 23 29 24 30 34 31 25 32 33 33 26 34
REMARK SMILES IDX 27 35 28 36 32 37 29 38 31 39 30 40
REMARK H PARENT 3 22 19 28
ROOT
ATOM      1  N   UNL     1      -2.582  -0.359   1.307  1.00  0.00    -0.213 N 
ATOM      2  C   UNL     1      -2.329  -1.302   2.413  1.00  0.00     0.198 C 
ATOM      3  C   UNL     1      -0.858  -1.743   2.353  1.00  0.00     0.171 C 
ATOM      4  C   UNL     1       0.042  -0.602   1.947  1.00  0.00     0.030 A 
ATOM      5  C   UNL     1       1.437  -0.750   1.957  1.00  0.00     0.039 A 
ATOM      6  C   UNL     1       2.271   0.298   1.533  1.00  0.00     0.067 A 
ATOM      7  C   UNL     1       1.700   1.508   1.118  1.00  0.00     0.032 A 
ATOM      8  C   UNL     1       0.310   1.663   1.119  1.00  0.00     0.052 A 
ATOM      9  C   UNL     1      -0.511   0.609   1.513  1.00  0.00     0.161 A 
ATOM     10  O   UNL     1      -1.871   0.837   1.489  1.00  0.00    -0.380 OA
ENDROOT
BRANCH   1  11
ATOM     11  C   UNL     1      -3.777  -0.325   0.612  1.00  0.00     0.138 C 
BRANCH  11  12
ATOM     12  C   UNL     1      -4.416   0.619  -0.096  1.00  0.00     0.068 C 
ATOM     13  C   UNL     1      -4.035   2.060  -0.350  1.00  0.00     0.257 C 
ATOM     14  N   UNL     1      -5.113   2.597  -1.048  1.00  0.00    -0.321 N 
ATOM     15  C   UNL     1      -6.098   1.647  -1.280  1.00  0.00     0.049 A 
ATOM     16  C   UNL     1      -5.725   0.412  -0.741  1.00  0.00     0.013 A 
ATOM     17  C   UNL     1      -7.291   1.839  -1.945  1.00  0.00     0.027 A 
ATOM     18  C   UNL     1      -6.552  -0.690  -0.880  1.00  0.00     0.024 A 
ATOM     19  C   UNL     1      -8.135   0.735  -2.081  1.00  0.00     0.015 A 
ATOM     20  C   UNL     1      -7.778  -0.533  -1.557  1.00  0.00     0.056 A 
ATOM     21  O   UNL     1      -3.032   2.671  -0.040  1.00  0.00    -0.269 OA
ATOM     22  H   UNL     1      -5.139   3.562  -1.335  1.00  0.00     0.170 HD
BRANCH  20  23
ATOM     23  C   UNL     1      -8.706  -1.710  -1.748  1.00  0.00     0.416 C 
ATOM     24  F   UNL     1      -8.358  -2.797  -1.006  1.00  0.00    -0.166 F 
ATOM     25  F   UNL     1      -8.746  -2.131  -3.043  1.00  0.00    -0.166 F 
ATOM     26  F   UNL     1      -9.995  -1.423  -1.409  1.00  0.00    -0.166 F 
ENDBRANCH  20  23
ENDBRANCH  11  12
ENDBRANCH   1  11
BRANCH   3  27
ATOM     27  O   UNL     1      -0.721  -2.817   1.410  1.00  0.00    -0.386 OA
ATOM     28  H   UNL     1      -0.493  -2.409   0.556  1.00  0.00     0.211 HD
ENDBRANCH   3  27
BRANCH   6  29
ATOM     29  N   UNL     1       3.676   0.104   1.514  1.00  0.00    -0.220 N 
ATOM     30  C   UNL     1       4.663   0.938   1.040  1.00  0.00     0.141 A 
ATOM     31  N   UNL     1       4.243  -1.032   1.991  1.00  0.00    -0.062 NA
ATOM     32  C   UNL     1       5.837   0.232   1.202  1.00  0.00     0.088 A 
ATOM     33  N   UNL     1       5.553  -0.960   1.812  1.00  0.00    -0.135 NA
BRANCH  32  34
ATOM     34  C   UNL     1       7.232   0.592   0.850  1.00  0.00     0.095 C 
BRANCH  34  35
ATOM     35  C   UNL     1       7.447   0.139  -0.575  1.00  0.00    -0.042 A 
ATOM     36  C   UNL     1       7.525  -1.227  -0.892  1.00  0.00     0.004 A 
ATOM     37  C   UNL     1       7.599   1.080  -1.606  1.00  0.00     0.004 A 
ATOM     38  C   UNL     1       7.737  -1.643  -2.208  1.00  0.00     0.000 A 
ATOM     39  C   UNL     1       7.816   0.661  -2.922  1.00  0.00     0.000 A 
ATOM     40  C   UNL     1       7.882  -0.698  -3.221  1.00  0.00     0.000 A 
ENDBRANCH  34  35
ENDBRANCH  32  34
ENDBRANCH   6  29
TORSDOF 7
