MODEL        2USER    Run = 2USERUSER    Estimated Free Energy of Binding    =  -9.05 kcal/mol  [=(1)+(2)+(3)-(4)]USERUSER    (1) Final Intermolecular Energy     = -10.84 kcal/molUSER        vdW + Hbond + desolv Energy     = -10.65 kcal/molUSER        Electrostatic Energy            =  -0.19 kcal/molUSER        Moving Ligand-Fixed Receptor    = -10.84 kcal/molUSER        Moving Ligand-Moving Receptor   =  +0.00 kcal/molUSER    (2) Final Total Internal Energy     =  -1.22 kcal/molUSER    (3) Torsional Free Energy           =  +1.79 kcal/molUSER    (4) Unbound System's Energy         =  -1.22 kcal/molUSERUSERREMARK SMILES O=S(=O)(Nc1cc(F)ccc1/C=C/c1ccncc1)c1ccncc1REMARK SMILES IDX 5 1 6 2 7 3 8 4 9 5 10 6 11 7 4 8 2 10 1 11 3 12 20 13 21 14REMARK SMILES IDX 25 15 22 16 24 17 23 18 12 19 13 20 14 21 15 22 19 23 16 24REMARK SMILES IDX 18 25 17 26REMARK H PARENT 4 9USER                              x       y       z     vdW  Elec       q    TypeUSER                           _______ _______ _______ _____ _____    ______ ____ROOTATOM      1  C   UNL     1      37.959  47.454  15.097 -0.42 -0.03    +0.059 A  ATOM      2  C   UNL     1      38.115  47.737  13.739 -0.46 -0.02    +0.066 A  ATOM      3  C   UNL     1      37.297  47.108  12.807 -0.49 -0.04    +0.125 A  ATOM      4  F   UNL     1      37.452  47.376  11.505 -0.22 +0.03    -0.207 F  ATOM      5  C   UNL     1      36.313  46.210  13.204 -0.51 -0.02    +0.040 A  ATOM      6  C   UNL     1      36.142  45.932  14.561 -0.40 -0.01    +0.013 A  ATOM      7  C   UNL     1      36.963  46.547  15.520 -0.39 +0.00    -0.001 A  ENDROOTBRANCH   1   8ATOM      8  N   UNL     1      38.794  48.137  16.040 -0.27 +0.14    -0.279 N  ATOM      9  H   UNL     1      38.617  49.134  16.163 +0.10 -0.13    +0.180 HD BRANCH   8  10ATOM     10  S   UNL     1      40.458  47.821  16.031 -0.54 -0.05    +0.262 S  ATOM     11  O   UNL     1      40.687  46.873  14.960 -0.40 +0.01    -0.201 OA ATOM     12  O   UNL     1      41.189  49.067  16.104 -0.93 +0.02    -0.201 OA BRANCH  10  13ATOM     13  C   UNL     1      40.704  46.952  17.556 -0.45 -0.01    +0.090 A  ATOM     14  C   UNL     1      41.759  47.322  18.389 -0.51 -0.00    +0.042 A  ATOM     15  C   UNL     1      39.829  45.937  17.927 -0.43 -0.00    +0.042 A  ATOM     16  C   UNL     1      41.921  46.615  19.563 -0.39 +0.01    +0.112 A  ATOM     17  C   UNL     1      40.082  45.290  19.121 -0.36 -0.00    +0.112 A  ATOM     18  N   UNL     1      41.116  45.598  19.936 -0.23 -0.02    -0.265 NA ENDBRANCH  10  13ENDBRANCH   8  10ENDBRANCH   1   8BRANCH   7  19ATOM     19  C   UNL     1      36.708  46.242  16.933 -0.41 -0.01    +0.011 C  BRANCH  19  20ATOM     20  C   UNL     1      35.477  46.272  17.466 -0.42 -0.01    +0.009 C  BRANCH  20  21ATOM     21  C   UNL     1      34.924  45.256  18.378 -0.38 +0.01    -0.023 A  ATOM     22  C   UNL     1      35.804  44.354  18.984 -0.35 -0.01    +0.028 A  ATOM     23  C   UNL     1      33.560  45.127  18.655 -0.42 -0.01    +0.028 A  ATOM     24  C   UNL     1      35.294  43.385  19.835 -0.35 -0.01    +0.111 A  ATOM     25  C   UNL     1      33.143  44.128  19.523 -0.37 -0.01    +0.111 A  ATOM     26  N   UNL     1      33.980  43.258  20.123 -0.66 -0.02    -0.265 NA ENDBRANCH  20  21ENDBRANCH  19  20ENDBRANCH   7  19TORSDOF 6TERENDMDL