REMARK SMILES O=S(=O)(Nc1cc(F)ccc1/C=C/c1ccncc1)c1ccncc1
REMARK SMILES IDX 5 1 6 2 7 3 8 4 9 5 10 6 11 7 4 8 2 10 1 11 3 12 20 13 21 14
REMARK SMILES IDX 25 15 22 16 24 17 23 18 12 19 13 20 14 21 15 22 19 23 16 24
REMARK SMILES IDX 18 25 17 26
REMARK H PARENT 4 9
ROOT
ATOM      1  C   UNL     1      -0.296  -2.279  -0.142  1.00  0.00     0.059 A 
ATOM      2  C   UNL     1      -0.891  -3.530   0.029  1.00  0.00     0.066 A 
ATOM      3  C   UNL     1      -1.170  -3.988   1.312  1.00  0.00     0.125 A 
ATOM      4  F   UNL     1      -1.735  -5.191   1.475  1.00  0.00    -0.207 F 
ATOM      5  C   UNL     1      -0.880  -3.216   2.431  1.00  0.00     0.040 A 
ATOM      6  C   UNL     1      -0.297  -1.959   2.267  1.00  0.00     0.013 A 
ATOM      7  C   UNL     1       0.004  -1.479   0.982  1.00  0.00    -0.001 A 
ENDROOT
BRANCH   1   8
ATOM      8  N   UNL     1      -0.045  -1.816  -1.475  1.00  0.00    -0.279 N 
ATOM      9  H   UNL     1       0.751  -1.190  -1.594  1.00  0.00     0.180 HD
BRANCH   8  10
ATOM     10  S   UNL     1      -1.355  -1.307  -2.419  1.00  0.00     0.262 S 
ATOM     11  O   UNL     1      -0.794  -0.784  -3.648  1.00  0.00    -0.201 OA
ATOM     12  O   UNL     1      -2.372  -2.335  -2.432  1.00  0.00    -0.201 OA
BRANCH  10  13
ATOM     13  C   UNL     1      -1.987   0.076  -1.507  1.00  0.00     0.090 A 
ATOM     14  C   UNL     1      -1.434   1.339  -1.714  1.00  0.00     0.042 A 
ATOM     15  C   UNL     1      -3.046  -0.100  -0.623  1.00  0.00     0.042 A 
ATOM     16  C   UNL     1      -1.949   2.387  -0.978  1.00  0.00     0.112 A 
ATOM     17  C   UNL     1      -3.485   1.014   0.066  1.00  0.00     0.112 A 
ATOM     18  N   UNL     1      -2.949   2.247  -0.082  1.00  0.00    -0.265 NA
ENDBRANCH  10  13
ENDBRANCH   8  10
ENDBRANCH   1   8
BRANCH   7  19
ATOM     19  C   UNL     1       0.581  -0.133   0.875  1.00  0.00     0.011 C 
BRANCH  19  20
ATOM     20  C   UNL     1       1.852   0.079   0.502  1.00  0.00     0.009 C 
BRANCH  20  21
ATOM     21  C   UNL     1       2.477   1.403   0.338  1.00  0.00    -0.023 A 
ATOM     22  C   UNL     1       3.697   1.485  -0.341  1.00  0.00     0.028 A 
ATOM     23  C   UNL     1       1.929   2.584   0.846  1.00  0.00     0.028 A 
ATOM     24  C   UNL     1       4.301   2.724  -0.491  1.00  0.00     0.111 A 
ATOM     25  C   UNL     1       2.605   3.778   0.643  1.00  0.00     0.111 A 
ATOM     26  N   UNL     1       3.776   3.875  -0.018  1.00  0.00    -0.265 NA
ENDBRANCH  20  21
ENDBRANCH  19  20
ENDBRANCH   7  19
TORSDOF 6
