REMARK SMILES Cc1cc(/C=C/c2ccc(F)cc2NS(=O)(=O)c2ccccc2)ccn1
REMARK SMILES IDX 7 1 8 2 9 3 10 4 11 5 12 6 13 7 6 8 5 9 4 10 2 11 3 12 26 13
REMARK SMILES IDX 25 14 24 15 1 16 14 17 15 19 16 20 17 21 18 22 19 23 23 24
REMARK SMILES IDX 20 25 22 26 21 27
REMARK H PARENT 14 18
ROOT
ATOM      1  C   UNL     1      -0.349   1.912  -0.670  1.00  0.00    -0.001 A 
ATOM      2  C   UNL     1      -0.573   3.215  -0.200  1.00  0.00     0.013 A 
ATOM      3  C   UNL     1      -1.227   4.151  -1.001  1.00  0.00     0.040 A 
ATOM      4  C   UNL     1      -1.660   3.783  -2.269  1.00  0.00     0.125 A 
ATOM      5  F   UNL     1      -2.288   4.685  -3.034  1.00  0.00    -0.207 F 
ATOM      6  C   UNL     1      -1.456   2.497  -2.754  1.00  0.00     0.066 A 
ATOM      7  C   UNL     1      -0.799   1.556  -1.959  1.00  0.00     0.059 A 
ENDROOT
BRANCH   1   8
ATOM      8  C   UNL     1       0.333   0.973   0.230  1.00  0.00     0.011 C 
BRANCH   8   9
ATOM      9  C   UNL     1       1.595   0.572   0.011  1.00  0.00     0.009 C 
BRANCH   9  10
ATOM     10  C   UNL     1       2.338  -0.352   0.882  1.00  0.00    -0.022 A 
ATOM     11  C   UNL     1       4.449  -1.161   1.714  1.00  0.00     0.038 A 
ATOM     12  C   UNL     1       3.733  -0.274   0.914  1.00  0.00     0.031 A 
ATOM     13  N   UNL     1       3.848  -2.112   2.463  1.00  0.00    -0.262 NA
ATOM     14  C   UNL     1       2.502  -2.183   2.409  1.00  0.00     0.112 A 
ATOM     15  C   UNL     1       1.714  -1.342   1.642  1.00  0.00     0.028 A 
ATOM     16  C   UNL     1       5.946  -1.086   1.768  1.00  0.00     0.067 C 
ENDBRANCH   9  10
ENDBRANCH   8   9
ENDBRANCH   1   8
BRANCH   7  17
ATOM     17  N   UNL     1      -0.636   0.223  -2.453  1.00  0.00    -0.279 N 
ATOM     18  H   UNL     1       0.159  -0.306  -2.095  1.00  0.00     0.180 HD
BRANCH  17  19
ATOM     19  S   UNL     1      -2.001  -0.768  -2.588  1.00  0.00     0.261 S 
ATOM     20  O   UNL     1      -2.987  -0.120  -3.425  1.00  0.00    -0.201 OA
ATOM     21  O   UNL     1      -1.507  -2.093  -2.900  1.00  0.00    -0.201 OA
BRANCH  19  22
ATOM     22  C   UNL     1      -2.634  -0.815  -0.926  1.00  0.00     0.087 A 
ATOM     23  C   UNL     1      -3.607   0.107  -0.528  1.00  0.00     0.022 A 
ATOM     24  C   UNL     1      -2.183  -1.803  -0.045  1.00  0.00     0.022 A 
ATOM     25  C   UNL     1      -4.103   0.060   0.775  1.00  0.00     0.001 A 
ATOM     26  C   UNL     1      -2.688  -1.846   1.254  1.00  0.00     0.001 A 
ATOM     27  C   UNL     1      -3.641  -0.913   1.664  1.00  0.00     0.000 A 
ENDBRANCH  19  22
ENDBRANCH  17  19
ENDBRANCH   7  17
TORSDOF 6
