MODEL        1USER    Run = 1USERUSER    Estimated Free Energy of Binding    =  -9.55 kcal/mol  [=(1)+(2)+(3)-(4)]USERUSER    (1) Final Intermolecular Energy     = -11.34 kcal/molUSER        vdW + Hbond + desolv Energy     = -11.18 kcal/molUSER        Electrostatic Energy            =  -0.16 kcal/molUSER        Moving Ligand-Fixed Receptor    = -11.34 kcal/molUSER        Moving Ligand-Moving Receptor   =  +0.00 kcal/molUSER    (2) Final Total Internal Energy     =  -1.43 kcal/molUSER    (3) Torsional Free Energy           =  +1.79 kcal/molUSER    (4) Unbound System's Energy         =  -1.43 kcal/molUSERUSERREMARK SMILES Cc1cc(/C=C/c2ccc(F)cc2NS(=O)(=O)c2ccccc2)ccn1REMARK SMILES IDX 7 1 8 2 9 3 10 4 11 5 12 6 13 7 6 8 5 9 4 10 2 11 3 12 26 13REMARK SMILES IDX 25 14 24 15 1 16 14 17 15 19 16 20 17 21 18 22 19 23 23 24REMARK SMILES IDX 20 25 22 26 21 27REMARK H PARENT 14 18USER                              x       y       z     vdW  Elec       q    TypeUSER                           _______ _______ _______ _____ _____    ______ ____ROOTATOM      1  C   UNL     1      37.222  46.596  15.740 -0.39 +0.00    -0.001 A  ATOM      2  C   UNL     1      36.404  45.903  14.835 -0.38 -0.01    +0.013 A  ATOM      3  C   UNL     1      36.488  46.163  13.467 -0.47 -0.02    +0.040 A  ATOM      4  C   UNL     1      37.392  47.111  13.005 -0.47 -0.04    +0.125 A  ATOM      5  F   UNL     1      37.469  47.356  11.690 -0.22 +0.03    -0.207 F  ATOM      6  C   UNL     1      38.218  47.805  13.881 -0.46 -0.02    +0.066 A  ATOM      7  C   UNL     1      38.136  47.553  15.251 -0.43 -0.03    +0.059 A  ENDROOTBRANCH   1   8ATOM      8  C   UNL     1      37.092  46.263  17.165 -0.38 -0.01    +0.011 C  BRANCH   8   9ATOM      9  C   UNL     1      37.186  45.000  17.609 -0.40 -0.00    +0.009 C  BRANCH   9  10ATOM     10  C   UNL     1      36.214  44.360  18.509 -0.33 +0.01    -0.022 A  ATOM     11  C   UNL     1      33.920  43.933  19.106 -0.37 -0.01    +0.038 A  ATOM     12  C   UNL     1      34.850  44.511  18.246 -0.32 -0.01    +0.031 A  ATOM     13  N   UNL     1      34.282  43.231  20.203 -0.62 -0.02    -0.262 NA ATOM     14  C   UNL     1      35.603  43.107  20.450 -0.34 +0.00    +0.112 A  ATOM     15  C   UNL     1      36.593  43.649  19.648 -0.36 -0.00    +0.028 A  ATOM     16  C   UNL     1      32.452  44.076  18.835 -0.38 -0.01    +0.067 C  ENDBRANCH   9  10ENDBRANCH   8   9ENDBRANCH   1   8BRANCH   7  17ATOM     17  N   UNL     1      39.024  48.241  16.137 -0.26 +0.14    -0.279 N  ATOM     18  H   UNL     1      38.732  48.320  17.111 +0.13 -0.12    +0.180 HD BRANCH  17  19ATOM     19  S   UNL     1      40.683  47.926  16.036 -0.54 -0.04    +0.261 S  ATOM     20  O   UNL     1      40.931  46.987  14.963 -0.38 +0.00    -0.201 OA ATOM     21  O   UNL     1      41.341  49.215  16.070 -1.06 +0.01    -0.201 OA BRANCH  19  22ATOM     22  C   UNL     1      41.036  47.108  17.576 -0.45 -0.01    +0.087 A  ATOM     23  C   UNL     1      42.078  47.572  18.385 -0.50 -0.00    +0.022 A  ATOM     24  C   UNL     1      40.238  46.035  17.984 -0.46 -0.00    +0.022 A  ATOM     25  C   UNL     1      42.345  46.930  19.594 -0.48 +0.00    +0.001 A  ATOM     26  C   UNL     1      40.508  45.402  19.197 -0.44 +0.00    +0.001 A  ATOM     27  C   UNL     1      41.563  45.845  19.996 -0.40 +0.00    +0.000 A  ENDBRANCH  19  22ENDBRANCH  17  19ENDBRANCH   7  17TORSDOF 6TERENDMDL