MODEL        6USER    Run = 6USERUSER    Estimated Free Energy of Binding    = -11.40 kcal/mol  [=(1)+(2)+(3)-(4)]USERUSER    (1) Final Intermolecular Energy     = -13.79 kcal/molUSER        vdW + Hbond + desolv Energy     = -13.60 kcal/molUSER        Electrostatic Energy            =  -0.19 kcal/molUSER        Moving Ligand-Fixed Receptor    = -13.79 kcal/molUSER        Moving Ligand-Moving Receptor   =  +0.00 kcal/molUSER    (2) Final Total Internal Energy     =  -2.22 kcal/molUSER    (3) Torsional Free Energy           =  +2.39 kcal/molUSER    (4) Unbound System's Energy         =  -2.22 kcal/molUSERUSERREMARK SMILES O=C(CCC[C@H]1Cc2cc(-c3cccc(-c4ccncn4)c3F)ccc2C[C@@H]1O)Nn1cnnn1REMARK SMILES IDX 4 1 3 2 2 3 30 4 1 5 31 7 32 8 35 9 33 10 34 11 5 12 6 13REMARK SMILES IDX 7 14 28 15 8 16 27 17 9 18 26 19 10 20 25 21 24 22 29 23REMARK SMILES IDX 11 25 12 26 22 27 13 28 15 29 14 30 23 31 16 32 17 33 21 34REMARK SMILES IDX 18 35 20 36 19 37REMARK H PARENT 30 6 29 24USER                              x       y       z     vdW  Elec       q    TypeUSER                           _______ _______ _______ _____ _____    ______ ____ROOTATOM      1  C   UNL     1      35.981  47.016  13.735 -0.57 -0.01    +0.010 C  ENDROOTBRANCH   1   2ATOM      2  C   UNL     1      37.323  47.358  13.087 -0.57 -0.03    +0.102 C  BRANCH   2   3ATOM      3  C   UNL     1      38.499  47.318  14.050 -0.35 -0.07    +0.240 C  ATOM      4  N   UNL     1      38.715  48.532  14.663 -0.34 +0.12    -0.244 N  ATOM      5  O   UNL     1      39.167  46.315  14.271 -0.30 +0.06    -0.273 OA ATOM      6  H   UNL     1      38.401  49.372  14.196 -0.37 -0.14    +0.193 HD BRANCH   4   7ATOM      7  N   UNL     1      39.919  48.719  15.239 -0.46 +0.05    -0.138 N  ATOM      8  C   UNL     1      40.289  48.217  16.450 -0.31 -0.07    +0.272 A  ATOM      9  N   UNL     1      40.803  49.642  14.842 -0.63 +0.01    -0.024 NA ATOM     10  N   UNL     1      41.426  48.776  16.799 -1.02 -0.00    -0.115 NA ATOM     11  N   UNL     1      41.737  49.652  15.784 -1.11 -0.00    -0.022 NA ENDBRANCH   4   7ENDBRANCH   2   3ENDBRANCH   1   2BRANCH   1  12ATOM     12  C   UNL     1      36.071  45.789  14.653 -0.45 -0.00    +0.007 C  BRANCH  12  13ATOM     13  C   UNL     1      35.915  46.129  16.157 -0.41 -0.02    +0.022 C  ATOM     14  C   UNL     1      34.479  45.791  16.626 -0.32 -0.04    +0.042 C  ATOM     15  C   UNL     1      37.020  45.449  17.006 -0.32 -0.05    +0.122 C  ATOM     16  C   UNL     1      34.358  44.461  17.322 -0.27 +0.02    -0.044 A  ATOM     17  C   UNL     1      36.540  45.001  18.390 -0.34 -0.02    +0.067 C  ATOM     18  C   UNL     1      33.233  43.645  17.152 -0.31 -0.00    +0.012 A  ATOM     19  C   UNL     1      35.360  44.085  18.227 -0.29 +0.01    -0.042 A  ATOM     20  C   UNL     1      33.093  42.440  17.864 -0.35 +0.00    -0.015 A  ATOM     21  C   UNL     1      35.231  42.901  18.952 -0.39 -0.00    +0.005 A  ATOM     22  C   UNL     1      34.112  42.086  18.766 -0.39 -0.00    +0.009 A  BRANCH  15  23ATOM     23  O   UNL     1      38.117  46.355  17.145 -0.19 +0.14    -0.392 OA ATOM     24  H   UNL     1      38.661  46.286  16.341 +0.15 -0.06    +0.210 HD ENDBRANCH  15  23BRANCH  20  25ATOM     25  C   UNL     1      31.912  41.578  17.669 -0.33 -0.00    +0.018 A  ATOM     26  C   UNL     1      31.052  41.786  16.580 -0.24 -0.00    +0.012 A  ATOM     27  C   UNL     1      31.606  40.529  18.560 -0.29 -0.01    +0.140 A  ATOM     28  C   UNL     1      29.929  40.984  16.393 -0.39 -0.00    +0.002 A  ATOM     29  C   UNL     1      30.483  39.694  18.397 -0.33 +0.00    +0.037 A  ATOM     30  C   UNL     1      29.649  39.954  17.292 -0.35 +0.00    +0.013 A  ATOM     31  F   UNL     1      32.408  40.341  19.623 -0.05 -0.06    -0.206 F  BRANCH  29  32ATOM     32  C   UNL     1      30.161  38.595  19.332 -0.34 +0.01    +0.077 A  ATOM     33  C   UNL     1      28.876  38.300  19.750 -0.29 +0.01    +0.049 A  ATOM     34  N   UNL     1      31.226  37.891  19.787 -0.34 -0.05    -0.236 NA ATOM     35  C   UNL     1      28.734  37.251  20.630 -0.25 -0.01    +0.115 A  ATOM     36  C   UNL     1      30.970  36.887  20.640 -0.29 +0.04    +0.222 A  ATOM     37  N   UNL     1      29.765  36.524  21.093 -0.20 -0.00    -0.245 NA ENDBRANCH  29  32ENDBRANCH  20  25ENDBRANCH  12  13ENDBRANCH   1  12TORSDOF 8TERENDMDL