MODEL        7USER    Run = 7USERUSER    Estimated Free Energy of Binding    =  -9.75 kcal/mol  [=(1)+(2)+(3)-(4)]USERUSER    (1) Final Intermolecular Energy     = -12.14 kcal/molUSER        vdW + Hbond + desolv Energy     = -11.63 kcal/molUSER        Electrostatic Energy            =  -0.51 kcal/molUSER        Moving Ligand-Fixed Receptor    = -12.14 kcal/molUSER        Moving Ligand-Moving Receptor   =  +0.00 kcal/molUSER    (2) Final Total Internal Energy     =  -0.65 kcal/molUSER    (3) Torsional Free Energy           =  +2.39 kcal/molUSER    (4) Unbound System's Energy         =  -0.65 kcal/molUSERUSERREMARK SMILES O=C(O)CCC[C@H]1Cc2cc(-c3cccc(-c4ccncn4)c3F)ccc2CN1OREMARK SMILES IDX 5 1 4 2 2 3 1 4 3 5 6 7 7 8 8 9 29 10 9 11 28 12 10 13 27 14REMARK SMILES IDX 11 15 26 16 25 17 30 18 12 20 13 21 23 22 14 23 16 24 15 25REMARK SMILES IDX 24 26 17 27 18 28 22 29 19 30 21 31 20 32REMARK H PARENT 3 6 30 19USER                              x       y       z     vdW  Elec       q    TypeUSER                           _______ _______ _______ _____ _____    ______ ____ROOTATOM      1  C   UNL     1      34.284  45.917  14.549 -0.32 -0.01    +0.013 C  ENDROOTBRANCH   1   2ATOM      2  C   UNL     1      34.399  45.028  15.785 -0.30 -0.08    +0.122 C  BRANCH   2   3ATOM      3  C   UNL     1      33.504  45.507  16.896 -0.15 -0.25    +0.303 C  ATOM      4  O   UNL     1      32.374  45.127  17.157 -0.44 +0.09    -0.252 OA BRANCH   3   5ATOM      5  O   UNL     1      34.110  46.430  17.670 -0.17 +0.52    -0.481 OA ATOM      6  H   UNL     1      33.804  47.285  17.294 -0.30 -0.74    +0.296 HD ENDBRANCH   3   5ENDBRANCH   2   3ENDBRANCH   1   2BRANCH   1   7ATOM      7  C   UNL     1      35.592  46.042  13.757 -0.48 -0.01    +0.022 C  BRANCH   7   8ATOM      8  C   UNL     1      36.625  47.038  14.350 -0.45 -0.06    +0.089 C  ATOM      9  C   UNL     1      37.394  46.396  15.533 -0.41 -0.03    +0.057 C  ATOM     10  N   UNL     1      37.593  47.454  13.305 -0.63 +0.06    -0.185 NA ATOM     11  C   UNL     1      38.657  47.123  15.929 -0.41 +0.02    -0.041 A  ATOM     12  C   UNL     1      38.476  48.517  13.828 -0.31 -0.06    +0.151 C  ATOM     13  C   UNL     1      39.344  46.753  17.095 -0.44 -0.00    +0.013 A  ATOM     14  C   UNL     1      39.193  48.114  15.093 -0.51 +0.01    -0.028 A  ATOM     15  C   UNL     1      40.549  47.376  17.460 -0.50 +0.00    -0.015 A  ATOM     16  C   UNL     1      40.378  48.762  15.467 -0.60 -0.00    +0.006 A  ATOM     17  C   UNL     1      41.050  48.396  16.635 -0.55 -0.00    +0.009 A  BRANCH  10  18ATOM     18  O   UNL     1      36.827  48.112  12.252 -1.03 +0.08    -0.313 OA ATOM     19  H   UNL     1      37.184  47.663  11.458 +0.01 -0.05    +0.238 HD ENDBRANCH  10  18BRANCH  15  20ATOM     20  C   UNL     1      41.307  46.929  18.637 -0.49 -0.00    +0.018 A  ATOM     21  C   UNL     1      42.578  47.463  18.890 -0.54 +0.00    +0.012 A  ATOM     22  C   UNL     1      40.776  45.998  19.551 -0.32 +0.00    +0.140 A  ATOM     23  C   UNL     1      43.294  47.090  20.024 -0.39 +0.00    +0.002 A  ATOM     24  C   UNL     1      41.477  45.595  20.699 -0.33 +0.00    +0.037 A  ATOM     25  C   UNL     1      42.746  46.169  20.919 -0.29 +0.00    +0.013 A  ATOM     26  F   UNL     1      39.555  45.485  19.315 -0.11 +0.01    -0.206 F  BRANCH  24  27ATOM     27  C   UNL     1      40.932  44.615  21.655 -0.24 +0.01    +0.077 A  ATOM     28  C   UNL     1      39.694  44.758  22.258 -0.24 +0.00    +0.049 A  ATOM     29  N   UNL     1      41.706  43.522  21.869 -0.22 -0.01    -0.236 NA ATOM     30  C   UNL     1      39.282  43.726  23.068 -0.19 +0.01    +0.115 A  ATOM     31  C   UNL     1      41.215  42.594  22.702 -0.12 -0.00    +0.222 A  ATOM     32  N   UNL     1      40.021  42.634  23.317 -0.13 -0.02    -0.245 NA ENDBRANCH  24  27ENDBRANCH  15  20ENDBRANCH   7   8ENDBRANCH   1   7TORSDOF 8TERENDMDL