REMARK SMILES O=C(O)CCC[C@H]1Cc2cc(-c3cccc(-c4ccncn4)c3F)ccc2C[C@@H]1OC(F)F
REMARK SMILES IDX 5 1 4 2 2 3 1 4 3 5 6 7 7 8 8 9 29 10 9 11 28 12 10 13 27 14
REMARK SMILES IDX 11 15 26 16 25 17 30 18 31 19 32 20 33 21 12 22 13 23 23 24
REMARK SMILES IDX 14 25 16 26 15 27 24 28 17 29 18 30 22 31 19 32 21 33 20 34
REMARK H PARENT 3 6
ROOT
ATOM      1  C   UNL     1      -4.750   1.395  -1.147  1.00  0.00     0.012 C 
ENDROOT
BRANCH   1   2
ATOM      2  C   UNL     1      -6.139   1.960  -0.861  1.00  0.00     0.122 C 
BRANCH   2   3
ATOM      3  C   UNL     1      -6.260   2.456   0.552  1.00  0.00     0.303 C 
ATOM      4  O   UNL     1      -6.694   1.827   1.502  1.00  0.00    -0.252 OA
BRANCH   3   5
ATOM      5  O   UNL     1      -5.794   3.709   0.706  1.00  0.00    -0.481 OA
ATOM      6  H   UNL     1      -5.928   3.902   1.657  1.00  0.00     0.296 HD
ENDBRANCH   3   5
ENDBRANCH   2   3
ENDBRANCH   1   2
BRANCH   1   7
ATOM      7  C   UNL     1      -4.505   0.062  -0.428  1.00  0.00     0.007 C 
BRANCH   7   8
ATOM      8  C   UNL     1      -3.174  -0.619  -0.826  1.00  0.00     0.023 C 
ATOM      9  C   UNL     1      -1.961   0.256  -0.465  1.00  0.00     0.042 C 
ATOM     10  C   UNL     1      -3.034  -2.000  -0.147  1.00  0.00     0.132 C 
ATOM     11  C   UNL     1      -0.633  -0.446  -0.602  1.00  0.00    -0.044 A 
ATOM     12  C   UNL     1      -1.770  -2.711  -0.658  1.00  0.00     0.068 C 
ATOM     13  C   UNL     1       0.544   0.324  -0.619  1.00  0.00     0.012 A 
ATOM     14  C   UNL     1      -0.541  -1.842  -0.661  1.00  0.00    -0.042 A 
ATOM     15  C   UNL     1       1.816  -0.266  -0.725  1.00  0.00    -0.015 A 
ATOM     16  C   UNL     1       0.720  -2.441  -0.777  1.00  0.00     0.005 A 
ATOM     17  C   UNL     1       1.880  -1.663  -0.807  1.00  0.00     0.009 A 
BRANCH  10  18
ATOM     18  O   UNL     1      -4.180  -2.791  -0.481  1.00  0.00    -0.319 OA
BRANCH  18  19
ATOM     19  C   UNL     1      -4.577  -3.639   0.581  1.00  0.00     0.484 C 
ATOM     20  F   UNL     1      -3.559  -4.478   0.881  1.00  0.00    -0.179 F 
ATOM     21  F   UNL     1      -5.603  -4.399   0.134  1.00  0.00    -0.179 F 
ENDBRANCH  18  19
ENDBRANCH  10  18
BRANCH  15  22
ATOM     22  C   UNL     1       3.037   0.562  -0.759  1.00  0.00     0.018 A 
ATOM     23  C   UNL     1       3.146   1.633  -1.660  1.00  0.00     0.012 A 
ATOM     24  C   UNL     1       4.123   0.316   0.105  1.00  0.00     0.140 A 
ATOM     25  C   UNL     1       4.288   2.431  -1.689  1.00  0.00     0.002 A 
ATOM     26  C   UNL     1       5.295   1.098   0.096  1.00  0.00     0.037 A 
ATOM     27  C   UNL     1       5.346   2.167  -0.818  1.00  0.00     0.013 A 
ATOM     28  F   UNL     1       4.020  -0.692   0.990  1.00  0.00    -0.206 F 
BRANCH  26  29
ATOM     29  C   UNL     1       6.430   0.837   1.004  1.00  0.00     0.077 A 
ATOM     30  C   UNL     1       6.810  -0.433   1.401  1.00  0.00     0.049 A 
ATOM     31  N   UNL     1       7.110   1.935   1.414  1.00  0.00    -0.236 NA
ATOM     32  C   UNL     1       7.895  -0.520   2.245  1.00  0.00     0.115 A 
ATOM     33  C   UNL     1       8.150   1.732   2.237  1.00  0.00     0.222 A 
ATOM     34  N   UNL     1       8.585   0.546   2.681  1.00  0.00    -0.245 NA
ENDBRANCH  26  29
ENDBRANCH  15  22
ENDBRANCH   7   8
ENDBRANCH   1   7
TORSDOF 9
