MODEL        7USER    Run = 7USERUSER    Estimated Free Energy of Binding    =  -9.90 kcal/mol  [=(1)+(2)+(3)-(4)]USERUSER    (1) Final Intermolecular Energy     = -12.59 kcal/molUSER        vdW + Hbond + desolv Energy     = -12.47 kcal/molUSER        Electrostatic Energy            =  -0.12 kcal/molUSER        Moving Ligand-Fixed Receptor    = -12.59 kcal/molUSER        Moving Ligand-Moving Receptor   =  +0.00 kcal/molUSER    (2) Final Total Internal Energy     =  -1.28 kcal/molUSER    (3) Torsional Free Energy           =  +2.68 kcal/molUSER    (4) Unbound System's Energy         =  -1.28 kcal/molUSERUSERREMARK SMILES O=C(O)CCC[C@H]1Cc2cc(-c3cccc(-c4ccncn4)c3F)ccc2C[C@@H]1OC(F)FREMARK SMILES IDX 5 1 4 2 2 3 1 4 3 5 6 7 7 8 8 9 29 10 9 11 28 12 10 13 27 14REMARK SMILES IDX 11 15 26 16 25 17 30 18 31 19 32 20 33 21 12 22 13 23 23 24REMARK SMILES IDX 14 25 16 26 15 27 24 28 17 29 18 30 22 31 19 32 21 33 20 34REMARK H PARENT 3 6USER                              x       y       z     vdW  Elec       q    TypeUSER                           _______ _______ _______ _____ _____    ______ ____ROOTATOM      1  C   UNL     1      37.336  44.089  23.292 -0.39 +0.00    +0.012 C  ENDROOTBRANCH   1   2ATOM      2  C   UNL     1      36.900  43.643  24.685 -0.33 +0.01    +0.122 C  BRANCH   2   3ATOM      3  C   UNL     1      37.092  44.729  25.705 -0.21 -0.01    +0.303 C  ATOM      4  O   UNL     1      37.426  44.575  26.868 -0.20 +0.03    -0.252 OA BRANCH   3   5ATOM      5  O   UNL     1      36.889  45.960  25.200 -0.70 -0.07    -0.481 OA ATOM      6  H   UNL     1      36.112  46.298  25.692 -0.42 -0.06    +0.296 HD ENDBRANCH   3   5ENDBRANCH   2   3ENDBRANCH   1   2BRANCH   1   7ATOM      7  C   UNL     1      38.201  43.035  22.588 -0.39 +0.00    +0.007 C  BRANCH   7   8ATOM      8  C   UNL     1      39.369  43.638  21.773 -0.27 +0.00    +0.023 C  ATOM      9  C   UNL     1      38.859  44.570  20.659 -0.38 +0.00    +0.042 C  ATOM     10  C   UNL     1      40.341  44.414  22.689 -0.20 +0.01    +0.132 C  ATOM     11  C   UNL     1      39.942  45.376  19.987 -0.36 -0.00    -0.044 A  ATOM     12  C   UNL     1      41.558  44.892  21.879 -0.27 +0.01    +0.068 C  ATOM     13  C   UNL     1      39.659  46.006  18.761 -0.41 -0.00    +0.012 A  ATOM     14  C   UNL     1      41.200  45.553  20.575 -0.34 -0.00    -0.042 A  ATOM     15  C   UNL     1      40.615  46.787  18.090 -0.49 +0.00    -0.015 A  ATOM     16  C   UNL     1      42.165  46.321  19.911 -0.41 +0.00    +0.005 A  ATOM     17  C   UNL     1      41.875  46.929  18.687 -0.54 +0.00    +0.009 A  BRANCH  10  18ATOM     18  O   UNL     1      40.789  43.535  23.727 -0.11 -0.01    -0.319 OA BRANCH  18  19ATOM     19  C   UNL     1      40.664  44.112  25.013 +0.00 +0.01    +0.484 C  ATOM     20  F   UNL     1      39.847  43.340  25.767 -0.03 +0.00    -0.179 F  ATOM     21  F   UNL     1      40.056  45.311  24.864 -0.01 -0.01    -0.179 F  ENDBRANCH  18  19ENDBRANCH  10  18BRANCH  15  22ATOM     22  C   UNL     1      40.303  47.424  16.796 -0.51 -0.00    +0.018 A  ATOM     23  C   UNL     1      40.969  48.595  16.399 -0.56 -0.00    +0.012 A  ATOM     24  C   UNL     1      39.341  46.886  15.918 -0.36 -0.04    +0.140 A  ATOM     25  C   UNL     1      40.693  49.195  15.172 -0.64 -0.00    +0.002 A  ATOM     26  C   UNL     1      39.032  47.472  14.675 -0.46 -0.01    +0.037 A  ATOM     27  C   UNL     1      39.739  48.636  14.321 -0.40 -0.00    +0.013 A  ATOM     28  F   UNL     1      38.713  45.751  16.276 -0.07 +0.05    -0.206 F  BRANCH  26  29ATOM     29  C   UNL     1      38.023  46.903  13.758 -0.42 -0.02    +0.077 A  ATOM     30  C   UNL     1      37.637  45.575  13.782 -0.40 -0.02    +0.049 A  ATOM     31  N   UNL     1      37.466  47.782  12.891 -0.91 +0.05    -0.236 NA ATOM     32  C   UNL     1      36.678  45.191  12.871 -0.40 -0.04    +0.115 A  ATOM     33  C   UNL     1      36.542  47.298  12.046 -0.46 -0.09    +0.222 A  ATOM     34  N   UNL     1      36.113  46.031  11.989 -0.43 +0.11    -0.245 NA ENDBRANCH  26  29ENDBRANCH  15  22ENDBRANCH   7   8ENDBRANCH   1   7TORSDOF 9TERENDMDL