REMARK SMILES COc1ccc(O)c(C(=O)c2ccc(C(=O)Nc3ccccc3NC(=O)c3ccncc3)cc2)c1F
REMARK SMILES IDX 11 1 12 2 13 3 14 4 33 5 34 6 9 7 10 8 8 9 3 10 4 11 35 12
REMARK SMILES IDX 5 13 6 14 36 15 2 16 1 17 7 18 15 20 17 21 16 22 18 24 19 25
REMARK SMILES IDX 23 26 20 27 22 28 21 29 24 30 25 31 26 33 27 34 28 35 32 36
REMARK SMILES IDX 29 37 31 38 30 39
REMARK H PARENT 7 19 17 23 24 32
ROOT
ATOM      1  C   UNL     1       2.566  -1.256   0.297  1.00  0.00     0.023 A 
ATOM      2  C   UNL     1       2.405  -1.716  -1.015  1.00  0.00     0.013 A 
ATOM      3  C   UNL     1       1.144  -2.120  -1.461  1.00  0.00     0.014 A 
ATOM      4  C   UNL     1       0.042  -2.071  -0.599  1.00  0.00     0.040 A 
ATOM      5  C   UNL     1       0.213  -1.651   0.729  1.00  0.00     0.014 A 
ATOM      6  C   UNL     1       1.474  -1.247   1.175  1.00  0.00     0.013 A 
ENDROOT
BRANCH   1   7
ATOM      7  C   UNL     1       3.892  -0.852   0.819  1.00  0.00     0.199 C 
ATOM      8  O   UNL     1       4.212  -1.197   1.960  1.00  0.00    -0.288 OA
BRANCH   7   9
ATOM      9  C   UNL     1       4.878  -0.098   0.013  1.00  0.00     0.104 A 
ATOM     10  C   UNL     1       5.428   1.531  -1.716  1.00  0.00     0.155 A 
ATOM     11  C   UNL     1       6.788   1.277  -1.518  1.00  0.00     0.053 A 
ATOM     12  C   UNL     1       4.484   0.844  -0.940  1.00  0.00     0.179 A 
ATOM     13  C   UNL     1       7.194   0.361  -0.544  1.00  0.00     0.051 A 
ATOM     14  C   UNL     1       6.246  -0.310   0.225  1.00  0.00     0.130 A 
ATOM     15  F   UNL     1       3.180   1.122  -1.113  1.00  0.00    -0.202 F 
BRANCH  10  16
ATOM     16  O   UNL     1       4.911   2.417  -2.624  1.00  0.00    -0.494 OA
ATOM     17  C   UNL     1       5.834   3.129  -3.441  1.00  0.00     0.278 C 
ENDBRANCH  10  16
BRANCH  14  18
ATOM     18  O   UNL     1       6.728  -1.173   1.173  1.00  0.00    -0.507 OA
ATOM     19  H   UNL     1       5.985  -1.400   1.782  1.00  0.00     0.293 HD
ENDBRANCH  14  18
ENDBRANCH   7   9
ENDBRANCH   1   7
BRANCH   4  20
ATOM     20  C   UNL     1      -1.286  -2.516  -1.108  1.00  0.00     0.255 C 
ATOM     21  N   UNL     1      -2.356  -1.772  -0.637  1.00  0.00    -0.320 N 
ATOM     22  O   UNL     1      -1.314  -3.452  -1.896  1.00  0.00    -0.269 OA
ATOM     23  H   UNL     1      -2.103  -0.915  -0.177  1.00  0.00     0.170 HD
BRANCH  21  24
ATOM     24  C   UNL     1      -3.739  -1.969  -0.904  1.00  0.00     0.065 A 
ATOM     25  C   UNL     1      -4.186  -3.049  -1.681  1.00  0.00     0.028 A 
ATOM     26  C   UNL     1      -4.697  -1.048  -0.395  1.00  0.00     0.065 A 
ATOM     27  C   UNL     1      -5.538  -3.210  -1.985  1.00  0.00     0.002 A 
ATOM     28  C   UNL     1      -6.050  -1.226  -0.717  1.00  0.00     0.028 A 
ATOM     29  C   UNL     1      -6.468  -2.296  -1.510  1.00  0.00     0.002 A 
BRANCH  26  30
ATOM     30  N   UNL     1      -4.282   0.010   0.460  1.00  0.00    -0.320 N 
ATOM     31  C   UNL     1      -5.029   1.100   0.874  1.00  0.00     0.255 C 
ATOM     32  H   UNL     1      -3.324  -0.001   0.759  1.00  0.00     0.170 HD
ATOM     33  O   UNL     1      -6.162   1.407   0.529  1.00  0.00    -0.269 OA
BRANCH  31  34
ATOM     34  C   UNL     1      -4.317   2.013   1.809  1.00  0.00     0.043 A 
ATOM     35  C   UNL     1      -4.484   3.389   1.648  1.00  0.00     0.034 A 
ATOM     36  C   UNL     1      -3.508   1.523   2.835  1.00  0.00     0.034 A 
ATOM     37  C   UNL     1      -3.801   4.226   2.510  1.00  0.00     0.112 A 
ATOM     38  C   UNL     1      -2.874   2.446   3.647  1.00  0.00     0.112 A 
ATOM     39  N   UNL     1      -2.991   3.783   3.496  1.00  0.00    -0.265 NA
ENDBRANCH  31  34
ENDBRANCH  26  30
ENDBRANCH  21  24
ENDBRANCH   4  20
TORSDOF 8
