MODEL        2USER    Run = 2USERUSER    Estimated Free Energy of Binding    = -10.73 kcal/mol  [=(1)+(2)+(3)-(4)]USERUSER    (1) Final Intermolecular Energy     = -13.12 kcal/molUSER        vdW + Hbond + desolv Energy     = -12.95 kcal/molUSER        Electrostatic Energy            =  -0.17 kcal/molUSER        Moving Ligand-Fixed Receptor    = -13.12 kcal/molUSER        Moving Ligand-Moving Receptor   =  +0.00 kcal/molUSER    (2) Final Total Internal Energy     =  -2.61 kcal/molUSER    (3) Torsional Free Energy           =  +2.39 kcal/molUSER    (4) Unbound System's Energy         =  -2.61 kcal/molUSERUSERREMARK SMILES COc1ccc(O)c(C(=O)c2ccc(C(=O)Nc3ccccc3NC(=O)c3ccncc3)cc2)c1FREMARK SMILES IDX 11 1 12 2 13 3 14 4 33 5 34 6 9 7 10 8 8 9 3 10 4 11 35 12REMARK SMILES IDX 5 13 6 14 36 15 2 16 1 17 7 18 15 20 17 21 16 22 18 24 19 25REMARK SMILES IDX 23 26 20 27 22 28 21 29 24 30 25 31 26 33 27 34 28 35 32 36REMARK SMILES IDX 29 37 31 38 30 39REMARK H PARENT 7 19 17 23 24 32USER                              x       y       z     vdW  Elec       q    TypeUSER                           _______ _______ _______ _____ _____    ______ ____ROOTATOM      1  C   UNL     1      33.422  42.827  17.723 -0.33 -0.01    +0.023 A  ATOM      2  C   UNL     1      33.387  43.827  18.702 -0.37 -0.00    +0.013 A  ATOM      3  C   UNL     1      34.578  44.393  19.161 -0.38 -0.00    +0.014 A  ATOM      4  C   UNL     1      35.808  43.960  18.651 -0.32 -0.01    +0.040 A  ATOM      5  C   UNL     1      35.845  42.927  17.702 -0.26 -0.00    +0.014 A  ATOM      6  C   UNL     1      34.653  42.361  17.242 -0.41 -0.01    +0.013 A  ENDROOTBRANCH   1   7ATOM      7  C   UNL     1      32.184  42.176  17.234 -0.24 -0.07    +0.199 C  ATOM      8  O   UNL     1      31.623  42.640  16.238 -0.21 +0.14    -0.288 OA BRANCH   7   9ATOM      9  C   UNL     1      31.617  40.958  17.855 -0.30 -0.02    +0.104 A  ATOM     10  C   UNL     1      31.497  39.346  19.680 -0.30 +0.03    +0.155 A  ATOM     11  C   UNL     1      30.538  38.618  18.970 -0.38 +0.01    +0.053 A  ATOM     12  C   UNL     1      32.023  40.517  19.116 -0.25 +0.01    +0.179 A  ATOM     13  C   UNL     1      30.101  39.069  17.722 -0.29 +0.01    +0.051 A  ATOM     14  C   UNL     1      30.626  40.238  17.176 -0.27 -0.01    +0.130 A  ATOM     15  F   UNL     1      32.918  41.229  19.823 -0.01 -0.05    -0.202 F  BRANCH  10  16ATOM     16  O   UNL     1      31.988  39.015  20.915 -1.03 -0.19    -0.494 OA ATOM     17  C   UNL     1      31.293  38.013  21.649 -0.37 +0.02    +0.278 C  ENDBRANCH  10  16BRANCH  14  18ATOM     18  O   UNL     1      30.127  40.623  15.960 -0.20 +0.13    -0.507 OA ATOM     19  H   UNL     1      30.887  40.905  15.396 -0.39 -0.18    +0.293 HD ENDBRANCH  14  18ENDBRANCH   7   9ENDBRANCH   1   7BRANCH   4  20ATOM     20  C   UNL     1      37.058  44.583  19.170 -0.23 -0.03    +0.255 C  ATOM     21  N   UNL     1      37.996  44.880  18.194 -0.17 +0.06    -0.320 N  ATOM     22  O   UNL     1      37.135  44.798  20.372 -0.20 +0.01    -0.269 OA ATOM     23  H   UNL     1      37.652  44.828  17.251 +0.11 -0.04    +0.170 HD BRANCH  21  24ATOM     24  C   UNL     1      39.292  45.438  18.371 -0.38 -0.01    +0.065 A  ATOM     25  C   UNL     1      40.049  45.173  19.523 -0.40 -0.00    +0.028 A  ATOM     26  C   UNL     1      39.835  46.300  17.377 -0.42 -0.01    +0.065 A  ATOM     27  C   UNL     1      41.298  45.763  19.718 -0.42 +0.00    +0.002 A  ATOM     28  C   UNL     1      41.089  46.886  17.596 -0.47 -0.00    +0.028 A  ATOM     29  C   UNL     1      41.814  46.624  18.760 -0.53 +0.00    +0.002 A  BRANCH  26  30ATOM     30  N   UNL     1      39.124  46.524  16.165 -0.19 +0.09    -0.320 N  ATOM     31  C   UNL     1      37.775  46.798  16.019 -0.28 -0.13    +0.255 C  ATOM     32  H   UNL     1      39.644  46.421  15.313 +0.12 -0.03    +0.170 HD ATOM     33  O   UNL     1      36.917  46.827  16.890 -0.23 +0.18    -0.269 OA BRANCH  31  34ATOM     34  C   UNL     1      37.344  47.026  14.613 -0.41 -0.02    +0.043 A  ATOM     35  C   UNL     1      36.918  48.304  14.250 -0.50 -0.02    +0.034 A  ATOM     36  C   UNL     1      37.371  46.003  13.664 -0.44 -0.01    +0.034 A  ATOM     37  C   UNL     1      36.501  48.498  12.946 -0.33 -0.05    +0.112 A  ATOM     38  C   UNL     1      36.939  46.304  12.385 -0.53 -0.04    +0.112 A  ATOM     39  N   UNL     1      36.491  47.522  12.012 -0.76 +0.11    -0.265 NA ENDBRANCH  31  34ENDBRANCH  26  30ENDBRANCH  21  24ENDBRANCH   4  20TORSDOF 8TERENDMDL