MODEL        7USER    Run = 7USERUSER    Estimated Free Energy of Binding    =  -9.86 kcal/mol  [=(1)+(2)+(3)-(4)]USERUSER    (1) Final Intermolecular Energy     = -12.25 kcal/molUSER        vdW + Hbond + desolv Energy     = -12.16 kcal/molUSER        Electrostatic Energy            =  -0.09 kcal/molUSER        Moving Ligand-Fixed Receptor    = -12.25 kcal/molUSER        Moving Ligand-Moving Receptor   =  +0.00 kcal/molUSER    (2) Final Total Internal Energy     =  -2.69 kcal/molUSER    (3) Torsional Free Energy           =  +2.39 kcal/molUSER    (4) Unbound System's Energy         =  -2.69 kcal/molUSERUSERREMARK SMILES COc1ccc(O)c(C(=O)c2ccc(C(=O)N[C@H]3CCN(C)C[C@H]3NC(=O)c3ccncc3)cc2)c1FREMARK SMILES IDX 11 1 12 2 13 3 14 4 34 5 35 6 9 7 10 8 8 9 3 10 4 11 36 12REMARK SMILES IDX 5 13 6 14 37 15 2 16 1 17 7 18 15 20 17 21 16 22 18 24 19 25REMARK SMILES IDX 24 26 20 27 23 28 21 29 22 30 25 31 26 32 27 34 28 35 29 36REMARK SMILES IDX 33 37 30 38 32 39 31 40REMARK H PARENT 7 19 17 23 25 33USER                              x       y       z     vdW  Elec       q    TypeUSER                           _______ _______ _______ _____ _____    ______ ____ROOTATOM      1  C   UNL     1      37.151  42.727  23.600 -0.39 +0.00    +0.023 A  ATOM      2  C   UNL     1      37.441  43.915  22.919 -0.35 +0.00    +0.013 A  ATOM      3  C   UNL     1      37.055  44.070  21.585 -0.38 +0.00    +0.014 A  ATOM      4  C   UNL     1      36.367  43.042  20.927 -0.42 +0.00    +0.039 A  ATOM      5  C   UNL     1      36.039  41.873  21.629 -0.49 +0.00    +0.014 A  ATOM      6  C   UNL     1      36.428  41.713  22.963 -0.47 +0.00    +0.013 A  ENDROOTBRANCH   1   7ATOM      7  C   UNL     1      37.567  42.608  25.014 -0.27 -0.00    +0.199 C  ATOM      8  O   UNL     1      38.676  42.134  25.267 -0.16 -0.01    -0.288 OA BRANCH   7   9ATOM      9  C   UNL     1      36.731  43.066  26.148 -0.31 -0.01    +0.104 A  ATOM     10  C   UNL     1      36.108  44.738  27.814 -0.33 -0.04    +0.155 A  ATOM     11  C   UNL     1      35.097  43.895  28.280 -0.52 -0.02    +0.053 A  ATOM     12  C   UNL     1      36.913  44.316  26.744 -0.25 -0.02    +0.179 A  ATOM     13  C   UNL     1      34.888  42.653  27.673 -0.54 -0.01    +0.051 A  ATOM     14  C   UNL     1      35.691  42.249  26.608 -0.41 -0.03    +0.130 A  ATOM     15  F   UNL     1      37.852  45.156  26.280 -0.04 +0.01    -0.202 F  BRANCH  10  16ATOM     16  O   UNL     1      36.394  45.982  28.312 -0.17 +0.12    -0.494 OA ATOM     17  C   UNL     1      35.307  46.751  28.811 -0.25 -0.07    +0.278 C  ENDBRANCH  10  16BRANCH  14  18ATOM     18  O   UNL     1      35.396  41.032  26.053 -0.17 +0.21    -0.507 OA ATOM     19  H   UNL     1      36.170  40.441  26.195 -0.26 -0.19    +0.293 HD ENDBRANCH  14  18ENDBRANCH   7   9ENDBRANCH   1   7BRANCH   4  20ATOM     20  C   UNL     1      35.945  43.153  19.501 -0.28 -0.03    +0.251 C  ATOM     21  N   UNL     1      36.348  44.283  18.829 -0.12 +0.07    -0.347 N  ATOM     22  O   UNL     1      35.311  42.247  18.970 -0.31 +0.04    -0.269 OA ATOM     23  H   UNL     1      37.051  44.889  19.253 +0.10 -0.02    +0.164 HD BRANCH  21  24ATOM     24  C   UNL     1      36.089  44.484  17.407 -0.30 -0.04    +0.107 C  ATOM     25  C   UNL     1      35.578  45.902  17.113 -0.39 -0.03    +0.042 C  ATOM     26  C   UNL     1      37.334  44.182  16.531 -0.31 -0.03    +0.118 C  ATOM     27  C   UNL     1      35.329  46.095  15.616 -0.33 -0.08    +0.086 C  ATOM     28  C   UNL     1      36.947  44.379  15.050 -0.31 -0.04    +0.111 C  ATOM     29  N   UNL     1      36.522  45.776  14.811 -0.16 +0.16    -0.304 NA ATOM     30  C   UNL     1      36.240  45.984  13.388 -0.49 -0.05    +0.105 C  BRANCH  26  31ATOM     31  N   UNL     1      38.480  45.050  16.851 -0.11 +0.08    -0.346 N  ATOM     32  C   UNL     1      39.222  44.934  17.998 -0.26 -0.03    +0.251 C  ATOM     33  H   UNL     1      38.627  45.813  16.201 +0.11 -0.04    +0.164 HD ATOM     34  O   UNL     1      39.013  44.061  18.837 -0.23 +0.02    -0.269 OA BRANCH  32  35ATOM     35  C   UNL     1      40.304  45.930  18.217 -0.44 -0.00    +0.042 A  ATOM     36  C   UNL     1      40.400  46.995  17.319 -0.49 -0.01    +0.034 A  ATOM     37  C   UNL     1      41.234  45.815  19.251 -0.43 +0.00    +0.034 A  ATOM     38  C   UNL     1      41.412  47.918  17.508 -0.41 -0.01    +0.112 A  ATOM     39  C   UNL     1      42.214  46.789  19.349 -0.42 +0.01    +0.112 A  ATOM     40  N   UNL     1      42.318  47.839  18.506 -0.40 -0.00    -0.265 NA ENDBRANCH  32  35ENDBRANCH  26  31ENDBRANCH  21  24ENDBRANCH   4  20TORSDOF 8TERENDMDL