REMARK SMILES N[C@H]1CC[C@H](Oc2ncnc(-c3cc[nH]c(=O)c3)cncc3ccccc23)CC1
REMARK SMILES IDX 6 1 5 2 2 3 29 4 3 5 28 6 4 7 1 8 7 11 8 12 27 13 9 14 26 15
REMARK SMILES IDX 22 16 10 17 25 18 21 19 23 20 11 21 24 22 20 23 19 24 12 25
REMARK SMILES IDX 13 26 18 27 14 28 16 29 15 30 17 31
REMARK H PARENT 1 9 1 10 15 32
ROOT
ATOM      1  O   UNL     1      -2.300  -1.276  -0.221  1.00  0.00    -0.474 OA
ENDROOT
BRANCH   1   2
ATOM      2  C   UNL     1      -2.773  -0.144  -0.964  1.00  0.00     0.175 C 
ATOM      3  C   UNL     1      -4.032   1.566  -2.875  1.00  0.00     0.050 C 
ATOM      4  C   UNL     1      -2.543   1.225  -3.086  1.00  0.00     0.022 C 
ATOM      5  C   UNL     1      -4.830   0.328  -2.449  1.00  0.00     0.022 C 
ATOM      6  C   UNL     1      -2.062  -0.008  -2.314  1.00  0.00     0.047 C 
ATOM      7  C   UNL     1      -4.284  -0.359  -1.191  1.00  0.00     0.047 C 
BRANCH   3   8
ATOM      8  N   UNL     1      -4.232   2.656  -1.905  1.00  0.00    -0.328 NA
ATOM      9  H   UNL     1      -3.525   3.376  -2.072  1.00  0.00     0.119 HD
ATOM     10  H   UNL     1      -3.973   2.308  -0.973  1.00  0.00     0.119 HD
ENDBRANCH   3   8
ENDBRANCH   1   2
BRANCH   1  11
ATOM     11  C   UNL     1      -1.103  -1.111   0.492  1.00  0.00     0.223 A 
ATOM     12  N   UNL     1      -0.544   0.134   0.477  1.00  0.00    -0.201 NA
ATOM     13  C   UNL     1      -0.518  -2.453   1.212  1.00  0.00     0.046 A 
ATOM     14  C   UNL     1       0.612   0.276   1.156  1.00  0.00     0.226 A 
ATOM     15  C   UNL     1      -1.470  -3.166   1.967  1.00  0.00     0.014 A 
ATOM     16  C   UNL     1       0.783  -3.000   1.091  1.00  0.00     0.005 A 
ATOM     17  N   UNL     1       1.584   1.047   0.601  1.00  0.00    -0.235 NA
ATOM     18  C   UNL     1      -1.161  -4.385   2.576  1.00  0.00     0.001 A 
ATOM     19  C   UNL     1       1.987  -2.254   0.359  1.00  0.00     0.120 A 
ATOM     20  C   UNL     1       1.083  -4.224   1.717  1.00  0.00     0.010 A 
ATOM     21  C   UNL     1       2.878   0.583   0.794  1.00  0.00     0.091 A 
ATOM     22  C   UNL     1       0.118  -4.917   2.448  1.00  0.00     0.001 A 
ATOM     23  N   UNL     1       3.136  -1.982   1.033  1.00  0.00    -0.262 NA
ATOM     24  C   UNL     1       3.486  -0.647   0.999  1.00  0.00     0.140 A 
BRANCH  21  25
ATOM     25  C   UNL     1       3.807   1.747   0.764  1.00  0.00     0.009 A 
ATOM     26  C   UNL     1       3.708   2.819   1.751  1.00  0.00     0.028 A 
ATOM     27  C   UNL     1       4.763   1.835  -0.182  1.00  0.00     0.082 A 
ATOM     28  C   UNL     1       4.552   3.854   1.738  1.00  0.00     0.086 A 
ATOM     29  C   UNL     1       5.711   2.970  -0.192  1.00  0.00     0.248 A 
ATOM     30  N   UNL     1       5.538   3.923   0.789  1.00  0.00    -0.329 N 
ATOM     31  O   UNL     1       6.631   3.069  -1.005  1.00  0.00    -0.270 OA
ATOM     32  H   UNL     1       6.188   4.689   0.782  1.00  0.00     0.169 HD
ENDBRANCH  21  25
ENDBRANCH   1  11
TORSDOF 4
