MODEL        4USER    Run = 4USERUSER    Estimated Free Energy of Binding    =  -9.13 kcal/mol  [=(1)+(2)+(3)-(4)]USERUSER    (1) Final Intermolecular Energy     = -10.33 kcal/molUSER        vdW + Hbond + desolv Energy     = -10.18 kcal/molUSER        Electrostatic Energy            =  -0.15 kcal/molUSER        Moving Ligand-Fixed Receptor    = -10.33 kcal/molUSER        Moving Ligand-Moving Receptor   =  +0.00 kcal/molUSER    (2) Final Total Internal Energy     =  -0.75 kcal/molUSER    (3) Torsional Free Energy           =  +1.19 kcal/molUSER    (4) Unbound System's Energy         =  -0.75 kcal/molUSERUSERREMARK SMILES Cc1c(CO)cccc1-c1n[nH]c2cc(-c3ccncc3)ccc12REMARK SMILES IDX 1 1 2 2 3 3 6 4 7 5 8 6 9 7 4 8 5 9 10 11 11 12 24 13 12 14REMARK SMILES IDX 23 15 13 16 22 17 14 18 15 19 16 21 17 22 21 23 18 24 20 25REMARK SMILES IDX 19 26REMARK H PARENT 5 10 12 20USER                              x       y       z     vdW  Elec       q    TypeUSER                           _______ _______ _______ _____ _____    ______ ____ROOTATOM      1  C   UNL     1      38.874  45.861  22.845 -0.36 +0.00    +0.045 C  ATOM      2  C   UNL     1      38.098  44.591  22.587 -0.33 -0.00    -0.036 A  ATOM      3  C   UNL     1      37.396  43.942  23.635 -0.33 -0.00    -0.019 A  ATOM      4  C   UNL     1      36.666  42.772  23.359 -0.34 +0.00    +0.006 A  ATOM      5  C   UNL     1      36.612  42.246  22.074 -0.51 +0.00    +0.001 A  ATOM      6  C   UNL     1      37.279  42.889  21.036 -0.37 +0.00    +0.011 A  ATOM      7  C   UNL     1      38.014  44.060  21.276 -0.36 +0.00    +0.006 A  ENDROOTBRANCH   3   8ATOM      8  C   UNL     1      37.375  44.479  25.048 -0.26 +0.01    +0.192 C  BRANCH   8   9ATOM      9  O   UNL     1      36.915  45.823  25.081 -0.73 -0.07    -0.392 OA ATOM     10  H   UNL     1      36.132  45.852  25.659 -0.48 -0.04    +0.211 HD ENDBRANCH   8   9ENDBRANCH   3   8BRANCH   7  11ATOM     11  C   UNL     1      38.666  44.700  20.134 -0.30 -0.00    +0.100 A  ATOM     12  N   UNL     1      39.975  44.998  20.154 -0.27 -0.00    -0.174 NA ATOM     13  C   UNL     1      38.062  45.106  18.904 -0.35 -0.00    +0.028 A  ATOM     14  N   UNL     1      40.197  45.582  18.966 -0.25 +0.01    -0.277 N  ATOM     15  C   UNL     1      36.776  45.050  18.339 -0.33 -0.00    +0.013 A  ATOM     16  C   UNL     1      39.091  45.674  18.167 -0.38 -0.01    +0.066 A  ATOM     17  C   UNL     1      36.575  45.575  17.053 -0.34 -0.00    +0.009 A  ATOM     18  C   UNL     1      38.913  46.202  16.882 -0.39 -0.01    +0.037 A  ATOM     19  C   UNL     1      37.624  46.151  16.316 -0.37 +0.01    -0.016 A  ATOM     20  H   UNL     1      41.136  45.900  18.759 +0.12 +0.00    +0.190 HD BRANCH  19  21ATOM     21  C   UNL     1      37.382  46.693  14.970 -0.40 +0.01    -0.015 A  ATOM     22  C   UNL     1      37.328  45.855  13.851 -0.42 -0.01    +0.029 A  ATOM     23  C   UNL     1      37.198  48.065  14.765 -0.48 -0.02    +0.029 A  ATOM     24  C   UNL     1      37.098  46.412  12.603 -0.49 -0.04    +0.111 A  ATOM     25  C   UNL     1      36.976  48.530  13.479 -0.43 -0.05    +0.111 A  ATOM     26  N   UNL     1      36.922  47.733  12.391 -1.02 +0.08    -0.265 NA ENDBRANCH  19  21ENDBRANCH   7  11TORSDOF 4TERENDMDL