MODEL        10USER    Run = 10USERUSER    Estimated Free Energy of Binding    =  -9.63 kcal/mol  [=(1)+(2)+(3)-(4)]USERUSER    (1) Final Intermolecular Energy     = -10.82 kcal/molUSER        vdW + Hbond + desolv Energy     = -10.72 kcal/molUSER        Electrostatic Energy            =  -0.10 kcal/molUSER        Moving Ligand-Fixed Receptor    = -10.82 kcal/molUSER        Moving Ligand-Moving Receptor   =  +0.00 kcal/molUSER    (2) Final Total Internal Energy     =  -0.73 kcal/molUSER    (3) Torsional Free Energy           =  +1.19 kcal/molUSER    (4) Unbound System's Energy         =  -0.73 kcal/molUSERUSERREMARK SMILES N[C@H]1CC[C@H](Oc2ncnc(-c3cc[nH]c(=O)c3)cncc3ccccc23)CC1REMARK SMILES IDX 6 1 5 2 2 3 29 4 3 5 28 6 4 7 1 8 7 11 8 12 27 13 9 14 26 15REMARK SMILES IDX 22 16 10 17 25 18 21 19 23 20 11 21 24 22 20 23 19 24 12 25REMARK SMILES IDX 13 26 18 27 14 28 16 29 15 30 17 31REMARK H PARENT 1 9 1 10 15 32USER                              x       y       z     vdW  Elec       q    TypeUSER                           _______ _______ _______ _____ _____    ______ ____ROOTATOM      1  O   UNL     1      37.304  43.781  18.980 -0.06 +0.06    -0.474 OA ENDROOTBRANCH   1   2ATOM      2  C   UNL     1      36.313  44.788  18.731 -0.28 -0.04    +0.175 C  ATOM      3  C   UNL     1      34.045  46.247  17.788 -0.45 -0.05    +0.050 C  ATOM      4  C   UNL     1      35.393  46.469  17.071 -0.38 -0.02    +0.022 C  ATOM      5  C   UNL     1      33.814  44.761  18.088 -0.41 -0.01    +0.022 C  ATOM      6  C   UNL     1      36.428  45.367  17.318 -0.36 -0.02    +0.047 C  ATOM      7  C   UNL     1      34.937  44.112  18.906 -0.39 -0.01    +0.047 C  BRANCH   3   8ATOM      8  N   UNL     1      33.925  47.038  19.024 -0.73 +0.19    -0.328 NA ATOM      9  H   UNL     1      33.916  46.398  19.822 -0.47 -0.08    +0.119 HD ATOM     10  H   UNL     1      32.979  47.440  19.057 -0.45 -0.09    +0.119 HD ENDBRANCH   3   8ENDBRANCH   1   2BRANCH   1  11ATOM     11  C   UNL     1      37.821  43.709  20.283 -0.15 -0.01    +0.223 A  ATOM     12  N   UNL     1      37.115  42.968  21.185 -0.27 -0.00    -0.201 NA ATOM     13  C   UNL     1      39.184  44.564  20.551 -0.32 +0.00    +0.046 A  ATOM     14  C   UNL     1      37.616  42.917  22.436 -0.24 +0.01    +0.226 A  ATOM     15  C   UNL     1      40.192  44.362  19.587 -0.34 +0.00    +0.014 A  ATOM     16  C   UNL     1      39.418  45.519  21.571 -0.33 +0.00    +0.005 A  ATOM     17  N   UNL     1      36.740  42.975  23.474 -0.24 -0.03    -0.235 NA ATOM     18  C   UNL     1      41.390  45.082  19.615 -0.39 +0.00    +0.001 A  ATOM     19  C   UNL     1      38.415  45.775  22.783 -0.23 +0.01    +0.120 A  ATOM     20  C   UNL     1      40.632  46.230  21.592 -0.14 +0.00    +0.010 A  ATOM     21  C   UNL     1      37.186  43.696  24.573 -0.29 +0.01    +0.091 A  ATOM     22  C   UNL     1      41.609  46.021  20.618 -0.36 +0.00    +0.001 A  ATOM     23  N   UNL     1      38.838  45.624  24.067 -0.15 -0.02    -0.262 NA ATOM     24  C   UNL     1      38.062  44.748  24.799 -0.20 +0.01    +0.140 A  BRANCH  21  25ATOM     25  C   UNL     1      36.520  43.159  25.792 -0.38 -0.00    +0.009 A  ATOM     26  C   UNL     1      36.670  41.759  26.181 -0.41 -0.01    +0.028 A  ATOM     27  C   UNL     1      35.760  43.959  26.566 -0.33 -0.01    +0.082 A  ATOM     28  C   UNL     1      36.090  41.279  27.284 -0.52 -0.03    +0.086 A  ATOM     29  C   UNL     1      35.129  43.439  27.797 -0.37 -0.07    +0.248 A  ATOM     30  N   UNL     1      35.341  42.106  28.079 -0.24 +0.15    -0.329 N  ATOM     31  O   UNL     1      34.467  44.142  28.561 -0.54 +0.06    -0.270 OA ATOM     32  H   UNL     1      34.915  41.758  28.920 -0.29 -0.11    +0.169 HD ENDBRANCH  21  25ENDBRANCH   1  11TORSDOF 4TERENDMDL