MODEL        6USER    Run = 6USERUSER    Estimated Free Energy of Binding    =  -7.71 kcal/mol  [=(1)+(2)+(3)-(4)]USERUSER    (1) Final Intermolecular Energy     = -12.19 kcal/molUSER        vdW + Hbond + desolv Energy     = -12.18 kcal/molUSER        Electrostatic Energy            =  -0.20 kcal/molUSER        Moving Ligand-Fixed Receptor    = -12.39 kcal/molUSER        Moving Ligand-Moving Receptor   =  +0.20 kcal/molUSER    (2) Final Total Internal Energy     =  -3.40 kcal/molUSER    (3) Torsional Free Energy           =  +4.47 kcal/molUSER    (4) Unbound System's Energy         =  -3.40 kcal/molUSERUSERREMARK SMILES O=C(N[C@@H]1CCCN(C2CC2)C[C@H]1NC(=O)c1ccnc(F)c1)c1ccc(C(=O)c2c(O)ccc(O)c2F)cc1REMARK SMILES IDX 3 1 2 2 1 3 4 5 13 6 14 7 15 8 16 9 17 11 18 12 23 13 19 14REMARK SMILES IDX 21 15 20 16 22 17 12 18 8 19 9 20 10 21 11 22 7 23 6 24 5 26REMARK SMILES IDX 24 28 25 29 40 30 26 31 39 32 27 33 28 34 29 35 30 36 31 37REMARK SMILES IDX 37 38 33 39 35 40 34 41 38 42 32 43 36 45REMARK H PARENT 3 4 14 10 32 44 36 46REMARK Flexibility Score:   88.900USER                              x       y       z     vdW  Elec       q    TypeUSER                           _______ _______ _______ _____ _____    ______ ____ROOTATOM      1  N   UNL     1      37.858  45.824  18.638 -0.04 +0.06    -0.347 N  ATOM      2  C   UNL     1      38.527  44.872  19.384 -0.27 -0.02    +0.251 C  ATOM      3  O   UNL     1      39.336  44.084  18.909 -0.24 +0.01    -0.269 OA ATOM      4  H   UNL     1      37.047  46.257  19.055 +0.23 -0.02    +0.164 HD ENDROOTBRANCH   1   5ATOM      5  C   UNL     1      37.996  45.875  17.176 -0.37 -0.03    +0.106 C  BRANCH   5   6ATOM      6  C   UNL     1      36.659  46.256  16.485 -0.35 -0.07    +0.118 C  BRANCH   6   7ATOM      7  N   UNL     1      35.715  45.126  16.527 -0.09 +0.18    -0.346 N  ATOM      8  C   UNL     1      34.943  44.896  17.648 -0.22 -0.12    +0.251 C  ATOM      9  O   UNL     1      35.056  45.520  18.696 -0.31 +0.11    -0.269 OA ATOM     10  H   UNL     1      35.288  44.916  15.634 +0.12 -0.09    +0.164 HD BRANCH   8  11ATOM     11  C   UNL     1      33.895  43.850  17.520 -0.27 -0.02    +0.045 A  ATOM     12  C   UNL     1      32.967  43.962  16.483 -0.30 -0.02    +0.034 A  ATOM     13  C   UNL     1      33.801  42.786  18.412 -0.32 -0.02    +0.074 A  ATOM     14  C   UNL     1      31.997  42.985  16.367 -0.24 -0.05    +0.115 A  ATOM     15  C   UNL     1      32.793  41.866  18.208 -0.24 -0.04    +0.213 A  ATOM     16  N   UNL     1      31.895  41.932  17.204 -0.18 +0.08    -0.228 NA ATOM     17  F   UNL     1      32.695  40.833  19.057 -0.10 -0.01    -0.185 F  ENDBRANCH   8  11ENDBRANCH   6   7BRANCH   6  18ATOM     18  C   UNL     1      36.808  46.761  15.029 -0.39 -0.07    +0.111 C  BRANCH  18  19ATOM     19  N   UNL     1      37.734  45.913  14.252 -0.19 +0.10    -0.298 NA BRANCH  19  20ATOM     20  C   UNL     1      37.240  45.658  12.883 -0.51 -0.02    +0.056 C  ATOM     21  C   UNL     1      37.064  46.807  11.927 -0.71 -0.01    +0.021 C  ATOM     22  C   UNL     1      35.860  46.124  12.503 -0.62 -0.01    +0.021 C  ENDBRANCH  19  20BRANCH  19  23ATOM     23  C   UNL     1      39.117  46.397  14.225 -0.39 -0.02    +0.085 C  BRANCH  23  24ATOM     24  C   UNL     1      39.935  46.256  15.509 -0.48 -0.00    +0.018 CG0ATOM     25  G   UNL     1      39.221  46.716  16.778 +0.00 +0.00    +0.000 G0 ENDBRANCH  23  24ENDBRANCH  19  23ENDBRANCH  18  19ENDBRANCH   6  18ENDBRANCH   5   6BRANCH   5  26ATOM     26  C   UNL     1      39.220  46.716  16.777 -0.48 -0.01    +0.028 CG0ATOM     27  G   UNL     1      39.933  46.254  15.508 +0.00 +0.00    +0.000 G0 ENDBRANCH   5  26ENDBRANCH   1   5BRANCH   2  28ATOM     28  C   UNL     1      38.188  44.805  20.833 -0.30 +0.00    +0.039 A  ATOM     29  C   UNL     1      38.851  45.674  21.709 -0.27 +0.00    +0.014 A  ATOM     30  C   UNL     1      37.216  43.928  21.330 -0.39 +0.00    +0.014 A  ATOM     31  C   UNL     1      38.572  45.647  23.079 -0.31 +0.00    +0.013 A  ATOM     32  C   UNL     1      36.938  43.899  22.701 -0.31 +0.00    +0.013 A  ATOM     33  C   UNL     1      37.631  44.742  23.579 -0.30 +0.00    +0.023 A  BRANCH  33  34ATOM     34  C   UNL     1      37.286  44.696  25.019 -0.26 +0.01    +0.199 C  ATOM     35  O   UNL     1      37.017  45.747  25.603 -0.63 -0.00    -0.288 OA BRANCH  34  36ATOM     36  C   UNL     1      37.289  43.446  25.808 -0.25 -0.00    +0.104 A  ATOM     37  C   UNL     1      36.128  43.059  26.496 -0.34 -0.02    +0.130 A  ATOM     38  C   UNL     1      38.403  42.610  25.860 -0.17 -0.00    +0.179 A  ATOM     39  C   UNL     1      36.108  41.896  27.267 -0.51 -0.02    +0.051 A  ATOM     40  C   UNL     1      38.378  41.444  26.624 -0.26 -0.01    +0.152 A  ATOM     41  C   UNL     1      37.242  41.086  27.336 -0.46 -0.01    +0.053 A  ATOM     42  F   UNL     1      39.517  42.885  25.164 -0.04 -0.00    -0.202 F  BRANCH  37  43ATOM     43  O   UNL     1      34.966  43.781  26.453 -0.10 +0.07    -0.507 OA ATOM     44  H   UNL     1      35.194  44.713  26.235 -0.24 -0.11    +0.293 HD ENDBRANCH  37  43BRANCH  40  45ATOM     45  O   UNL     1      39.467  40.622  26.686 -0.00 +0.03    -0.505 OA ATOM     46  H   UNL     1      40.203  41.068  26.227 -0.09 -0.04    +0.293 HD ENDBRANCH  40  45ENDBRANCH  34  36ENDBRANCH  33  34ENDBRANCH   2  28TORSDOF 9TERENDMDL