MODEL        7USER    Run = 7USERUSER    Estimated Free Energy of Binding    =  -8.26 kcal/mol  [=(1)+(2)+(3)-(4)]USERUSER    (1) Final Intermolecular Energy     = -12.74 kcal/molUSER        vdW + Hbond + desolv Energy     = -12.94 kcal/molUSER        Electrostatic Energy            =  -0.16 kcal/molUSER        Moving Ligand-Fixed Receptor    = -13.10 kcal/molUSER        Moving Ligand-Moving Receptor   =  +0.36 kcal/molUSER    (2) Final Total Internal Energy     =  -3.26 kcal/molUSER    (3) Torsional Free Energy           =  +4.47 kcal/molUSER    (4) Unbound System's Energy         =  -3.26 kcal/molUSERUSERREMARK SMILES O=C(N[C@H]1CN(C2CC2)CCC[C@H]1NC(=O)c1ccc(C(=O)c2c(O)ccc(O)c2F)cc1)c1ccncc1REMARK SMILES IDX 14 1 15 2 16 3 13 5 4 6 3 7 2 8 1 9 34 11 35 12 39 13 36 14REMARK SMILES IDX 38 15 37 16 5 17 6 18 7 19 8 20 9 21 10 22 11 23 12 25 17 27REMARK SMILES IDX 18 28 33 29 19 30 32 31 20 32 21 33 22 34 23 35 24 36 30 37REMARK SMILES IDX 26 38 28 39 27 40 31 41 25 42 29 44REMARK H PARENT 14 4 3 10 25 43 29 45REMARK Flexibility Score:   88.900USER                              x       y       z     vdW  Elec       q    TypeUSER                           _______ _______ _______ _____ _____    ______ ____ROOTATOM      1  N   UNL     1      39.634  46.111  18.988 -0.19 +0.03    -0.347 N  ATOM      2  C   UNL     1      39.562  44.877  19.591 -0.29 -0.01    +0.251 C  ATOM      3  O   UNL     1      39.857  43.833  19.018 -0.14 +0.00    -0.269 OA ATOM      4  H   UNL     1      39.354  46.953  19.491 +0.10 -0.01    +0.164 HD ENDROOTBRANCH   1   5ATOM      5  C   UNL     1      40.146  46.306  17.628 -0.46 -0.01    +0.106 C  BRANCH   5   6ATOM      6  C   UNL     1      39.088  45.840  16.588 -0.35 -0.03    +0.118 C  BRANCH   6   7ATOM      7  N   UNL     1      38.076  44.909  17.130 -0.13 +0.08    -0.346 N  ATOM      8  C   UNL     1      36.983  44.487  16.407 -0.23 -0.08    +0.251 C  ATOM      9  O   UNL     1      36.773  44.809  15.242 -0.23 +0.11    -0.269 OA ATOM     10  H   UNL     1      38.074  44.770  18.130 +0.10 -0.03    +0.164 HD BRANCH   8  11ATOM     11  C   UNL     1      36.015  43.616  17.121 -0.32 -0.01    +0.042 A  ATOM     12  C   UNL     1      35.056  42.866  16.441 -0.42 -0.01    +0.034 A  ATOM     13  C   UNL     1      36.058  43.584  18.515 -0.31 -0.01    +0.034 A  ATOM     14  C   UNL     1      34.192  42.091  17.192 -0.33 -0.05    +0.112 A  ATOM     15  C   UNL     1      35.153  42.775  19.173 -0.33 -0.01    +0.112 A  ATOM     16  N   UNL     1      34.227  42.022  18.540 -0.22 +0.05    -0.265 NA ENDBRANCH   8  11ENDBRANCH   6   7BRANCH   6  17ATOM     17  C   UNL     1      38.423  47.023  15.843 -0.41 -0.05    +0.111 C  BRANCH  17  18ATOM     18  N   UNL     1      39.128  47.660  14.726 -0.25 +0.10    -0.298 NA BRANCH  18  19ATOM     19  C   UNL     1      38.201  48.094  13.666 -0.47 -0.02    +0.056 C  ATOM     20  C   UNL     1      36.923  48.793  14.045 -0.56 -0.01    +0.021 C  ATOM     21  C   UNL     1      36.879  47.390  13.518 -0.62 -0.01    +0.021 C  ENDBRANCH  18  19BRANCH  18  22ATOM     22  C   UNL     1      40.113  48.680  15.072 -0.58 -0.03    +0.085 C  BRANCH  22  23ATOM     23  C   UNL     1      41.123  48.144  16.086 -0.50 -0.00    +0.018 CG0ATOM     24  G   UNL     1      40.566  47.769  17.454 +0.00 +0.00    +0.000 G0 ENDBRANCH  22  23ENDBRANCH  18  22ENDBRANCH  17  18ENDBRANCH   6  17ENDBRANCH   5   6BRANCH   5  25ATOM     25  C   UNL     1      40.566  47.775  17.456 -0.50 -0.00    +0.028 CG0ATOM     26  G   UNL     1      41.122  48.144  16.086 +0.00 +0.00    +0.000 G0 ENDBRANCH   5  25ENDBRANCH   1   5BRANCH   2  27ATOM     27  C   UNL     1      39.069  44.839  20.999 -0.33 +0.00    +0.039 A  ATOM     28  C   UNL     1      39.907  45.054  22.100 -0.27 +0.00    +0.014 A  ATOM     29  C   UNL     1      37.711  44.563  21.213 -0.34 +0.00    +0.014 A  ATOM     30  C   UNL     1      39.385  45.008  23.399 -0.23 +0.00    +0.013 A  ATOM     31  C   UNL     1      37.188  44.519  22.509 -0.20 +0.00    +0.013 A  ATOM     32  C   UNL     1      38.029  44.728  23.607 -0.30 +0.00    +0.023 A  BRANCH  32  33ATOM     33  C   UNL     1      37.515  44.734  24.997 -0.25 +0.01    +0.199 C  ATOM     34  O   UNL     1      37.114  45.796  25.478 -0.70 -0.01    -0.288 OA BRANCH  33  35ATOM     35  C   UNL     1      37.399  43.516  25.827 -0.24 -0.00    +0.104 A  ATOM     36  C   UNL     1      36.158  43.181  26.387 -0.33 -0.02    +0.130 A  ATOM     37  C   UNL     1      38.499  42.706  26.107 -0.16 -0.01    +0.179 A  ATOM     38  C   UNL     1      36.007  42.026  27.157 -0.50 -0.01    +0.051 A  ATOM     39  C   UNL     1      38.350  41.555  26.884 -0.29 -0.01    +0.152 A  ATOM     40  C   UNL     1      37.107  41.204  27.404 -0.47 -0.01    +0.053 A  ATOM     41  F   UNL     1      39.721  43.032  25.656 -0.03 +0.00    -0.202 F  BRANCH  36  42ATOM     42  O   UNL     1      35.036  43.948  26.221 -0.04 +0.06    -0.507 OA ATOM     43  H   UNL     1      35.321  44.890  26.167 -0.26 -0.13    +0.293 HD ENDBRANCH  36  42BRANCH  39  44ATOM     44  O   UNL     1      39.449  40.778  27.127 -0.15 +0.03    -0.505 OA ATOM     45  H   UNL     1      39.927  40.623  26.296 -0.20 -0.04    +0.293 HD ENDBRANCH  39  44ENDBRANCH  33  35ENDBRANCH  32  33ENDBRANCH   2  27TORSDOF 9TERENDMDL