REMARK SMILES O=C(N[C@H]1CN(C2CC2)CCC[C@H]1NC(=O)c1ccc(C(=O)c2c(O)ccc(O)c2F)cc1)c1ccncc1
REMARK SMILES IDX 14 1 15 2 16 3 13 5 4 6 3 7 2 8 1 9 34 11 35 12 39 13 36 14
REMARK SMILES IDX 38 15 37 16 5 17 6 18 7 19 8 20 9 21 10 22 11 23 12 25 17 27
REMARK SMILES IDX 18 28 33 29 19 30 32 31 20 32 21 33 22 34 23 35 24 36 30 37
REMARK SMILES IDX 26 38 28 39 27 40 31 41 25 42 29 44
REMARK H PARENT 14 4 3 10 25 43 29 45
REMARK Flexibility Score:   88.900
ROOT
ATOM      1  N   UNL     1       0.434   0.678   0.220  1.00  0.00    -0.347 N 
ATOM      2  C   UNL     1      -0.776   1.273  -0.052  1.00  0.00     0.251 C 
ATOM      3  O   UNL     1      -0.879   2.423  -0.467  1.00  0.00    -0.269 OA
ATOM      4  H   UNL     1       0.475  -0.271   0.590  1.00  0.00     0.164 HD
ENDROOT
BRANCH   1   5
ATOM      5  C   UNL     1       1.721   1.333  -0.037  1.00  0.00     0.106 C 
BRANCH   5   6
ATOM      6  C   UNL     1       2.800   0.789   0.942  1.00  0.00     0.118 C 
BRANCH   6   7
ATOM      7  N   UNL     1       3.319  -0.548   0.589  1.00  0.00    -0.346 N 
ATOM      8  C   UNL     1       2.570  -1.698   0.706  1.00  0.00     0.251 C 
ATOM      9  O   UNL     1       1.399  -1.712   1.070  1.00  0.00    -0.269 OA
ATOM     10  H   UNL     1       4.320  -0.635   0.481  1.00  0.00     0.164 HD
BRANCH   8  11
ATOM     11  C   UNL     1       3.263  -2.972   0.388  1.00  0.00     0.042 A 
ATOM     12  C   UNL     1       4.290  -3.038  -0.554  1.00  0.00     0.034 A 
ATOM     13  C   UNL     1       2.841  -4.134   1.034  1.00  0.00     0.034 A 
ATOM     14  C   UNL     1       4.870  -4.271  -0.790  1.00  0.00     0.112 A 
ATOM     15  C   UNL     1       3.488  -5.316   0.730  1.00  0.00     0.112 A 
ATOM     16  N   UNL     1       4.498  -5.406  -0.162  1.00  0.00    -0.265 NA
ENDBRANCH   8  11
ENDBRANCH   6   7
BRANCH   6  17
ATOM     17  C   UNL     1       3.952   1.796   1.178  1.00  0.00     0.111 C 
BRANCH  17  18
ATOM     18  N   UNL     1       4.502   2.543   0.042  1.00  0.00    -0.298 NA
BRANCH  18  19
ATOM     19  C   UNL     1       5.762   3.224   0.390  1.00  0.00     0.056 C 
ATOM     20  C   UNL     1       5.717   4.484   1.212  1.00  0.00     0.021 C 
ATOM     21  C   UNL     1       6.074   4.553  -0.243  1.00  0.00     0.021 C 
ENDBRANCH  18  19
BRANCH  18  22
ATOM     22  C   UNL     1       4.571   1.836  -1.233  1.00  0.00     0.085 C 
BRANCH  22  23
ATOM     23  C   UNL     1       3.265   1.984  -2.012  1.00  0.00     0.018 CG0
ATOM     24  G   UNL     1       2.090   1.148  -1.518  1.00  0.00     0.000 G0
ENDBRANCH  22  23
ENDBRANCH  18  22
ENDBRANCH  17  18
ENDBRANCH   6  17
ENDBRANCH   5   6
BRANCH   5  25
ATOM     25  C   UNL     1       2.090   1.148  -1.518  1.00  0.00     0.028 CG0
ATOM     26  G   UNL     1       3.265   1.984  -2.012  1.00  0.00     0.000 G0
ENDBRANCH   5  25
ENDBRANCH   1   5
BRANCH   2  27
ATOM     27  C   UNL     1      -2.002   0.465   0.211  1.00  0.00     0.039 A 
ATOM     28  C   UNL     1      -1.998  -0.935   0.221  1.00  0.00     0.014 A 
ATOM     29  C   UNL     1      -3.204   1.150   0.443  1.00  0.00     0.014 A 
ATOM     30  C   UNL     1      -3.181  -1.639   0.477  1.00  0.00     0.013 A 
ATOM     31  C   UNL     1      -4.386   0.449   0.701  1.00  0.00     0.013 A 
ATOM     32  C   UNL     1      -4.379  -0.950   0.704  1.00  0.00     0.023 A 
BRANCH  32  33
ATOM     33  C   UNL     1      -5.595  -1.738   1.014  1.00  0.00     0.199 C 
ATOM     34  O   UNL     1      -5.485  -2.759   1.696  1.00  0.00    -0.288 OA
BRANCH  33  35
ATOM     35  C   UNL     1      -6.955  -1.333   0.599  1.00  0.00     0.104 A 
ATOM     36  C   UNL     1      -8.050  -1.665   1.410  1.00  0.00     0.130 A 
ATOM     37  C   UNL     1      -7.192  -0.662  -0.600  1.00  0.00     0.179 A 
ATOM     38  C   UNL     1      -9.345  -1.279   1.061  1.00  0.00     0.051 A 
ATOM     39  C   UNL     1      -8.489  -0.282  -0.954  1.00  0.00     0.152 A 
ATOM     40  C   UNL     1      -9.568  -0.579  -0.125  1.00  0.00     0.053 A 
ATOM     41  F   UNL     1      -6.183  -0.393  -1.444  1.00  0.00    -0.202 F 
BRANCH  36  42
ATOM     42  O   UNL     1      -7.924  -2.377   2.573  1.00  0.00    -0.507 OA
ATOM     43  H   UNL     1      -7.019  -2.767   2.591  1.00  0.00     0.293 HD
ENDBRANCH  36  42
BRANCH  39  44
ATOM     44  O   UNL     1      -8.681   0.385  -2.132  1.00  0.00    -0.505 OA
ATOM     45  H   UNL     1      -9.629   0.557  -2.256  1.00  0.00     0.293 HD
ENDBRANCH  39  44
ENDBRANCH  33  35
ENDBRANCH  32  33
ENDBRANCH   2  27
TORSDOF 9
