MODEL        2USER    Run = 2USERUSER    Estimated Free Energy of Binding    =  -8.16 kcal/mol  [=(1)+(2)+(3)-(4)]USERUSER    (1) Final Intermolecular Energy     = -12.64 kcal/molUSER        vdW + Hbond + desolv Energy     = -12.83 kcal/molUSER        Electrostatic Energy            =  -0.19 kcal/molUSER        Moving Ligand-Fixed Receptor    = -13.02 kcal/molUSER        Moving Ligand-Moving Receptor   =  +0.38 kcal/molUSER    (2) Final Total Internal Energy     =  -3.43 kcal/molUSER    (3) Torsional Free Energy           =  +4.47 kcal/molUSER    (4) Unbound System's Energy         =  -3.43 kcal/molUSERUSERREMARK SMILES O=C(N[C@@H]1CCCN(C2CC2)C[C@H]1NC(=O)c1ccnc(F)c1)c1ccc(C(=O)c2c(O)ccc(O)c2F)cc1REMARK SMILES IDX 3 1 2 2 1 3 4 5 13 6 14 7 15 8 16 9 17 11 18 12 23 13 19 14REMARK SMILES IDX 21 15 20 16 22 17 12 18 8 19 9 20 10 21 11 22 7 23 6 24 5 26REMARK SMILES IDX 24 28 25 29 40 30 26 31 39 32 27 33 28 34 29 35 30 36 31 37REMARK SMILES IDX 37 38 33 39 35 40 34 41 38 42 32 43 36 45REMARK H PARENT 3 4 14 10 32 44 36 46REMARK Flexibility Score:   88.900USER                              x       y       z     vdW  Elec       q    TypeUSER                           _______ _______ _______ _____ _____    ______ ____ROOTATOM      1  N   UNL     1      39.397  46.215  18.512 -0.21 +0.04    -0.347 N  ATOM      2  C   UNL     1      39.923  45.243  19.343 -0.31 -0.01    +0.251 C  ATOM      3  O   UNL     1      40.782  44.444  18.992 -0.30 -0.01    -0.269 OA ATOM      4  H   UNL     1      38.538  46.660  18.801 +0.08 -0.03    +0.164 HD ENDROOTBRANCH   1   5ATOM      5  C   UNL     1      39.764  46.276  17.091 -0.44 -0.02    +0.106 C  BRANCH   5   6ATOM      6  C   UNL     1      38.577  45.881  16.172 -0.36 -0.03    +0.118 C  BRANCH   6   7ATOM      7  N   UNL     1      37.798  44.786  16.776 -0.12 +0.09    -0.346 N  ATOM      8  C   UNL     1      36.738  45.057  17.616 -0.23 -0.08    +0.251 C  ATOM      9  O   UNL     1      36.440  46.182  17.999 -0.19 +0.12    -0.269 OA ATOM     10  H   UNL     1      37.706  43.972  16.180 +0.10 -0.04    +0.164 HD BRANCH   8  11ATOM     11  C   UNL     1      35.906  43.893  18.021 -0.29 -0.01    +0.045 A  ATOM     12  C   UNL     1      35.018  43.355  17.088 -0.34 -0.01    +0.034 A  ATOM     13  C   UNL     1      35.972  43.349  19.300 -0.33 -0.01    +0.074 A  ATOM     14  C   UNL     1      34.250  42.271  17.470 -0.33 -0.04    +0.115 A  ATOM     15  C   UNL     1      35.161  42.269  19.579 -0.25 -0.01    +0.213 A  ATOM     16  N   UNL     1      34.309  41.709  18.695 -0.22 +0.03    -0.228 NA ATOM     17  F   UNL     1      35.218  41.731  20.806 -0.14 -0.01    -0.185 F  ENDBRANCH   8  11ENDBRANCH   6   7BRANCH   6  18ATOM     18  C   UNL     1      38.981  45.502  14.725 -0.22 -0.02    +0.111 C  BRANCH  18  19ATOM     19  N   UNL     1      38.939  46.672  13.825 -0.18 +0.06    -0.298 NA BRANCH  19  20ATOM     20  C   UNL     1      37.615  46.841  13.192 -0.54 -0.02    +0.056 C  ATOM     21  C   UNL     1      36.832  48.104  13.426 -0.66 -0.01    +0.021 C  ATOM     22  C   UNL     1      36.382  46.819  14.054 -0.53 -0.01    +0.021 C  ENDBRANCH  19  20BRANCH  19  23ATOM     23  C   UNL     1      39.385  47.924  14.442 -0.48 -0.02    +0.085 C  BRANCH  23  24ATOM     24  C   UNL     1      40.666  47.879  15.276 -0.59 -0.00    +0.018 CG0ATOM     25  G   UNL     1      40.452  47.612  16.764 +0.00 +0.00    +0.000 G0 ENDBRANCH  23  24ENDBRANCH  19  23ENDBRANCH  18  19ENDBRANCH   6  18ENDBRANCH   5   6BRANCH   5  26ATOM     26  C   UNL     1      40.448  47.615  16.765 -0.58 -0.01    +0.028 CG0ATOM     27  G   UNL     1      40.666  47.881  15.277 +0.00 +0.00    +0.000 G0 ENDBRANCH   5  26ENDBRANCH   1   5BRANCH   2  28ATOM     28  C   UNL     1      39.358  45.171  20.719 -0.33 +0.00    +0.039 A  ATOM     29  C   UNL     1      38.188  44.427  20.917 -0.36 +0.00    +0.014 A  ATOM     30  C   UNL     1      39.975  45.796  21.811 -0.27 +0.00    +0.014 A  ATOM     31  C   UNL     1      37.615  44.332  22.188 -0.37 +0.00    +0.013 A  ATOM     32  C   UNL     1      39.401  45.703  23.083 -0.28 +0.00    +0.013 A  ATOM     33  C   UNL     1      38.209  44.991  23.269 -0.30 +0.00    +0.023 A  BRANCH  33  34ATOM     34  C   UNL     1      37.651  44.897  24.639 -0.25 +0.02    +0.199 C  ATOM     35  O   UNL     1      37.018  45.852  25.092 -0.80 -0.05    -0.288 OA BRANCH  34  36ATOM     36  C   UNL     1      37.853  43.722  25.512 -0.21 -0.00    +0.104 A  ATOM     37  C   UNL     1      36.764  43.192  26.221 -0.28 -0.01    +0.130 A  ATOM     38  C   UNL     1      39.091  43.093  25.625 -0.12 -0.00    +0.179 A  ATOM     39  C   UNL     1      36.929  42.097  27.071 -0.41 -0.01    +0.051 A  ATOM     40  C   UNL     1      39.252  41.993  26.467 -0.18 -0.01    +0.152 A  ATOM     41  C   UNL     1      38.182  41.496  27.199 -0.39 -0.01    +0.053 A  ATOM     42  F   UNL     1      40.153  43.505  24.915 -0.02 -0.00    -0.202 F  BRANCH  37  43ATOM     43  O   UNL     1      35.498  43.701  26.125 -0.12 +0.04    -0.507 OA ATOM     44  H   UNL     1      35.565  44.683  26.106 -0.24 -0.08    +0.293 HD ENDBRANCH  37  43BRANCH  40  45ATOM     45  O   UNL     1      40.463  41.373  26.589 +0.01 +0.08    -0.505 OA ATOM     46  H   UNL     1      40.307  40.410  26.572 -0.25 -0.11    +0.293 HD ENDBRANCH  40  45ENDBRANCH  34  36ENDBRANCH  33  34ENDBRANCH   2  28TORSDOF 9TERENDMDL