MODEL        4USER    Run = 4USERUSER    Estimated Free Energy of Binding    =  -9.52 kcal/mol  [=(1)+(2)+(3)-(4)]USERUSER    (1) Final Intermolecular Energy     = -11.91 kcal/molUSER        vdW + Hbond + desolv Energy     = -11.61 kcal/molUSER        Electrostatic Energy            =  -0.30 kcal/molUSER        Moving Ligand-Fixed Receptor    = -11.91 kcal/molUSER        Moving Ligand-Moving Receptor   =  +0.00 kcal/molUSER    (2) Final Total Internal Energy     =  -1.27 kcal/molUSER    (3) Torsional Free Energy           =  +2.39 kcal/molUSER    (4) Unbound System's Energy         =  -1.27 kcal/molUSERUSERREMARK SMILES Cc1nc(-c2ccc(OCCN3CCOCC3)cc2)cc(N=CN)c1C(N)=OREMARK SMILES IDX 5 1 6 2 7 3 8 4 18 5 19 6 4 7 2 8 3 9 25 10 21 11 20 12 1 13REMARK SMILES IDX 26 14 27 15 28 16 22 19 23 20 24 21 9 24 10 25 11 26 12 27REMARK SMILES IDX 13 28 17 29 14 30 16 31 15 32REMARK H PARENT 27 17 27 18 24 22 24 23USER                              x       y       z     vdW  Elec       q    TypeUSER                           _______ _______ _______ _____ _____    ______ ____ROOTATOM      1  C   UNL     1      36.487  45.126  18.135 -0.33 -0.00    +0.000 A  ATOM      2  C   UNL     1      35.207  45.704  18.209 -0.36 -0.01    +0.014 A  ATOM      3  C   UNL     1      34.100  44.983  18.686 -0.39 -0.02    +0.047 A  ATOM      4  C   UNL     1      34.247  43.662  19.097 -0.30 -0.02    +0.119 A  ATOM      5  C   UNL     1      35.511  43.075  19.043 -0.36 -0.01    +0.047 A  ATOM      6  C   UNL     1      36.611  43.792  18.561 -0.29 -0.00    +0.014 A  ENDROOTBRANCH   1   7ATOM      7  C   UNL     1      37.660  45.865  17.625 -0.31 -0.02    +0.073 A  ATOM      8  C   UNL     1      38.415  47.559  16.186 -0.37 -0.03    +0.053 A  ATOM      9  N   UNL     1      37.391  46.835  16.716 -0.19 +0.14    -0.252 NA ATOM     10  C   UNL     1      39.746  47.349  16.555 -0.43 -0.02    +0.086 A  ATOM     11  C   UNL     1      40.014  46.361  17.514 -0.42 -0.01    +0.081 A  ATOM     12  C   UNL     1      38.960  45.603  18.031 -0.38 -0.01    +0.058 A  ATOM     13  C   UNL     1      38.002  48.590  15.177 -0.53 -0.05    +0.068 C  BRANCH  10  14ATOM     14  C   UNL     1      40.831  48.162  15.954 -0.40 -0.04    +0.252 C  ATOM     15  N   UNL     1      41.089  47.967  14.626 -0.17 +0.02    -0.365 N  ATOM     16  O   UNL     1      41.474  48.973  16.606 -1.01 -0.01    -0.269 OA ATOM     17  H   UNL     1      40.760  47.116  14.177 +0.12 -0.00    +0.159 HD ATOM     18  H   UNL     1      41.911  48.416  14.243 +0.13 +0.01    +0.159 HD ENDBRANCH  10  14BRANCH  11  19ATOM     19  N   UNL     1      41.318  46.073  17.973 -0.31 +0.01    -0.239 NA BRANCH  19  20ATOM     20  C   UNL     1      41.851  46.867  18.843 -0.45 +0.01    +0.190 C  ATOM     21  N   UNL     1      42.658  47.952  18.667 -0.29 -0.01    -0.390 N  ATOM     22  H   UNL     1      43.294  48.168  19.428 -0.48 -0.01    +0.157 HD ATOM     23  H   UNL     1      43.091  48.053  17.756 -0.25 -0.00    +0.157 HD ENDBRANCH  19  20ENDBRANCH  11  19ENDBRANCH   1   7BRANCH   4  24ATOM     24  O   UNL     1      33.264  42.850  19.583 -0.48 -0.02    -0.492 OA BRANCH  24  25ATOM     25  C   UNL     1      32.542  42.024  18.663 -0.27 -0.03    +0.245 C  BRANCH  25  26ATOM     26  C   UNL     1      31.656  41.020  19.422 -0.16 +0.01    +0.126 C  BRANCH  26  27ATOM     27  N   UNL     1      32.141  39.640  19.533 -0.58 -0.08    -0.295 NA ATOM     28  C   UNL     1      31.447  38.819  20.541 -0.43 +0.02    +0.113 C  ATOM     29  C   UNL     1      32.253  38.945  18.240 -0.40 +0.00    +0.113 C  ATOM     30  C   UNL     1      30.587  37.698  19.932 -0.38 +0.04    +0.175 C  ATOM     31  C   UNL     1      32.447  37.434  18.444 -0.35 +0.03    +0.175 C  ATOM     32  O   UNL     1      31.325  36.808  19.085 -0.79 -0.19    -0.379 OA ENDBRANCH  26  27ENDBRANCH  25  26ENDBRANCH  24  25ENDBRANCH   4  24TORSDOF 8TERENDMDL