REMARK SMILES NCCC[C@H]1COc2ccc(O)c(N)c2-c2cc(O)c(O)cc21
REMARK SMILES IDX 4 1 3 2 2 3 1 4 5 7 23 9 22 10 16 11 20 12 17 13 18 14 15 15
REMARK SMILES IDX 13 16 8 17 11 18 9 19 10 20 14 21 7 24 6 25 12 27 21 29
REMARK SMILES IDX 19 31
REMARK H PARENT 1 5 1 6 14 22 14 23 12 28 21 30 19 32
REMARK Flexibility Score:   90.900
ROOT
ATOM      1  C   UNL     1       2.418  -0.901   0.607  1.00  0.00     0.013 C 
ENDROOT
BRANCH   1   2
ATOM      2  C   UNL     1       3.247   0.136   1.385  1.00  0.00     0.016 C 
BRANCH   2   3
ATOM      3  C   UNL     1       3.673   1.364   0.589  1.00  0.00     0.077 C 
BRANCH   3   4
ATOM      4  N   UNL     1       4.618   2.160   1.364  1.00  0.00    -0.330 NA
ATOM      5  H   UNL     1       4.848   3.011   0.853  1.00  0.00     0.118 HD
ATOM      6  H   UNL     1       4.183   2.461   2.237  1.00  0.00     0.118 HD
ENDBRANCH   3   4
ENDBRANCH   2   3
ENDBRANCH   1   2
BRANCH   1   7
ATOM      7  C   UNL     1       1.057  -0.397   0.068  1.00  0.00     0.058 CG0
ATOM      8  G   UNL     1       1.180   0.202  -1.359  1.00  0.00     0.000 G0
BRANCH   7   9
ATOM      9  C   UNL     1      -0.062  -1.444   0.034  1.00  0.00    -0.029 A 
ATOM     10  C   UNL     1       0.179  -2.829   0.063  1.00  0.00     0.055 A 
ATOM     11  C   UNL     1      -1.395  -0.971  -0.101  1.00  0.00    -0.005 A 
ATOM     12  C   UNL     1      -0.883  -3.730  -0.014  1.00  0.00     0.157 A 
ATOM     13  C   UNL     1      -2.446  -1.902  -0.207  1.00  0.00     0.059 A 
ATOM     14  C   UNL     1      -2.189  -3.269  -0.152  1.00  0.00     0.158 A 
BRANCH  11  15
ATOM     15  C   UNL     1      -1.660   0.483  -0.226  1.00  0.00     0.051 A 
ATOM     16  C   UNL     1      -2.584   1.176   0.587  1.00  0.00     0.086 A 
ATOM     17  C   UNL     1      -0.945   1.225  -1.196  1.00  0.00     0.129 A 
ATOM     18  C   UNL     1      -2.766   2.562   0.385  1.00  0.00     0.139 A 
ATOM     19  C   UNL     1      -1.180   2.583  -1.413  1.00  0.00     0.051 A 
ATOM     20  C   UNL     1      -2.096   3.260  -0.616  1.00  0.00     0.052 A 
BRANCH  16  21
ATOM     21  N   UNL     1      -3.148   0.601   1.747  1.00  0.00    -0.395 N 
ATOM     22  H   UNL     1      -3.289  -0.400   1.722  1.00  0.00     0.156 HD
ATOM     23  H   UNL     1      -3.956   1.135   2.064  1.00  0.00     0.156 HD
ENDBRANCH  16  21
BRANCH  17  24
ATOM     24  O   UNL     1      -0.033   0.618  -2.021  1.00  0.00    -0.492 OA
BRANCH  24  25
ATOM     25  C   UNL     1       1.180   0.202  -1.359  1.00  0.00     0.238 CG0
ATOM     26  G   UNL     1       1.057  -0.397   0.068  1.00  0.00     0.000 G0
ENDBRANCH  24  25
ENDBRANCH  17  24
BRANCH  18  27
ATOM     27  O   UNL     1      -3.652   3.217   1.208  1.00  0.00    -0.506 OA
ATOM     28  H   UNL     1      -3.605   4.167   1.015  1.00  0.00     0.293 HD
ENDBRANCH  18  27
ENDBRANCH  11  15
BRANCH  12  29
ATOM     29  O   UNL     1      -0.650  -5.077   0.024  1.00  0.00    -0.504 OA
ATOM     30  H   UNL     1       0.297  -5.233   0.151  1.00  0.00     0.293 HD
ENDBRANCH  12  29
BRANCH  14  31
ATOM     31  O   UNL     1      -3.212  -4.170  -0.249  1.00  0.00    -0.504 OA
ATOM     32  H   UNL     1      -4.037  -3.695  -0.433  1.00  0.00     0.293 HD
ENDBRANCH  14  31
ENDBRANCH   7   9
ENDBRANCH   1   7
TORSDOF 8
