MODEL        8USER    Run = 8USERUSER    Estimated Free Energy of Binding    =  -5.94 kcal/mol  [=(1)+(2)+(3)-(4)]USERUSER    (1) Final Intermolecular Energy     =  -9.52 kcal/molUSER        vdW + Hbond + desolv Energy     =  -9.37 kcal/molUSER        Electrostatic Energy            =  -0.34 kcal/molUSER        Moving Ligand-Fixed Receptor    =  -9.71 kcal/molUSER        Moving Ligand-Moving Receptor   =  +0.19 kcal/molUSER    (2) Final Total Internal Energy     =  -2.75 kcal/molUSER    (3) Torsional Free Energy           =  +3.58 kcal/molUSER    (4) Unbound System's Energy         =  -2.75 kcal/molUSERUSERREMARK SMILES NCCC[C@H]1COc2ccc(O)c(N)c2-c2cc(O)c(O)cc21REMARK SMILES IDX 4 1 3 2 2 3 1 4 5 7 23 9 22 10 16 11 20 12 17 13 18 14 15 15REMARK SMILES IDX 13 16 8 17 11 18 9 19 10 20 14 21 7 24 6 25 12 27 21 29REMARK SMILES IDX 19 31REMARK H PARENT 1 5 1 6 14 22 14 23 12 28 21 30 19 32REMARK Flexibility Score:   90.900USER                              x       y       z     vdW  Elec       q    TypeUSER                           _______ _______ _______ _____ _____    ______ ____ROOTATOM      1  C   UNL     1      35.152  46.294  17.040 -0.40 -0.01    +0.013 C  ENDROOTBRANCH   1   2ATOM      2  C   UNL     1      34.794  45.182  18.042 -0.43 -0.01    +0.016 C  BRANCH   2   3ATOM      3  C   UNL     1      33.748  45.553  19.087 -0.29 -0.03    +0.077 C  BRANCH   3   4ATOM      4  N   UNL     1      33.551  46.998  19.105 -0.58 +0.20    -0.330 NA ATOM      5  H   UNL     1      32.834  47.254  18.428 -0.46 -0.13    +0.118 HD ATOM      6  H   UNL     1      33.196  47.287  20.018 -0.52 -0.06    +0.118 HD ENDBRANCH   3   4ENDBRANCH   2   3ENDBRANCH   1   2BRANCH   1   7ATOM      7  C   UNL     1      36.643  46.366  16.629 -0.38 -0.04    +0.058 CG0ATOM      8  G   UNL     1      37.410  45.065  16.987 +0.00 +0.00    +0.000 G0 BRANCH   7   9ATOM      9  C   UNL     1      36.900  46.660  15.147 -0.38 +0.02    -0.029 A  ATOM     10  C   UNL     1      35.934  46.461  14.144 -0.41 -0.04    +0.055 A  ATOM     11  C   UNL     1      38.204  47.090  14.783 -0.45 +0.00    -0.005 A  ATOM     12  C   UNL     1      36.247  46.709  12.808 -0.49 -0.08    +0.157 A  ATOM     13  C   UNL     1      38.502  47.304  13.424 -0.27 -0.01    +0.059 A  ATOM     14  C   UNL     1      37.525  47.125  12.448 -0.38 -0.04    +0.158 A  BRANCH  11  15ATOM     15  C   UNL     1      39.261  47.217  15.816 -0.44 -0.02    +0.051 A  ATOM     16  C   UNL     1      40.037  48.384  15.993 -0.49 -0.03    +0.086 A  ATOM     17  C   UNL     1      39.502  46.124  16.682 -0.33 -0.02    +0.129 A  ATOM     18  C   UNL     1      41.023  48.402  17.005 -0.35 -0.02    +0.139 A  ATOM     19  C   UNL     1      40.517  46.145  17.639 -0.45 -0.00    +0.051 A  ATOM     20  C   UNL     1      41.284  47.293  17.805 -0.47 -0.00    +0.052 A  BRANCH  16  21ATOM     21  N   UNL     1      39.708  49.610  15.375 -0.02 +0.23    -0.395 N  ATOM     22  H   UNL     1      39.336  49.548  14.436 -0.25 -0.12    +0.156 HD ATOM     23  H   UNL     1      40.458  50.290  15.489 -0.09 -0.08    +0.156 HD ENDBRANCH  16  21BRANCH  17  24ATOM     24  O   UNL     1      38.788  44.959  16.567 +0.07 +0.10    -0.492 OA BRANCH  24  25ATOM     25  C   UNL     1      37.411  45.064  16.986 -0.25 -0.07    +0.238 CG0ATOM     26  G   UNL     1      36.643  46.365  16.627 +0.00 +0.00    +0.000 G0 ENDBRANCH  24  25ENDBRANCH  17  24BRANCH  18  27ATOM     27  O   UNL     1      41.745  49.560  17.173 -0.57 -0.08    -0.506 OA ATOM     28  H   UNL     1      41.200  50.307  16.879 +0.08 -0.05    +0.293 HD ENDBRANCH  18  27ENDBRANCH  11  15BRANCH  12  29ATOM     29  O   UNL     1      35.305  46.525  11.833 -0.07 +0.34    -0.504 OA ATOM     30  H   UNL     1      35.619  46.921  11.008 +0.15 -0.19    +0.293 HD ENDBRANCH  12  29BRANCH  14  31ATOM     31  O   UNL     1      37.816  47.339  11.130 -0.43 +0.04    -0.504 OA ATOM     32  H   UNL     1      36.988  47.424  10.633 -0.04 -0.15    +0.293 HD ENDBRANCH  14  31ENDBRANCH   7   9ENDBRANCH   1   7TORSDOF 8TERENDMDL