MODEL        1USER    Run = 1USERUSER    Estimated Free Energy of Binding    =  -7.87 kcal/mol  [=(1)+(2)+(3)-(4)]USERUSER    (1) Final Intermolecular Energy     =  -9.66 kcal/molUSER        vdW + Hbond + desolv Energy     =  -9.57 kcal/molUSER        Electrostatic Energy            =  -0.10 kcal/molUSER        Moving Ligand-Fixed Receptor    =  -9.66 kcal/molUSER        Moving Ligand-Moving Receptor   =  +0.00 kcal/molUSER    (2) Final Total Internal Energy     =  -2.41 kcal/molUSER    (3) Torsional Free Energy           =  +1.79 kcal/molUSER    (4) Unbound System's Energy         =  -2.41 kcal/molUSERUSERREMARK SMILES COc1ccccc1-c1cc(NC(=O)[C@H]2CCC[C@@H](N)C2)ccc1OREMARK SMILES IDX 9 1 10 2 11 3 22 4 23 5 24 6 8 7 3 8 4 9 5 10 7 11 6 12 2 13REMARK SMILES IDX 1 14 25 15 12 17 13 18 14 20 15 21 16 22 21 23 17 24 19 25REMARK SMILES IDX 18 26 20 27REMARK H PARENT 25 16 12 19 20 28 20 29USER                              x       y       z     vdW  Elec       q    TypeUSER                           _______ _______ _______ _____ _____    ______ ____ROOTATOM      1  C   UNL     1      36.394  45.147  27.780 -0.38 -0.01    +0.029 A  ATOM      2  C   UNL     1      35.461  45.861  28.556 -0.24 -0.01    +0.038 A  ATOM      3  C   UNL     1      35.529  47.255  28.698 -0.35 -0.01    +0.042 A  ATOM      4  C   UNL     1      36.550  47.949  28.049 -0.31 -0.01    +0.030 A  ATOM      5  C   UNL     1      37.490  47.260  27.278 -0.28 -0.01    +0.049 A  ATOM      6  C   UNL     1      37.414  45.876  27.151 -0.26 -0.02    +0.123 A  ENDROOTBRANCH   1   7ATOM      7  C   UNL     1      36.257  43.687  27.635 -0.43 -0.01    +0.028 A  ATOM      8  C   UNL     1      37.356  42.809  27.781 -0.26 -0.03    +0.126 A  ATOM      9  C   UNL     1      37.166  41.430  27.627 -0.47 -0.01    +0.047 A  ATOM     10  C   UNL     1      35.903  40.917  27.323 -0.60 -0.00    +0.004 A  ATOM     11  C   UNL     1      34.993  43.146  27.331 -0.57 -0.00    +0.013 A  ATOM     12  C   UNL     1      34.818  41.773  27.175 -0.60 -0.00    +0.001 A  BRANCH   8  13ATOM     13  O   UNL     1      38.560  43.395  28.075 -0.11 +0.05    -0.496 OA ATOM     14  C   UNL     1      39.651  42.540  28.391 -0.20 +0.00    +0.278 C  ENDBRANCH   8  13ENDBRANCH   1   7BRANCH   6  15ATOM     15  O   UNL     1      38.388  45.284  26.393 -0.02 +0.02    -0.507 OA ATOM     16  H   UNL     1      38.767  44.551  26.906 +0.12 -0.01    +0.293 HD ENDBRANCH   6  15BRANCH   3  17ATOM     17  N   UNL     1      34.545  47.866  29.504 -0.24 +0.04    -0.326 N  ATOM     18  C   UNL     1      33.315  47.351  29.879 -0.26 -0.02    +0.227 C  ATOM     19  H   UNL     1      34.780  48.786  29.854 +0.06 -0.01    +0.169 HD ATOM     20  O   UNL     1      32.884  46.240  29.591 -0.95 -0.02    -0.274 OA BRANCH  18  21ATOM     21  C   UNL     1      32.502  48.339  30.730 -0.34 -0.00    +0.080 C  ATOM     22  C   UNL     1      31.382  48.997  29.912 -0.30 +0.00    +0.013 C  ATOM     23  C   UNL     1      31.969  47.730  32.041 -0.37 -0.00    +0.032 C  ATOM     24  C   UNL     1      30.180  48.077  29.720 -0.24 +0.00    +0.002 C  ATOM     25  C   UNL     1      30.677  46.903  31.925 -0.51 -0.00    +0.051 C  ATOM     26  C   UNL     1      29.629  47.612  31.063 -0.59 +0.00    +0.019 C  BRANCH  25  27ATOM     27  N   UNL     1      30.922  45.556  31.412 +0.05 +0.04    -0.328 NA ATOM     28  H   UNL     1      30.625  45.497  30.429 -0.43 -0.01    +0.119 HD ATOM     29  H   UNL     1      31.929  45.404  31.343 -0.51 -0.04    +0.119 HD ENDBRANCH  25  27ENDBRANCH  18  21ENDBRANCH   3  17TORSDOF 6TERENDMDL