REMARK SMILES COc1ccccc1-c1cc(NC(=O)[C@H]2CCC[C@@H](N)C2)ccc1O
REMARK SMILES IDX 9 1 10 2 11 3 22 4 23 5 24 6 8 7 3 8 4 9 5 10 7 11 6 12 2 13
REMARK SMILES IDX 1 14 25 15 12 17 13 18 14 20 15 21 16 22 21 23 17 24 19 25
REMARK SMILES IDX 18 26 20 27
REMARK H PARENT 25 16 12 19 20 28 20 29
ROOT
ATOM      1  C   UNL     1       2.459  -0.660   1.069  1.00  0.00     0.029 A 
ATOM      2  C   UNL     1       1.340   0.088   0.655  1.00  0.00     0.038 A 
ATOM      3  C   UNL     1       0.029  -0.373   0.849  1.00  0.00     0.042 A 
ATOM      4  C   UNL     1      -0.166  -1.606   1.471  1.00  0.00     0.030 A 
ATOM      5  C   UNL     1       0.930  -2.367   1.886  1.00  0.00     0.049 A 
ATOM      6  C   UNL     1       2.225  -1.900   1.681  1.00  0.00     0.123 A 
ENDROOT
BRANCH   1   7
ATOM      7  C   UNL     1       3.814  -0.114   0.873  1.00  0.00     0.028 A 
ATOM      8  C   UNL     1       4.429  -0.065  -0.399  1.00  0.00     0.126 A 
ATOM      9  C   UNL     1       5.721   0.460  -0.524  1.00  0.00     0.047 A 
ATOM     10  C   UNL     1       6.408   0.929   0.598  1.00  0.00     0.004 A 
ATOM     11  C   UNL     1       4.525   0.366   1.989  1.00  0.00     0.013 A 
ATOM     12  C   UNL     1       5.812   0.882   1.853  1.00  0.00     0.001 A 
BRANCH   8  13
ATOM     13  O   UNL     1       3.687  -0.549  -1.446  1.00  0.00    -0.496 OA
ATOM     14  C   UNL     1       4.321  -0.646  -2.715  1.00  0.00     0.278 C 
ENDBRANCH   8  13
ENDBRANCH   1   7
BRANCH   6  15
ATOM     15  O   UNL     1       3.237  -2.721   2.101  1.00  0.00    -0.507 OA
ATOM     16  H   UNL     1       4.074  -2.374   1.750  1.00  0.00     0.293 HD
ENDBRANCH   6  15
BRANCH   3  17
ATOM     17  N   UNL     1      -1.017   0.456   0.389  1.00  0.00    -0.326 N 
ATOM     18  C   UNL     1      -2.381   0.234   0.487  1.00  0.00     0.227 C 
ATOM     19  H   UNL     1      -0.725   1.318  -0.053  1.00  0.00     0.169 HD
ATOM     20  O   UNL     1      -2.915  -0.726   1.030  1.00  0.00    -0.274 OA
BRANCH  18  21
ATOM     21  C   UNL     1      -3.203   1.351  -0.174  1.00  0.00     0.080 C 
ATOM     22  C   UNL     1      -3.000   1.374  -1.696  1.00  0.00     0.013 C 
ATOM     23  C   UNL     1      -4.697   1.322   0.202  1.00  0.00     0.032 C 
ATOM     24  C   UNL     1      -3.793   0.283  -2.409  1.00  0.00     0.002 C 
ATOM     25  C   UNL     1      -5.572   0.331  -0.586  1.00  0.00     0.051 C 
ATOM     26  C   UNL     1      -5.279   0.391  -2.088  1.00  0.00     0.019 C 
BRANCH  25  27
ATOM     27  N   UNL     1      -5.434  -1.042  -0.102  1.00  0.00    -0.328 NA
ATOM     28  H   UNL     1      -4.440  -1.267   0.031  1.00  0.00     0.119 HD
ATOM     29  H   UNL     1      -5.798  -1.097   0.850  1.00  0.00     0.119 HD
ENDBRANCH  25  27
ENDBRANCH  18  21
ENDBRANCH   3  17
TORSDOF 6
