REMARK SMILES COc1ncc(F)cc1C(=O)N[C@@H]1CCCN(C)C[C@H]1NC(=O)c1cnc(OCCO)c(F)c1
REMARK SMILES IDX 21 1 22 2 23 3 20 5 13 6 12 7 10 8 11 9 9 11 3 12 4 13 5 14
REMARK SMILES IDX 8 15 6 16 7 17 2 18 1 19 14 20 19 22 17 23 18 24 16 25 15 26
REMARK SMILES IDX 24 28 25 29 34 30 26 31 32 32 27 33 33 34 28 35 29 36 30 37
REMARK SMILES IDX 31 38
REMARK H PARENT 21 4 12 10 31 39
REMARK Flexibility Score:   88.900
ROOT
ATOM      1  N   UNL     1       0.526  -0.040  -1.238  1.00  0.00    -0.346 N 
ATOM      2  C   UNL     1       1.604  -0.776  -0.798  1.00  0.00     0.253 C 
ATOM      3  O   UNL     1       1.732  -1.973  -1.012  1.00  0.00    -0.269 OA
ATOM      4  H   UNL     1       0.376   0.880  -0.827  1.00  0.00     0.164 HD
ENDROOT
BRANCH   1   5
ATOM      5  C   UNL     1      -0.694  -0.659  -1.802  1.00  0.00     0.118 C 
BRANCH   5   6
ATOM      6  C   UNL     1      -1.821   0.414  -1.890  1.00  0.00     0.106 C 
BRANCH   6   7
ATOM      7  N   UNL     1      -2.329   0.751  -0.547  1.00  0.00    -0.347 N 
ATOM      8  C   UNL     1      -1.679   1.573   0.341  1.00  0.00     0.257 C 
ATOM      9  O   UNL     1      -0.608   2.112   0.065  1.00  0.00    -0.269 OA
ATOM     10  H   UNL     1      -3.157   0.262  -0.217  1.00  0.00     0.164 HD
BRANCH   8  11
ATOM     11  C   UNL     1      -2.290   1.792   1.683  1.00  0.00     0.104 A 
ATOM     12  C   UNL     1      -3.459   1.178   2.144  1.00  0.00     0.226 A 
ATOM     13  N   UNL     1      -3.986   1.400   3.377  1.00  0.00    -0.218 NA
ATOM     14  C   UNL     1      -3.328   2.266   4.179  1.00  0.00     0.154 A 
ATOM     15  C   UNL     1      -1.640   2.683   2.550  1.00  0.00     0.060 A 
ATOM     16  C   UNL     1      -2.170   2.920   3.808  1.00  0.00     0.142 A 
ATOM     17  F   UNL     1      -1.565   3.766   4.651  1.00  0.00    -0.205 F 
BRANCH  12  18
ATOM     18  O   UNL     1      -4.121   0.289   1.316  1.00  0.00    -0.480 OA
ATOM     19  C   UNL     1      -5.333  -0.223   1.871  1.00  0.00     0.280 C 
ENDBRANCH  12  18
ENDBRANCH   8  11
ENDBRANCH   6   7
BRANCH   6  20
ATOM     20  C   UNL     1      -3.010   0.077  -2.794  1.00  0.00     0.028 CG0
ATOM     21  G   UNL     1      -3.568  -1.338  -2.639  1.00  0.00     0.000 G0
ENDBRANCH   6  20
ENDBRANCH   5   6
BRANCH   5  22
ATOM     22  C   UNL     1      -0.405  -1.381  -3.152  1.00  0.00     0.111 C 
BRANCH  22  23
ATOM     23  N   UNL     1      -1.527  -2.054  -3.849  1.00  0.00    -0.304 NA
ATOM     24  C   UNL     1      -1.025  -3.174  -4.642  1.00  0.00     0.105 C 
BRANCH  23  25
ATOM     25  C   UNL     1      -2.600  -2.484  -2.961  1.00  0.00     0.084 C 
BRANCH  25  26
ATOM     26  C   UNL     1      -3.568  -1.338  -2.639  1.00  0.00     0.018 CG0
ATOM     27  G   UNL     1      -3.010   0.077  -2.794  1.00  0.00     0.000 G0
ENDBRANCH  25  26
ENDBRANCH  23  25
ENDBRANCH  22  23
ENDBRANCH   5  22
ENDBRANCH   1   5
BRANCH   2  28
ATOM     28  C   UNL     1       2.641  -0.065  -0.002  1.00  0.00     0.061 A 
ATOM     29  C   UNL     1       3.613  -0.830   0.642  1.00  0.00     0.129 A 
ATOM     30  C   UNL     1       2.705   1.321   0.147  1.00  0.00     0.060 A 
ATOM     31  N   UNL     1       4.601  -0.320   1.429  1.00  0.00    -0.219 NA
ATOM     32  C   UNL     1       3.701   1.864   0.947  1.00  0.00     0.185 A 
ATOM     33  C   UNL     1       4.607   1.022   1.582  1.00  0.00     0.250 A 
ATOM     34  F   UNL     1       3.762   3.196   1.105  1.00  0.00    -0.201 F 
BRANCH  33  35
ATOM     35  O   UNL     1       5.573   1.609   2.364  1.00  0.00    -0.473 OA
BRANCH  35  36
ATOM     36  C   UNL     1       6.276   0.725   3.252  1.00  0.00     0.259 C 
BRANCH  36  37
ATOM     37  C   UNL     1       7.499   0.109   2.577  1.00  0.00     0.197 C 
BRANCH  37  38
ATOM     38  O   UNL     1       7.185  -1.123   1.931  1.00  0.00    -0.393 OA
ATOM     39  H   UNL     1       6.302  -1.012   1.519  1.00  0.00     0.210 HD
ENDBRANCH  37  38
ENDBRANCH  36  37
ENDBRANCH  35  36
ENDBRANCH  33  35
ENDBRANCH   2  28
TORSDOF 9
