REMARK SMILES COc1ccc(O)c(C(=O)c2ccc(-c3nnc(N[C@@H]4CCCN(C)C[C@H]4NC(=O)c4cnc(OC)c(F)c4)o3)cc2)c1F
REMARK SMILES IDX 19 1 18 3 15 4 16 5 40 6 17 7 14 8 11 9 12 10 42 11 13 12
REMARK SMILES IDX 41 13 9 14 10 15 8 16 3 17 4 18 43 19 5 20 6 21 44 22 2 23
REMARK SMILES IDX 1 24 7 25 20 27 21 28 27 30 26 31 24 32 25 33 23 34 22 35
REMARK SMILES IDX 28 37 29 38 30 40 31 41 32 42 39 43 33 44 37 45 34 46 38 47
REMARK SMILES IDX 35 48 36 49
REMARK H PARENT 19 2 7 26 28 39
REMARK Flexibility Score:  103.900
ROOT
ATOM      1  N   UNL     1      -1.367  -0.472   1.049  1.00  0.00    -0.333 N 
ATOM      2  H   UNL     1      -1.307  -1.481   0.962  1.00  0.00     0.165 HD
ENDROOT
BRANCH   1   3
ATOM      3  C   UNL     1      -0.199   0.140   0.769  1.00  0.00     0.316 A 
ATOM      4  C   UNL     1       1.917   0.241   0.597  1.00  0.00     0.249 A 
ATOM      5  N   UNL     1       1.460   1.435   0.278  1.00  0.00    -0.106 NA
ATOM      6  O   UNL     1       0.914  -0.639   0.911  1.00  0.00    -0.403 OA
ATOM      7  N   UNL     1       0.086   1.364   0.389  1.00  0.00    -0.090 NA
BRANCH   4   8
ATOM      8  C   UNL     1       3.289  -0.244   0.680  1.00  0.00     0.039 A 
ATOM      9  C   UNL     1       5.969  -1.119   0.844  1.00  0.00     0.023 A 
ATOM     10  C   UNL     1       5.683   0.217   0.547  1.00  0.00     0.013 A 
ATOM     11  C   UNL     1       4.917  -2.011   1.081  1.00  0.00     0.013 A 
ATOM     12  C   UNL     1       4.353   0.644   0.456  1.00  0.00     0.014 A 
ATOM     13  C   UNL     1       3.589  -1.578   0.996  1.00  0.00     0.014 A 
BRANCH   9  14
ATOM     14  C   UNL     1       7.360  -1.613   1.001  1.00  0.00     0.199 C 
ATOM     15  O   UNL     1       7.589  -2.489   1.837  1.00  0.00    -0.288 OA
BRANCH  14  16
ATOM     16  C   UNL     1       8.511  -1.063   0.255  1.00  0.00     0.104 A 
ATOM     17  C   UNL     1       9.495  -0.087  -1.753  1.00  0.00     0.155 A 
ATOM     18  C   UNL     1      10.726   0.006  -1.100  1.00  0.00     0.053 A 
ATOM     19  C   UNL     1       8.398  -0.632  -1.068  1.00  0.00     0.179 A 
ATOM     20  C   UNL     1      10.860  -0.458   0.212  1.00  0.00     0.051 A 
ATOM     21  C   UNL     1       9.764  -1.001   0.876  1.00  0.00     0.130 A 
ATOM     22  F   UNL     1       7.228  -0.753  -1.716  1.00  0.00    -0.202 F 
BRANCH  17  23
ATOM     23  O   UNL     1       9.246   0.315  -3.038  1.00  0.00    -0.494 OA
ATOM     24  C   UNL     1      10.334   0.868  -3.770  1.00  0.00     0.278 C 
ENDBRANCH  17  23
BRANCH  21  25
ATOM     25  O   UNL     1       9.988  -1.460   2.147  1.00  0.00    -0.507 OA
ATOM     26  H   UNL     1       9.218  -2.017   2.405  1.00  0.00     0.293 HD
ENDBRANCH  21  25
ENDBRANCH  14  16
ENDBRANCH   9  14
ENDBRANCH   4   8
ENDBRANCH   1   3
BRANCH   1  27
ATOM     27  C   UNL     1      -2.625   0.112   0.550  1.00  0.00     0.107 C 
BRANCH  27  28
ATOM     28  C   UNL     1      -2.967   1.445   1.251  1.00  0.00     0.028 CG0
ATOM     29  G   UNL     1      -3.060   1.354   2.773  1.00  0.00     0.000 G0
ENDBRANCH  27  28
BRANCH  27  30
ATOM     30  C   UNL     1      -3.771  -0.937   0.661  1.00  0.00     0.118 C 
BRANCH  30  31
ATOM     31  C   UNL     1      -4.233  -1.229   2.111  1.00  0.00     0.111 C 
BRANCH  31  32
ATOM     32  N   UNL     1      -5.128  -0.164   2.602  1.00  0.00    -0.304 NA
ATOM     33  C   UNL     1      -6.181  -0.714   3.462  1.00  0.00     0.105 C 
BRANCH  32  34
ATOM     34  C   UNL     1      -4.422   0.910   3.316  1.00  0.00     0.084 C 
BRANCH  34  35
ATOM     35  C   UNL     1      -3.060   1.354   2.773  1.00  0.00     0.018 CG0
ATOM     36  G   UNL     1      -2.967   1.445   1.251  1.00  0.00     0.000 G0
ENDBRANCH  34  35
ENDBRANCH  32  34
ENDBRANCH  31  32
ENDBRANCH  30  31
BRANCH  30  37
ATOM     37  N   UNL     1      -4.944  -0.537  -0.131  1.00  0.00    -0.346 N 
ATOM     38  C   UNL     1      -4.994  -0.649  -1.497  1.00  0.00     0.253 C 
ATOM     39  H   UNL     1      -5.685  -0.119   0.422  1.00  0.00     0.164 HD
ATOM     40  O   UNL     1      -4.102  -1.176  -2.152  1.00  0.00    -0.269 OA
BRANCH  38  41
ATOM     41  C   UNL     1      -6.197  -0.118  -2.179  1.00  0.00     0.061 A 
ATOM     42  C   UNL     1      -6.992   0.885  -1.632  1.00  0.00     0.129 A 
ATOM     43  C   UNL     1      -6.541  -0.611  -3.438  1.00  0.00     0.060 A 
ATOM     44  N   UNL     1      -8.100   1.391  -2.233  1.00  0.00    -0.219 NA
ATOM     45  C   UNL     1      -7.665  -0.105  -4.077  1.00  0.00     0.185 A 
ATOM     46  C   UNL     1      -8.415   0.884  -3.450  1.00  0.00     0.250 A 
ATOM     47  F   UNL     1      -8.008  -0.580  -5.282  1.00  0.00    -0.201 F 
BRANCH  46  48
ATOM     48  O   UNL     1      -9.528   1.353  -4.118  1.00  0.00    -0.479 OA
ATOM     49  C   UNL     1     -10.212   2.386  -3.417  1.00  0.00     0.280 C 
ENDBRANCH  46  48
ENDBRANCH  38  41
ENDBRANCH  30  37
ENDBRANCH  27  30
ENDBRANCH   1  27
TORSDOF 10
