MODEL        2USER    Run = 2USERUSER    Estimated Free Energy of Binding    =  -5.54 kcal/mol  [=(1)+(2)+(3)-(4)]USERUSER    (1) Final Intermolecular Energy     = -10.02 kcal/molUSER        vdW + Hbond + desolv Energy     = -10.41 kcal/molUSER        Electrostatic Energy            =  -0.37 kcal/molUSER        Moving Ligand-Fixed Receptor    = -10.78 kcal/molUSER        Moving Ligand-Moving Receptor   =  +0.76 kcal/molUSER    (2) Final Total Internal Energy     =  -4.15 kcal/molUSER    (3) Torsional Free Energy           =  +4.47 kcal/molUSER    (4) Unbound System's Energy         =  -4.15 kcal/molUSERUSERREMARK SMILES COc1ncc(F)cc1C(=O)N[C@@H]1CCCN(C)C[C@H]1NC(=O)c1cnc(OCCO)c(F)c1REMARK SMILES IDX 21 1 22 2 23 3 20 5 13 6 12 7 10 8 11 9 9 11 3 12 4 13 5 14REMARK SMILES IDX 8 15 6 16 7 17 2 18 1 19 14 20 19 22 17 23 18 24 16 25 15 26REMARK SMILES IDX 24 28 25 29 34 30 26 31 32 32 27 33 33 34 28 35 29 36 30 37REMARK SMILES IDX 31 38REMARK H PARENT 21 4 12 10 31 39REMARK Flexibility Score:   88.900USER                              x       y       z     vdW  Elec       q    TypeUSER                           _______ _______ _______ _____ _____    ______ ____ROOTATOM      1  N   UNL     1      38.950  45.189  22.999 -0.12 -0.03    -0.346 N  ATOM      2  C   UNL     1      39.010  46.390  23.671 -0.23 +0.03    +0.253 C  ATOM      3  O   UNL     1      38.049  46.889  24.240 -0.54 -0.06    -0.269 OA ATOM      4  H   UNL     1      39.713  44.959  22.364 +0.09 +0.01    +0.164 HD ENDROOTBRANCH   1   5ATOM      5  C   UNL     1      37.677  44.501  22.693 -0.33 +0.01    +0.118 C  BRANCH   5   6ATOM      6  C   UNL     1      37.850  43.650  21.399 -0.35 +0.00    +0.106 C  BRANCH   6   7ATOM      7  N   UNL     1      38.147  44.513  20.241 -0.15 +0.01    -0.347 N  ATOM      8  C   UNL     1      39.413  44.888  19.861 -0.27 -0.00    +0.257 C  ATOM      9  O   UNL     1      40.414  44.507  20.466 -0.23 -0.01    -0.269 OA ATOM     10  H   UNL     1      37.363  44.944  19.757 +0.10 -0.01    +0.164 HD BRANCH   8  11ATOM     11  C   UNL     1      39.562  45.801  18.692 -0.36 -0.01    +0.104 A  ATOM     12  C   UNL     1      38.650  45.911  17.637 -0.25 -0.05    +0.226 A  ATOM     13  N   UNL     1      38.817  46.759  16.588 -0.27 +0.07    -0.218 NA ATOM     14  C   UNL     1      39.933  47.521  16.586 -0.39 -0.04    +0.154 A  ATOM     15  C   UNL     1      40.705  46.612  18.649 -0.43 -0.00    +0.060 A  ATOM     16  C   UNL     1      40.888  47.477  17.582 -0.41 -0.02    +0.142 A  ATOM     17  F   UNL     1      41.972  48.261  17.522 -0.17 -0.01    -0.205 F  BRANCH  12  18ATOM     18  O   UNL     1      37.509  45.130  17.652 -0.09 +0.13    -0.480 OA ATOM     19  C   UNL     1      36.404  45.708  16.956 -0.22 -0.14    +0.280 C  ENDBRANCH  12  18ENDBRANCH   8  11ENDBRANCH   6   7BRANCH   6  20ATOM     20  C   UNL     1      36.687  42.723  21.035 -0.50 +0.00    +0.028 CG0ATOM     21  G   UNL     1      36.676  41.374  21.755 +0.00 +0.00    +0.000 G0 ENDBRANCH   6  20ENDBRANCH   5   6BRANCH   5  22ATOM     22  C   UNL     1      37.150  43.689  23.915 -0.32 +0.01    +0.111 C  BRANCH  22  23ATOM     23  N   UNL     1      37.416  42.232  23.964 -0.21 -0.02    -0.304 NA ATOM     24  C   UNL     1      37.564  41.795  25.350 -0.27 -0.01    +0.105 C  BRANCH  23  25ATOM     25  C   UNL     1      36.419  41.427  23.268 -0.40 +0.00    +0.084 C  BRANCH  25  26ATOM     26  C   UNL     1      36.676  41.382  21.756 -0.64 +0.00    +0.018 CG0ATOM     27  G   UNL     1      36.685  42.730  21.035 +0.00 +0.00    +0.000 G0 ENDBRANCH  25  26ENDBRANCH  23  25ENDBRANCH  22  23ENDBRANCH   5  22ENDBRANCH   1   5BRANCH   2  28ATOM     28  C   UNL     1      40.311  47.113  23.671 -0.23 +0.01    +0.061 A  ATOM     29  C   UNL     1      41.229  46.810  22.666 -0.13 +0.01    +0.129 A  ATOM     30  C   UNL     1      40.676  48.074  24.613 -0.27 +0.01    +0.060 A  ATOM     31  N   UNL     1      42.468  47.366  22.559 -0.20 -0.04    -0.219 NA ATOM     32  C   UNL     1      41.935  48.653  24.527 -0.27 +0.03    +0.185 A  ATOM     33  C   UNL     1      42.802  48.263  23.512 -0.24 +0.05    +0.250 A  ATOM     34  F   UNL     1      42.299  49.570  25.437 -0.14 -0.03    -0.201 F  BRANCH  33  35ATOM     35  O   UNL     1      44.037  48.864  23.472 -0.52 -0.15    -0.473 OA BRANCH  35  36ATOM     36  C   UNL     1      45.126  48.084  23.992 -0.15 +0.06    +0.259 C  BRANCH  36  37ATOM     37  C   UNL     1      45.720  47.169  22.924 -0.17 +0.11    +0.197 C  BRANCH  37  38ATOM     38  O   UNL     1      45.161  47.422  21.637 -0.74 -0.36    -0.393 OA ATOM     39  H   UNL     1      44.410  48.039  21.768 -0.39 +0.05    +0.210 HD ENDBRANCH  37  38ENDBRANCH  36  37ENDBRANCH  35  36ENDBRANCH  33  35ENDBRANCH   2  28TORSDOF 9TERENDMDL