MODEL        3USER    Run = 3USERUSER    Estimated Free Energy of Binding    = -12.93 kcal/mol  [=(1)+(2)+(3)-(4)]USERUSER    (1) Final Intermolecular Energy     = -15.02 kcal/molUSER        vdW + Hbond + desolv Energy     = -14.97 kcal/molUSER        Electrostatic Energy            =  -0.05 kcal/molUSER        Moving Ligand-Fixed Receptor    = -15.02 kcal/molUSER        Moving Ligand-Moving Receptor   =  +0.00 kcal/molUSER    (2) Final Total Internal Energy     =  -2.38 kcal/molUSER    (3) Torsional Free Energy           =  +2.09 kcal/molUSER    (4) Unbound System's Energy         =  -2.38 kcal/molUSERUSERREMARK SMILES CN1CCN(c2cnncc2-c2nc3cc(F)ccc3nc2-c2ccc(CN3CCC(n4c(O)nc5cc(F)ccc54)CC3)cc2)CC1REMARK SMILES IDX 23 1 24 2 25 3 26 4 45 5 46 6 22 7 12 8 13 9 14 10 21 11REMARK SMILES IDX 15 12 20 13 16 14 19 15 18 16 17 17 11 18 6 19 7 20 8 21REMARK SMILES IDX 10 22 9 23 5 24 2 25 3 26 48 27 4 28 47 29 1 30 27 31 28 32REMARK SMILES IDX 29 33 44 34 30 35 43 36 31 37 32 38 33 39 42 40 35 41 41 42REMARK SMILES IDX 36 43 40 44 37 45 38 46 39 47 34 48REMARK H PARENT 34 49USER                              x       y       z     vdW  Elec       q    TypeUSER                           _______ _______ _______ _____ _____    ______ ____ROOTATOM      1  C   UNL     1      37.747  44.948  25.449 -0.29 +0.00    +0.002 A  ATOM      2  C   UNL     1      37.131  44.162  24.463 -0.31 +0.00    +0.011 A  ATOM      3  C   UNL     1      37.851  43.676  23.367 -0.33 +0.00    +0.006 A  ATOM      4  C   UNL     1      39.217  43.955  23.225 -0.22 -0.00    -0.034 A  ATOM      5  C   UNL     1      39.850  44.710  24.221 -0.15 +0.00    +0.006 A  ATOM      6  C   UNL     1      39.125  45.194  25.316 -0.16 +0.00    +0.011 A  ENDROOTBRANCH   1   7ATOM      7  C   UNL     1      37.001  45.508  26.592 -0.28 -0.01    +0.097 A  ATOM      8  C   UNL     1      36.207  44.763  27.479 -0.32 -0.02    +0.101 A  ATOM      9  N   UNL     1      35.507  45.374  28.477 -0.33 +0.07    -0.244 NA ATOM     10  C   UNL     1      35.638  46.704  28.609 -0.26 -0.02    +0.092 A  ATOM     11  N   UNL     1      37.108  46.862  26.713 -0.24 +0.03    -0.244 NA ATOM     12  C   UNL     1      34.967  47.354  29.634 -0.33 -0.01    +0.069 A  ATOM     13  C   UNL     1      36.445  47.453  27.722 -0.27 -0.02    +0.090 A  ATOM     14  C   UNL     1      35.084  48.728  29.792 -0.25 -0.01    +0.125 A  ATOM     15  C   UNL     1      36.547  48.828  27.897 -0.29 -0.00    +0.033 A  ATOM     16  C   UNL     1      35.871  49.475  28.930 -0.23 -0.00    +0.041 A  ATOM     17  F   UNL     1      34.433  49.337  30.790 -0.03 +0.00    -0.207 F  BRANCH   8  18ATOM     18  C   UNL     1      36.004  43.308  27.393 -0.44 -0.01    +0.048 A  ATOM     19  C   UNL     1      37.064  42.386  27.288 -0.37 -0.01    +0.068 A  ATOM     20  C   UNL     1      36.702  41.039  27.211 -0.37 -0.05    +0.162 A  ATOM     21  N   UNL     1      35.429  40.582  27.240 -0.51 +0.08    -0.157 NA ATOM     22  C   UNL     1      34.712  42.784  27.442 -0.45 -0.03    +0.148 A  ATOM     23  N   UNL     1      34.420  41.465  27.363 -0.46 +0.06    -0.158 NA BRANCH  19  24ATOM     24  N   UNL     1      38.402  42.810  27.245 -0.09 +0.03    -0.367 N  ATOM     25  N   UNL     1      41.215  41.937  27.829 -0.08 +0.02    -0.303 NA ATOM     26  C   UNL     1      40.734  42.378  26.504 -0.16 -0.01    +0.105 C  ATOM     27  C   UNL     1      40.184  42.118  28.874 -0.18 +0.00    +0.105 C  ATOM     28  C   UNL     1      39.239  42.071  26.278 -0.22 -0.00    +0.132 C  ATOM     29  C   UNL     1      39.057  43.120  28.535 -0.20 -0.00    +0.132 C  ATOM     30  C   UNL     1      42.466  42.610  28.172 -0.09 -0.00    +0.105 C  ENDBRANCH  19  24ENDBRANCH   8  18ENDBRANCH   1   7BRANCH   4  31ATOM     31  C   UNL     1      39.992  43.435  22.032 -0.19 +0.01    +0.120 C  BRANCH  31  32ATOM     32  N   UNL     1      40.155  44.352  20.896 -0.14 -0.01    -0.299 NA ATOM     33  C   UNL     1      41.400  45.125  20.930 -0.33 +0.01    +0.087 C  ATOM     34  C   UNL     1      38.991  45.180  20.603 -0.35 +0.00    +0.087 C  ATOM     35  C   UNL     1      41.423  46.276  19.915 -0.43 +0.00    +0.041 C  ATOM     36  C   UNL     1      39.071  45.691  19.161 -0.40 -0.00    +0.041 C  ATOM     37  C   UNL     1      40.518  45.969  18.716 -0.47 -0.00    +0.095 C  BRANCH  37  38ATOM     38  N   UNL     1      40.594  46.975  17.666 -0.30 +0.04    -0.291 N  ATOM     39  C   UNL     1      41.581  47.906  17.502 -0.15 -0.02    +0.295 A  ATOM     40  C   UNL     1      39.680  47.178  16.653 -0.43 -0.02    +0.072 A  ATOM     41  N   UNL     1      41.397  48.681  16.469 -0.92 +0.00    -0.195 NA ATOM     42  C   UNL     1      38.471  46.559  16.305 -0.39 -0.01    +0.032 A  ATOM     43  C   UNL     1      40.214  48.246  15.923 -0.49 -0.02    +0.095 A  ATOM     44  C   UNL     1      37.803  47.056  15.181 -0.40 -0.02    +0.041 A  ATOM     45  C   UNL     1      39.532  48.727  14.798 -0.43 -0.03    +0.070 A  ATOM     46  C   UNL     1      38.329  48.117  14.448 -0.43 -0.06    +0.125 A  ATOM     47  F   UNL     1      37.659  48.563  13.375 -0.14 +0.06    -0.207 F  BRANCH  39  48ATOM     48  O   UNL     1      42.620  48.045  18.298 -0.31 -0.01    -0.480 OA ATOM     49  H   UNL     1      43.275  47.461  17.872 -0.36 -0.03    +0.296 HD ENDBRANCH  39  48ENDBRANCH  37  38ENDBRANCH  31  32ENDBRANCH   4  31TORSDOF 7TERENDMDL