REMARK SMILES CN1CCN(c2cncc(-c3nc4ccc(F)cc4nc3-c3ccc(CN4CCC(n5c(O)nc6cc(F)ccc65)CC4)cc3)c2)CC1
REMARK SMILES IDX 22 1 23 2 24 3 25 4 44 5 45 6 21 7 11 8 12 9 13 10 20 11
REMARK SMILES IDX 14 12 19 13 15 14 18 15 16 16 17 17 10 18 6 19 7 20 46 21
REMARK SMILES IDX 8 22 9 23 5 24 2 25 3 26 48 27 4 28 47 29 1 30 26 31 27 32
REMARK SMILES IDX 28 33 43 34 29 35 42 36 30 37 31 38 32 39 41 40 34 41 40 42
REMARK SMILES IDX 35 43 39 44 36 45 37 46 38 47 33 48
REMARK H PARENT 33 49
ROOT
ATOM      1  C   UNL     1      -0.898  -2.027   0.291  1.00  0.00     0.002 A 
ATOM      2  C   UNL     1       0.206  -2.652   0.893  1.00  0.00     0.011 A 
ATOM      3  C   UNL     1       1.275  -1.904   1.397  1.00  0.00     0.006 A 
ATOM      4  C   UNL     1       1.273  -0.507   1.301  1.00  0.00    -0.034 A 
ATOM      5  C   UNL     1       0.185   0.124   0.690  1.00  0.00     0.006 A 
ATOM      6  C   UNL     1      -0.880  -0.627   0.185  1.00  0.00     0.011 A 
ENDROOT
BRANCH   1   7
ATOM      7  C   UNL     1      -2.021  -2.829  -0.227  1.00  0.00     0.097 A 
ATOM      8  C   UNL     1      -3.375  -2.597   0.067  1.00  0.00     0.099 A 
ATOM      9  N   UNL     1      -4.361  -3.339  -0.510  1.00  0.00    -0.244 NA
ATOM     10  C   UNL     1      -3.988  -4.329  -1.339  1.00  0.00     0.090 A 
ATOM     11  N   UNL     1      -1.649  -3.838  -1.063  1.00  0.00    -0.244 NA
ATOM     12  C   UNL     1      -4.960  -5.121  -1.940  1.00  0.00     0.033 A 
ATOM     13  C   UNL     1      -2.623  -4.585  -1.614  1.00  0.00     0.092 A 
ATOM     14  C   UNL     1      -4.612  -6.161  -2.800  1.00  0.00     0.041 A 
ATOM     15  C   UNL     1      -2.285  -5.620  -2.472  1.00  0.00     0.069 A 
ATOM     16  C   UNL     1      -3.273  -6.402  -3.056  1.00  0.00     0.125 A 
ATOM     17  F   UNL     1      -2.927  -7.403  -3.875  1.00  0.00    -0.207 F 
BRANCH   8  18
ATOM     18  C   UNL     1      -3.857  -1.595   1.022  1.00  0.00     0.023 A 
ATOM     19  C   UNL     1      -5.171   0.423   1.524  1.00  0.00     0.056 A 
ATOM     20  C   UNL     1      -4.707   0.265   2.835  1.00  0.00     0.136 A 
ATOM     21  C   UNL     1      -4.727  -0.561   0.628  1.00  0.00     0.039 A 
ATOM     22  N   UNL     1      -3.884  -0.717   3.280  1.00  0.00    -0.262 NA
ATOM     23  C   UNL     1      -3.482  -1.620   2.361  1.00  0.00     0.121 A 
BRANCH  19  24
ATOM     24  N   UNL     1      -6.000   1.460   1.136  1.00  0.00    -0.368 N 
ATOM     25  N   UNL     1      -7.386   4.018   0.458  1.00  0.00    -0.303 NA
ATOM     26  C   UNL     1      -7.882   3.057   1.460  1.00  0.00     0.105 C 
ATOM     27  C   UNL     1      -6.283   3.448  -0.345  1.00  0.00     0.105 C 
ATOM     28  C   UNL     1      -6.744   2.255   2.130  1.00  0.00     0.132 C 
ATOM     29  C   UNL     1      -6.090   1.912  -0.261  1.00  0.00     0.132 C 
ATOM     30  C   UNL     1      -8.472   4.518  -0.375  1.00  0.00     0.105 C 
ENDBRANCH  19  24
ENDBRANCH   8  18
ENDBRANCH   1   7
BRANCH   4  31
ATOM     31  C   UNL     1       2.432   0.305   1.838  1.00  0.00     0.120 C 
BRANCH  31  32
ATOM     32  N   UNL     1       3.710   0.018   1.165  1.00  0.00    -0.299 NA
ATOM     33  C   UNL     1       4.819   0.695   1.833  1.00  0.00     0.087 C 
ATOM     34  C   UNL     1       3.654   0.317  -0.274  1.00  0.00     0.087 C 
ATOM     35  C   UNL     1       6.150   0.146   1.320  1.00  0.00     0.041 C 
ATOM     36  C   UNL     1       5.006   0.691  -0.887  1.00  0.00     0.041 C 
ATOM     37  C   UNL     1       6.155  -0.054  -0.204  1.00  0.00     0.095 C 
BRANCH  37  38
ATOM     38  N   UNL     1       7.444   0.257  -0.808  1.00  0.00    -0.291 N 
ATOM     39  C   UNL     1       8.239  -0.637  -1.471  1.00  0.00     0.295 A 
ATOM     40  C   UNL     1       8.088   1.478  -0.856  1.00  0.00     0.072 A 
ATOM     41  N   UNL     1       9.323  -0.101  -1.959  1.00  0.00    -0.195 NA
ATOM     42  C   UNL     1       7.792   2.752  -0.348  1.00  0.00     0.032 A 
ATOM     43  C   UNL     1       9.250   1.220  -1.589  1.00  0.00     0.095 A 
ATOM     44  C   UNL     1       8.713   3.772  -0.607  1.00  0.00     0.041 A 
ATOM     45  C   UNL     1      10.156   2.259  -1.846  1.00  0.00     0.070 A 
ATOM     46  C   UNL     1       9.866   3.523  -1.343  1.00  0.00     0.125 A 
ATOM     47  F   UNL     1      10.724   4.529  -1.569  1.00  0.00    -0.207 F 
BRANCH  39  48
ATOM     48  O   UNL     1       7.972  -1.918  -1.617  1.00  0.00    -0.480 OA
ATOM     49  H   UNL     1       8.754  -2.222  -2.114  1.00  0.00     0.296 HD
ENDBRANCH  39  48
ENDBRANCH  37  38
ENDBRANCH  31  32
ENDBRANCH   4  31
TORSDOF 7
