MODEL        4USER    Run = 4USERUSER    Estimated Free Energy of Binding    = -12.59 kcal/mol  [=(1)+(2)+(3)-(4)]USERUSER    (1) Final Intermolecular Energy     = -15.57 kcal/molUSER        vdW + Hbond + desolv Energy     = -15.34 kcal/molUSER        Electrostatic Energy            =  -0.23 kcal/molUSER        Moving Ligand-Fixed Receptor    = -15.57 kcal/molUSER        Moving Ligand-Moving Receptor   =  +0.00 kcal/molUSER    (2) Final Total Internal Energy     =  -2.80 kcal/molUSER    (3) Torsional Free Energy           =  +2.98 kcal/molUSER    (4) Unbound System's Energy         =  -2.80 kcal/molUSERUSERREMARK SMILES Oc1nc2cc(F)ccc2n1C1CCN(Cc2ccc(-c3nc4cc(F)ccc4nc3-c3ccc(OCCN4CCOCC4)cc3)cc2)CC1REMARK SMILES IDX 21 1 22 2 23 3 24 4 25 5 26 6 27 7 28 8 29 9 30 10 31 11REMARK SMILES IDX 20 12 17 13 18 14 48 15 19 16 47 17 16 18 15 19 12 20 13 21REMARK SMILES IDX 50 22 14 23 49 24 11 25 2 26 3 27 4 28 10 29 5 30 9 31 6 32REMARK SMILES IDX 8 33 7 34 1 35 32 37 33 38 46 39 34 40 45 41 35 42 36 43REMARK SMILES IDX 37 44 38 45 39 46 40 47 44 48 41 49 43 50 42 51REMARK H PARENT 1 36USER                              x       y       z     vdW  Elec       q    TypeUSER                           _______ _______ _______ _____ _____    ______ ____ROOTATOM      1  C   UNL     1      33.601  42.561  17.392 -0.31 -0.04    +0.097 A  ATOM      2  N   UNL     1      32.480  42.009  16.847 -0.08 +0.12    -0.244 NA ATOM      3  C   UNL     1      31.751  41.190  17.624 -0.29 -0.02    +0.092 A  ATOM      4  C   UNL     1      30.607  40.601  17.107 -0.31 -0.01    +0.069 A  ATOM      5  C   UNL     1      29.843  39.744  17.888 -0.26 +0.01    +0.125 A  ATOM      6  F   UNL     1      28.742  39.184  17.372 -0.07 -0.10    -0.207 F  ATOM      7  C   UNL     1      30.204  39.463  19.195 -0.28 +0.00    +0.041 A  ATOM      8  C   UNL     1      31.352  40.053  19.723 -0.27 +0.00    +0.033 A  ATOM      9  C   UNL     1      32.133  40.913  18.959 -0.32 +0.00    +0.090 A  ATOM     10  N   UNL     1      33.228  41.468  19.504 -0.29 -0.03    -0.244 NA ATOM     11  C   UNL     1      33.961  42.314  18.726 -0.34 -0.01    +0.097 A  ENDROOTBRANCH   1  12ATOM     12  C   UNL     1      34.376  43.391  16.459 -0.38 -0.00    +0.002 A  ATOM     13  C   UNL     1      35.857  44.946  14.611 -0.28 +0.02    -0.034 A  ATOM     14  C   UNL     1      36.374  43.742  15.101 -0.29 -0.00    +0.006 A  ATOM     15  C   UNL     1      34.611  45.384  15.076 -0.30 -0.00    +0.006 A  ATOM     16  C   UNL     1      35.647  42.981  16.022 -0.44 -0.00    +0.011 A  ATOM     17  C   UNL     1      33.878  44.614  15.983 -0.31 -0.01    +0.011 A  BRANCH  13  18ATOM     18  C   UNL     1      36.618  45.769  13.591 -0.45 -0.05    +0.120 C  BRANCH  18  19ATOM     19  N   UNL     1      37.359  46.891  14.182 -0.21 +0.14    -0.299 NA ATOM     20  C   UNL     1      39.122  46.684  16.580 -0.43 -0.03    +0.095 C  ATOM     21  C   UNL     1      38.016  47.743  16.448 -0.13 -0.03    +0.041 C  ATOM     22  C   UNL     1      39.438  45.990  15.243 -0.39 -0.01    +0.041 C  ATOM     23  C   UNL     1      36.903  47.211  15.541 -0.41 -0.07    +0.087 C  ATOM     24  C   UNL     1      38.811  46.724  14.062 -0.40 -0.02    +0.087 C  BRANCH  20  25ATOM     25  N   UNL     1      40.314  47.190  17.248 -0.30 +0.05    -0.291 N  ATOM     26  C   UNL     1      41.096  48.235  16.839 -0.27 -0.03    +0.295 A  ATOM     27  N   UNL     1      42.121  48.449  17.616 -0.51 -0.02    -0.195 NA ATOM     28  C   UNL     1      42.020  47.487  18.591 -0.43 -0.00    +0.095 A  ATOM     29  C   UNL     1      40.901  46.674  18.389 -0.45 -0.00    +0.072 A  ATOM     30  C   UNL     1      42.862  47.250  19.686 -0.44 +0.01    +0.070 A  ATOM     31  C   UNL     1      40.580  45.609  19.245 -0.42 +0.00    +0.032 A  ATOM     32  C   UNL     1      42.547  46.196  20.541 -0.25 +0.03    +0.125 A  ATOM     33  C   UNL     1      41.434  45.388  20.331 -0.35 +0.01    +0.041 A  ATOM     34  F   UNL     1      43.340  45.950  21.593 -0.07 -0.09    -0.207 F  BRANCH  26  35ATOM     35  O   UNL     1      40.878  48.960  15.761 -0.39 +0.08    -0.480 OA ATOM     36  H   UNL     1      40.626  49.816  16.152 +0.23 -0.09    +0.296 HD ENDBRANCH  26  35ENDBRANCH  20  25ENDBRANCH  18  19ENDBRANCH  13  18ENDBRANCH   1  12BRANCH  11  37ATOM     37  C   UNL     1      35.102  42.937  19.428 -0.42 -0.00    +0.003 A  ATOM     38  C   UNL     1      35.721  44.088  18.910 -0.35 -0.00    +0.014 A  ATOM     39  C   UNL     1      35.641  42.388  20.601 -0.46 +0.00    +0.014 A  ATOM     40  C   UNL     1      36.814  44.688  19.554 -0.23 -0.01    +0.047 A  ATOM     41  C   UNL     1      36.730  42.989  21.244 -0.41 +0.00    +0.047 A  ATOM     42  C   UNL     1      37.318  44.146  20.732 -0.31 -0.00    +0.119 A  BRANCH  42  43ATOM     43  O   UNL     1      38.365  44.617  21.471 -0.11 -0.02    -0.492 OA BRANCH  43  44ATOM     44  C   UNL     1      39.363  43.705  21.931 -0.16 +0.01    +0.245 C  BRANCH  44  45ATOM     45  C   UNL     1      38.973  43.031  23.263 -0.25 +0.01    +0.126 C  BRANCH  45  46ATOM     46  N   UNL     1      38.867  43.934  24.425 -0.07 -0.01    -0.295 NA ATOM     47  C   UNL     1      39.580  45.211  24.202 -0.17 +0.01    +0.113 C  ATOM     48  C   UNL     1      37.471  44.176  24.840 -0.30 +0.01    +0.113 C  ATOM     49  C   UNL     1      38.642  46.374  23.837 -0.26 +0.02    +0.175 C  ATOM     50  C   UNL     1      37.324  45.488  25.627 -0.28 +0.00    +0.175 C  ATOM     51  O   UNL     1      37.653  46.642  24.840 -0.68 -0.08    -0.379 OA ENDBRANCH  45  46ENDBRANCH  44  45ENDBRANCH  43  44ENDBRANCH  42  43ENDBRANCH  11  37TORSDOF 10TERENDMDL