MODEL        4USER    Run = 4USERUSER    Estimated Free Energy of Binding    =  -6.46 kcal/mol  [=(1)+(2)+(3)-(4)]USERUSER    (1) Final Intermolecular Energy     = -11.24 kcal/molUSER        vdW + Hbond + desolv Energy     = -11.93 kcal/molUSER        Electrostatic Energy            =  -0.03 kcal/molUSER        Moving Ligand-Fixed Receptor    = -11.96 kcal/molUSER        Moving Ligand-Moving Receptor   =  +0.73 kcal/molUSER    (2) Final Total Internal Energy     =  -3.72 kcal/molUSER    (3) Torsional Free Energy           =  +4.77 kcal/molUSER    (4) Unbound System's Energy         =  -3.72 kcal/molUSERUSERREMARK SMILES COc1ccc(O)c(C(=O)c2ccc(-c3nnc(N[C@@H]4CCCN(C)C[C@H]4NC(=O)c4cnc(OC)c(F)c4)o3)cc2)c1FREMARK SMILES IDX 19 1 18 3 15 4 16 5 40 6 17 7 14 8 11 9 12 10 42 11 13 12REMARK SMILES IDX 41 13 9 14 10 15 8 16 3 17 4 18 43 19 5 20 6 21 44 22 2 23REMARK SMILES IDX 1 24 7 25 20 27 21 28 27 30 26 31 24 32 25 33 23 34 22 35REMARK SMILES IDX 28 37 29 38 30 40 31 41 32 42 39 43 33 44 37 45 34 46 38 47REMARK SMILES IDX 35 48 36 49REMARK H PARENT 19 2 7 26 28 39REMARK Flexibility Score:  103.900USER                              x       y       z     vdW  Elec       q    TypeUSER                           _______ _______ _______ _____ _____    ______ ____ROOTATOM      1  N   UNL     1      38.725  48.161  15.931 -0.22 +0.18    -0.333 N  ATOM      2  H   UNL     1      37.910  48.198  16.534 +0.11 -0.13    +0.165 HD ENDROOTBRANCH   1   3ATOM      3  C   UNL     1      39.879  48.136  16.626 -0.16 -0.10    +0.316 A  ATOM      4  C   UNL     1      41.185  47.426  18.146 -0.30 -0.02    +0.249 A  ATOM      5  N   UNL     1      41.822  48.406  17.535 -0.77 -0.00    -0.106 NA ATOM      6  O   UNL     1      39.945  47.192  17.612 -0.26 +0.08    -0.403 OA ATOM      7  N   UNL     1      40.971  48.862  16.548 -0.79 +0.01    -0.090 NA BRANCH   4   8ATOM      8  C   UNL     1      41.596  46.608  19.280 -0.45 +0.00    +0.039 A  ATOM      9  C   UNL     1      42.426  45.076  21.502 -0.25 +0.01    +0.023 A  ATOM     10  C   UNL     1      43.050  46.294  21.216 -0.30 +0.00    +0.013 A  ATOM     11  C   UNL     1      41.373  44.635  20.691 -0.34 +0.00    +0.013 A  ATOM     12  C   UNL     1      42.643  47.045  20.107 -0.43 +0.00    +0.014 A  ATOM     13  C   UNL     1      40.965  45.393  19.588 -0.41 +0.00    +0.014 A  BRANCH   9  14ATOM     14  C   UNL     1      42.784  44.265  22.692 -0.17 +0.03    +0.199 C  ATOM     15  O   UNL     1      43.894  43.731  22.735 -0.16 -0.06    -0.288 OA BRANCH  14  16ATOM     16  C   UNL     1      41.855  43.999  23.810 -0.12 +0.00    +0.104 A  ATOM     17  C   UNL     1      39.845  44.514  25.095 -0.08 +0.00    +0.155 A  ATOM     18  C   UNL     1      40.105  43.425  25.930 -0.14 -0.00    +0.053 A  ATOM     19  C   UNL     1      40.733  44.796  24.045 -0.07 +0.01    +0.179 A  ATOM     20  C   UNL     1      41.246  42.643  25.728 -0.12 -0.00    +0.051 A  ATOM     21  C   UNL     1      42.120  42.940  24.685 -0.13 -0.01    +0.130 A  ATOM     22  F   UNL     1      40.496  45.867  23.270 -0.03 -0.01    -0.202 F  BRANCH  17  23ATOM     23  O   UNL     1      38.774  45.360  25.204 -0.02 -0.02    -0.494 OA ATOM     24  C   UNL     1      37.657  45.109  24.358 -0.19 +0.04    +0.278 C  ENDBRANCH  17  23BRANCH  21  25ATOM     25  O   UNL     1      43.230  42.144  24.576 -0.07 +0.05    -0.507 OA ATOM     26  H   UNL     1      43.795  42.515  23.860 +0.09 -0.01    +0.293 HD ENDBRANCH  21  25ENDBRANCH  14  16ENDBRANCH   9  14ENDBRANCH   4   8ENDBRANCH   1   3BRANCH   1  27ATOM     27  C   UNL     1      38.575  47.290  14.752 -0.46 -0.04    +0.107 C  BRANCH  27  28ATOM     28  C   UNL     1      38.354  48.098  13.454 -0.35 -0.01    +0.028 CG0ATOM     29  G   UNL     1      36.905  48.138  12.972 +0.00 +0.00    +0.000 G0 ENDBRANCH  27  28BRANCH  27  30ATOM     30  C   UNL     1      37.447  46.247  15.009 -0.37 -0.05    +0.118 C  BRANCH  30  31ATOM     31  C   UNL     1      37.399  45.088  13.981 -0.37 -0.04    +0.111 C  BRANCH  31  32ATOM     32  N   UNL     1      37.196  45.606  12.615 -0.27 +0.10    -0.304 NA ATOM     33  C   UNL     1      36.674  44.562  11.727 -0.36 -0.03    +0.105 C  BRANCH  32  34ATOM     34  C   UNL     1      36.317  46.782  12.560 -0.66 -0.04    +0.084 C  BRANCH  34  35ATOM     35  C   UNL     1      36.906  48.135  12.971 -0.61 -0.01    +0.018 CG0ATOM     36  G   UNL     1      38.358  48.093  13.445 +0.00 +0.00    +0.000 G0 ENDBRANCH  34  35ENDBRANCH  32  34ENDBRANCH  31  32ENDBRANCH  30  31BRANCH  30  37ATOM     37  N   UNL     1      37.546  45.670  16.358 -0.12 +0.13    -0.346 N  ATOM     38  C   UNL     1      36.641  44.764  16.850 -0.22 -0.09    +0.253 C  ATOM     39  H   UNL     1      38.310  46.049  16.908 +0.10 -0.05    +0.164 HD ATOM     40  O   UNL     1      35.735  44.297  16.170 -0.21 +0.11    -0.269 OA BRANCH  38  41ATOM     41  C   UNL     1      36.803  44.338  18.259 -0.30 -0.01    +0.061 A  ATOM     42  C   UNL     1      37.879  44.736  19.048 -0.28 -0.01    +0.129 A  ATOM     43  C   UNL     1      35.828  43.530  18.844 -0.31 -0.01    +0.060 A  ATOM     44  N   UNL     1      38.054  44.361  20.342 -0.23 +0.00    -0.219 NA ATOM     45  C   UNL     1      35.980  43.139  20.168 -0.31 -0.01    +0.185 A  ATOM     46  C   UNL     1      37.095  43.567  20.878 -0.23 +0.00    +0.250 A  ATOM     47  F   UNL     1      35.052  42.355  20.734 -0.12 -0.02    -0.201 F  BRANCH  46  48ATOM     48  O   UNL     1      37.210  43.149  22.189 -0.13 -0.03    -0.479 OA ATOM     49  C   UNL     1      37.330  41.737  22.321 -0.36 +0.02    +0.280 C  ENDBRANCH  46  48ENDBRANCH  38  41ENDBRANCH  30  37ENDBRANCH  27  30ENDBRANCH   1  27TORSDOF 10TERENDMDL