MODEL        7USER    Run = 7USERUSER    Estimated Free Energy of Binding    = -13.04 kcal/mol  [=(1)+(2)+(3)-(4)]USERUSER    (1) Final Intermolecular Energy     = -15.13 kcal/molUSER        vdW + Hbond + desolv Energy     = -14.68 kcal/molUSER        Electrostatic Energy            =  -0.45 kcal/molUSER        Moving Ligand-Fixed Receptor    = -15.13 kcal/molUSER        Moving Ligand-Moving Receptor   =  +0.00 kcal/molUSER    (2) Final Total Internal Energy     =  -1.66 kcal/molUSER    (3) Torsional Free Energy           =  +2.09 kcal/molUSER    (4) Unbound System's Energy         =  -1.66 kcal/molUSERUSERREMARK SMILES CN1CCN(c2cncc(-c3nc4ccc(F)cc4nc3-c3ccc(CN4CCC(n5c(O)nc6cc(F)ccc65)CC4)cc3)c2)CC1REMARK SMILES IDX 22 1 23 2 24 3 25 4 44 5 45 6 21 7 11 8 12 9 13 10 20 11REMARK SMILES IDX 14 12 19 13 15 14 18 15 16 16 17 17 10 18 6 19 7 20 46 21REMARK SMILES IDX 8 22 9 23 5 24 2 25 3 26 48 27 4 28 47 29 1 30 26 31 27 32REMARK SMILES IDX 28 33 43 34 29 35 42 36 30 37 31 38 32 39 41 40 34 41 40 42REMARK SMILES IDX 35 43 39 44 36 45 37 46 38 47 33 48REMARK H PARENT 33 49USER                              x       y       z     vdW  Elec       q    TypeUSER                           _______ _______ _______ _____ _____    ______ ____ROOTATOM      1  C   UNL     1      35.932  44.424  18.949 -0.36 -0.00    +0.002 A  ATOM      2  C   UNL     1      35.940  43.648  17.778 -0.31 -0.00    +0.011 A  ATOM      3  C   UNL     1      35.067  43.924  16.721 -0.33 -0.00    +0.006 A  ATOM      4  C   UNL     1      34.150  44.979  16.813 -0.30 +0.02    -0.034 A  ATOM      5  C   UNL     1      34.124  45.748  17.981 -0.45 -0.00    +0.006 A  ATOM      6  C   UNL     1      34.997  45.467  19.036 -0.22 -0.00    +0.011 A  ENDROOTBRANCH   1   7ATOM      7  C   UNL     1      36.866  44.126  20.050 -0.32 -0.01    +0.097 A  ATOM      8  C   UNL     1      38.226  44.475  20.064 -0.30 -0.00    +0.099 A  ATOM      9  N   UNL     1      39.008  44.229  21.152 -0.17 -0.01    -0.244 NA ATOM     10  C   UNL     1      38.439  43.601  22.196 -0.27 +0.00    +0.090 A  ATOM     11  N   UNL     1      36.296  43.485  21.108 -0.26 -0.01    -0.244 NA ATOM     12  C   UNL     1      39.203  43.317  23.323 -0.24 +0.00    +0.033 A  ATOM     13  C   UNL     1      37.076  43.221  22.173 -0.35 +0.01    +0.092 A  ATOM     14  C   UNL     1      38.650  42.662  24.422 -0.19 +0.00    +0.041 A  ATOM     15  C   UNL     1      36.532  42.572  23.271 -0.30 +0.01    +0.069 A  ATOM     16  C   UNL     1      37.316  42.293  24.383 -0.30 +0.00    +0.125 A  ATOM     17  F   UNL     1      36.776  41.657  25.430 -0.10 +0.03    -0.207 F  BRANCH   8  18ATOM     18  C   UNL     1      38.939  45.084  18.937 -0.39 -0.00    +0.023 A  ATOM     19  C   UNL     1      38.917  46.216  16.753 -0.38 -0.01    +0.056 A  ATOM     20  C   UNL     1      40.313  46.183  16.846 -0.34 -0.02    +0.136 A  ATOM     21  C   UNL     1      38.248  45.659  17.854 -0.36 -0.01    +0.039 A  ATOM     22  N   UNL     1      41.036  45.660  17.869 -0.27 +0.01    -0.262 NA ATOM     23  C   UNL     1      40.328  45.125  18.886 -0.36 -0.00    +0.121 A  BRANCH  19  24ATOM     24  N   UNL     1      38.245  46.754  15.671 -0.13 +0.15    -0.368 N  ATOM     25  N   UNL     1      37.263  47.861  13.076 -0.80 +0.09    -0.303 NA ATOM     26  C   UNL     1      37.301  48.630  14.334 -0.53 -0.07    +0.105 C  ATOM     27  C   UNL     1      37.515  46.423  13.308 -0.47 -0.04    +0.105 C  ATOM     28  C   UNL     1      38.429  48.164  15.282 -0.48 -0.07    +0.132 C  ATOM     29  C   UNL     1      37.416  45.932  14.775 -0.36 -0.05    +0.132 C  ATOM     30  C   UNL     1      36.018  48.093  12.355 -0.51 -0.05    +0.105 C  ENDBRANCH  19  24ENDBRANCH   8  18ENDBRANCH   1   7BRANCH   4  31ATOM     31  C   UNL     1      33.198  45.274  15.675 -0.29 -0.10    +0.120 C  BRANCH  31  32ATOM     32  N   UNL     1      31.810  44.866  15.951 -0.29 +0.15    -0.299 NA ATOM     33  C   UNL     1      31.601  43.459  15.618 -0.36 -0.05    +0.087 C  ATOM     34  C   UNL     1      30.835  45.750  15.294 -0.47 -0.04    +0.087 C  ATOM     35  C   UNL     1      30.268  42.980  16.193 -0.33 -0.02    +0.041 C  ATOM     36  C   UNL     1      29.503  45.072  14.962 -0.30 -0.03    +0.041 C  ATOM     37  C   UNL     1      29.142  44.009  16.001 -0.27 -0.05    +0.095 C  BRANCH  37  38ATOM     38  N   UNL     1      27.854  43.387  15.723 -0.10 +0.18    -0.291 N  ATOM     39  C   UNL     1      26.867  43.934  14.950 +0.02 -0.22    +0.295 A  ATOM     40  C   UNL     1      27.395  42.155  16.145 -0.20 -0.03    +0.072 A  ATOM     41  N   UNL     1      25.826  43.159  14.817 -0.20 +0.09    -0.195 NA ATOM     42  C   UNL     1      27.931  41.148  16.963 -0.22 -0.00    +0.032 A  ATOM     43  C   UNL     1      26.134  42.041  15.554 -0.25 -0.03    +0.095 A  ATOM     44  C   UNL     1      27.147  40.008  17.168 -0.24 +0.01    +0.041 A  ATOM     45  C   UNL     1      25.368  40.886  15.764 -0.24 -0.01    +0.070 A  ATOM     46  C   UNL     1      25.895  39.886  16.576 -0.28 +0.02    +0.125 A  ATOM     47  F   UNL     1      25.175  38.777  16.798 -0.14 -0.03    -0.207 F  BRANCH  39  48ATOM     48  O   UNL     1      26.924  45.122  14.384 -0.03 +0.33    -0.480 OA ATOM     49  H   UNL     1      27.378  44.914  13.547 -0.34 -0.58    +0.296 HD ENDBRANCH  39  48ENDBRANCH  37  38ENDBRANCH  31  32ENDBRANCH   4  31TORSDOF 7TERENDMDL