REMARK SMILES Oc1nc2cc(F)ccc2n1C1CCN(Cc2ccc(-c3nc4cc(F)ccc4nc3-c3ccc(OCCN4CCOCC4)cc3)cc2)CC1
REMARK SMILES IDX 21 1 22 2 23 3 24 4 25 5 26 6 27 7 28 8 29 9 30 10 31 11
REMARK SMILES IDX 20 12 17 13 18 14 48 15 19 16 47 17 16 18 15 19 12 20 13 21
REMARK SMILES IDX 50 22 14 23 49 24 11 25 2 26 3 27 4 28 10 29 5 30 9 31 6 32
REMARK SMILES IDX 8 33 7 34 1 35 32 37 33 38 46 39 34 40 45 41 35 42 36 43
REMARK SMILES IDX 37 44 38 45 39 46 40 47 44 48 41 49 43 50 42 51
REMARK H PARENT 1 36
ROOT
ATOM      1  C   UNL     1       1.099  -3.488   0.234  1.00  0.00     0.097 A 
ATOM      2  N   UNL     1       0.542  -4.704   0.499  1.00  0.00    -0.244 NA
ATOM      3  C   UNL     1       1.371  -5.757   0.597  1.00  0.00     0.092 A 
ATOM      4  C   UNL     1       0.846  -7.014   0.858  1.00  0.00     0.069 A 
ATOM      5  C   UNL     1       1.681  -8.119   0.955  1.00  0.00     0.125 A 
ATOM      6  F   UNL     1       1.157  -9.324   1.207  1.00  0.00    -0.207 F 
ATOM      7  C   UNL     1       3.051  -7.989   0.795  1.00  0.00     0.041 A 
ATOM      8  C   UNL     1       3.586  -6.729   0.534  1.00  0.00     0.033 A 
ATOM      9  C   UNL     1       2.769  -5.609   0.432  1.00  0.00     0.090 A 
ATOM     10  N   UNL     1       3.322  -4.410   0.186  1.00  0.00    -0.244 NA
ATOM     11  C   UNL     1       2.488  -3.334   0.104  1.00  0.00     0.097 A 
ENDROOT
BRANCH   1  12
ATOM     12  C   UNL     1       0.121  -2.401   0.078  1.00  0.00     0.002 A 
ATOM     13  C   UNL     1      -1.724  -0.268  -0.185  1.00  0.00    -0.034 A 
ATOM     14  C   UNL     1      -1.614  -0.967   1.022  1.00  0.00     0.006 A 
ATOM     15  C   UNL     1      -0.931  -0.664  -1.269  1.00  0.00     0.006 A 
ATOM     16  C   UNL     1      -0.710  -2.027   1.147  1.00  0.00     0.011 A 
ATOM     17  C   UNL     1      -0.016  -1.713  -1.137  1.00  0.00     0.011 A 
BRANCH  13  18
ATOM     18  C   UNL     1      -2.676   0.902  -0.329  1.00  0.00     0.120 C 
BRANCH  18  19
ATOM     19  N   UNL     1      -3.934   0.552  -1.002  1.00  0.00    -0.299 NA
ATOM     20  C   UNL     1      -6.645   1.362  -0.056  1.00  0.00     0.095 C 
ATOM     21  C   UNL     1      -6.285  -0.091  -0.406  1.00  0.00     0.041 C 
ATOM     22  C   UNL     1      -5.596   2.369  -0.560  1.00  0.00     0.041 C 
ATOM     23  C   UNL     1      -4.788  -0.316  -0.179  1.00  0.00     0.087 C 
ATOM     24  C   UNL     1      -4.622   1.728  -1.543  1.00  0.00     0.087 C 
BRANCH  20  25
ATOM     25  N   UNL     1      -8.003   1.719  -0.448  1.00  0.00    -0.291 N 
ATOM     26  C   UNL     1      -8.492   1.784  -1.723  1.00  0.00     0.295 A 
ATOM     27  N   UNL     1      -9.739   2.162  -1.780  1.00  0.00    -0.195 NA
ATOM     28  C   UNL     1     -10.095   2.369  -0.470  1.00  0.00     0.095 A 
ATOM     29  C   UNL     1      -9.028   2.107   0.395  1.00  0.00     0.072 A 
ATOM     30  C   UNL     1     -11.326   2.789   0.054  1.00  0.00     0.070 A 
ATOM     31  C   UNL     1      -9.134   2.253   1.787  1.00  0.00     0.032 A 
ATOM     32  C   UNL     1     -11.438   2.933   1.435  1.00  0.00     0.125 A 
ATOM     33  C   UNL     1     -10.370   2.674   2.289  1.00  0.00     0.041 A 
ATOM     34  F   UNL     1     -12.605   3.335   1.956  1.00  0.00    -0.207 F 
BRANCH  26  35
ATOM     35  O   UNL     1      -7.797   1.519  -2.810  1.00  0.00    -0.480 OA
ATOM     36  H   UNL     1      -8.462   1.670  -3.506  1.00  0.00     0.296 HD
ENDBRANCH  26  35
ENDBRANCH  20  25
ENDBRANCH  18  19
ENDBRANCH  13  18
ENDBRANCH   1  12
BRANCH  11  37
ATOM     37  C   UNL     1       3.186  -2.047  -0.092  1.00  0.00     0.003 A 
ATOM     38  C   UNL     1       4.154  -1.902  -1.101  1.00  0.00     0.014 A 
ATOM     39  C   UNL     1       2.950  -0.941   0.739  1.00  0.00     0.014 A 
ATOM     40  C   UNL     1       4.837  -0.692  -1.296  1.00  0.00     0.047 A 
ATOM     41  C   UNL     1       3.631   0.266   0.542  1.00  0.00     0.047 A 
ATOM     42  C   UNL     1       4.571   0.403  -0.480  1.00  0.00     0.119 A 
BRANCH  42  43
ATOM     43  O   UNL     1       5.147   1.639  -0.551  1.00  0.00    -0.492 OA
BRANCH  43  44
ATOM     44  C   UNL     1       6.032   1.937  -1.632  1.00  0.00     0.245 C 
BRANCH  44  45
ATOM     45  C   UNL     1       7.500   1.598  -1.299  1.00  0.00     0.126 C 
BRANCH  45  46
ATOM     46  N   UNL     1       8.063   2.295  -0.127  1.00  0.00    -0.295 NA
ATOM     47  C   UNL     1       9.445   1.859   0.167  1.00  0.00     0.113 C 
ATOM     48  C   UNL     1       7.988   3.765  -0.241  1.00  0.00     0.113 C 
ATOM     49  C   UNL     1      10.512   2.854  -0.319  1.00  0.00     0.175 C 
ATOM     50  C   UNL     1       9.029   4.465   0.646  1.00  0.00     0.175 C 
ATOM     51  O   UNL     1      10.377   4.159   0.260  1.00  0.00    -0.379 OA
ENDBRANCH  45  46
ENDBRANCH  44  45
ENDBRANCH  43  44
ENDBRANCH  42  43
ENDBRANCH  11  37
TORSDOF 10
