MODEL        6USER    Run = 6USERUSER    Estimated Free Energy of Binding    =  -9.23 kcal/mol  [=(1)+(2)+(3)-(4)]USERUSER    (1) Final Intermolecular Energy     = -11.62 kcal/molUSER        vdW + Hbond + desolv Energy     = -11.61 kcal/molUSER        Electrostatic Energy            =  -0.00 kcal/molUSER        Moving Ligand-Fixed Receptor    = -11.62 kcal/molUSER        Moving Ligand-Moving Receptor   =  +0.00 kcal/molUSER    (2) Final Total Internal Energy     =  -1.88 kcal/molUSER    (3) Torsional Free Energy           =  +2.39 kcal/molUSER    (4) Unbound System's Energy         =  -1.88 kcal/molUSERUSERREMARK SMILES CSc1ncc2c(n1)CN(C(=O)[C@H](N)Cc1ccc(C(C)(C)C)cc1)C[C@@H]2OREMARK SMILES IDX 13 1 11 2 12 3 10 4 3 5 4 6 8 7 5 8 7 9 6 10 9 11 27 12REMARK SMILES IDX 26 13 2 14 1 15 28 16 14 18 15 21 16 22 17 23 25 24 18 25REMARK SMILES IDX 24 26 19 27 20 28 21 29 22 30 23 31REMARK H PARENT 28 17 14 19 14 20USER                              x       y       z     vdW  Elec       q    TypeUSER                           _______ _______ _______ _____ _____    ______ ____ROOTATOM      1  C   UNL     1      41.184  47.500  18.048 -0.45 -0.01    +0.145 C  ENDROOTBRANCH   1   2ATOM      2  C   UNL     1      40.761  48.149  16.700 -0.41 -0.04    +0.240 C  ATOM      3  O   UNL     1      41.378  49.124  16.259 -1.01 +0.00    -0.273 OA BRANCH   2   4ATOM      4  N   UNL     1      39.675  47.615  16.009 -0.24 +0.10    -0.332 N  ATOM      5  C   UNL     1      35.133  46.073  16.230 -0.16 -0.19    +0.187 A  ATOM      6  N   UNL     1      34.949  46.202  14.909 -0.22 +0.23    -0.231 NA ATOM      7  N   UNL     1      36.298  46.303  16.859 -0.23 +0.15    -0.225 NA ATOM      8  C   UNL     1      36.007  46.608  14.187 -0.36 -0.08    +0.122 A  ATOM      9  C   UNL     1      37.343  46.707  16.104 -0.34 -0.04    +0.070 A  ATOM     10  C   UNL     1      37.246  46.870  14.732 -0.41 -0.01    +0.024 A  ATOM     11  C   UNL     1      38.651  46.955  16.825 -0.35 -0.07    +0.176 C  ATOM     12  C   UNL     1      38.391  47.348  13.898 -0.42 -0.05    +0.167 C  ATOM     13  C   UNL     1      39.742  47.172  14.611 -0.40 -0.03    +0.156 C  BRANCH   5  14ATOM     14  S   UNL     1      33.726  45.550  17.177 -0.44 +0.07    -0.090 SA ATOM     15  C   UNL     1      34.535  45.142  18.743 -0.42 -0.04    +0.094 C  ENDBRANCH   5  14BRANCH  12  16ATOM     16  O   UNL     1      38.197  48.730  13.597 -0.38 +0.14    -0.386 OA ATOM     17  H   UNL     1      38.498  49.244  14.369 -0.33 -0.15    +0.211 HD ENDBRANCH  12  16ENDBRANCH   2   4ENDBRANCH   1   2BRANCH   1  18ATOM     18  N   UNL     1      42.535  47.998  18.423 -0.35 -0.00    -0.320 NA ATOM     19  H   UNL     1      42.648  48.951  18.081 -0.01 +0.02    +0.119 HD ATOM     20  H   UNL     1      43.227  47.428  17.923 -0.52 -0.01    +0.119 HD ENDBRANCH   1  18BRANCH   1  21ATOM     21  C   UNL     1      41.195  45.963  17.934 -0.49 -0.00    +0.064 C  BRANCH  21  22ATOM     22  C   UNL     1      40.286  45.293  18.939 -0.42 +0.00    -0.046 A  ATOM     23  C   UNL     1      40.554  45.377  20.307 -0.38 +0.00    +0.004 A  ATOM     24  C   UNL     1      39.146  44.597  18.524 -0.38 -0.00    +0.004 A  ATOM     25  C   UNL     1      39.694  44.786  21.239 -0.32 +0.00    +0.004 A  ATOM     26  C   UNL     1      38.286  44.006  19.460 -0.28 -0.00    +0.004 A  ATOM     27  C   UNL     1      38.536  44.092  20.839 -0.29 -0.00    -0.043 A  BRANCH  27  28ATOM     28  C   UNL     1      37.608  43.467  21.895 -0.43 -0.00    -0.013 C  ATOM     29  C   UNL     1      38.267  42.197  22.477 -0.36 +0.00    +0.016 C  ATOM     30  C   UNL     1      36.263  43.085  21.243 -0.46 +0.00    +0.016 C  ATOM     31  C   UNL     1      37.292  44.400  23.083 -0.36 +0.00    +0.016 C  ENDBRANCH  27  28ENDBRANCH  21  22ENDBRANCH   1  21TORSDOF 8TERENDMDL