MODEL        4USER    Run = 4USERUSER    Estimated Free Energy of Binding    =  -6.03 kcal/mol  [=(1)+(2)+(3)-(4)]USERUSER    (1) Final Intermolecular Energy     = -10.21 kcal/molUSER        vdW + Hbond + desolv Energy     = -10.16 kcal/molUSER        Electrostatic Energy            =  -0.05 kcal/molUSER        Moving Ligand-Fixed Receptor    = -10.21 kcal/molUSER        Moving Ligand-Moving Receptor   =  +0.00 kcal/molUSER    (2) Final Total Internal Energy     =  -8.61 kcal/molUSER    (3) Torsional Free Energy           =  +4.18 kcal/molUSER    (4) Unbound System's Energy         =  -8.61 kcal/molUSERUSERREMARK SMILES CCNC[C@H](CO)[C@@H](CO)NCc1cccc(Cc2cccs2)c1OREMARK SMILES IDX 8 1 5 2 4 3 3 4 2 6 1 7 6 8 7 9 9 11 10 12 11 14 12 16 13 17REMARK SMILES IDX 14 18 24 19 15 20 17 21 16 22 25 23 18 25 19 26 20 27 23 28REMARK SMILES IDX 21 29 22 30REMARK H PARENT 3 5 7 10 10 13 11 15 25 24USER                              x       y       z     vdW  Elec       q    TypeUSER                           _______ _______ _______ _____ _____    ______ ____ROOTATOM      1  C   UNL     1      34.800  44.374  18.383 -0.34 -0.03    +0.086 C  ENDROOTBRANCH   1   2ATOM      2  C   UNL     1      33.423  45.079  18.588 -0.45 -0.02    +0.048 C  BRANCH   2   3ATOM      3  C   UNL     1      32.455  44.707  17.437 -0.29 -0.03    +0.088 C  BRANCH   3   4ATOM      4  N   UNL     1      32.346  45.780  16.438 -0.34 +0.24    -0.317 NA ATOM      5  H   UNL     1      33.246  46.252  16.354 -0.37 -0.20    +0.122 HD BRANCH   4   6ATOM      6  C   UNL     1      31.995  45.232  15.125 -0.42 -0.05    +0.077 C  ATOM      7  C   UNL     1      31.262  46.286  14.308 -0.61 -0.01    +0.020 C  ENDBRANCH   4   6ENDBRANCH   3   4ENDBRANCH   2   3BRANCH   2   8ATOM      8  C   UNL     1      33.562  46.608  18.718 -0.31 -0.11    +0.162 C  BRANCH   8   9ATOM      9  O   UNL     1      34.561  47.096  17.837 -0.40 +0.50    -0.396 OA ATOM     10  H   UNL     1      34.316  46.811  16.938 -0.23 -0.39    +0.210 HD ENDBRANCH   8   9ENDBRANCH   2   8ENDBRANCH   1   2BRANCH   1  11ATOM     11  C   UNL     1      35.015  43.802  16.960 -0.27 -0.07    +0.175 C  BRANCH  11  12ATOM     12  O   UNL     1      34.865  44.849  15.996 -0.11 +0.24    -0.395 OA ATOM     13  H   UNL     1      34.533  45.601  16.528 +0.12 -0.18    +0.210 HD ENDBRANCH  11  12ENDBRANCH   1  11BRANCH   1  14ATOM     14  N   UNL     1      36.022  45.133  18.800 -0.13 +0.08    -0.307 NA ATOM     15  H   UNL     1      35.948  46.077  18.415 +0.06 -0.05    +0.123 HD BRANCH  14  16ATOM     16  C   UNL     1      37.324  44.586  18.388 -0.33 -0.02    +0.121 C  BRANCH  16  17ATOM     17  C   UNL     1      38.217  45.553  17.648 -0.38 -0.00    +0.008 A  ATOM     18  C   UNL     1      39.594  45.533  17.946 -0.43 -0.00    +0.009 A  ATOM     19  C   UNL     1      37.766  46.471  16.681 -0.29 -0.05    +0.123 A  ATOM     20  C   UNL     1      40.492  46.367  17.285 -0.49 -0.00    +0.001 A  ATOM     21  C   UNL     1      38.665  47.305  15.991 -0.45 +0.00    -0.001 A  ATOM     22  C   UNL     1      40.030  47.245  16.310 -0.50 -0.00    +0.008 A  BRANCH  19  23ATOM     23  O   UNL     1      36.444  46.597  16.350 -0.09 +0.39    -0.507 OA ATOM     24  H   UNL     1      35.889  46.391  17.115 +0.19 -0.23    +0.293 HD ENDBRANCH  19  23BRANCH  21  25ATOM     25  C   UNL     1      38.197  48.286  14.935 -0.54 -0.05    +0.086 C  BRANCH  25  26ATOM     26  C   UNL     1      37.452  47.626  13.808 -0.54 -0.00    +0.009 A  ATOM     27  C   UNL     1      36.542  48.197  12.939 -0.58 -0.01    +0.016 A  ATOM     28  S   UNL     1      37.669  45.957  13.477 -0.51 +0.05    -0.149 S  ATOM     29  C   UNL     1      36.030  47.262  11.994 -0.58 -0.01    +0.012 A  ATOM     30  C   UNL     1      36.563  46.004  12.174 -0.58 -0.03    +0.065 A  ENDBRANCH  25  26ENDBRANCH  21  25ENDBRANCH  16  17ENDBRANCH  14  16ENDBRANCH   1  14TORSDOF 14TERENDMDL