REMARK SMILES COc1cccc(CNC(=O)/C=C\CCNC(=O)Cc2ccccc2C)c1
REMARK SMILES IDX 13 1 12 2 10 3 9 4 11 6 8 7 7 8 3 9 4 10 27 11 5 12 6 13
REMARK SMILES IDX 2 14 1 15 14 16 15 17 16 18 17 19 18 21 19 22 20 23 21 24
REMARK SMILES IDX 25 25 22 26 24 27 23 28 26 29
REMARK H PARENT 9 5 16 20
ROOT
ATOM      1  C   UNL     1      -0.674   0.324  -1.929  1.00  0.00    -0.019 C 
ENDROOT
BRANCH   1   2
ATOM      2  C   UNL     1       0.166   0.325  -2.979  1.00  0.00     0.067 C 
BRANCH   2   3
ATOM      3  C   UNL     1       1.405   1.131  -3.091  1.00  0.00     0.243 C 
ATOM      4  N   UNL     1       2.272   0.960  -2.047  1.00  0.00    -0.348 N 
ATOM      5  H   UNL     1       2.100   0.220  -1.382  1.00  0.00     0.164 HD
ATOM      6  O   UNL     1       1.627   1.808  -4.085  1.00  0.00    -0.270 OA
BRANCH   4   7
ATOM      7  C   UNL     1       3.571   1.588  -2.042  1.00  0.00     0.152 C 
BRANCH   7   8
ATOM      8  C   UNL     1       4.206   1.445  -0.685  1.00  0.00    -0.025 A 
ATOM      9  C   UNL     1       5.561   0.164   0.890  1.00  0.00     0.119 A 
ATOM     10  C   UNL     1       5.305   1.116   1.878  1.00  0.00     0.046 A 
ATOM     11  C   UNL     1       5.009   0.333  -0.384  1.00  0.00     0.052 A 
ATOM     12  C   UNL     1       4.498   2.223   1.593  1.00  0.00     0.004 A 
ATOM     13  C   UNL     1       3.947   2.385   0.321  1.00  0.00     0.006 A 
BRANCH   9  14
ATOM     14  O   UNL     1       6.319  -0.965   1.037  1.00  0.00    -0.497 OA
ATOM     15  C   UNL     1       6.878  -1.201   2.323  1.00  0.00     0.278 C 
ENDBRANCH   9  14
ENDBRANCH   7   8
ENDBRANCH   4   7
ENDBRANCH   2   3
ENDBRANCH   1   2
BRANCH   1  16
ATOM     16  C   UNL     1      -0.593   1.165  -0.676  1.00  0.00     0.049 C 
BRANCH  16  17
ATOM     17  C   UNL     1      -0.216   0.353   0.570  1.00  0.00     0.120 C 
BRANCH  17  18
ATOM     18  N   UNL     1      -1.216  -0.638   0.921  1.00  0.00    -0.356 N 
ATOM     19  C   UNL     1      -2.340  -0.298   1.648  1.00  0.00     0.224 C 
ATOM     20  H   UNL     1      -1.153  -1.556   0.498  1.00  0.00     0.163 HD
ATOM     21  O   UNL     1      -2.519   0.828   2.106  1.00  0.00    -0.275 OA
BRANCH  19  22
ATOM     22  C   UNL     1      -3.326  -1.438   1.853  1.00  0.00     0.135 C 
BRANCH  22  23
ATOM     23  C   UNL     1      -4.682  -1.154   1.244  1.00  0.00    -0.036 A 
ATOM     24  C   UNL     1      -5.575  -0.341   1.966  1.00  0.00     0.004 A 
ATOM     25  C   UNL     1      -5.069  -1.638  -0.025  1.00  0.00    -0.047 A 
ATOM     26  C   UNL     1      -6.832  -0.024   1.456  1.00  0.00     0.000 A 
ATOM     27  C   UNL     1      -6.340  -1.309  -0.525  1.00  0.00     0.004 A 
ATOM     28  C   UNL     1      -7.215  -0.509   0.209  1.00  0.00     0.000 A 
ATOM     29  C   UNL     1      -4.170  -2.510  -0.857  1.00  0.00     0.044 C 
ENDBRANCH  22  23
ENDBRANCH  19  22
ENDBRANCH  17  18
ENDBRANCH  16  17
ENDBRANCH   1  16
TORSDOF 10
