REMARK SMILES Cc1cc(F)ccc1-c1c[nH]nc1C1=CC=C[C@@H](C(=O)NCCCN)[C@@H]1C
REMARK SMILES IDX 19 1 20 2 21 3 18 5 14 6 15 7 26 8 16 9 17 10 27 11 13 12
REMARK SMILES IDX 9 13 10 14 11 15 12 16 8 18 2 19 3 20 4 21 7 22 6 23 1 24
REMARK SMILES IDX 5 25 22 26 23 27 24 28 25 29
REMARK H PARENT 21 4 11 17 25 30 25 31
ROOT
ATOM      1  C   UNL     1       2.559   0.518  -0.345  1.00  0.00     0.227 C 
ATOM      2  O   UNL     1       2.701   1.725  -0.522  1.00  0.00    -0.274 OA
ATOM      3  N   UNL     1       3.288  -0.173   0.608  1.00  0.00    -0.356 N 
ATOM      4  H   UNL     1       3.168  -1.173   0.701  1.00  0.00     0.163 HD
ENDROOT
BRANCH   1   5
ATOM      5  C   UNL     1       1.618  -0.376  -1.180  1.00  0.00     0.108 C 
ATOM      6  C   UNL     1      -0.789  -0.141  -0.278  1.00  0.00    -0.016 C 
ATOM      7  C   UNL     1      -1.035   0.731  -1.275  1.00  0.00     0.006 C 
ATOM      8  C   UNL     1       0.486  -0.991  -0.299  1.00  0.00     0.035 C 
ATOM      9  C   UNL     1      -0.150   0.882  -2.404  1.00  0.00    -0.003 C 
ATOM     10  C   UNL     1       1.095   0.388  -2.373  1.00  0.00    -0.013 C 
ATOM     11  C   UNL     1       0.149  -2.407  -0.797  1.00  0.00     0.014 C 
BRANCH   6  12
ATOM     12  C   UNL     1      -1.638  -0.338   0.875  1.00  0.00     0.096 A 
ATOM     13  C   UNL     1      -3.062  -0.191   0.939  1.00  0.00     0.027 A 
ATOM     14  C   UNL     1      -3.397  -0.467   2.247  1.00  0.00     0.114 A 
ATOM     15  N   UNL     1      -2.230  -0.762   2.875  1.00  0.00    -0.284 N 
ATOM     16  N   UNL     1      -1.158  -0.716   2.074  1.00  0.00    -0.175 NA
ATOM     17  H   UNL     1      -2.090  -1.013   3.848  1.00  0.00     0.189 HD
BRANCH  13  18
ATOM     18  C   UNL     1      -4.065   0.142  -0.056  1.00  0.00    -0.011 A 
ATOM     19  C   UNL     1      -4.440  -0.763  -1.071  1.00  0.00    -0.040 A 
ATOM     20  C   UNL     1      -5.395  -0.358  -2.018  1.00  0.00     0.043 A 
ATOM     21  C   UNL     1      -5.978   0.903  -1.937  1.00  0.00     0.123 A 
ATOM     22  C   UNL     1      -4.671   1.410   0.012  1.00  0.00     0.012 A 
ATOM     23  C   UNL     1      -5.628   1.789  -0.928  1.00  0.00     0.040 A 
ATOM     24  C   UNL     1      -3.825  -2.129  -1.203  1.00  0.00     0.045 C 
ATOM     25  F   UNL     1      -6.892   1.266  -2.846  1.00  0.00    -0.207 F 
ENDBRANCH  13  18
ENDBRANCH   6  12
ENDBRANCH   1   5
BRANCH   3  26
ATOM     26  C   UNL     1       4.230   0.497   1.482  1.00  0.00     0.117 C 
BRANCH  26  27
ATOM     27  C   UNL     1       5.591   0.671   0.813  1.00  0.00     0.036 C 
BRANCH  27  28
ATOM     28  C   UNL     1       6.591   1.438   1.678  1.00  0.00     0.079 C 
BRANCH  28  29
ATOM     29  N   UNL     1       7.006   0.706   2.870  1.00  0.00    -0.330 NA
ATOM     30  H   UNL     1       7.348  -0.218   2.611  1.00  0.00     0.118 HD
ATOM     31  H   UNL     1       6.218   0.564   3.498  1.00  0.00     0.118 HD
ENDBRANCH  28  29
ENDBRANCH  27  28
ENDBRANCH  26  27
ENDBRANCH   3  26
TORSDOF 7
