MODEL        7USER    Run = 7USERUSER    Estimated Free Energy of Binding    =  -8.00 kcal/mol  [=(1)+(2)+(3)-(4)]USERUSER    (1) Final Intermolecular Energy     = -10.08 kcal/molUSER        vdW + Hbond + desolv Energy     = -10.03 kcal/molUSER        Electrostatic Energy            =  -0.06 kcal/molUSER        Moving Ligand-Fixed Receptor    = -10.08 kcal/molUSER        Moving Ligand-Moving Receptor   =  +0.00 kcal/molUSER    (2) Final Total Internal Energy     =  -2.63 kcal/molUSER    (3) Torsional Free Energy           =  +2.09 kcal/molUSER    (4) Unbound System's Energy         =  -2.63 kcal/molUSERUSERREMARK SMILES Cc1cc(F)ccc1-c1c[nH]nc1C1=CC=C[C@@H](C(=O)NCCCN)[C@@H]1CREMARK SMILES IDX 19 1 20 2 21 3 18 5 14 6 15 7 26 8 16 9 17 10 27 11 13 12REMARK SMILES IDX 9 13 10 14 11 15 12 16 8 18 2 19 3 20 4 21 7 22 6 23 1 24REMARK SMILES IDX 5 25 22 26 23 27 24 28 25 29REMARK H PARENT 21 4 11 17 25 30 25 31USER                              x       y       z     vdW  Elec       q    TypeUSER                           _______ _______ _______ _____ _____    ______ ____ROOTATOM      1  C   UNL     1      39.523  46.263  17.985 -0.34 -0.03    +0.227 C  ATOM      2  O   UNL     1      38.364  46.229  18.390 -0.25 +0.06    -0.274 OA ATOM      3  N   UNL     1      40.600  46.042  18.827 -0.22 +0.01    -0.356 N  ATOM      4  H   UNL     1      41.541  46.113  18.464 +0.08 +0.00    +0.163 HD ENDROOTBRANCH   1   5ATOM      5  C   UNL     1      39.926  46.609  16.536 -0.45 -0.02    +0.108 C  ATOM      6  C   UNL     1      37.817  47.299  15.217 -0.50 +0.01    -0.016 C  ATOM      7  C   UNL     1      38.158  48.586  15.422 -0.55 -0.00    +0.006 C  ATOM      8  C   UNL     1      38.820  46.181  15.520 -0.44 -0.01    +0.035 C  ATOM      9  C   UNL     1      39.465  48.971  15.894 -0.51 +0.00    -0.003 C  ATOM     10  C   UNL     1      40.297  48.069  16.431 -0.61 +0.00    -0.013 C  ATOM     11  C   UNL     1      39.472  45.708  14.209 -0.14 -0.00    +0.014 C  BRANCH   6  12ATOM     12  C   UNL     1      36.526  46.852  14.744 -0.35 -0.07    +0.096 A  ATOM     13  C   UNL     1      35.580  46.035  15.445 -0.34 -0.02    +0.027 A  ATOM     14  C   UNL     1      34.525  45.873  14.574 -0.23 -0.10    +0.114 A  ATOM     15  N   UNL     1      34.856  46.567  13.455 -0.28 +0.22    -0.284 N  ATOM     16  N   UNL     1      36.041  47.185  13.534 -0.40 +0.11    -0.175 NA ATOM     17  H   UNL     1      34.317  46.671  12.602 -0.32 -0.19    +0.189 HD BRANCH  13  18ATOM     18  C   UNL     1      35.574  45.453  16.775 -0.33 +0.01    -0.011 A  ATOM     19  C   UNL     1      36.329  44.305  17.091 -0.30 +0.01    -0.040 A  ATOM     20  C   UNL     1      36.248  43.780  18.392 -0.29 -0.01    +0.043 A  ATOM     21  C   UNL     1      35.458  44.401  19.355 -0.30 -0.02    +0.123 A  ATOM     22  C   UNL     1      34.787  46.070  17.764 -0.43 -0.01    +0.012 A  ATOM     23  C   UNL     1      34.730  45.544  19.054 -0.23 -0.02    +0.040 A  ATOM     24  C   UNL     1      37.184  43.595  16.078 -0.28 -0.01    +0.045 C  ATOM     25  F   UNL     1      35.401  43.889  20.591 -0.11 +0.00    -0.207 F  ENDBRANCH  13  18ENDBRANCH   6  12ENDBRANCH   1   5BRANCH   3  26ATOM     26  C   UNL     1      40.419  45.713  20.227 -0.34 +0.00    +0.117 C  BRANCH  26  27ATOM     27  C   UNL     1      41.757  45.558  20.945 -0.36 +0.01    +0.036 C  BRANCH  27  28ATOM     28  C   UNL     1      42.595  46.836  20.935 -0.37 +0.02    +0.079 C  BRANCH  28  29ATOM     29  N   UNL     1      42.972  47.271  19.594 -0.31 -0.07    -0.330 NA ATOM     30  H   UNL     1      43.563  46.569  19.153 +0.03 +0.07    +0.118 HD ATOM     31  H   UNL     1      43.513  48.132  19.633 -0.54 -0.01    +0.118 HD ENDBRANCH  28  29ENDBRANCH  27  28ENDBRANCH  26  27ENDBRANCH   3  26TORSDOF 7TERENDMDL