REMARK SMILES CSc1ncc2c(n1)CN(C(=O)[C@H](N)Cc1ccc(C(C)(C)C)cc1)C[C@@H]2O
REMARK SMILES IDX 13 1 11 2 12 3 10 4 3 5 4 6 8 7 5 8 7 9 6 10 9 11 27 12
REMARK SMILES IDX 26 13 2 14 1 15 28 16 14 18 15 21 16 22 17 23 25 24 18 25
REMARK SMILES IDX 24 26 19 27 20 28 21 29 22 30 23 31
REMARK H PARENT 28 17 14 19 14 20
ROOT
ATOM      1  C   UNL     1       0.279  -0.211   2.204  1.00  0.00     0.145 C 
ENDROOT
BRANCH   1   2
ATOM      2  C   UNL     1       1.833  -0.186   2.163  1.00  0.00     0.240 C 
ATOM      3  O   UNL     1       2.487  -0.533   3.152  1.00  0.00    -0.273 OA
BRANCH   2   4
ATOM      4  N   UNL     1       2.467   0.239   0.997  1.00  0.00    -0.332 N 
ATOM      5  C   UNL     1       6.518   0.312  -1.579  1.00  0.00     0.187 A 
ATOM      6  N   UNL     1       5.875   0.606  -2.717  1.00  0.00    -0.231 NA
ATOM      7  N   UNL     1       5.924   0.204  -0.379  1.00  0.00    -0.225 NA
ATOM      8  C   UNL     1       4.545   0.780  -2.633  1.00  0.00     0.122 A 
ATOM      9  C   UNL     1       4.587   0.387  -0.328  1.00  0.00     0.070 A 
ATOM     10  C   UNL     1       3.838   0.692  -1.453  1.00  0.00     0.024 A 
ATOM     11  C   UNL     1       3.933   0.269   1.032  1.00  0.00     0.176 C 
ATOM     12  C   UNL     1       2.354   0.864  -1.406  1.00  0.00     0.167 C 
ATOM     13  C   UNL     1       1.846   1.141   0.019  1.00  0.00     0.156 C 
BRANCH   5  14
ATOM     14  S   UNL     1       8.272   0.071  -1.703  1.00  0.00    -0.090 SA
ATOM     15  C   UNL     1       8.586  -0.766  -0.130  1.00  0.00     0.094 C 
ENDBRANCH   5  14
BRANCH  12  16
ATOM     16  O   UNL     1       1.736  -0.324  -1.901  1.00  0.00    -0.386 OA
ATOM     17  H   UNL     1       2.146  -1.081  -1.443  1.00  0.00     0.211 HD
ENDBRANCH  12  16
ENDBRANCH   2   4
ENDBRANCH   1   2
BRANCH   1  18
ATOM     18  N   UNL     1      -0.165  -0.495   3.595  1.00  0.00    -0.320 NA
ATOM     19  H   UNL     1      -0.778   0.256   3.911  1.00  0.00     0.119 HD
ATOM     20  H   UNL     1       0.664  -0.463   4.200  1.00  0.00     0.119 HD
ENDBRANCH   1  18
BRANCH   1  21
ATOM     21  C   UNL     1      -0.275  -1.277   1.239  1.00  0.00     0.064 C 
BRANCH  21  22
ATOM     22  C   UNL     1      -1.652  -0.937   0.715  1.00  0.00    -0.046 A 
ATOM     23  C   UNL     1      -2.776  -1.065   1.534  1.00  0.00     0.004 A 
ATOM     24  C   UNL     1      -1.827  -0.464  -0.589  1.00  0.00     0.004 A 
ATOM     25  C   UNL     1      -4.045  -0.717   1.060  1.00  0.00     0.004 A 
ATOM     26  C   UNL     1      -3.100  -0.116  -1.061  1.00  0.00     0.004 A 
ATOM     27  C   UNL     1      -4.238  -0.228  -0.246  1.00  0.00    -0.043 A 
BRANCH  27  28
ATOM     28  C   UNL     1      -5.648   0.156  -0.727  1.00  0.00    -0.013 C 
ATOM     29  C   UNL     1      -6.221   1.266   0.181  1.00  0.00     0.016 C 
ATOM     30  C   UNL     1      -6.572  -1.077  -0.664  1.00  0.00     0.016 C 
ATOM     31  C   UNL     1      -5.692   0.688  -2.176  1.00  0.00     0.016 C 
ENDBRANCH  27  28
ENDBRANCH  21  22
ENDBRANCH   1  21
TORSDOF 8
