REMARK SMILES CCNC[C@H](CO)[C@@H](CO)NCc1cccc(Cc2cccs2)c1O
REMARK SMILES IDX 8 1 5 2 4 3 3 4 2 6 1 7 6 8 7 9 9 11 10 12 11 14 12 16 13 17
REMARK SMILES IDX 14 18 24 19 15 20 17 21 16 22 25 23 18 25 19 26 20 27 23 28
REMARK SMILES IDX 21 29 22 30
REMARK H PARENT 3 5 7 10 10 13 11 15 25 24
ROOT
ATOM      1  C   UNL     1      -1.575  -0.872   2.057  1.00  0.00     0.086 C 
ENDROOT
BRANCH   1   2
ATOM      2  C   UNL     1      -2.178  -0.479   0.672  1.00  0.00     0.048 C 
BRANCH   2   3
ATOM      3  C   UNL     1      -3.090   0.765   0.820  1.00  0.00     0.088 C 
BRANCH   3   4
ATOM      4  N   UNL     1      -3.442   1.350  -0.482  1.00  0.00    -0.317 NA
ATOM      5  H   UNL     1      -4.022   0.690  -1.000  1.00  0.00     0.122 HD
BRANCH   4   6
ATOM      6  C   UNL     1      -4.208   2.587  -0.305  1.00  0.00     0.077 C 
ATOM      7  C   UNL     1      -4.597   3.149  -1.664  1.00  0.00     0.020 C 
ENDBRANCH   4   6
ENDBRANCH   3   4
ENDBRANCH   2   3
BRANCH   2   8
ATOM      8  C   UNL     1      -2.939  -1.645   0.013  1.00  0.00     0.162 C 
BRANCH   8   9
ATOM      9  O   UNL     1      -3.998  -2.087   0.848  1.00  0.00    -0.396 OA
ATOM     10  H   UNL     1      -4.395  -2.868   0.421  1.00  0.00     0.210 HD
ENDBRANCH   8   9
ENDBRANCH   2   8
ENDBRANCH   1   2
BRANCH   1  11
ATOM     11  C   UNL     1      -0.865  -2.248   2.073  1.00  0.00     0.175 C 
BRANCH  11  12
ATOM     12  O   UNL     1      -0.300  -2.479   3.368  1.00  0.00    -0.395 OA
ATOM     13  H   UNL     1       0.004  -1.591   3.645  1.00  0.00     0.210 HD
ENDBRANCH  11  12
ENDBRANCH   1  11
BRANCH   1  14
ATOM     14  N   UNL     1      -0.704   0.142   2.732  1.00  0.00    -0.307 NA
ATOM     15  H   UNL     1      -1.315   0.839   3.163  1.00  0.00     0.123 HD
BRANCH  14  16
ATOM     16  C   UNL     1       0.264   0.862   1.889  1.00  0.00     0.121 C 
BRANCH  16  17
ATOM     17  C   UNL     1       1.453   0.046   1.442  1.00  0.00     0.008 A 
ATOM     18  C   UNL     1       2.311  -0.461   2.437  1.00  0.00     0.009 A 
ATOM     19  C   UNL     1       1.760  -0.241   0.099  1.00  0.00     0.123 A 
ATOM     20  C   UNL     1       3.411  -1.252   2.113  1.00  0.00     0.001 A 
ATOM     21  C   UNL     1       2.856  -1.056  -0.242  1.00  0.00    -0.001 A 
ATOM     22  C   UNL     1       3.679  -1.551   0.781  1.00  0.00     0.008 A 
BRANCH  19  23
ATOM     23  O   UNL     1       1.013   0.239  -0.943  1.00  0.00    -0.507 OA
ATOM     24  H   UNL     1       0.552   1.047  -0.677  1.00  0.00     0.293 HD
ENDBRANCH  19  23
BRANCH  21  25
ATOM     25  C   UNL     1       3.189  -1.388  -1.682  1.00  0.00     0.086 C 
BRANCH  25  26
ATOM     26  C   UNL     1       4.176  -0.432  -2.293  1.00  0.00     0.009 A 
ATOM     27  C   UNL     1       3.922   0.786  -2.894  1.00  0.00     0.016 A 
ATOM     28  S   UNL     1       5.851  -0.802  -2.315  1.00  0.00    -0.149 S 
ATOM     29  C   UNL     1       5.108   1.418  -3.366  1.00  0.00     0.012 A 
ATOM     30  C   UNL     1       6.231   0.662  -3.113  1.00  0.00     0.065 A 
ENDBRANCH  25  26
ENDBRANCH  21  25
ENDBRANCH  16  17
ENDBRANCH  14  16
ENDBRANCH   1  14
TORSDOF 14
