MODEL        3USER    Run = 3USERUSER    Estimated Free Energy of Binding    =  -8.25 kcal/mol  [=(1)+(2)+(3)-(4)]USERUSER    (1) Final Intermolecular Energy     = -11.23 kcal/molUSER        vdW + Hbond + desolv Energy     = -10.46 kcal/molUSER        Electrostatic Energy            =  -0.77 kcal/molUSER        Moving Ligand-Fixed Receptor    = -11.23 kcal/molUSER        Moving Ligand-Moving Receptor   =  +0.00 kcal/molUSER    (2) Final Total Internal Energy     =  -1.35 kcal/molUSER    (3) Torsional Free Energy           =  +2.98 kcal/molUSER    (4) Unbound System's Energy         =  -1.35 kcal/molUSERUSERREMARK SMILES COc1cccc(CNC(=O)/C=C\CCNC(=O)Cc2ccccc2C)c1REMARK SMILES IDX 13 1 12 2 10 3 9 4 11 6 8 7 7 8 3 9 4 10 27 11 5 12 6 13REMARK SMILES IDX 2 14 1 15 14 16 15 17 16 18 17 19 18 21 19 22 20 23 21 24REMARK SMILES IDX 25 25 22 26 24 27 23 28 26 29REMARK H PARENT 9 5 16 20USER                              x       y       z     vdW  Elec       q    TypeUSER                           _______ _______ _______ _____ _____    ______ ____ROOTATOM      1  C   UNL     1      37.166  25.745  15.957 -0.25 +0.01    -0.019 C  ENDROOTBRANCH   1   2ATOM      2  C   UNL     1      37.661  26.279  14.826 -0.36 -0.03    +0.067 C  BRANCH   2   3ATOM      3  C   UNL     1      38.271  27.625  14.704 -0.30 -0.06    +0.243 C  ATOM      4  N   UNL     1      39.479  27.628  14.062 -0.16 +0.17    -0.348 N  ATOM      5  H   UNL     1      39.790  26.788  13.597 -0.35 -0.16    +0.164 HD ATOM      6  O   UNL     1      37.672  28.622  15.081 -0.95 -0.01    -0.270 OA BRANCH   4   7ATOM      7  C   UNL     1      40.165  28.862  13.765 -0.47 -0.08    +0.152 C  BRANCH   7   8ATOM      8  C   UNL     1      41.326  29.044  14.705 -0.42 +0.01    -0.025 A  ATOM      9  C   UNL     1      42.190  29.272  16.977 -0.24 +0.07    +0.119 A  ATOM     10  C   UNL     1      43.469  29.492  16.463 -0.28 +0.02    +0.046 A  ATOM     11  C   UNL     1      41.126  29.052  16.095 -0.26 +0.01    +0.052 A  ATOM     12  C   UNL     1      43.678  29.498  15.080 -0.43 -0.00    +0.004 A  ATOM     13  C   UNL     1      42.613  29.280  14.205 -0.46 -0.00    +0.006 A  BRANCH   9  14ATOM     14  O   UNL     1      41.846  29.253  18.300 -0.68 -0.65    -0.497 OA ATOM     15  C   UNL     1      40.482  29.505  18.614 -0.26 +0.19    +0.278 C  ENDBRANCH   9  14ENDBRANCH   7   8ENDBRANCH   4   7ENDBRANCH   2   3ENDBRANCH   1   2BRANCH   1  16ATOM     16  C   UNL     1      35.729  25.396  16.265 -0.28 -0.03    +0.049 C  BRANCH  16  17ATOM     17  C   UNL     1      34.996  26.497  17.043 -0.35 -0.08    +0.120 C  BRANCH  17  18ATOM     18  N   UNL     1      35.291  26.475  18.464 -0.18 +0.35    -0.356 N  ATOM     19  C   UNL     1      36.234  27.320  19.015 -0.22 -0.12    +0.224 C  ATOM     20  H   UNL     1      34.688  25.935  19.072 -0.49 -0.37    +0.163 HD ATOM     21  O   UNL     1      36.930  28.071  18.336 -0.19 +0.06    -0.275 OA BRANCH  19  22ATOM     22  C   UNL     1      36.355  27.227  20.528 -0.27 -0.07    +0.135 C  BRANCH  22  23ATOM     23  C   UNL     1      36.826  28.520  21.157 -0.26 +0.01    -0.036 A  ATOM     24  C   UNL     1      38.163  28.908  20.952 -0.25 +0.00    +0.004 A  ATOM     25  C   UNL     1      35.975  29.364  21.904 -0.35 +0.01    -0.047 A  ATOM     26  C   UNL     1      38.657  30.096  21.486 -0.38 +0.00    +0.000 A  ATOM     27  C   UNL     1      36.489  30.559  22.435 -0.39 -0.00    +0.004 A  ATOM     28  C   UNL     1      37.819  30.922  22.229 -0.46 +0.00    +0.000 A  ATOM     29  C   UNL     1      34.534  29.020  22.164 -0.51 -0.01    +0.044 C  ENDBRANCH  22  23ENDBRANCH  19  22ENDBRANCH  17  18ENDBRANCH  16  17ENDBRANCH   1  16TORSDOF 10TERENDMDL