MODEL        10USER    Run = 10USERUSER    Estimated Free Energy of Binding    =  -9.48 kcal/mol  [=(1)+(2)+(3)-(4)]USERUSER    (1) Final Intermolecular Energy     = -11.57 kcal/molUSER        vdW + Hbond + desolv Energy     = -11.39 kcal/molUSER        Electrostatic Energy            =  -0.18 kcal/molUSER        Moving Ligand-Fixed Receptor    = -11.57 kcal/molUSER        Moving Ligand-Moving Receptor   =  +0.00 kcal/molUSER    (2) Final Total Internal Energy     =  -0.74 kcal/molUSER    (3) Torsional Free Energy           =  +2.09 kcal/molUSER    (4) Unbound System's Energy         =  -0.74 kcal/molUSERUSERREMARK SMILES Cc1cnc(N)nc1-c1ccc(C(=O)CCN2CCC(N)CC2)cc1REMARK SMILES IDX 13 1 14 2 12 3 9 4 10 5 25 6 11 7 24 8 8 9 2 10 3 11 4 12REMARK SMILES IDX 7 13 5 14 1 15 6 16 15 19 16 20 17 21 18 22 23 23 19 24REMARK SMILES IDX 22 25 20 26 21 27REMARK H PARENT 6 17 6 18 21 28 21 29USER                              x       y       z     vdW  Elec       q    TypeUSER                           _______ _______ _______ _____ _____    ______ ____ROOTATOM      1  C   UNL     1      41.056  48.502  16.190 -0.50 -0.02    +0.164 C  ATOM      2  O   UNL     1      41.769  49.501  16.258 -1.01 -0.05    -0.294 OA ENDROOTBRANCH   1   3ATOM      3  C   UNL     1      41.044  47.548  17.339 -0.51 -0.00    +0.018 A  ATOM      4  C   UNL     1      40.950  45.685  19.467 -0.44 +0.00    +0.001 A  ATOM      5  C   UNL     1      40.046  45.602  18.396 -0.45 -0.00    +0.011 A  ATOM      6  C   UNL     1      41.893  46.726  19.457 -0.46 +0.00    +0.011 A  ATOM      7  C   UNL     1      40.097  46.517  17.339 -0.48 -0.00    +0.012 A  ATOM      8  C   UNL     1      41.946  47.646  18.404 -0.49 -0.00    +0.012 A  BRANCH   4   9ATOM      9  C   UNL     1      40.886  44.718  20.572 -0.31 +0.01    +0.079 A  ATOM     10  C   UNL     1      39.710  44.375  21.225 -0.31 -0.00    -0.006 A  ATOM     11  C   UNL     1      39.857  43.431  22.220 -0.17 +0.01    +0.120 A  ATOM     12  N   UNL     1      41.032  42.880  22.570 -0.21 -0.00    -0.222 NA ATOM     13  N   UNL     1      42.086  44.192  20.912 -0.20 -0.04    -0.213 NA ATOM     14  C   UNL     1      42.103  43.280  21.884 -0.23 +0.01    +0.220 A  ATOM     15  C   UNL     1      38.369  44.942  20.893 -0.34 +0.00    +0.048 C  BRANCH  14  16ATOM     16  N   UNL     1      43.323  42.745  22.236 -0.15 -0.01    -0.368 N  ATOM     17  H   UNL     1      43.452  42.819  23.235 +0.04 +0.00    +0.159 HD ATOM     18  H   UNL     1      43.429  41.833  21.817 -0.50 -0.05    +0.159 HD ENDBRANCH  14  16ENDBRANCH   4   9ENDBRANCH   1   3BRANCH   1  19ATOM     19  C   UNL     1      40.162  48.216  14.996 -0.55 -0.02    +0.096 C  BRANCH  19  20ATOM     20  C   UNL     1      38.691  48.590  15.228 -0.51 -0.05    +0.092 C  BRANCH  20  21ATOM     21  N   UNL     1      37.743  47.551  14.776 -0.23 +0.16    -0.303 NA ATOM     22  C   UNL     1      38.397  46.541  13.925 -0.42 -0.02    +0.086 C  ATOM     23  C   UNL     1      36.544  48.144  14.152 -0.42 -0.06    +0.086 C  ATOM     24  C   UNL     1      37.386  45.763  13.084 -0.50 -0.01    +0.034 C  ATOM     25  C   UNL     1      36.569  48.126  12.626 -0.64 -0.01    +0.034 C  ATOM     26  C   UNL     1      36.702  46.699  12.078 -0.71 -0.02    +0.053 C  BRANCH  26  27ATOM     27  N   UNL     1      35.399  46.154  11.683 -0.16 +0.20    -0.328 NA ATOM     28  H   UNL     1      34.711  46.363  12.406 -0.28 -0.09    +0.119 HD ATOM     29  H   UNL     1      35.071  46.628  10.842 -0.26 -0.09    +0.119 HD ENDBRANCH  26  27ENDBRANCH  20  21ENDBRANCH  19  20ENDBRANCH   1  19TORSDOF 7TERENDMDL