REMARK SMILES Nc1nccc(-c2ccc(F)c(C(=O)CCN3CCC(N)CC3)c2)n1
REMARK SMILES IDX 13 1 14 2 12 3 7 4 8 5 24 6 9 7 10 8 11 9 6 10 2 11 3 12
REMARK SMILES IDX 25 13 4 14 5 15 1 16 15 19 16 20 17 21 18 22 23 23 19 24
REMARK SMILES IDX 22 25 20 26 21 27
REMARK H PARENT 1 17 1 18 21 28 21 29
ROOT
ATOM      1  C   UNL     1       0.111  -0.957  -0.726  1.00  0.00     0.167 C 
ATOM      2  O   UNL     1       0.324  -1.722  -1.667  1.00  0.00    -0.294 OA
ENDROOT
BRANCH   1   3
ATOM      3  C   UNL     1       1.260  -0.207  -0.139  1.00  0.00     0.054 A 
ATOM      4  C   UNL     1       3.709   0.053  -0.029  1.00  0.00     0.001 A 
ATOM      5  C   UNL     1       3.510   1.111   0.877  1.00  0.00     0.013 A 
ATOM      6  C   UNL     1       2.559  -0.589  -0.530  1.00  0.00     0.025 A 
ATOM      7  C   UNL     1       2.228   1.507   1.266  1.00  0.00     0.041 A 
ATOM      8  C   UNL     1       1.113   0.849   0.757  1.00  0.00     0.134 A 
ATOM      9  F   UNL     1      -0.092   1.283   1.146  1.00  0.00    -0.206 F 
BRANCH   4  10
ATOM     10  C   UNL     1       5.077  -0.346  -0.434  1.00  0.00     0.076 A 
ATOM     11  C   UNL     1       7.255   0.327  -0.733  1.00  0.00     0.220 A 
ATOM     12  N   UNL     1       7.657  -0.876  -1.143  1.00  0.00    -0.222 NA
ATOM     13  N   UNL     1       6.004   0.638  -0.390  1.00  0.00    -0.213 NA
ATOM     14  C   UNL     1       6.721  -1.838  -1.172  1.00  0.00     0.117 A 
ATOM     15  C   UNL     1       5.408  -1.629  -0.825  1.00  0.00     0.049 A 
BRANCH  11  16
ATOM     16  N   UNL     1       8.194   1.337  -0.707  1.00  0.00    -0.368 N 
ATOM     17  H   UNL     1       7.737   2.230  -0.822  1.00  0.00     0.159 HD
ATOM     18  H   UNL     1       8.945   1.115  -1.345  1.00  0.00     0.159 HD
ENDBRANCH  11  16
ENDBRANCH   4  10
ENDBRANCH   1   3
BRANCH   1  19
ATOM     19  C   UNL     1      -1.291  -0.794  -0.177  1.00  0.00     0.096 C 
BRANCH  19  20
ATOM     20  C   UNL     1      -2.040   0.276  -0.973  1.00  0.00     0.092 C 
BRANCH  20  21
ATOM     21  N   UNL     1      -3.406   0.593  -0.531  1.00  0.00    -0.303 NA
ATOM     22  C   UNL     1      -3.448   1.218   0.796  1.00  0.00     0.086 C 
ATOM     23  C   UNL     1      -4.322  -0.548  -0.629  1.00  0.00     0.086 C 
ATOM     24  C   UNL     1      -4.860   1.712   1.118  1.00  0.00     0.034 C 
ATOM     25  C   UNL     1      -5.763  -0.113  -0.351  1.00  0.00     0.034 C 
ATOM     26  C   UNL     1      -5.916   0.610   0.992  1.00  0.00     0.053 C 
BRANCH  26  27
ATOM     27  N   UNL     1      -5.841  -0.321   2.125  1.00  0.00    -0.328 NA
ATOM     28  H   UNL     1      -4.952  -0.818   2.118  1.00  0.00     0.119 HD
ATOM     29  H   UNL     1      -6.564  -1.033   2.027  1.00  0.00     0.119 HD
ENDBRANCH  26  27
ENDBRANCH  20  21
ENDBRANCH  19  20
ENDBRANCH   1  19
TORSDOF 7
