REMARK SMILES CNC1CCN(CCC(=O)c2ccc(-c3ccnc(N)n3)cc2)CC1
REMARK SMILES IDX 8 1 7 2 6 3 3 4 4 5 25 6 5 7 24 8 2 9 1 10 9 12 10 13 11 14
REMARK SMILES IDX 12 15 23 16 13 17 22 18 14 19 15 20 16 21 21 22 17 23 19 24
REMARK SMILES IDX 18 25 20 26
REMARK H PARENT 2 11 20 27 20 28
ROOT
ATOM      1  C   UNL     1      -0.910  -1.676   0.357  1.00  0.00     0.096 C 
ENDROOT
BRANCH   1   2
ATOM      2  C   UNL     1      -1.446  -0.597   1.298  1.00  0.00     0.092 C 
BRANCH   2   3
ATOM      3  N   UNL     1      -2.743  -0.001   0.945  1.00  0.00    -0.303 NA
ATOM      4  C   UNL     1      -5.245   0.527  -0.474  1.00  0.00     0.055 C 
ATOM      5  C   UNL     1      -4.042   1.477  -0.549  1.00  0.00     0.034 C 
ATOM      6  C   UNL     1      -5.196  -0.244   0.852  1.00  0.00     0.034 C 
ATOM      7  C   UNL     1      -2.731   0.719  -0.330  1.00  0.00     0.086 C 
ATOM      8  C   UNL     1      -3.852  -0.955   1.026  1.00  0.00     0.086 C 
BRANCH   4   9
ATOM      9  N   UNL     1      -6.530   1.238  -0.571  1.00  0.00    -0.317 NA
ATOM     10  C   UNL     1      -6.795   1.757  -1.906  1.00  0.00     0.101 C 
ATOM     11  H   UNL     1      -7.286   0.605  -0.311  1.00  0.00     0.122 HD
ENDBRANCH   4   9
ENDBRANCH   2   3
ENDBRANCH   1   2
BRANCH   1  12
ATOM     12  C   UNL     1       0.429  -2.178   0.855  1.00  0.00     0.164 C 
ATOM     13  O   UNL     1       0.488  -3.137   1.625  1.00  0.00    -0.294 OA
BRANCH  12  14
ATOM     14  C   UNL     1       1.692  -1.506   0.419  1.00  0.00     0.018 A 
ATOM     15  C   UNL     1       2.910  -2.076   0.800  1.00  0.00     0.012 A 
ATOM     16  C   UNL     1       1.706  -0.332  -0.339  1.00  0.00     0.012 A 
ATOM     17  C   UNL     1       4.122  -1.487   0.420  1.00  0.00     0.011 A 
ATOM     18  C   UNL     1       2.925   0.253  -0.717  1.00  0.00     0.011 A 
ATOM     19  C   UNL     1       4.160  -0.314  -0.354  1.00  0.00     0.000 A 
BRANCH  19  20
ATOM     20  C   UNL     1       5.452   0.290  -0.746  1.00  0.00     0.076 A 
ATOM     21  C   UNL     1       5.633   0.970  -1.935  1.00  0.00     0.049 A 
ATOM     22  N   UNL     1       6.465   0.125   0.134  1.00  0.00    -0.213 NA
ATOM     23  C   UNL     1       6.893   1.470  -2.162  1.00  0.00     0.117 A 
ATOM     24  C   UNL     1       7.645   0.670  -0.171  1.00  0.00     0.220 A 
ATOM     25  N   UNL     1       7.912   1.329  -1.300  1.00  0.00    -0.222 NA
BRANCH  24  26
ATOM     26  N   UNL     1       8.678   0.499   0.725  1.00  0.00    -0.368 N 
ATOM     27  H   UNL     1       9.563   0.559   0.243  1.00  0.00     0.159 HD
ATOM     28  H   UNL     1       8.508  -0.318   1.294  1.00  0.00     0.159 HD
ENDBRANCH  24  26
ENDBRANCH  19  20
ENDBRANCH  12  14
ENDBRANCH   1  12
TORSDOF 7
