REMARK SMILES Cc1cnc(N)nc1-c1ccc(C(=O)CCN2CCC(N)CC2)cc1
REMARK SMILES IDX 13 1 14 2 12 3 9 4 10 5 25 6 11 7 24 8 8 9 2 10 3 11 4 12
REMARK SMILES IDX 7 13 5 14 1 15 6 16 15 19 16 20 17 21 18 22 23 23 19 24
REMARK SMILES IDX 22 25 20 26 21 27
REMARK H PARENT 6 17 6 18 21 28 21 29
ROOT
ATOM      1  C   UNL     1      -0.630  -0.821   1.577  1.00  0.00     0.164 C 
ATOM      2  O   UNL     1      -1.056  -0.182   2.537  1.00  0.00    -0.294 OA
ENDROOT
BRANCH   1   3
ATOM      3  C   UNL     1       0.747  -0.532   1.076  1.00  0.00     0.018 A 
ATOM      4  C   UNL     1       3.358   0.099   0.187  1.00  0.00     0.001 A 
ATOM      5  C   UNL     1       2.646   0.981   1.015  1.00  0.00     0.011 A 
ATOM      6  C   UNL     1       2.733  -1.099  -0.196  1.00  0.00     0.011 A 
ATOM      7  C   UNL     1       1.358   0.666   1.462  1.00  0.00     0.012 A 
ATOM      8  C   UNL     1       1.443  -1.417   0.246  1.00  0.00     0.012 A 
BRANCH   4   9
ATOM      9  C   UNL     1       4.710   0.441  -0.277  1.00  0.00     0.079 A 
ATOM     10  C   UNL     1       5.847  -0.270   0.080  1.00  0.00    -0.006 A 
ATOM     11  C   UNL     1       7.019   0.196  -0.480  1.00  0.00     0.120 A 
ATOM     12  N   UNL     1       7.094   1.263  -1.294  1.00  0.00    -0.222 NA
ATOM     13  N   UNL     1       4.756   1.528  -1.083  1.00  0.00    -0.213 NA
ATOM     14  C   UNL     1       5.945   1.879  -1.572  1.00  0.00     0.220 A 
ATOM     15  C   UNL     1       5.844  -1.464   0.977  1.00  0.00     0.048 C 
BRANCH  14  16
ATOM     16  N   UNL     1       5.997   2.988  -2.389  1.00  0.00    -0.368 N 
ATOM     17  H   UNL     1       5.208   3.589  -2.198  1.00  0.00     0.159 HD
ATOM     18  H   UNL     1       6.919   3.398  -2.348  1.00  0.00     0.159 HD
ENDBRANCH  14  16
ENDBRANCH   4   9
ENDBRANCH   1   3
BRANCH   1  19
ATOM     19  C   UNL     1      -1.436  -1.916   0.901  1.00  0.00     0.096 C 
BRANCH  19  20
ATOM     20  C   UNL     1      -2.948  -1.802   1.140  1.00  0.00     0.092 C 
BRANCH  20  21
ATOM     21  N   UNL     1      -3.653  -1.044   0.087  1.00  0.00    -0.303 NA
ATOM     22  C   UNL     1      -3.258   0.376   0.071  1.00  0.00     0.086 C 
ATOM     23  C   UNL     1      -5.114  -1.236   0.164  1.00  0.00     0.086 C 
ATOM     24  C   UNL     1      -4.284   1.246  -0.653  1.00  0.00     0.034 C 
ATOM     25  C   UNL     1      -5.854  -0.084   0.839  1.00  0.00     0.034 C 
ATOM     26  C   UNL     1      -5.614   1.246   0.113  1.00  0.00     0.053 C 
BRANCH  26  27
ATOM     27  N   UNL     1      -6.721   1.569  -0.793  1.00  0.00    -0.328 NA
ATOM     28  H   UNL     1      -6.525   2.451  -1.266  1.00  0.00     0.119 HD
ATOM     29  H   UNL     1      -6.777   0.865  -1.529  1.00  0.00     0.119 HD
ENDBRANCH  26  27
ENDBRANCH  20  21
ENDBRANCH  19  20
ENDBRANCH   1  19
TORSDOF 7
