MODEL        6USER    Run = 6USERUSER    Estimated Free Energy of Binding    =  -8.63 kcal/mol  [=(1)+(2)+(3)-(4)]USERUSER    (1) Final Intermolecular Energy     = -10.72 kcal/molUSER        vdW + Hbond + desolv Energy     = -10.48 kcal/molUSER        Electrostatic Energy            =  -0.24 kcal/molUSER        Moving Ligand-Fixed Receptor    = -10.72 kcal/molUSER        Moving Ligand-Moving Receptor   =  +0.00 kcal/molUSER    (2) Final Total Internal Energy     =  -0.85 kcal/molUSER    (3) Torsional Free Energy           =  +2.09 kcal/molUSER    (4) Unbound System's Energy         =  -0.85 kcal/molUSERUSERREMARK SMILES Nc1nccc(-c2ccc(F)c(C(=O)CCN3CCC(N)CC3)c2)n1REMARK SMILES IDX 13 1 14 2 12 3 7 4 8 5 24 6 9 7 10 8 11 9 6 10 2 11 3 12REMARK SMILES IDX 25 13 4 14 5 15 1 16 15 19 16 20 17 21 18 22 23 23 19 24REMARK SMILES IDX 22 25 20 26 21 27REMARK H PARENT 1 17 1 18 21 28 21 29USER                              x       y       z     vdW  Elec       q    TypeUSER                           _______ _______ _______ _____ _____    ______ ____ROOTATOM      1  C   UNL     1      37.353  46.357  14.528 -0.35 -0.08    +0.167 C  ATOM      2  O   UNL     1      37.564  45.596  13.583 -0.28 +0.10    -0.294 OA ENDROOTBRANCH   1   3ATOM      3  C   UNL     1      38.504  47.102  15.118 -0.41 -0.02    +0.054 A  ATOM      4  C   UNL     1      40.199  47.192  16.905 -0.51 -0.00    +0.001 A  ATOM      5  C   UNL     1      40.673  48.386  16.332 -0.56 -0.00    +0.013 A  ATOM      6  C   UNL     1      39.110  46.562  16.270 -0.42 -0.01    +0.025 A  ATOM      7  C   UNL     1      40.088  48.927  15.185 -0.54 -0.01    +0.041 A  ATOM      8  C   UNL     1      39.011  48.284  14.585 -0.42 -0.05    +0.134 A  ATOM      9  F   UNL     1      38.502  48.834  13.475 -0.05 +0.06    -0.206 F  BRANCH   4  10ATOM     10  C   UNL     1      40.839  46.631  18.118 -0.46 -0.01    +0.076 A  ATOM     11  C   UNL     1      42.587  46.788  19.603 -0.31 +0.05    +0.220 A  ATOM     12  N   UNL     1      42.171  45.749  20.329 -0.22 -0.05    -0.222 NA ATOM     13  N   UNL     1      41.979  47.246  18.508 -0.41 +0.00    -0.213 NA ATOM     14  C   UNL     1      41.034  45.160  19.926 -0.32 +0.01    +0.117 A  ATOM     15  C   UNL     1      40.321  45.562  18.823 -0.42 -0.00    +0.049 A  BRANCH  11  16ATOM     16  N   UNL     1      43.760  47.403  19.987 -0.14 -0.14    -0.368 N  ATOM     17  H   UNL     1      43.657  47.782  20.918 -0.42 +0.02    +0.159 HD ATOM     18  H   UNL     1      44.062  48.036  19.260 -0.45 +0.02    +0.159 HD ENDBRANCH  11  16ENDBRANCH   4  10ENDBRANCH   1   3BRANCH   1  19ATOM     19  C   UNL     1      35.951  46.521  15.078 -0.37 -0.08    +0.096 C  BRANCH  19  20ATOM     20  C   UNL     1      35.995  46.576  16.605 -0.35 -0.08    +0.092 C  BRANCH  20  21ATOM     21  N   UNL     1      35.414  45.433  17.324 -0.14 +0.17    -0.303 NA ATOM     22  C   UNL     1      36.304  44.267  17.361 -0.32 -0.03    +0.086 C  ATOM     23  C   UNL     1      34.069  45.081  16.856 -0.32 -0.06    +0.086 C  ATOM     24  C   UNL     1      35.744  43.186  18.289 -0.37 -0.01    +0.034 C  ATOM     25  C   UNL     1      33.437  44.025  17.765 -0.35 -0.01    +0.034 C  ATOM     26  C   UNL     1      34.314  42.778  17.926 -0.40 -0.02    +0.053 C  BRANCH  26  27ATOM     27  N   UNL     1      34.296  41.939  16.721 -0.17 +0.17    -0.328 NA ATOM     28  H   UNL     1      33.338  41.710  16.462 -0.50 -0.08    +0.119 HD ATOM     29  H   UNL     1      34.756  41.051  16.920 -0.53 -0.10    +0.119 HD ENDBRANCH  26  27ENDBRANCH  20  21ENDBRANCH  19  20ENDBRANCH   1  19TORSDOF 7TERENDMDL