MODEL        4USER    Run = 4USERUSER    Estimated Free Energy of Binding    =  -8.99 kcal/mol  [=(1)+(2)+(3)-(4)]USERUSER    (1) Final Intermolecular Energy     = -11.08 kcal/molUSER        vdW + Hbond + desolv Energy     = -11.07 kcal/molUSER        Electrostatic Energy            =  -0.01 kcal/molUSER        Moving Ligand-Fixed Receptor    = -11.08 kcal/molUSER        Moving Ligand-Moving Receptor   =  +0.00 kcal/molUSER    (2) Final Total Internal Energy     =  -1.01 kcal/molUSER    (3) Torsional Free Energy           =  +2.09 kcal/molUSER    (4) Unbound System's Energy         =  -1.01 kcal/molUSERUSERREMARK SMILES CNC1CCN(CCC(=O)c2ccc(-c3ccnc(N)n3)cc2)CC1REMARK SMILES IDX 8 1 7 2 6 3 3 4 4 5 25 6 5 7 24 8 2 9 1 10 9 12 10 13 11 14REMARK SMILES IDX 12 15 23 16 13 17 22 18 14 19 15 20 16 21 21 22 17 23 19 24REMARK SMILES IDX 18 25 20 26REMARK H PARENT 2 11 20 27 20 28USER                              x       y       z     vdW  Elec       q    TypeUSER                           _______ _______ _______ _____ _____    ______ ____ROOTATOM      1  C   UNL     1      37.611  47.373  12.769 -0.52 -0.02    +0.096 C  ENDROOTBRANCH   1   2ATOM      2  C   UNL     1      37.398  48.374  13.904 -0.55 -0.05    +0.092 C  BRANCH   2   3ATOM      3  N   UNL     1      38.445  48.433  14.934 -0.28 +0.17    -0.303 NA ATOM      4  C   UNL     1      40.868  47.809  16.448 -0.53 -0.01    +0.055 C  ATOM      5  C   UNL     1      39.466  47.444  16.955 -0.46 -0.01    +0.034 C  ATOM      6  C   UNL     1      40.767  49.026  15.520 -0.68 -0.01    +0.034 C  ATOM      7  C   UNL     1      38.497  47.244  15.788 -0.44 -0.04    +0.086 C  ATOM      8  C   UNL     1      39.762  48.777  14.393 -0.40 -0.03    +0.086 C  BRANCH   4   9ATOM      9  N   UNL     1      41.800  48.115  17.545 -0.54 +0.01    -0.317 NA ATOM     10  C   UNL     1      41.683  47.194  18.667 -0.50 -0.00    +0.101 C  ATOM     11  H   UNL     1      42.757  48.081  17.194 -0.45 +0.00    +0.122 HD ENDBRANCH   4   9ENDBRANCH   2   3ENDBRANCH   1   2BRANCH   1  12ATOM     12  C   UNL     1      36.511  46.332  12.784 -0.54 -0.07    +0.164 C  ATOM     13  O   UNL     1      35.979  45.971  11.734 -0.46 +0.14    -0.294 OA BRANCH  12  14ATOM     14  C   UNL     1      36.057  45.738  14.080 -0.41 -0.01    +0.018 A  ATOM     15  C   UNL     1      36.883  44.797  14.701 -0.38 -0.00    +0.012 A  ATOM     16  C   UNL     1      34.844  46.075  14.687 -0.33 -0.01    +0.012 A  ATOM     17  C   UNL     1      36.505  44.209  15.915 -0.37 -0.00    +0.011 A  ATOM     18  C   UNL     1      34.472  45.482  15.904 -0.31 -0.01    +0.011 A  ATOM     19  C   UNL     1      35.296  44.543  16.550 -0.32 -0.00    +0.000 A  BRANCH  19  20ATOM     20  C   UNL     1      34.919  43.911  17.833 -0.26 -0.02    +0.076 A  ATOM     21  C   UNL     1      35.644  42.885  18.407 -0.30 -0.01    +0.049 A  ATOM     22  N   UNL     1      33.798  44.394  18.414 -0.20 +0.07    -0.213 NA ATOM     23  C   UNL     1      35.165  42.396  19.599 -0.34 -0.01    +0.117 A  ATOM     24  C   UNL     1      33.430  43.865  19.584 -0.27 -0.02    +0.220 A  ATOM     25  N   UNL     1      34.061  42.866  20.201 -0.64 -0.03    -0.222 NA BRANCH  24  26ATOM     26  N   UNL     1      32.285  44.356  20.174 -0.17 +0.01    -0.368 N  ATOM     27  H   UNL     1      32.501  45.192  20.697 -0.48 -0.05    +0.159 HD ATOM     28  H   UNL     1      31.802  43.613  20.657 +0.07 +0.02    +0.159 HD ENDBRANCH  24  26ENDBRANCH  19  20ENDBRANCH  12  14ENDBRANCH   1  12TORSDOF 7TERENDMDL