
     RDKit          3D

 58 62  0  0  0  0  0  0  0  0999 V2000
    6.6219   -0.8005    2.2459 C   0  0  0  0  0  0  0  0  0  0  0  0
    5.8411   -0.8688    0.9801 C   0  0  0  0  0  0  0  0  0  0  0  0
    5.2080   -2.1632    0.5535 C   0  0  0  0  0  0  0  0  0  0  0  0
    4.3428   -1.0192    1.0145 C   0  0  0  0  0  0  0  0  0  0  0  0
    3.4903   -0.3341    0.0415 N   0  0  0  0  0  0  0  0  0  0  0  0
    3.0021    0.9783    0.2640 C   0  0  0  0  0  0  0  0  0  0  0  0
    3.5653    1.8065    1.2445 C   0  0  0  0  0  0  0  0  0  0  0  0
    3.1102    3.1129    1.4202 C   0  0  0  0  0  0  0  0  0  0  0  0
    2.1002    3.5645    0.5937 C   0  0  0  0  0  0  0  0  0  0  0  0
    1.4639    5.1475    0.7673 Cl  0  0  0  0  0  0  0  0  0  0  0  0
    1.5303    2.8364   -0.3788 N   0  0  0  0  0  0  0  0  0  0  0  0
    2.0152    1.5749   -0.5532 C   0  0  0  0  0  0  0  0  0  0  0  0
    1.3689    0.8379   -1.6413 C   0  0  0  0  0  0  0  0  0  0  0  0
    1.5861    1.1166   -2.9400 N   0  0  0  0  0  0  0  0  0  0  0  0
    0.8271    0.2311   -3.6033 N   0  0  0  0  0  0  0  0  0  0  0  0
    0.1291   -0.6092   -2.7903 C   0  0  0  0  0  0  0  0  0  0  0  0
    0.4307   -0.2220   -1.5020 C   0  0  0  0  0  0  0  0  0  0  0  0
   -0.0471   -0.8231   -0.2783 C   0  0  0  0  0  0  0  0  0  0  0  0
    0.4771   -1.8629    0.1202 O   0  0  0  0  0  0  0  0  0  0  0  0
   -1.0566   -0.1623    0.4205 N   0  0  0  0  0  0  0  0  0  0  0  0
   -1.5185   -0.7662    1.6733 C   0  0  0  0  0  0  0  0  0  0  0  0
   -2.5921   -1.8663    1.5102 C   0  0  0  0  0  0  0  0  0  0  0  0
   -2.2800   -2.8739    0.4957 N   0  0  0  0  0  0  0  0  0  0  0  0
   -1.6973    1.0837   -0.0165 C   0  0  0  0  0  0  0  0  0  0  0  0
   -3.1680    0.9348   -0.3295 C   0  0  0  0  0  0  0  0  0  0  0  0
   -4.1329    1.6469    0.4222 C   0  0  0  0  0  0  0  0  0  0  0  0
   -5.4981    1.5244    0.1424 C   0  0  0  0  0  0  0  0  0  0  0  0
   -5.8688    0.6934   -0.8919 C   0  0  0  0  0  0  0  0  0  0  0  0
   -4.9401    0.0043   -1.6352 C   0  0  0  0  0  0  0  0  0  0  0  0
   -3.5884    0.1024   -1.3814 C   0  0  0  0  0  0  0  0  0  0  0  0
   -5.5128   -0.7551   -2.6070 O   0  0  0  0  0  0  0  0  0  0  0  0
   -6.9092   -0.4707   -2.3846 C   0  0  0  0  0  0  0  0  0  0  0  0
   -7.1435    0.4514   -1.2985 O   0  0  0  0  0  0  0  0  0  0  0  0
    6.1674   -1.3992    3.0426 H   0  0  0  0  0  0  0  0  0  0  0  0
    6.6844    0.2357    2.5943 H   0  0  0  0  0  0  0  0  0  0  0  0
    7.6402   -1.1664    2.0832 H   0  0  0  0  0  0  0  0  0  0  0  0
    6.2696   -0.2407    0.2067 H   0  0  0  0  0  0  0  0  0  0  0  0
    5.2895   -3.0260    1.2041 H   0  0  0  0  0  0  0  0  0  0  0  0
    5.2216   -2.4056   -0.5033 H   0  0  0  0  0  0  0  0  0  0  0  0
    3.8525   -1.1636    1.9743 H   0  0  0  0  0  0  0  0  0  0  0  0
    2.8062   -0.9348   -0.4214 H   0  0  0  0  0  0  0  0  0  0  0  0
    4.3670    1.4477    1.8819 H   0  0  0  0  0  0  0  0  0  0  0  0
    3.5404    3.7527    2.1821 H   0  0  0  0  0  0  0  0  0  0  0  0
    0.8417    0.2543   -4.6180 H   0  0  0  0  0  0  0  0  0  0  0  0
   -0.5108   -1.3875   -3.1830 H   0  0  0  0  0  0  0  0  0  0  0  0
   -1.8902    0.0247    2.3352 H   0  0  0  0  0  0  0  0  0  0  0  0
   -0.6493   -1.2057    2.1791 H   0  0  0  0  0  0  0  0  0  0  0  0
   -3.5578   -1.4172    1.2619 H   0  0  0  0  0  0  0  0  0  0  0  0
   -2.7163   -2.3630    2.4797 H   0  0  0  0  0  0  0  0  0  0  0  0
   -1.2779   -3.0857    0.5245 H   0  0  0  0  0  0  0  0  0  0  0  0
   -2.7748   -3.7396    0.6973 H   0  0  0  0  0  0  0  0  0  0  0  0
   -1.2155    1.5101   -0.8996 H   0  0  0  0  0  0  0  0  0  0  0  0
   -1.5462    1.8137    0.7887 H   0  0  0  0  0  0  0  0  0  0  0  0
   -3.8199    2.3028    1.2329 H   0  0  0  0  0  0  0  0  0  0  0  0
   -6.2411    2.0680    0.7153 H   0  0  0  0  0  0  0  0  0  0  0  0
   -2.8793   -0.4680   -1.9708 H   0  0  0  0  0  0  0  0  0  0  0  0
   -7.3307   -0.0450   -3.3025 H   0  0  0  0  0  0  0  0  0  0  0  0
   -7.4278   -1.4118   -2.1631 H   0  0  0  0  0  0  0  0  0  0  0  0
  1  2  1  0
  2  3  1  0
  3  4  1  0
  4  5  1  0
  5  6  1  0
  6  7  2  0
  7  8  1  0
  8  9  2  0
  9 10  1  0
  9 11  1  0
 11 12  2  0
 12 13  1  0
 13 14  2  0
 14 15  1  0
 15 16  1  0
 16 17  2  0
 17 18  1  0
 18 19  2  0
 18 20  1  0
 20 21  1  0
 21 22  1  0
 22 23  1  0
 20 24  1  0
 24 25  1  0
 25 26  2  0
 26 27  1  0
 27 28  2  0
 28 29  1  0
 29 30  2  0
 29 31  1  0
 31 32  1  0
 32 33  1  0
  4  2  1  0
 12  6  1  0
 17 13  1  0
 30 25  1  0
 33 28  1  0
  1 34  1  0
  1 35  1  0
  1 36  1  0
  2 37  1  0
  3 38  1  0
  3 39  1  0
  4 40  1  0
  5 41  1  0
  7 42  1  0
  8 43  1  0
 15 44  1  0
 16 45  1  0
 21 46  1  0
 21 47  1  0
 22 48  1  0
 22 49  1  0
 23 50  1  0
 23 51  1  0
 24 52  1  0
 24 53  1  0
 26 54  1  0
 27 55  1  0
 30 56  1  0
 32 57  1  0
 32 58  1  0
M  END
$$$$
