
     RDKit          3D

 42 45  0  0  0  0  0  0  0  0999 V2000
   -3.0993   -2.9371   -2.6868 C   0  0  0  0  0  0  0  0  0  0  0  0
   -2.3270   -2.8998   -1.4257 C   0  0  0  0  0  0  0  0  0  0  0  0
   -1.6075   -3.8597   -0.8942 N   0  0  0  0  0  0  0  0  0  0  0  0
   -1.2127   -3.3450    0.3100 C   0  0  0  0  0  0  0  0  0  0  0  0
   -1.3929   -1.9807    0.4134 C   0  0  0  0  0  0  0  0  0  0  0  0
   -2.3285   -1.8148   -0.6038 N   0  0  0  0  0  0  0  0  0  0  0  0
   -1.3811   -0.7432   -0.5349 C   0  0  0  0  0  0  0  0  0  0  0  0
   -0.3146   -0.7105   -1.5581 N   0  0  0  0  0  0  0  0  0  0  0  0
    1.1094    0.1279   -1.2360 S   0  0  0  0  0  0  0  0  0  0  0  0
    2.0220   -0.3174   -2.2701 O   0  0  0  0  0  0  0  0  0  0  0  0
    0.7766    1.5264   -1.0789 O   0  0  0  0  0  0  0  0  0  0  0  0
    1.6513   -0.5544    0.3416 C   0  0  0  0  0  0  0  0  0  0  0  0
    2.9880    0.0367    0.7075 C   0  0  0  0  0  0  0  0  0  0  0  0
    3.0639    1.2755    1.3615 C   0  0  0  0  0  0  0  0  0  0  0  0
    4.3023    1.8222    1.7002 C   0  0  0  0  0  0  0  0  0  0  0  0
    5.4759    1.1393    1.3886 C   0  0  0  0  0  0  0  0  0  0  0  0
    5.4131   -0.0888    0.7332 C   0  0  0  0  0  0  0  0  0  0  0  0
    4.1761   -0.6380    0.3925 C   0  0  0  0  0  0  0  0  0  0  0  0
   -1.9741    0.5566   -0.0232 C   0  0  0  0  0  0  0  0  0  0  0  0
   -2.6566    1.4206   -0.9028 C   0  0  0  0  0  0  0  0  0  0  0  0
   -3.2237    2.6186   -0.4612 C   0  0  0  0  0  0  0  0  0  0  0  0
   -3.1123    2.9796    0.8728 C   0  0  0  0  0  0  0  0  0  0  0  0
   -3.6797    4.1549    1.2639 O   0  0  0  0  0  0  0  0  0  0  0  0
   -2.4403    2.1628    1.7721 C   0  0  0  0  0  0  0  0  0  0  0  0
   -1.8762    0.9634    1.3232 C   0  0  0  0  0  0  0  0  0  0  0  0
   -2.7629   -2.1501   -3.3689 H   0  0  0  0  0  0  0  0  0  0  0  0
   -4.1667   -2.7961   -2.4906 H   0  0  0  0  0  0  0  0  0  0  0  0
   -2.9695   -3.9008   -3.1890 H   0  0  0  0  0  0  0  0  0  0  0  0
   -0.7791   -3.9899    1.0653 H   0  0  0  0  0  0  0  0  0  0  0  0
   -0.1072   -1.6128   -1.9958 H   0  0  0  0  0  0  0  0  0  0  0  0
    1.7196   -1.6412    0.2346 H   0  0  0  0  0  0  0  0  0  0  0  0
    0.9128   -0.3103    1.1079 H   0  0  0  0  0  0  0  0  0  0  0  0
    2.1593    1.8334    1.5983 H   0  0  0  0  0  0  0  0  0  0  0  0
    4.3516    2.7869    2.1985 H   0  0  0  0  0  0  0  0  0  0  0  0
    6.4402    1.5691    1.6468 H   0  0  0  0  0  0  0  0  0  0  0  0
    6.3294   -0.6157    0.4792 H   0  0  0  0  0  0  0  0  0  0  0  0
    4.1506   -1.5915   -0.1317 H   0  0  0  0  0  0  0  0  0  0  0  0
   -2.7318    1.1653   -1.9586 H   0  0  0  0  0  0  0  0  0  0  0  0
   -3.7379    3.2715   -1.1609 H   0  0  0  0  0  0  0  0  0  0  0  0
   -3.4620    4.3116    2.1971 H   0  0  0  0  0  0  0  0  0  0  0  0
   -2.3442    2.4375    2.8178 H   0  0  0  0  0  0  0  0  0  0  0  0
   -1.3546    0.3379    2.0448 H   0  0  0  0  0  0  0  0  0  0  0  0
  1  2  1  0
  2  3  2  0
  3  4  1  0
  4  5  2  0
  5  6  1  0
  6  7  1  0
  7  8  1  0
  8  9  1  0
  9 10  2  0
  9 11  2  0
  9 12  1  0
 12 13  1  0
 13 14  2  0
 14 15  1  0
 15 16  2  0
 16 17  1  0
 17 18  2  0
  7 19  1  0
 19 20  2  0
 20 21  1  0
 21 22  2  0
 22 23  1  0
 22 24  1  0
 24 25  2  0
  6  2  1  0
 18 13  1  0
 25 19  1  0
  7  5  1  0
  1 26  1  0
  1 27  1  0
  1 28  1  0
  4 29  1  0
  8 30  1  0
 12 31  1  0
 12 32  1  0
 14 33  1  0
 15 34  1  0
 16 35  1  0
 17 36  1  0
 18 37  1  0
 20 38  1  0
 21 39  1  0
 23 40  1  0
 24 41  1  0
 25 42  1  0
M  END
$$$$
