
     RDKit          3D

 40 43  0  0  0  0  0  0  0  0999 V2000
    5.3660    0.9697   -1.0937 C   0  0  0  0  0  0  0  0  0  0  0  0
    4.5364    0.1973   -0.1785 N   0  0  0  0  0  0  0  0  0  0  0  0
    3.1715    0.4817   -0.5954 O   0  0  0  0  0  0  0  0  0  0  0  0
    2.5457   -0.7832   -0.9016 C   0  0  0  0  0  0  0  0  0  0  0  0
    1.1469   -0.6586   -1.4263 C   0  0  0  0  0  0  0  0  0  0  0  0
    1.3749   -1.2417   -0.0509 C   0  0  0  0  0  0  0  0  0  0  0  0
    0.9518   -0.4909    1.2011 C   0  0  0  0  0  0  0  0  0  0  0  0
    1.9053   -0.3032    2.2261 C   0  0  0  0  0  0  0  0  0  0  0  0
    1.6279    0.4331    3.3789 C   0  0  0  0  0  0  0  0  0  0  0  0
    0.3693    0.9907    3.5547 C   0  0  0  0  0  0  0  0  0  0  0  0
   -0.6062    0.7902    2.5812 C   0  0  0  0  0  0  0  0  0  0  0  0
   -1.8765    1.2432    2.8293 O   0  0  0  0  0  0  0  0  0  0  0  0
   -0.3410    0.0529    1.4085 C   0  0  0  0  0  0  0  0  0  0  0  0
   -1.3801   -0.1351    0.4652 N   0  0  0  0  0  0  0  0  0  0  0  0
   -2.1807    0.8801   -0.0108 C   0  0  0  0  0  0  0  0  0  0  0  0
   -2.1264    2.0891    0.1354 O   0  0  0  0  0  0  0  0  0  0  0  0
   -3.1559    0.2515   -0.8987 C   0  0  0  0  0  0  0  0  0  0  0  0
   -4.1820    0.8108   -1.6367 C   0  0  0  0  0  0  0  0  0  0  0  0
   -4.9543   -0.0538   -2.4188 C   0  0  0  0  0  0  0  0  0  0  0  0
   -4.6850   -1.4375   -2.4459 C   0  0  0  0  0  0  0  0  0  0  0  0
   -3.6385   -1.9782   -1.6923 C   0  0  0  0  0  0  0  0  0  0  0  0
   -2.8891   -1.1026   -0.9294 C   0  0  0  0  0  0  0  0  0  0  0  0
   -1.7533   -1.3558   -0.0459 C   0  0  0  0  0  0  0  0  0  0  0  0
   -1.3331   -2.4806    0.1597 O   0  0  0  0  0  0  0  0  0  0  0  0
    5.0959    2.0308   -1.0821 H   0  0  0  0  0  0  0  0  0  0  0  0
    6.4157    0.8833   -0.7980 H   0  0  0  0  0  0  0  0  0  0  0  0
    5.2733    0.5897   -2.1160 H   0  0  0  0  0  0  0  0  0  0  0  0
    4.5488    0.6444    0.7385 H   0  0  0  0  0  0  0  0  0  0  0  0
    3.1593   -1.5548   -1.3591 H   0  0  0  0  0  0  0  0  0  0  0  0
    0.7421    0.3421   -1.5214 H   0  0  0  0  0  0  0  0  0  0  0  0
    0.8427   -1.3364   -2.2149 H   0  0  0  0  0  0  0  0  0  0  0  0
    1.2697   -2.3234    0.0287 H   0  0  0  0  0  0  0  0  0  0  0  0
    2.8978   -0.7367    2.1087 H   0  0  0  0  0  0  0  0  0  0  0  0
    2.3941    0.5588    4.1395 H   0  0  0  0  0  0  0  0  0  0  0  0
    0.1489    1.5376    4.4660 H   0  0  0  0  0  0  0  0  0  0  0  0
   -1.8101    2.0423    3.3781 H   0  0  0  0  0  0  0  0  0  0  0  0
   -4.3759    1.8783   -1.6069 H   0  0  0  0  0  0  0  0  0  0  0  0
   -5.7739    0.3448   -3.0142 H   0  0  0  0  0  0  0  0  0  0  0  0
   -5.3010   -2.0916   -3.0607 H   0  0  0  0  0  0  0  0  0  0  0  0
   -3.4210   -3.0415   -1.7012 H   0  0  0  0  0  0  0  0  0  0  0  0
  1  2  1  0
  2  3  1  0
  3  4  1  0
  4  5  1  0
  5  6  1  0
  6  7  1  0
  7  8  2  0
  8  9  1  0
  9 10  2  0
 10 11  1  0
 11 12  1  0
 11 13  2  0
 13 14  1  0
 14 15  1  0
 15 16  2  0
 15 17  1  0
 17 18  2  0
 18 19  1  0
 19 20  2  0
 20 21  1  0
 21 22  2  0
 22 23  1  0
 23 24  2  0
  6  4  1  0
 13  7  1  0
 23 14  1  0
 22 17  1  0
  1 25  1  0
  1 26  1  0
  1 27  1  0
  2 28  1  0
  4 29  1  0
  5 30  1  0
  5 31  1  0
  6 32  1  0
  8 33  1  0
  9 34  1  0
 10 35  1  0
 12 36  1  0
 18 37  1  0
 19 38  1  0
 20 39  1  0
 21 40  1  0
M  END
$$$$
