
     RDKit          3D

 44 47  0  0  0  0  0  0  0  0999 V2000
    6.7371   -0.5784    0.2216 C   0  0  0  0  0  0  0  0  0  0  0  0
    5.5508    0.3376    0.1837 C   0  0  0  0  0  0  0  0  0  0  0  0
    4.3348   -0.0700    0.7289 C   0  0  0  0  0  0  0  0  0  0  0  0
    3.2365    0.7956    0.6782 C   0  0  0  0  0  0  0  0  0  0  0  0
    1.9034    0.3849    1.2431 C   0  0  0  0  0  0  0  0  0  0  0  0
    0.9089   -0.3481   -0.0615 S   0  0  0  0  0  0  0  0  0  0  0  0
    1.4981   -1.6113   -0.4560 O   0  0  0  0  0  0  0  0  0  0  0  0
    0.5596    0.6717   -1.0247 O   0  0  0  0  0  0  0  0  0  0  0  0
   -0.4690   -0.7938    0.8300 N   0  0  0  0  0  0  0  0  0  0  0  0
   -1.7674   -0.3013    0.3096 C   0  0  0  0  0  0  0  0  0  0  0  0
   -2.3521   -1.0379   -0.8858 C   0  0  0  0  0  0  0  0  0  0  0  0
   -2.2519   -0.5315   -2.1965 C   0  0  0  0  0  0  0  0  0  0  0  0
   -2.7808   -1.2203   -3.2913 C   0  0  0  0  0  0  0  0  0  0  0  0
   -3.4194   -2.4356   -3.0963 C   0  0  0  0  0  0  0  0  0  0  0  0
   -3.9249   -3.0719   -4.1896 O   0  0  0  0  0  0  0  0  0  0  0  0
   -3.5312   -2.9779   -1.8244 C   0  0  0  0  0  0  0  0  0  0  0  0
   -2.9981   -2.2833   -0.7322 C   0  0  0  0  0  0  0  0  0  0  0  0
   -2.0754    1.1084    0.4831 C   0  0  0  0  0  0  0  0  0  0  0  0
   -2.6264    2.2440    0.9763 C   0  0  0  0  0  0  0  0  0  0  0  0
   -3.4846    2.0484    1.9923 N   0  0  0  0  0  0  0  0  0  0  0  0
   -3.5023    0.7544    2.1345 C   0  0  0  0  0  0  0  0  0  0  0  0
   -4.3373    0.0235    3.1245 C   0  0  0  0  0  0  0  0  0  0  0  0
   -2.7026    0.0665    1.3016 N   0  0  0  0  0  0  0  0  0  0  0  0
    3.4038    2.0434    0.0709 C   0  0  0  0  0  0  0  0  0  0  0  0
    4.6485    2.3699   -0.4422 C   0  0  0  0  0  0  0  0  0  0  0  0
    5.7211    1.5505   -0.3911 N   0  0  0  0  0  0  0  0  0  0  0  0
    7.0359   -0.7671    1.2598 H   0  0  0  0  0  0  0  0  0  0  0  0
    7.5884   -0.1336   -0.3060 H   0  0  0  0  0  0  0  0  0  0  0  0
    6.4961   -1.5315   -0.2643 H   0  0  0  0  0  0  0  0  0  0  0  0
    4.2472   -1.0577    1.1725 H   0  0  0  0  0  0  0  0  0  0  0  0
    2.0238   -0.3587    2.0374 H   0  0  0  0  0  0  0  0  0  0  0  0
    1.3620    1.2484    1.6403 H   0  0  0  0  0  0  0  0  0  0  0  0
   -0.4564   -1.8117    0.9260 H   0  0  0  0  0  0  0  0  0  0  0  0
   -1.7458    0.4177   -2.3726 H   0  0  0  0  0  0  0  0  0  0  0  0
   -2.6870   -0.8076   -4.2919 H   0  0  0  0  0  0  0  0  0  0  0  0
   -4.3473   -3.8984   -3.9050 H   0  0  0  0  0  0  0  0  0  0  0  0
   -4.0237   -3.9322   -1.6610 H   0  0  0  0  0  0  0  0  0  0  0  0
   -3.0901   -2.7276    0.2569 H   0  0  0  0  0  0  0  0  0  0  0  0
   -2.4192    3.2462    0.6208 H   0  0  0  0  0  0  0  0  0  0  0  0
   -5.1832   -0.4576    2.6247 H   0  0  0  0  0  0  0  0  0  0  0  0
   -4.7327    0.7127    3.8807 H   0  0  0  0  0  0  0  0  0  0  0  0
   -3.7516   -0.7467    3.6388 H   0  0  0  0  0  0  0  0  0  0  0  0
    2.5841    2.7490   -0.0171 H   0  0  0  0  0  0  0  0  0  0  0  0
    4.8203    3.3274   -0.9267 H   0  0  0  0  0  0  0  0  0  0  0  0
  1  2  1  0
  2  3  2  0
  3  4  1  0
  4  5  1  0
  5  6  1  0
  6  7  2  0
  6  8  2  0
  6  9  1  0
  9 10  1  0
 10 11  1  0
 11 12  2  0
 12 13  1  0
 13 14  2  0
 14 15  1  0
 14 16  1  0
 16 17  2  0
 10 18  1  0
 18 19  2  0
 19 20  1  0
 20 21  2  0
 21 22  1  0
 21 23  1  0
  4 24  2  0
 24 25  1  0
 25 26  2  0
 26  2  1  0
 23 10  1  0
 17 11  1  0
 23 18  1  0
  1 27  1  0
  1 28  1  0
  1 29  1  0
  3 30  1  0
  5 31  1  0
  5 32  1  0
  9 33  1  0
 12 34  1  0
 13 35  1  0
 15 36  1  0
 16 37  1  0
 17 38  1  0
 19 39  1  0
 22 40  1  0
 22 41  1  0
 22 42  1  0
 24 43  1  0
 25 44  1  0
M  END
$$$$
