
     RDKit          3D

 36 37  0  0  0  0  0  0  0  0999 V2000
    2.5619   -2.4948    2.0174 C   0  0  0  0  0  0  0  0  0  0  0  0
    2.8039   -1.2743    1.1493 C   0  0  0  0  0  0  0  0  0  0  0  0
    1.7119   -0.3656    1.3522 O   0  0  0  0  0  0  0  0  0  0  0  0
    1.7415    0.6289    0.4111 C   0  0  0  0  0  0  0  0  0  0  0  0
    2.5296    1.7575    0.6376 C   0  0  0  0  0  0  0  0  0  0  0  0
    2.5052    2.7952   -0.2907 C   0  0  0  0  0  0  0  0  0  0  0  0
    3.2601    3.9177   -0.1202 O   0  0  0  0  0  0  0  0  0  0  0  0
    1.7028    2.7268   -1.4280 C   0  0  0  0  0  0  0  0  0  0  0  0
    0.8974    1.6081   -1.6440 C   0  0  0  0  0  0  0  0  0  0  0  0
    0.9114    0.5666   -0.7124 C   0  0  0  0  0  0  0  0  0  0  0  0
    0.0502   -0.6044   -0.9396 C   0  0  0  0  0  0  0  0  0  0  0  0
    0.5169   -1.6473   -1.3784 O   0  0  0  0  0  0  0  0  0  0  0  0
   -1.3935   -0.5219   -0.6378 C   0  0  0  0  0  0  0  0  0  0  0  0
   -1.8142   -0.0177    0.6022 C   0  0  0  0  0  0  0  0  0  0  0  0
   -3.1811   -0.0289    0.9265 C   0  0  0  0  0  0  0  0  0  0  0  0
   -3.6233    0.4963    2.2268 N   0  0  0  0  0  0  0  0  0  0  0  0
   -2.7678    1.0143    2.9565 O   0  0  0  0  0  0  0  0  0  0  0  0
   -4.8247    0.3933    2.5083 O   0  0  0  0  0  0  0  0  0  0  0  0
   -4.1304   -0.5431    0.0283 C   0  0  0  0  0  0  0  0  0  0  0  0
   -3.7125   -1.0425   -1.2077 C   0  0  0  0  0  0  0  0  0  0  0  0
   -2.3471   -1.0259   -1.5300 C   0  0  0  0  0  0  0  0  0  0  0  0
   -1.9612   -1.4567   -2.8620 N   0  0  0  0  0  0  0  0  0  0  0  0
   -2.3322   -2.5821   -3.2190 O   0  0  0  0  0  0  0  0  0  0  0  0
   -1.3745   -0.6237   -3.5670 O   0  0  0  0  0  0  0  0  0  0  0  0
    3.3739   -3.2189    1.9076 H   0  0  0  0  0  0  0  0  0  0  0  0
    2.4827   -2.2090    3.0715 H   0  0  0  0  0  0  0  0  0  0  0  0
    1.6175   -2.9783    1.7460 H   0  0  0  0  0  0  0  0  0  0  0  0
    2.8744   -1.5833    0.0993 H   0  0  0  0  0  0  0  0  0  0  0  0
    3.7436   -0.7939    1.4464 H   0  0  0  0  0  0  0  0  0  0  0  0
    3.1402    1.8153    1.5325 H   0  0  0  0  0  0  0  0  0  0  0  0
    3.7705    3.8358    0.7027 H   0  0  0  0  0  0  0  0  0  0  0  0
    1.7073    3.5448   -2.1443 H   0  0  0  0  0  0  0  0  0  0  0  0
    0.2813    1.5507   -2.5383 H   0  0  0  0  0  0  0  0  0  0  0  0
   -1.0826    0.3490    1.3211 H   0  0  0  0  0  0  0  0  0  0  0  0
   -5.1917   -0.5577    0.2748 H   0  0  0  0  0  0  0  0  0  0  0  0
   -4.4476   -1.4302   -1.9120 H   0  0  0  0  0  0  0  0  0  0  0  0
  1  2  1  0
  2  3  1  0
  3  4  1  0
  4  5  2  0
  5  6  1  0
  6  7  1  0
  6  8  2  0
  8  9  1  0
  9 10  2  0
 10 11  1  0
 11 12  2  0
 11 13  1  0
 13 14  2  0
 14 15  1  0
 15 16  1  0
 16 17  2  0
 16 18  1  0
 15 19  2  0
 19 20  1  0
 20 21  2  0
 21 22  1  0
 22 23  2  0
 22 24  1  0
 10  4  1  0
 21 13  1  0
  1 25  1  0
  1 26  1  0
  1 27  1  0
  2 28  1  0
  2 29  1  0
  5 30  1  0
  7 31  1  0
  8 32  1  0
  9 33  1  0
 14 34  1  0
 19 35  1  0
 20 36  1  0
M  CHG  4  16   1  18  -1  22   1  24  -1
M  END
$$$$
