
     RDKit          3D

 41 44  0  0  0  0  0  0  0  0999 V2000
   -0.4319    3.4919    0.0126 C   0  0  0  0  0  0  0  0  0  0  0  0
   -0.3776    2.4926   -1.0760 C   0  0  0  0  0  0  0  0  0  0  0  0
    0.3796    2.5144   -2.1462 N   0  0  0  0  0  0  0  0  0  0  0  0
   -0.0404    1.4287   -2.8681 C   0  0  0  0  0  0  0  0  0  0  0  0
   -0.8336    0.5592   -2.1478 C   0  0  0  0  0  0  0  0  0  0  0  0
   -1.1928    1.4031   -1.1065 N   0  0  0  0  0  0  0  0  0  0  0  0
   -0.9175    0.0651   -0.6714 C   0  0  0  0  0  0  0  0  0  0  0  0
    0.3763   -0.1929    0.0267 N   0  0  0  0  0  0  0  0  0  0  0  0
    1.1267   -1.6513   -0.4219 S   0  0  0  0  0  0  0  0  0  0  0  0
    0.1807   -2.7352   -0.2733 O   0  0  0  0  0  0  0  0  0  0  0  0
    1.7938   -1.4124   -1.6846 O   0  0  0  0  0  0  0  0  0  0  0  0
    2.3775   -1.8521    0.8577 C   0  0  0  0  0  0  0  0  0  0  0  0
    3.0777   -0.5490    1.1438 C   0  0  0  0  0  0  0  0  0  0  0  0
    2.8321    0.1377    2.3380 C   0  0  0  0  0  0  0  0  0  0  0  0
    3.4756    1.3455    2.5580 C   0  0  0  0  0  0  0  0  0  0  0  0
    4.3303    1.9084    1.6805 N   0  0  0  0  0  0  0  0  0  0  0  0
    4.5654    1.2291    0.5383 C   0  0  0  0  0  0  0  0  0  0  0  0
    3.9768    0.0118    0.2312 C   0  0  0  0  0  0  0  0  0  0  0  0
   -2.1514   -0.6974   -0.2323 C   0  0  0  0  0  0  0  0  0  0  0  0
   -2.7334   -0.4586    1.0301 C   0  0  0  0  0  0  0  0  0  0  0  0
   -3.8787   -1.1416    1.4537 C   0  0  0  0  0  0  0  0  0  0  0  0
   -4.4590   -2.0840    0.6144 C   0  0  0  0  0  0  0  0  0  0  0  0
   -5.5757   -2.7735    0.9824 O   0  0  0  0  0  0  0  0  0  0  0  0
   -3.9091   -2.3562   -0.6298 C   0  0  0  0  0  0  0  0  0  0  0  0
   -2.7640   -1.6706   -1.0454 C   0  0  0  0  0  0  0  0  0  0  0  0
    0.2186    4.3425   -0.2154 H   0  0  0  0  0  0  0  0  0  0  0  0
   -1.4508    3.8689    0.1438 H   0  0  0  0  0  0  0  0  0  0  0  0
   -0.0985    3.0511    0.9567 H   0  0  0  0  0  0  0  0  0  0  0  0
    0.2694    1.2984   -3.8977 H   0  0  0  0  0  0  0  0  0  0  0  0
    1.0400    0.5606   -0.1952 H   0  0  0  0  0  0  0  0  0  0  0  0
    1.8694   -2.2378    1.7472 H   0  0  0  0  0  0  0  0  0  0  0  0
    3.0877   -2.6104    0.5131 H   0  0  0  0  0  0  0  0  0  0  0  0
    2.1508   -0.2499    3.0882 H   0  0  0  0  0  0  0  0  0  0  0  0
    3.3133    1.9102    3.4727 H   0  0  0  0  0  0  0  0  0  0  0  0
    5.2601    1.7043   -0.1489 H   0  0  0  0  0  0  0  0  0  0  0  0
    4.2123   -0.4742   -0.7123 H   0  0  0  0  0  0  0  0  0  0  0  0
   -2.2792    0.2696    1.7004 H   0  0  0  0  0  0  0  0  0  0  0  0
   -4.2948   -0.9287    2.4333 H   0  0  0  0  0  0  0  0  0  0  0  0
   -5.8309   -2.4984    1.8779 H   0  0  0  0  0  0  0  0  0  0  0  0
   -4.3612   -3.1056   -1.2744 H   0  0  0  0  0  0  0  0  0  0  0  0
   -2.3339   -1.9131   -2.0162 H   0  0  0  0  0  0  0  0  0  0  0  0
  1  2  1  0
  2  3  2  0
  3  4  1  0
  4  5  2  0
  5  6  1  0
  6  7  1  0
  7  8  1  0
  8  9  1  0
  9 10  2  0
  9 11  2  0
  9 12  1  0
 12 13  1  0
 13 14  2  0
 14 15  1  0
 15 16  2  0
 16 17  1  0
 17 18  2  0
  7 19  1  0
 19 20  2  0
 20 21  1  0
 21 22  2  0
 22 23  1  0
 22 24  1  0
 24 25  2  0
  6  2  1  0
 18 13  1  0
 25 19  1  0
  7  5  1  0
  1 26  1  0
  1 27  1  0
  1 28  1  0
  4 29  1  0
  8 30  1  0
 12 31  1  0
 12 32  1  0
 14 33  1  0
 15 34  1  0
 17 35  1  0
 18 36  1  0
 20 37  1  0
 21 38  1  0
 23 39  1  0
 24 40  1  0
 25 41  1  0
M  END
$$$$
