
     RDKit          3D

 37 37  0  0  0  0  0  0  0  0999 V2000
   -3.9890   -1.6794   -0.3122 C   0  0  0  0  0  0  0  0  0  0  0  0
   -4.0010   -0.3010    0.3504 C   0  0  0  0  0  0  0  0  0  0  0  0
   -5.0146    0.6130   -0.3359 C   0  0  0  0  0  0  0  0  0  0  0  0
   -2.5872    0.3122    0.4477 C   0  0  0  0  0  0  0  0  0  0  0  0
   -1.8918    0.6317   -0.8822 C   0  0  0  0  0  0  0  0  0  0  0  0
   -2.4884    1.7771   -1.4808 O   0  0  0  0  0  0  0  0  0  0  0  0
   -0.3859    0.8824   -0.6477 C   0  0  0  0  0  0  0  0  0  0  0  0
    0.0648    2.0261   -0.6780 O   0  0  0  0  0  0  0  0  0  0  0  0
    0.3442   -0.2606   -0.4113 N   0  0  0  0  0  0  0  0  0  0  0  0
    1.7244   -0.4250   -0.1289 C   0  0  0  0  0  0  0  0  0  0  0  0
    2.1260   -1.7628    0.0132 C   0  0  0  0  0  0  0  0  0  0  0  0
    3.4481   -2.0963    0.3016 C   0  0  0  0  0  0  0  0  0  0  0  0
    4.4000   -1.0967    0.4569 C   0  0  0  0  0  0  0  0  0  0  0  0
    5.6614   -1.5398    0.7400 O   0  0  0  0  0  0  0  0  0  0  0  0
    4.0477    0.2501    0.3272 C   0  0  0  0  0  0  0  0  0  0  0  0
    5.0546    1.3549    0.4924 C   0  0  0  0  0  0  0  0  0  0  0  0
    4.7712    2.2141    1.5105 F   0  0  0  0  0  0  0  0  0  0  0  0
    6.3062    0.8711    0.7859 F   0  0  0  0  0  0  0  0  0  0  0  0
    5.2323    2.1118   -0.6258 F   0  0  0  0  0  0  0  0  0  0  0  0
    2.7041    0.5736    0.0318 C   0  0  0  0  0  0  0  0  0  0  0  0
    2.4559    1.9123   -0.0731 O   0  0  0  0  0  0  0  0  0  0  0  0
   -3.2656   -2.3406    0.1763 H   0  0  0  0  0  0  0  0  0  0  0  0
   -4.9754   -2.1500   -0.2352 H   0  0  0  0  0  0  0  0  0  0  0  0
   -3.7358   -1.6180   -1.3752 H   0  0  0  0  0  0  0  0  0  0  0  0
   -4.3472   -0.4443    1.3829 H   0  0  0  0  0  0  0  0  0  0  0  0
   -4.8216    0.7071   -1.4092 H   0  0  0  0  0  0  0  0  0  0  0  0
   -6.0283    0.2132   -0.2206 H   0  0  0  0  0  0  0  0  0  0  0  0
   -5.0014    1.6144    0.1078 H   0  0  0  0  0  0  0  0  0  0  0  0
   -1.9664   -0.3746    1.0380 H   0  0  0  0  0  0  0  0  0  0  0  0
   -2.6594    1.2371    1.0365 H   0  0  0  0  0  0  0  0  0  0  0  0
   -1.9837   -0.1943   -1.5934 H   0  0  0  0  0  0  0  0  0  0  0  0
   -1.9770    2.5518   -1.1699 H   0  0  0  0  0  0  0  0  0  0  0  0
   -0.1810   -1.1259   -0.4723 H   0  0  0  0  0  0  0  0  0  0  0  0
    1.4147   -2.5791   -0.0965 H   0  0  0  0  0  0  0  0  0  0  0  0
    3.7367   -3.1398    0.4066 H   0  0  0  0  0  0  0  0  0  0  0  0
    6.2836   -0.7937    0.8389 H   0  0  0  0  0  0  0  0  0  0  0  0
    1.5247    2.0678   -0.3366 H   0  0  0  0  0  0  0  0  0  0  0  0
  1  2  1  0
  2  3  1  0
  2  4  1  0
  4  5  1  0
  5  6  1  0
  5  7  1  0
  7  8  2  0
  7  9  1  0
  9 10  1  0
 10 11  2  0
 11 12  1  0
 12 13  2  0
 13 14  1  0
 13 15  1  0
 15 16  1  0
 16 17  1  0
 16 18  1  0
 16 19  1  0
 15 20  2  0
 20 21  1  0
 20 10  1  0
  1 22  1  0
  1 23  1  0
  1 24  1  0
  2 25  1  0
  3 26  1  0
  3 27  1  0
  3 28  1  0
  4 29  1  0
  4 30  1  0
  5 31  1  0
  6 32  1  0
  9 33  1  0
 11 34  1  0
 12 35  1  0
 14 36  1  0
 21 37  1  0
M  END
$$$$
