MODEL        2USER    Run = 2USERUSER    Estimated Free Energy of Binding    = -11.82 kcal/mol  [=(1)+(2)+(3)-(4)]USERUSER    (1) Final Intermolecular Energy     = -14.51 kcal/molUSER        vdW + Hbond + desolv Energy     = -14.35 kcal/molUSER        Electrostatic Energy            =  -0.16 kcal/molUSER        Moving Ligand-Fixed Receptor    = -14.51 kcal/molUSER        Moving Ligand-Moving Receptor   =  +0.00 kcal/molUSER    (2) Final Total Internal Energy     =  -1.46 kcal/molUSER    (3) Torsional Free Energy           =  +2.68 kcal/molUSER    (4) Unbound System's Energy         =  -1.46 kcal/molUSERUSERREMARK SMILES CN1CCN(CCOc2ccc3[nH]c(-c4ccc(CN5CCC(n6c(O)nc7ccccc76)CC5)cc4)nc3c2)CC1REMARK SMILES IDX 9 1 10 2 11 3 12 4 13 5 14 6 38 7 39 8 40 9 8 11 7 12 6 13REMARK SMILES IDX 5 14 2 15 3 16 42 17 4 18 41 19 1 20 15 21 16 22 37 23 17 24REMARK SMILES IDX 36 25 18 26 19 27 20 28 21 29 35 30 22 31 34 32 23 33 24 34REMARK SMILES IDX 25 35 33 36 27 37 32 38 28 39 31 40 29 41 30 42 26 43REMARK H PARENT 13 10 26 44USER                              x       y       z     vdW  Elec       q    TypeUSER                           _______ _______ _______ _____ _____    ______ ____ROOTATOM      1  C   UNL     1      40.323  45.675  20.226 -0.29 +0.00    +0.121 A  ATOM      2  C   UNL     1      40.238  44.754  21.275 -0.28 +0.00    +0.049 A  ATOM      3  C   UNL     1      39.131  43.906  21.424 -0.23 +0.00    +0.032 A  ATOM      4  C   UNL     1      38.118  44.026  20.473 -0.30 -0.00    +0.066 A  ATOM      5  N   UNL     1      36.925  43.376  20.304 -0.16 +0.01    -0.338 N  ATOM      6  C   UNL     1      36.295  43.876  19.186 -0.27 -0.02    +0.138 A  ATOM      7  N   UNL     1      37.043  44.820  18.638 -0.21 +0.04    -0.228 NA ATOM      8  C   UNL     1      38.168  44.925  19.418 -0.29 -0.01    +0.093 A  ATOM      9  C   UNL     1      39.282  45.766  19.288 -0.33 -0.00    +0.077 A  ATOM     10  H   UNL     1      36.573  42.636  20.892 +0.11 +0.00    +0.168 HD ENDROOTBRANCH   1  11ATOM     11  O   UNL     1      41.353  46.549  20.003 -0.13 -0.04    -0.492 OA BRANCH  11  12ATOM     12  C   UNL     1      41.957  46.589  18.707 -0.40 +0.01    +0.245 C  BRANCH  12  13ATOM     13  C   UNL     1      41.780  47.960  18.019 -0.42 -0.00    +0.126 C  BRANCH  13  14ATOM     14  N   UNL     1      40.750  47.992  16.966 -0.35 +0.05    -0.297 NA ATOM     15  N   UNL     1      39.107  47.917  14.626 -0.26 +0.10    -0.304 NA ATOM     16  C   UNL     1      40.301  48.778  14.579 -0.54 -0.03    +0.099 C  ATOM     17  C   UNL     1      39.448  46.636  15.281 -0.45 -0.02    +0.099 C  ATOM     18  C   UNL     1      41.017  49.019  15.938 -0.61 -0.01    +0.100 C  ATOM     19  C   UNL     1      40.594  46.677  16.329 -0.43 -0.01    +0.100 C  ATOM     20  C   UNL     1      38.007  48.584  15.323 -0.50 -0.07    +0.105 C  ENDBRANCH  13  14ENDBRANCH  12  13ENDBRANCH  11  12ENDBRANCH   1  11BRANCH   6  21ATOM     21  C   UNL     1      35.003  43.395  18.679 -0.35 -0.00    +0.017 A  ATOM     22  C   UNL     1      34.968  42.666  17.483 -0.40 -0.00    +0.012 A  ATOM     23  C   UNL     1      33.795  43.629  19.351 -0.41 -0.00    +0.012 A  ATOM     24  C   UNL     1      33.763  42.168  16.977 -0.35 -0.00    +0.006 A  ATOM     25  C   UNL     1      32.588  43.133  18.844 -0.37 -0.00    +0.006 A  ATOM     26  C   UNL     1      32.558  42.402  17.650 -0.32 +0.01    -0.034 A  BRANCH  26  27ATOM     27  C   UNL     1      31.251  41.834  17.133 -0.28 -0.04    +0.120 C  BRANCH  27  28ATOM     28  N   UNL     1      30.970  40.461  17.585 -0.17 +0.04    -0.299 NA ATOM     29  C   UNL     1      29.560  40.264  17.949 -0.29 +0.00    +0.087 C  ATOM     30  C   UNL     1      31.905  40.063  18.638 -0.42 +0.00    +0.087 C  ATOM     31  C   UNL     1      29.335  39.475  19.238 -0.24 +0.00    +0.041 C  ATOM     32  C   UNL     1      31.714  38.585  18.970 -0.51 +0.01    +0.041 C  ATOM     33  C   UNL     1      30.256  38.255  19.325 -0.40 +0.02    +0.095 C  BRANCH  33  34ATOM     34  N   UNL     1      30.137  37.587  20.618 -0.19 -0.03    -0.291 N  ATOM     35  C   UNL     1      30.985  37.728  21.681 -0.27 +0.02    +0.295 A  ATOM     36  C   UNL     1      29.149  36.706  21.007 -0.26 -0.00    +0.072 A  ATOM     37  N   UNL     1      30.637  37.020  22.720 -0.34 -0.00    -0.195 NA ATOM     38  C   UNL     1      28.021  36.175  20.369 -0.16 -0.01    +0.029 A  ATOM     39  C   UNL     1      29.491  36.375  22.321 -0.33 +0.00    +0.092 A  ATOM     40  C   UNL     1      27.229  35.286  21.106 -0.28 -0.00    +0.002 A  ATOM     41  C   UNL     1      28.683  35.482  23.040 -0.24 +0.01    +0.031 A  ATOM     42  C   UNL     1      27.551  34.943  22.419 -0.38 -0.00    +0.002 A  BRANCH  35  43ATOM     43  O   UNL     1      32.061  38.489  21.691 -0.79 -0.11    -0.480 OA ATOM     44  H   UNL     1      32.241  38.541  22.647 -0.29 -0.06    +0.296 HD ENDBRANCH  35  43ENDBRANCH  33  34ENDBRANCH  27  28ENDBRANCH  26  27ENDBRANCH   6  21TORSDOF 9TERENDMDL