REMARK SMILES CN1CCN(CCOc2ccc3[nH]c(-c4ccc(CN5CCC(n6c(O)nc7ccccc76)CC5)cc4)nc3c2)CC1
REMARK SMILES IDX 9 1 10 2 11 3 12 4 13 5 14 6 38 7 39 8 40 9 8 11 7 12 6 13
REMARK SMILES IDX 5 14 2 15 3 16 42 17 4 18 41 19 1 20 15 21 16 22 37 23 17 24
REMARK SMILES IDX 36 25 18 26 19 27 20 28 21 29 35 30 22 31 34 32 23 33 24 34
REMARK SMILES IDX 25 35 33 36 27 37 32 38 28 39 31 40 29 41 30 42 26 43
REMARK H PARENT 13 10 26 44
ROOT
ATOM      1  C   UNL     1       5.635  -1.351  -1.005  1.00  0.00     0.121 A 
ATOM      2  C   UNL     1       5.726  -2.464  -0.162  1.00  0.00     0.049 A 
ATOM      3  C   UNL     1       4.584  -3.147   0.281  1.00  0.00     0.032 A 
ATOM      4  C   UNL     1       3.353  -2.663  -0.161  1.00  0.00     0.066 A 
ATOM      5  N   UNL     1       2.065  -3.072   0.059  1.00  0.00    -0.338 N 
ATOM      6  C   UNL     1       1.207  -2.241  -0.628  1.00  0.00     0.138 A 
ATOM      7  N   UNL     1       1.902  -1.320  -1.275  1.00  0.00    -0.228 NA
ATOM      8  C   UNL     1       3.224  -1.566  -0.998  1.00  0.00     0.093 A 
ATOM      9  C   UNL     1       4.377  -0.894  -1.428  1.00  0.00     0.077 A 
ATOM     10  H   UNL     1       1.789  -3.865   0.617  1.00  0.00     0.168 HD
ENDROOT
BRANCH   1  11
ATOM     11  O   UNL     1       6.686  -0.613  -1.481  1.00  0.00    -0.492 OA
BRANCH  11  12
ATOM     12  C   UNL     1       8.018  -1.008  -1.141  1.00  0.00     0.245 C 
BRANCH  12  13
ATOM     13  C   UNL     1       8.444  -0.494   0.251  1.00  0.00     0.126 C 
BRANCH  13  14
ATOM     14  N   UNL     1       9.005   0.868   0.260  1.00  0.00    -0.297 NA
ATOM     15  N   UNL     1       9.746   3.610   0.600  1.00  0.00    -0.304 NA
ATOM     16  C   UNL     1       8.360   3.337   0.184  1.00  0.00     0.099 C 
ATOM     17  C   UNL     1      10.146   2.643   1.645  1.00  0.00     0.099 C 
ATOM     18  C   UNL     1       8.060   1.878  -0.261  1.00  0.00     0.100 C 
ATOM     19  C   UNL     1       9.454   1.253   1.605  1.00  0.00     0.100 C 
ATOM     20  C   UNL     1      10.658   3.551  -0.543  1.00  0.00     0.105 C 
ENDBRANCH  13  14
ENDBRANCH  12  13
ENDBRANCH  11  12
ENDBRANCH   1  11
BRANCH   6  21
ATOM     21  C   UNL     1      -0.253  -2.395  -0.649  1.00  0.00     0.017 A 
ATOM     22  C   UNL     1      -1.005  -1.647  -1.565  1.00  0.00     0.012 A 
ATOM     23  C   UNL     1      -0.932  -3.272   0.209  1.00  0.00     0.012 A 
ATOM     24  C   UNL     1      -2.396  -1.780  -1.636  1.00  0.00     0.006 A 
ATOM     25  C   UNL     1      -2.324  -3.404   0.141  1.00  0.00     0.006 A 
ATOM     26  C   UNL     1      -3.071  -2.657  -0.778  1.00  0.00    -0.034 A 
BRANCH  26  27
ATOM     27  C   UNL     1      -4.573  -2.840  -0.872  1.00  0.00     0.120 C 
BRANCH  27  28
ATOM     28  N   UNL     1      -5.336  -1.581  -0.851  1.00  0.00    -0.299 NA
ATOM     29  C   UNL     1      -5.158  -0.834   0.402  1.00  0.00     0.087 C 
ATOM     30  C   UNL     1      -6.739  -1.822  -1.192  1.00  0.00     0.087 C 
ATOM     31  C   UNL     1      -6.443  -0.250   0.988  1.00  0.00     0.041 C 
ATOM     32  C   UNL     1      -7.474  -0.492  -1.337  1.00  0.00     0.041 C 
ATOM     33  C   UNL     1      -7.317   0.395  -0.092  1.00  0.00     0.095 C 
BRANCH  33  34
ATOM     34  N   UNL     1      -8.603   0.825   0.449  1.00  0.00    -0.291 N 
ATOM     35  C   UNL     1      -9.590   0.010   0.931  1.00  0.00     0.295 A 
ATOM     36  C   UNL     1      -9.053   2.122   0.584  1.00  0.00     0.072 A 
ATOM     37  N   UNL     1     -10.635   0.660   1.363  1.00  0.00    -0.195 NA
ATOM     38  C   UNL     1      -8.504   3.373   0.275  1.00  0.00     0.029 A 
ATOM     39  C   UNL     1     -10.320   1.982   1.158  1.00  0.00     0.092 A 
ATOM     40  C   UNL     1      -9.279   4.502   0.567  1.00  0.00     0.002 A 
ATOM     41  C   UNL     1     -11.079   3.127   1.442  1.00  0.00     0.031 A 
ATOM     42  C   UNL     1     -10.545   4.385   1.141  1.00  0.00     0.002 A 
BRANCH  35  43
ATOM     43  O   UNL     1      -9.531  -1.306   0.964  1.00  0.00    -0.480 OA
ATOM     44  H   UNL     1     -10.401  -1.519   1.347  1.00  0.00     0.296 HD
ENDBRANCH  35  43
ENDBRANCH  33  34
ENDBRANCH  27  28
ENDBRANCH  26  27
ENDBRANCH   6  21
TORSDOF 9
