REMARK SMILES O=C(Cc1ccc2cc(F)ccc2c1)Nc1cc2ccc(Cl)cc2[nH]1
REMARK SMILES IDX 1 1 2 2 15 3 3 5 4 6 5 7 14 8 6 9 13 10 7 11 12 12 8 13
REMARK SMILES IDX 11 14 9 15 10 16 16 17 17 18 25 19 18 20 24 21 19 22 23 23
REMARK SMILES IDX 20 24 21 25 22 27
REMARK H PARENT 15 4 25 26
ROOT
ATOM      1  O   UNL     1       1.088   2.325   1.829  1.00  0.00    -0.274 OA
ATOM      2  C   UNL     1       0.488   1.258   1.688  1.00  0.00     0.229 C 
ATOM      3  N   UNL     1       0.926   0.202   0.901  1.00  0.00    -0.312 N 
ATOM      4  H   UNL     1       0.347  -0.625   0.807  1.00  0.00     0.171 HD
ENDROOT
BRANCH   2   5
ATOM      5  C   UNL     1      -0.803   0.970   2.438  1.00  0.00     0.135 C 
BRANCH   5   6
ATOM      6  C   UNL     1      -1.941   0.526   1.550  1.00  0.00    -0.038 A 
ATOM      7  C   UNL     1      -2.450   1.390   0.573  1.00  0.00     0.005 A 
ATOM      8  C   UNL     1      -2.506  -0.751   1.694  1.00  0.00     0.013 A 
ATOM      9  C   UNL     1      -3.495   0.982  -0.257  1.00  0.00     0.009 A 
ATOM     10  C   UNL     1      -3.558  -1.177   0.865  1.00  0.00    -0.018 A 
ATOM     11  C   UNL     1      -4.058  -0.297  -0.125  1.00  0.00    -0.015 A 
ATOM     12  C   UNL     1      -4.125  -2.457   1.001  1.00  0.00     0.012 A 
ATOM     13  C   UNL     1      -5.109  -0.719  -0.952  1.00  0.00     0.048 A 
ATOM     14  C   UNL     1      -5.167  -2.864   0.167  1.00  0.00     0.040 A 
ATOM     15  C   UNL     1      -5.648  -1.992  -0.798  1.00  0.00     0.123 A 
ATOM     16  F   UNL     1      -6.651  -2.382  -1.595  1.00  0.00    -0.207 F 
ENDBRANCH   5   6
ENDBRANCH   2   5
BRANCH   3  17
ATOM     17  C   UNL     1       2.104   0.249   0.186  1.00  0.00     0.110 A 
ATOM     18  C   UNL     1       2.647  -0.702  -0.648  1.00  0.00     0.055 A 
ATOM     19  N   UNL     1       2.961   1.320   0.205  1.00  0.00    -0.341 N 
ATOM     20  C   UNL     1       3.884  -0.196  -1.139  1.00  0.00     0.002 A 
ATOM     21  C   UNL     1       4.058   1.074  -0.586  1.00  0.00     0.048 A 
ATOM     22  C   UNL     1       4.877  -0.703  -2.002  1.00  0.00     0.012 A 
ATOM     23  C   UNL     1       5.180   1.868  -0.851  1.00  0.00     0.047 A 
ATOM     24  C   UNL     1       6.008   0.076  -2.277  1.00  0.00     0.021 A 
ATOM     25  C   UNL     1       6.150   1.339  -1.707  1.00  0.00     0.043 A 
ATOM     26  H   UNL     1       2.790   2.163   0.744  1.00  0.00     0.168 HD
ATOM     27  Cl  UNL     1       7.556   2.271  -2.061  1.00  0.00    -0.084 Cl
ENDBRANCH   3  17
TORSDOF 3
