REMARK SMILES COc1ccc(C(=O)N2CCN(Cc3ncsc3-c3ccc(Br)cc3)CC2)cc1
REMARK SMILES IDX 7 1 8 2 9 3 10 4 11 5 12 6 26 7 27 8 6 9 3 10 4 11 29 12
REMARK SMILES IDX 5 13 28 14 2 15 1 16 13 17 14 18 15 19 18 20 16 21 17 22
REMARK SMILES IDX 19 23 20 24 25 25 21 26 24 27 22 28 23 29
REMARK H PARENT
ROOT
ATOM      1  C   UNL     1      -2.097  -2.622   0.352  1.00  0.00     0.253 C 
ATOM      2  O   UNL     1      -2.031  -3.807   0.674  1.00  0.00    -0.269 OA
ATOM      3  N   UNL     1      -1.030  -1.737   0.456  1.00  0.00    -0.336 N 
ATOM      4  C   UNL     1      -0.955  -0.436  -0.216  1.00  0.00     0.135 C 
ATOM      5  C   UNL     1       0.492  -0.060  -0.586  1.00  0.00     0.106 C 
ATOM      6  N   UNL     1       1.443  -0.052   0.544  1.00  0.00    -0.294 NA
ATOM      7  C   UNL     1       1.053  -1.022   1.600  1.00  0.00     0.106 C 
ATOM      8  C   UNL     1       0.207  -2.202   1.089  1.00  0.00     0.135 C 
ENDROOT
BRANCH   1   9
ATOM      9  C   UNL     1      -3.388  -2.111  -0.165  1.00  0.00     0.040 A 
ATOM     10  C   UNL     1      -5.831  -1.173  -1.156  1.00  0.00     0.118 A 
ATOM     11  C   UNL     1      -5.235  -0.547  -0.057  1.00  0.00     0.047 A 
ATOM     12  C   UNL     1      -5.209  -2.285  -1.738  1.00  0.00     0.047 A 
ATOM     13  C   UNL     1      -4.017  -1.020   0.444  1.00  0.00     0.017 A 
ATOM     14  C   UNL     1      -3.994  -2.763  -1.242  1.00  0.00     0.017 A 
BRANCH  10  15
ATOM     15  O   UNL     1      -7.009  -0.805  -1.746  1.00  0.00    -0.497 OA
ATOM     16  C   UNL     1      -7.666   0.337  -1.212  1.00  0.00     0.278 C 
ENDBRANCH  10  15
ENDBRANCH   1   9
BRANCH   6  17
ATOM     17  C   UNL     1       1.596   1.306   1.100  1.00  0.00     0.142 C 
BRANCH  17  18
ATOM     18  C   UNL     1       2.760   1.374   2.052  1.00  0.00     0.073 A 
ATOM     19  N   UNL     1       2.508   1.250   3.418  1.00  0.00    -0.248 NA
ATOM     20  C   UNL     1       4.094   1.583   1.725  1.00  0.00     0.059 A 
ATOM     21  C   UNL     1       3.635   1.350   4.086  1.00  0.00     0.176 A 
ATOM     22  S   UNL     1       5.046   1.615   3.156  1.00  0.00    -0.122 S 
BRANCH  20  23
ATOM     23  C   UNL     1       4.730   1.747   0.420  1.00  0.00    -0.006 A 
ATOM     24  C   UNL     1       5.327   2.965   0.060  1.00  0.00     0.011 A 
ATOM     25  C   UNL     1       4.730   0.688  -0.500  1.00  0.00     0.011 A 
ATOM     26  C   UNL     1       5.920   3.120  -1.196  1.00  0.00     0.016 A 
ATOM     27  C   UNL     1       5.327   0.838  -1.755  1.00  0.00     0.016 A 
ATOM     28  C   UNL     1       5.918   2.053  -2.096  1.00  0.00     0.018 A 
ATOM     29  Br  UNL     1       6.724   2.258  -3.795  1.00  0.00    -0.051 Br
ENDBRANCH  20  23
ENDBRANCH  17  18
ENDBRANCH   6  17
TORSDOF 5
