MODEL        8USER    Run = 8USERUSER    Estimated Free Energy of Binding    = -11.02 kcal/mol  [=(1)+(2)+(3)-(4)]USERUSER    (1) Final Intermolecular Energy     = -12.52 kcal/molUSER        vdW + Hbond + desolv Energy     = -12.34 kcal/molUSER        Electrostatic Energy            =  -0.17 kcal/molUSER        Moving Ligand-Fixed Receptor    = -12.52 kcal/molUSER        Moving Ligand-Moving Receptor   =  +0.00 kcal/molUSER    (2) Final Total Internal Energy     =  -1.85 kcal/molUSER    (3) Torsional Free Energy           =  +1.49 kcal/molUSER    (4) Unbound System's Energy         =  -1.85 kcal/molUSERUSERREMARK SMILES Cc1cc(-c2ccc(-c3ccc(F)cc3NS(=O)(=O)c3ccccc3)cc2)ccn1REMARK SMILES IDX 9 1 10 2 11 3 12 4 13 5 14 6 15 7 8 8 5 9 6 10 27 11 7 12REMARK SMILES IDX 26 13 4 14 2 15 3 16 30 17 29 18 28 19 1 20 16 21 17 23REMARK SMILES IDX 18 24 19 25 20 26 21 27 25 28 22 29 24 30 23 31REMARK H PARENT 16 22USER                              x       y       z     vdW  Elec       q    TypeUSER                           _______ _______ _______ _____ _____    ______ ____ROOTATOM      1  C   UNL     1      36.705  43.508  20.059 -0.39 -0.00    +0.006 A  ATOM      2  C   UNL     1      37.578  43.787  21.130 -0.38 +0.00    +0.014 A  ATOM      3  C   UNL     1      37.559  43.013  22.290 -0.37 +0.00    +0.040 A  ATOM      4  C   UNL     1      36.665  41.957  22.392 -0.43 +0.01    +0.125 A  ATOM      5  F   UNL     1      36.643  41.221  23.510 -0.13 +0.00    -0.207 F  ATOM      6  C   UNL     1      35.794  41.652  21.353 -0.40 +0.00    +0.066 A  ATOM      7  C   UNL     1      35.816  42.414  20.182 -0.42 -0.00    +0.060 A  ENDROOTBRANCH   1   8ATOM      8  C   UNL     1      36.756  44.358  18.862 -0.35 +0.00    -0.016 A  ATOM      9  C   UNL     1      36.846  45.977  16.528 -0.35 +0.01    -0.018 A  ATOM     10  C   UNL     1      35.706  45.951  17.347 -0.36 -0.01    +0.009 A  ATOM     11  C   UNL     1      37.943  45.188  16.904 -0.35 -0.00    +0.009 A  ATOM     12  C   UNL     1      35.663  45.158  18.499 -0.33 -0.00    +0.009 A  ATOM     13  C   UNL     1      37.900  44.393  18.055 -0.33 -0.00    +0.009 A  BRANCH   9  14ATOM     14  C   UNL     1      36.890  46.807  15.315 -0.39 +0.01    -0.015 A  ATOM     15  C   UNL     1      36.574  47.101  12.939 -0.60 -0.02    +0.038 A  ATOM     16  C   UNL     1      36.520  46.287  14.068 -0.43 -0.02    +0.032 A  ATOM     17  N   UNL     1      36.973  48.392  12.991 -0.81 +0.08    -0.262 NA ATOM     18  C   UNL     1      37.325  48.883  14.197 -0.41 -0.08    +0.112 A  ATOM     19  C   UNL     1      37.301  48.142  15.367 -0.45 -0.02    +0.029 A  ATOM     20  C   UNL     1      36.187  46.554  11.598 -0.60 -0.03    +0.067 C  ENDBRANCH   9  14ENDBRANCH   1   8BRANCH   7  21ATOM     21  N   UNL     1      34.932  42.071  19.108 -0.22 +0.03    -0.279 N  ATOM     22  H   UNL     1      35.168  41.247  18.556 -0.04 -0.02    +0.180 HD BRANCH  21  23ATOM     23  S   UNL     1      33.259  42.173  19.331 -0.33 +0.01    +0.261 S  ATOM     24  O   UNL     1      32.731  40.862  19.639 -0.60 -0.05    -0.201 OA ATOM     25  O   UNL     1      33.045  43.292  20.225 -0.95 -0.03    -0.201 OA BRANCH  23  26ATOM     26  C   UNL     1      32.658  42.646  17.726 -0.27 -0.02    +0.087 A  ATOM     27  C   UNL     1      33.368  43.588  16.975 -0.31 -0.01    +0.022 A  ATOM     28  C   UNL     1      31.451  42.123  17.255 -0.30 -0.01    +0.022 A  ATOM     29  C   UNL     1      32.880  43.983  15.729 -0.32 -0.00    +0.001 A  ATOM     30  C   UNL     1      30.971  42.520  16.005 -0.34 -0.00    +0.001 A  ATOM     31  C   UNL     1      31.686  43.447  15.244 -0.37 -0.00    +0.000 A  ENDBRANCH  23  26ENDBRANCH  21  23ENDBRANCH   7  21TORSDOF 5TERENDMDL