REMARK SMILES CN(C)c1ccc(C(=O)N2CCN(Cc3ncsc3-c3ccc(F)cc3)CC2)cc1
REMARK SMILES IDX 8 1 9 2 10 3 11 4 12 5 13 6 27 7 28 8 7 9 4 10 5 11 30 12
REMARK SMILES IDX 6 13 29 14 2 15 1 16 3 17 14 18 15 19 16 20 19 21 17 22
REMARK SMILES IDX 18 23 20 24 21 25 26 26 22 27 25 28 23 29 24 30
REMARK H PARENT
ROOT
ATOM      1  C   UNL     1       1.946  -1.654  -1.090  1.00  0.00     0.253 C 
ATOM      2  O   UNL     1       2.195  -2.802  -1.453  1.00  0.00    -0.269 OA
ATOM      3  N   UNL     1       0.648  -1.169  -0.903  1.00  0.00    -0.336 N 
ATOM      4  C   UNL     1       0.346  -0.115   0.075  1.00  0.00     0.135 C 
ATOM      5  C   UNL     1      -1.050   0.504  -0.134  1.00  0.00     0.106 C 
ATOM      6  N   UNL     1      -2.156  -0.469  -0.245  1.00  0.00    -0.294 NA
ATOM      7  C   UNL     1      -1.807  -1.454  -1.297  1.00  0.00     0.106 C 
ATOM      8  C   UNL     1      -0.435  -2.131  -1.131  1.00  0.00     0.135 C 
ENDROOT
BRANCH   1   9
ATOM      9  C   UNL     1       3.091  -0.747  -0.855  1.00  0.00     0.040 A 
ATOM     10  C   UNL     1       5.344   0.943  -0.426  1.00  0.00     0.036 A 
ATOM     11  C   UNL     1       4.286   1.311  -1.282  1.00  0.00     0.027 A 
ATOM     12  C   UNL     1       5.221  -0.311   0.204  1.00  0.00     0.027 A 
ATOM     13  C   UNL     1       3.180   0.479  -1.509  1.00  0.00     0.016 A 
ATOM     14  C   UNL     1       4.121  -1.154  -0.013  1.00  0.00     0.016 A 
BRANCH  10  15
ATOM     15  N   UNL     1       6.432   1.793  -0.187  1.00  0.00    -0.378 N 
ATOM     16  C   UNL     1       7.605   1.266   0.511  1.00  0.00     0.143 C 
ATOM     17  C   UNL     1       6.700   2.876  -1.133  1.00  0.00     0.143 C 
ENDBRANCH  10  15
ENDBRANCH   1   9
BRANCH   6  18
ATOM     18  C   UNL     1      -2.430  -1.104   1.058  1.00  0.00     0.142 C 
BRANCH  18  19
ATOM     19  C   UNL     1      -3.705  -1.900   1.011  1.00  0.00     0.073 A 
ATOM     20  N   UNL     1      -3.616  -3.290   0.986  1.00  0.00    -0.248 NA
ATOM     21  C   UNL     1      -5.000  -1.401   0.993  1.00  0.00     0.059 A 
ATOM     22  C   UNL     1      -4.824  -3.807   0.939  1.00  0.00     0.176 A 
ATOM     23  S   UNL     1      -6.125  -2.695   0.931  1.00  0.00    -0.122 S 
BRANCH  21  24
ATOM     24  C   UNL     1      -5.475  -0.023   1.010  1.00  0.00    -0.006 A 
ATOM     25  C   UNL     1      -5.710   0.657  -0.196  1.00  0.00     0.012 A 
ATOM     26  C   UNL     1      -5.677   0.640   2.231  1.00  0.00     0.012 A 
ATOM     27  C   UNL     1      -6.143   1.983  -0.179  1.00  0.00     0.040 A 
ATOM     28  C   UNL     1      -6.112   1.967   2.247  1.00  0.00     0.040 A 
ATOM     29  C   UNL     1      -6.339   2.626   1.043  1.00  0.00     0.123 A 
ATOM     30  F   UNL     1      -6.755   3.900   1.058  1.00  0.00    -0.207 F 
ENDBRANCH  21  24
ENDBRANCH  18  19
ENDBRANCH   6  18
TORSDOF 5
