MODEL        2USER    Run = 2USERUSER    Estimated Free Energy of Binding    =  -9.23 kcal/mol  [=(1)+(2)+(3)-(4)]USERUSER    (1) Final Intermolecular Energy     = -10.12 kcal/molUSER        vdW + Hbond + desolv Energy     = -10.12 kcal/molUSER        Electrostatic Energy            =  -0.00 kcal/molUSER        Moving Ligand-Fixed Receptor    = -10.12 kcal/molUSER        Moving Ligand-Moving Receptor   =  +0.00 kcal/molUSER    (2) Final Total Internal Energy     =  -1.00 kcal/molUSER    (3) Torsional Free Energy           =  +0.89 kcal/molUSER    (4) Unbound System's Energy         =  -1.00 kcal/molUSERUSERREMARK SMILES O=C(Cc1ccc2cc(F)ccc2c1)Nc1cc2ccc(Cl)cc2[nH]1REMARK SMILES IDX 1 1 2 2 15 3 3 5 4 6 5 7 14 8 6 9 13 10 7 11 12 12 8 13REMARK SMILES IDX 11 14 9 15 10 16 16 17 17 18 25 19 18 20 24 21 19 22 23 23REMARK SMILES IDX 20 24 21 25 22 27REMARK H PARENT 15 4 25 26USER                              x       y       z     vdW  Elec       q    TypeUSER                           _______ _______ _______ _____ _____    ______ ____ROOTATOM      1  O   UNL     1      41.875  50.391  16.447 -0.81 -0.01    -0.274 OA ATOM      2  C   UNL     1      41.419  49.452  15.793 -0.43 -0.01    +0.229 C  ATOM      3  N   UNL     1      41.586  49.286  14.425 -0.37 +0.04    -0.312 N  ATOM      4  H   UNL     1      41.139  48.504  13.958 +0.13 -0.01    +0.171 HD ENDROOTBRANCH   2   5ATOM      5  C   UNL     1      40.656  48.319  16.460 -0.52 -0.02    +0.135 C  BRANCH   5   6ATOM      6  C   UNL     1      39.660  47.634  15.554 -0.49 +0.01    -0.038 A  ATOM      7  C   UNL     1      39.667  46.240  15.426 -0.42 -0.00    +0.005 A  ATOM      8  C   UNL     1      38.721  48.382  14.826 -0.52 -0.01    +0.013 A  ATOM      9  C   UNL     1      38.744  45.601  14.597 -0.35 -0.00    +0.009 A  ATOM     10  C   UNL     1      37.784  47.753  13.988 -0.52 +0.01    -0.018 A  ATOM     11  C   UNL     1      37.796  46.342  13.874 -0.44 +0.01    -0.015 A  ATOM     12  C   UNL     1      36.838  48.496  13.260 -0.48 -0.01    +0.012 A  ATOM     13  C   UNL     1      36.864  45.712  13.038 -0.49 -0.02    +0.048 A  ATOM     14  C   UNL     1      35.913  47.855  12.436 -0.51 -0.02    +0.040 A  ATOM     15  C   UNL     1      35.936  46.472  12.332 -0.53 -0.06    +0.123 A  ATOM     16  F   UNL     1      35.051  45.857  11.538 +0.02 +0.13    -0.207 F  ENDBRANCH   5   6ENDBRANCH   2   5BRANCH   3  17ATOM     17  C   UNL     1      42.296  50.178  13.651 -0.58 -0.03    +0.110 A  ATOM     18  C   UNL     1      42.184  50.433  12.303 -0.35 -0.02    +0.055 A  ATOM     19  N   UNL     1      43.283  50.993  14.145 -0.19 +0.10    -0.341 N  ATOM     20  C   UNL     1      43.147  51.426  11.965 -0.52 -0.00    +0.002 A  ATOM     21  C   UNL     1      43.825  51.758  13.139 -0.07 -0.02    +0.048 A  ATOM     22  C   UNL     1      43.509  52.073  10.766 -0.50 -0.01    +0.012 A  ATOM     23  C   UNL     1      44.853  52.707  13.177 -0.27 -0.02    +0.047 A  ATOM     24  C   UNL     1      44.537  53.023  10.783 -0.36 -0.01    +0.021 A  ATOM     25  C   UNL     1      45.194  53.330  11.973 -0.24 -0.02    +0.043 A  ATOM     26  H   UNL     1      43.562  51.004  15.120 -0.20 -0.01    +0.168 HD ATOM     27  Cl  UNL     1      46.459  54.500  11.961 -0.14 +0.03    -0.084 Cl ENDBRANCH   3  17TORSDOF 3TERENDMDL