REMARK SMILES Cc1cc(-c2ccc(-c3ccc(F)cc3NS(=O)(=O)c3ccccc3)cc2)ccn1
REMARK SMILES IDX 9 1 10 2 11 3 12 4 13 5 14 6 15 7 8 8 5 9 6 10 27 11 7 12
REMARK SMILES IDX 26 13 4 14 2 15 3 16 30 17 29 18 28 19 1 20 16 21 17 23
REMARK SMILES IDX 18 24 19 25 20 26 21 27 25 28 22 29 24 30 23 31
REMARK H PARENT 16 22
ROOT
ATOM      1  C   UNL     1      -0.601  -0.550   2.557  1.00  0.00     0.006 A 
ATOM      2  C   UNL     1      -0.752  -1.734   3.306  1.00  0.00     0.014 A 
ATOM      3  C   UNL     1      -1.608  -1.782   4.406  1.00  0.00     0.040 A 
ATOM      4  C   UNL     1      -2.317  -0.646   4.769  1.00  0.00     0.125 A 
ATOM      5  F   UNL     1      -3.132  -0.692   5.831  1.00  0.00    -0.207 F 
ATOM      6  C   UNL     1      -2.195   0.536   4.050  1.00  0.00     0.066 A 
ATOM      7  C   UNL     1      -1.349   0.589   2.939  1.00  0.00     0.060 A 
ENDROOT
BRANCH   1   8
ATOM      8  C   UNL     1       0.321  -0.546   1.413  1.00  0.00    -0.016 A 
ATOM      9  C   UNL     1       2.087  -0.515  -0.813  1.00  0.00    -0.018 A 
ATOM     10  C   UNL     1       2.413   0.152   0.378  1.00  0.00     0.009 A 
ATOM     11  C   UNL     1       0.868  -1.207  -0.866  1.00  0.00     0.009 A 
ATOM     12  C   UNL     1       1.546   0.133   1.476  1.00  0.00     0.009 A 
ATOM     13  C   UNL     1      -0.000  -1.225   0.231  1.00  0.00     0.009 A 
BRANCH   9  14
ATOM     14  C   UNL     1       2.996  -0.491  -1.969  1.00  0.00    -0.015 A 
ATOM     15  C   UNL     1       4.307   0.705  -3.607  1.00  0.00     0.038 A 
ATOM     16  C   UNL     1       3.447   0.719  -2.511  1.00  0.00     0.032 A 
ATOM     17  N   UNL     1       4.735  -0.442  -4.181  1.00  0.00    -0.262 NA
ATOM     18  C   UNL     1       4.296  -1.601  -3.650  1.00  0.00     0.112 A 
ATOM     19  C   UNL     1       3.440  -1.676  -2.564  1.00  0.00     0.029 A 
ATOM     20  C   UNL     1       4.791   1.994  -4.200  1.00  0.00     0.067 C 
ENDBRANCH   9  14
ENDBRANCH   1   8
BRANCH   7  21
ATOM     21  N   UNL     1      -1.254   1.806   2.189  1.00  0.00    -0.279 N 
ATOM     22  H   UNL     1      -0.417   1.940   1.622  1.00  0.00     0.180 HD
BRANCH  21  23
ATOM     23  S   UNL     1      -2.615   2.404   1.383  1.00  0.00     0.261 S 
ATOM     24  O   UNL     1      -3.686   2.615   2.332  1.00  0.00    -0.201 OA
ATOM     25  O   UNL     1      -2.138   3.484   0.544  1.00  0.00    -0.201 OA
BRANCH  23  26
ATOM     26  C   UNL     1      -3.083   1.062   0.314  1.00  0.00     0.087 A 
ATOM     27  C   UNL     1      -2.554   0.995  -0.979  1.00  0.00     0.022 A 
ATOM     28  C   UNL     1      -4.021   0.122   0.750  1.00  0.00     0.022 A 
ATOM     29  C   UNL     1      -2.945  -0.040  -1.828  1.00  0.00     0.001 A 
ATOM     30  C   UNL     1      -4.404  -0.913  -0.105  1.00  0.00     0.001 A 
ATOM     31  C   UNL     1      -3.865  -0.994  -1.390  1.00  0.00     0.000 A 
ENDBRANCH  23  26
ENDBRANCH  21  23
ENDBRANCH   7  21
TORSDOF 5
