MODEL        8USER    Run = 8USERUSER    Estimated Free Energy of Binding    = -10.32 kcal/mol  [=(1)+(2)+(3)-(4)]USERUSER    (1) Final Intermolecular Energy     = -11.81 kcal/molUSER        vdW + Hbond + desolv Energy     = -11.68 kcal/molUSER        Electrostatic Energy            =  -0.12 kcal/molUSER        Moving Ligand-Fixed Receptor    = -11.81 kcal/molUSER        Moving Ligand-Moving Receptor   =  +0.00 kcal/molUSER    (2) Final Total Internal Energy     =  -1.68 kcal/molUSER    (3) Torsional Free Energy           =  +1.49 kcal/molUSER    (4) Unbound System's Energy         =  -1.68 kcal/molUSERUSERREMARK SMILES COc1ccc(C(=O)N2CCN(Cc3ncsc3-c3ccc(Br)cc3)CC2)cc1REMARK SMILES IDX 7 1 8 2 9 3 10 4 11 5 12 6 26 7 27 8 6 9 3 10 4 11 29 12REMARK SMILES IDX 5 13 28 14 2 15 1 16 13 17 14 18 15 19 18 20 16 21 17 22REMARK SMILES IDX 19 23 20 24 25 25 21 26 24 27 22 28 23 29REMARK H PARENTUSER                              x       y       z     vdW  Elec       q    TypeUSER                           _______ _______ _______ _____ _____    ______ ____ROOTATOM      1  C   UNL     1      41.430  46.938  18.689 -0.39 -0.00    +0.253 C  ATOM      2  O   UNL     1      42.510  47.441  18.995 -0.47 -0.02    -0.269 OA ATOM      3  N   UNL     1      40.719  47.284  17.546 -0.28 +0.04    -0.336 N  ATOM      4  C   UNL     1      39.627  46.492  16.970 -0.42 -0.03    +0.135 C  ATOM      5  C   UNL     1      39.569  46.619  15.436 -0.44 -0.02    +0.106 C  ATOM      6  N   UNL     1      39.456  48.001  14.928 -0.27 +0.10    -0.294 NA ATOM      7  C   UNL     1      40.095  48.980  15.845 -0.55 -0.04    +0.106 C  ATOM      8  C   UNL     1      41.215  48.386  16.718 -0.45 -0.01    +0.135 C  ENDROOTBRANCH   1   9ATOM      9  C   UNL     1      40.855  45.916  19.594 -0.40 +0.00    +0.040 A  ATOM     10  C   UNL     1      39.741  43.990  21.291 -0.18 +0.00    +0.118 A  ATOM     11  C   UNL     1      41.121  44.015  21.072 -0.30 +0.00    +0.047 A  ATOM     12  C   UNL     1      38.921  44.918  20.636 -0.33 +0.00    +0.047 A  ATOM     13  C   UNL     1      41.679  44.973  20.218 -0.31 +0.00    +0.017 A  ATOM     14  C   UNL     1      39.471  45.876  19.781 -0.31 -0.00    +0.017 A  BRANCH  10  15ATOM     15  O   UNL     1      39.074  43.117  22.106 -0.03 -0.03    -0.497 OA ATOM     16  C   UNL     1      37.697  43.380  22.342 -0.25 +0.02    +0.278 C  ENDBRANCH  10  15ENDBRANCH   1   9BRANCH   6  17ATOM     17  C   UNL     1      38.048  48.358  14.667 -0.49 -0.08    +0.142 C  BRANCH  17  18ATOM     18  C   UNL     1      37.423  47.409  13.680 -0.48 -0.03    +0.073 A  ATOM     19  N   UNL     1      37.504  47.716  12.322 -0.96 +0.02    -0.248 NA ATOM     20  C   UNL     1      36.724  46.244  13.970 -0.41 -0.03    +0.059 A  ATOM     21  C   UNL     1      36.892  46.788  11.622 -0.49 -0.06    +0.176 A  ATOM     22  S   UNL     1      36.170  45.519  12.514 -0.58 +0.05    -0.122 S  BRANCH  20  23ATOM     23  C   UNL     1      36.444  45.608  15.256 -0.37 +0.00    -0.006 A  ATOM     24  C   UNL     1      36.100  46.378  16.378 -0.36 -0.01    +0.011 A  ATOM     25  C   UNL     1      36.540  44.215  15.387 -0.38 -0.00    +0.011 A  ATOM     26  C   UNL     1      35.848  45.765  17.608 -0.35 -0.01    +0.016 A  ATOM     27  C   UNL     1      36.284  43.598  16.615 -0.37 -0.01    +0.016 A  ATOM     28  C   UNL     1      35.940  44.376  17.718 -0.30 -0.01    +0.018 A  ATOM     29  Br  UNL     1      35.596  43.543  19.381 -0.77 +0.01    -0.051 Br ENDBRANCH  20  23ENDBRANCH  17  18ENDBRANCH   6  17TORSDOF 5TERENDMDL