MODEL        6USER    Run = 6USERUSER    Estimated Free Energy of Binding    = -10.95 kcal/mol  [=(1)+(2)+(3)-(4)]USERUSER    (1) Final Intermolecular Energy     = -12.44 kcal/molUSER        vdW + Hbond + desolv Energy     = -12.32 kcal/molUSER        Electrostatic Energy            =  -0.12 kcal/molUSER        Moving Ligand-Fixed Receptor    = -12.44 kcal/molUSER        Moving Ligand-Moving Receptor   =  +0.00 kcal/molUSER    (2) Final Total Internal Energy     =  -1.98 kcal/molUSER    (3) Torsional Free Energy           =  +1.49 kcal/molUSER    (4) Unbound System's Energy         =  -1.98 kcal/molUSERUSERREMARK SMILES O=S(=O)(Nc1cc(Cl)ccc1-c1ccc(-c2ccncc2)cc1)c1ccccc1REMARK SMILES IDX 5 1 6 2 7 3 8 4 9 5 10 6 11 7 4 8 2 10 1 11 3 12 24 13 25 14REMARK SMILES IDX 29 15 26 16 28 17 27 18 12 19 13 20 23 21 14 22 22 23 15 24REMARK SMILES IDX 16 25 17 26 21 27 18 28 20 29 19 30REMARK H PARENT 4 9USER                              x       y       z     vdW  Elec       q    TypeUSER                           _______ _______ _______ _____ _____    ______ ____ROOTATOM      1  C   UNL     1      35.780  42.645  19.823 -0.40 -0.00    +0.058 A  ATOM      2  C   UNL     1      35.779  42.036  21.083 -0.44 +0.00    +0.048 A  ATOM      3  C   UNL     1      36.650  42.484  22.074 -0.44 +0.00    +0.043 A  ATOM      4  Cl  UNL     1      36.652  41.725  23.618 -0.59 -0.00    -0.084 Cl ATOM      5  C   UNL     1      37.520  43.540  21.825 -0.37 +0.00    +0.021 A  ATOM      6  C   UNL     1      37.513  44.161  20.575 -0.37 -0.00    +0.012 A  ATOM      7  C   UNL     1      36.642  43.732  19.556 -0.37 -0.00    +0.006 A  ENDROOTBRANCH   1   8ATOM      8  N   UNL     1      34.902  42.146  18.807 -0.23 +0.04    -0.279 N  ATOM      9  H   UNL     1      35.160  41.268  18.356 -0.10 -0.04    +0.180 HD BRANCH   8  10ATOM     10  S   UNL     1      33.228  42.226  19.032 -0.40 -0.01    +0.261 S  ATOM     11  O   UNL     1      33.006  43.263  20.018 -0.93 -0.02    -0.201 OA ATOM     12  O   UNL     1      32.700  40.891  19.223 -0.57 -0.02    -0.201 OA BRANCH  10  13ATOM     13  C   UNL     1      32.629  42.835  17.472 -0.26 -0.03    +0.087 A  ATOM     14  C   UNL     1      33.263  43.926  16.869 -0.30 -0.01    +0.022 A  ATOM     15  C   UNL     1      31.492  42.263  16.893 -0.29 -0.01    +0.022 A  ATOM     16  C   UNL     1      32.772  44.425  15.662 -0.33 -0.00    +0.001 A  ATOM     17  C   UNL     1      31.010  42.763  15.684 -0.35 -0.00    +0.001 A  ATOM     18  C   UNL     1      31.651  43.841  15.069 -0.36 -0.00    +0.000 A  ENDBRANCH  10  13ENDBRANCH   8  10ENDBRANCH   1   8BRANCH   7  19ATOM     19  C   UNL     1      36.666  44.427  18.261 -0.33 +0.00    -0.016 A  ATOM     20  C   UNL     1      35.821  45.518  18.013 -0.34 -0.00    +0.009 A  ATOM     21  C   UNL     1      37.540  44.021  17.245 -0.23 -0.00    +0.009 A  ATOM     22  C   UNL     1      35.836  46.170  16.774 -0.36 -0.01    +0.009 A  ATOM     23  C   UNL     1      37.552  44.671  16.006 -0.32 -0.00    +0.009 A  ATOM     24  C   UNL     1      36.699  45.755  15.750 -0.35 +0.01    -0.018 A  BRANCH  24  25ATOM     25  C   UNL     1      36.713  46.437  14.446 -0.41 +0.01    -0.015 A  ATOM     26  C   UNL     1      36.543  45.724  13.253 -0.49 -0.01    +0.029 A  ATOM     27  C   UNL     1      36.900  47.821  14.355 -0.49 -0.02    +0.029 A  ATOM     28  C   UNL     1      36.561  46.410  12.049 -0.58 -0.05    +0.111 A  ATOM     29  C   UNL     1      36.908  48.419  13.104 -0.36 -0.04    +0.111 A  ATOM     30  N   UNL     1      36.740  47.743  11.948 -0.96 +0.09    -0.265 NA ENDBRANCH  24  25ENDBRANCH   7  19TORSDOF 5TERENDMDL