MODEL        6USER    Run = 6USERUSER    Estimated Free Energy of Binding    =  -9.74 kcal/mol  [=(1)+(2)+(3)-(4)]USERUSER    (1) Final Intermolecular Energy     = -11.23 kcal/molUSER        vdW + Hbond + desolv Energy     = -11.16 kcal/molUSER        Electrostatic Energy            =  -0.07 kcal/molUSER        Moving Ligand-Fixed Receptor    = -11.23 kcal/molUSER        Moving Ligand-Moving Receptor   =  +0.00 kcal/molUSER    (2) Final Total Internal Energy     =  -1.24 kcal/molUSER    (3) Torsional Free Energy           =  +1.49 kcal/molUSER    (4) Unbound System's Energy         =  -1.24 kcal/molUSERUSERREMARK SMILES CN(C)c1ccc(C(=O)N2CCN(Cc3ncsc3-c3ccc(F)cc3)CC2)cc1REMARK SMILES IDX 8 1 9 2 10 3 11 4 12 5 13 6 27 7 28 8 7 9 4 10 5 11 30 12REMARK SMILES IDX 6 13 29 14 2 15 1 16 3 17 14 18 15 19 16 20 19 21 17 22REMARK SMILES IDX 18 23 20 24 21 25 26 26 22 27 25 28 23 29 24 30REMARK H PARENTUSER                              x       y       z     vdW  Elec       q    TypeUSER                           _______ _______ _______ _____ _____    ______ ____ROOTATOM      1  C   UNL     1      40.674  47.706  16.928 -0.40 -0.04    +0.253 C  ATOM      2  O   UNL     1      41.432  48.674  16.944 -0.93 +0.00    -0.269 OA ATOM      3  N   UNL     1      40.651  46.728  17.927 -0.26 +0.03    -0.336 N  ATOM      4  C   UNL     1      39.428  45.986  18.260 -0.40 -0.02    +0.135 C  ATOM      5  C   UNL     1      39.708  44.737  19.119 -0.39 -0.00    +0.106 C  ATOM      6  N   UNL     1      40.543  44.974  20.314 -0.19 -0.01    -0.294 NA ATOM      7  C   UNL     1      41.786  45.660  19.886 -0.36 +0.02    +0.106 C  ATOM      8  C   UNL     1      41.575  46.933  19.047 -0.43 +0.00    +0.135 C  ENDROOTBRANCH   1   9ATOM      9  C   UNL     1      39.752  47.578  15.778 -0.49 -0.01    +0.040 A  ATOM     10  C   UNL     1      37.941  47.273  13.601 -0.48 -0.01    +0.036 A  ATOM     11  C   UNL     1      38.101  48.502  14.273 -0.50 -0.01    +0.027 A  ATOM     12  C   UNL     1      38.729  46.205  14.071 -0.33 -0.01    +0.027 A  ATOM     13  C   UNL     1      38.981  48.657  15.354 -0.51 -0.01    +0.016 A  ATOM     14  C   UNL     1      39.613  46.344  15.151 -0.43 -0.00    +0.016 A  BRANCH  10  15ATOM     15  N   UNL     1      37.077  47.137  12.505 -0.31 +0.12    -0.378 N  ATOM     16  C   UNL     1      36.812  45.800  11.973 -0.56 -0.05    +0.143 C  ATOM     17  C   UNL     1      35.993  48.105  12.339 -0.45 -0.07    +0.143 C  ENDBRANCH  10  15ENDBRANCH   1   9BRANCH   6  18ATOM     18  C   UNL     1      39.798  45.735  21.334 -0.24 +0.01    +0.142 C  BRANCH  18  19ATOM     19  C   UNL     1      39.599  44.914  22.579 -0.23 +0.00    +0.073 A  ATOM     20  N   UNL     1      40.465  45.119  23.651 -0.06 -0.01    -0.248 NA ATOM     21  C   UNL     1      38.624  43.951  22.796 -0.26 +0.00    +0.059 A  ATOM     22  C   UNL     1      40.141  44.313  24.637 -0.07 +0.00    +0.176 A  ATOM     23  S   UNL     1      38.803  43.281  24.366 -0.30 -0.01    -0.122 S  BRANCH  21  24ATOM     24  C   UNL     1      37.562  43.475  21.918 -0.38 -0.00    -0.006 A  ATOM     25  C   UNL     1      37.175  42.126  21.946 -0.48 +0.00    +0.012 A  ATOM     26  C   UNL     1      36.938  44.358  21.022 -0.36 +0.00    +0.012 A  ATOM     27  C   UNL     1      36.174  41.667  21.090 -0.48 +0.00    +0.040 A  ATOM     28  C   UNL     1      35.935  43.898  20.166 -0.39 -0.00    +0.040 A  ATOM     29  C   UNL     1      35.564  42.557  20.207 -0.37 -0.00    +0.123 A  ATOM     30  F   UNL     1      34.603  42.115  19.384 -0.11 +0.01    -0.207 F  ENDBRANCH  21  24ENDBRANCH  18  19ENDBRANCH   6  18TORSDOF 5TERENDMDL