MODEL        5USER    Run = 5USERUSER    Estimated Free Energy of Binding    = -10.76 kcal/mol  [=(1)+(2)+(3)-(4)]USERUSER    (1) Final Intermolecular Energy     = -12.25 kcal/molUSER        vdW + Hbond + desolv Energy     = -12.09 kcal/molUSER        Electrostatic Energy            =  -0.16 kcal/molUSER        Moving Ligand-Fixed Receptor    = -12.25 kcal/molUSER        Moving Ligand-Moving Receptor   =  +0.00 kcal/molUSER    (2) Final Total Internal Energy     =  -2.05 kcal/molUSER    (3) Torsional Free Energy           =  +1.49 kcal/molUSER    (4) Unbound System's Energy         =  -2.05 kcal/molUSERUSERREMARK SMILES Cc1cc(-c2ccc(-c3ccc(F)cc3NS(=O)(=O)c3ccccc3)cc2)ccn1REMARK SMILES IDX 9 1 10 2 11 3 12 4 13 5 14 6 15 7 8 8 5 9 6 10 27 11 7 12REMARK SMILES IDX 26 13 4 14 2 15 3 16 30 17 29 18 28 19 1 20 16 21 17 23REMARK SMILES IDX 18 24 19 25 20 26 21 27 25 28 22 29 24 30 23 31REMARK H PARENT 16 22USER                              x       y       z     vdW  Elec       q    TypeUSER                           _______ _______ _______ _____ _____    ______ ____ROOTATOM      1  C   UNL     1      36.678  43.578  20.095 -0.40 -0.00    +0.006 A  ATOM      2  C   UNL     1      37.530  43.892  21.172 -0.38 +0.00    +0.014 A  ATOM      3  C   UNL     1      37.511  43.138  22.345 -0.37 +0.00    +0.040 A  ATOM      4  C   UNL     1      36.637  42.066  22.453 -0.42 +0.01    +0.125 A  ATOM      5  F   UNL     1      36.615  41.348  23.583 -0.16 +0.00    -0.207 F  ATOM      6  C   UNL     1      35.787  41.726  21.409 -0.40 +0.00    +0.066 A  ATOM      7  C   UNL     1      35.808  42.468  20.225 -0.42 -0.00    +0.060 A  ENDROOTBRANCH   1   8ATOM      8  C   UNL     1      36.727  44.409  18.884 -0.35 +0.00    -0.016 A  ATOM      9  C   UNL     1      36.814  45.990  16.525 -0.35 +0.01    -0.018 A  ATOM     10  C   UNL     1      35.686  46.000  17.361 -0.36 -0.01    +0.009 A  ATOM     11  C   UNL     1      37.900  45.184  16.897 -0.35 -0.00    +0.009 A  ATOM     12  C   UNL     1      35.645  45.225  18.525 -0.31 -0.00    +0.009 A  ATOM     13  C   UNL     1      37.859  44.408  18.060 -0.33 -0.00    +0.009 A  BRANCH   9  14ATOM     14  C   UNL     1      36.856  46.801  15.298 -0.39 +0.01    -0.015 A  ATOM     15  C   UNL     1      36.529  47.060  12.920 -0.61 -0.02    +0.038 A  ATOM     16  C   UNL     1      36.476  46.264  14.062 -0.43 -0.02    +0.032 A  ATOM     17  N   UNL     1      36.935  48.349  12.950 -0.83 +0.09    -0.262 NA ATOM     18  C   UNL     1      37.296  48.856  14.146 -0.42 -0.07    +0.112 A  ATOM     19  C   UNL     1      37.275  48.134  15.327 -0.46 -0.02    +0.029 A  ATOM     20  C   UNL     1      36.132  46.494  11.589 -0.57 -0.03    +0.067 C  ENDBRANCH   9  14ENDBRANCH   1   8BRANCH   7  21ATOM     21  N   UNL     1      34.946  42.090  19.145 -0.23 +0.03    -0.279 N  ATOM     22  H   UNL     1      35.163  41.219  18.660 -0.00 -0.02    +0.180 HD BRANCH  21  23ATOM     23  S   UNL     1      33.273  42.279  19.300 -0.35 +0.00    +0.261 S  ATOM     24  O   UNL     1      32.644  40.979  19.374 -0.61 -0.03    -0.201 OA ATOM     25  O   UNL     1      33.079  43.262  20.346 -0.85 -0.05    -0.201 OA BRANCH  23  26ATOM     26  C   UNL     1      32.800  43.034  17.761 -0.26 -0.02    +0.087 A  ATOM     27  C   UNL     1      33.785  43.365  16.825 -0.33 -0.01    +0.022 A  ATOM     28  C   UNL     1      31.458  43.347  17.525 -0.27 -0.00    +0.022 A  ATOM     29  C   UNL     1      33.417  43.985  15.631 -0.20 -0.00    +0.001 A  ATOM     30  C   UNL     1      31.098  43.964  16.326 -0.32 -0.00    +0.001 A  ATOM     31  C   UNL     1      32.076  44.280  15.381 -0.36 -0.00    +0.000 A  ENDBRANCH  23  26ENDBRANCH  21  23ENDBRANCH   7  21TORSDOF 5TERENDMDL