MODEL        4USER    Run = 4USERUSER    Estimated Free Energy of Binding    =  -9.46 kcal/mol  [=(1)+(2)+(3)-(4)]USERUSER    (1) Final Intermolecular Energy     = -10.96 kcal/molUSER        vdW + Hbond + desolv Energy     = -10.91 kcal/molUSER        Electrostatic Energy            =  -0.04 kcal/molUSER        Moving Ligand-Fixed Receptor    = -10.96 kcal/molUSER        Moving Ligand-Moving Receptor   =  +0.00 kcal/molUSER    (2) Final Total Internal Energy     =  -0.79 kcal/molUSER    (3) Torsional Free Energy           =  +1.49 kcal/molUSER    (4) Unbound System's Energy         =  -0.79 kcal/molUSERUSERREMARK SMILES Oc1ccc(CNC2=CN=C3C(=CCN=C3c3cccc4cccnc34)N2)cc1REMARK SMILES IDX 6 1 5 2 2 3 3 4 29 5 4 6 28 7 1 8 7 10 8 12 9 13 27 14 10 15REMARK SMILES IDX 12 16 11 17 13 18 16 19 14 20 15 21 17 23 18 24 26 25 19 26REMARK SMILES IDX 25 27 21 28 20 29 24 30 22 31 23 32REMARK H PARENT 1 9 7 11 27 22USER                              x       y       z     vdW  Elec       q    TypeUSER                           _______ _______ _______ _____ _____    ______ ____ROOTATOM      1  C   UNL     1      26.701  38.980  20.694 -0.25 -0.04    +0.150 C  ENDROOTBRANCH   1   2ATOM      2  C   UNL     1      25.671  39.899  21.307 -0.37 +0.01    -0.029 A  ATOM      3  C   UNL     1      23.782  41.611  22.454 -0.53 -0.02    +0.115 A  ATOM      4  C   UNL     1      24.857  42.149  21.754 -0.57 -0.01    +0.046 A  ATOM      5  C   UNL     1      23.639  40.236  22.593 -0.32 -0.01    +0.046 A  ATOM      6  C   UNL     1      25.801  41.292  21.183 -0.43 -0.00    +0.009 A  ATOM      7  C   UNL     1      24.582  39.379  22.022 -0.34 -0.00    +0.009 A  BRANCH   3   8ATOM      8  O   UNL     1      22.838  42.409  23.029 -0.89 +0.12    -0.508 OA ATOM      9  H   UNL     1      22.711  42.126  23.948 -0.26 -0.25    +0.293 HD ENDBRANCH   3   8ENDBRANCH   1   2BRANCH   1  10ATOM     10  N   UNL     1      27.275  38.135  21.726 -0.07 +0.11    -0.366 N  ATOM     11  H   UNL     1      27.018  38.442  22.662 +0.03 -0.05    +0.162 HD BRANCH  10  12ATOM     12  C   UNL     1      27.369  36.759  21.632 -0.30 -0.06    +0.122 C  ATOM     13  C   UNL     1      28.214  36.057  22.431 -0.31 -0.02    +0.156 C  ATOM     14  N   UNL     1      26.627  36.053  20.703 +0.01 +0.40    -0.339 N  ATOM     15  N   UNL     1      28.378  34.683  22.426 -0.24 +0.01    -0.249 NA ATOM     16  C   UNL     1      26.816  34.705  20.509 -0.17 -0.07    +0.066 C  ATOM     17  C   UNL     1      27.678  34.039  21.531 -0.37 -0.05    +0.112 C  ATOM     18  C   UNL     1      26.402  33.960  19.483 -0.53 -0.03    +0.025 C  ATOM     19  C   UNL     1      27.747  32.531  21.462 -0.40 -0.05    +0.095 C  ATOM     20  C   UNL     1      26.745  32.523  19.289 -0.18 -0.18    +0.172 C  ATOM     21  N   UNL     1      27.366  31.857  20.427 -0.02 +0.30    -0.278 NA ATOM     22  H   UNL     1      26.257  36.589  19.933 -0.09 -0.18    +0.168 HD BRANCH  19  23ATOM     23  C   UNL     1      28.298  31.805  22.621 -0.44 -0.00    +0.028 A  ATOM     24  C   UNL     1      27.543  31.793  23.803 -0.30 +0.01    +0.013 A  ATOM     25  C   UNL     1      29.547  31.182  22.515 -0.44 -0.01    +0.080 A  ATOM     26  C   UNL     1      28.017  31.106  24.912 -0.45 +0.00    +0.001 A  ATOM     27  N   UNL     1      30.299  31.254  21.388 -0.30 +0.05    -0.256 NA ATOM     28  C   UNL     1      30.008  30.486  23.655 -0.59 +0.00    +0.001 A  ATOM     29  C   UNL     1      29.242  30.448  24.835 -0.45 +0.01    +0.010 A  ATOM     30  C   UNL     1      31.487  30.617  21.357 -0.23 -0.01    +0.112 A  ATOM     31  C   UNL     1      31.251  29.840  23.585 -0.62 +0.00    +0.012 A  ATOM     32  C   UNL     1      32.002  29.902  22.419 -0.50 +0.00    +0.021 A  ENDBRANCH  19  23ENDBRANCH  10  12ENDBRANCH   1  10TORSDOF 5TERENDMDL