REMARK SMILES Oc1ccc(CNC2=CN=C3C(=CCN=C3c3cccc4cccnc34)N2)cc1
REMARK SMILES IDX 6 1 5 2 2 3 3 4 29 5 4 6 28 7 1 8 7 10 8 12 9 13 27 14 10 15
REMARK SMILES IDX 12 16 11 17 13 18 16 19 14 20 15 21 17 23 18 24 26 25 19 26
REMARK SMILES IDX 25 27 21 28 20 29 24 30 22 31 23 32
REMARK H PARENT 1 9 7 11 27 22
ROOT
ATOM      1  C   UNL     1       3.336   0.095   0.960  1.00  0.00     0.150 C 
ENDROOT
BRANCH   1   2
ATOM      2  C   UNL     1       4.611  -0.705   0.839  1.00  0.00    -0.029 A 
ATOM      3  C   UNL     1       6.966  -2.191   0.592  1.00  0.00     0.115 A 
ATOM      4  C   UNL     1       6.707  -1.165  -0.311  1.00  0.00     0.046 A 
ATOM      5  C   UNL     1       6.069  -2.488   1.610  1.00  0.00     0.046 A 
ATOM      6  C   UNL     1       5.529  -0.425  -0.187  1.00  0.00     0.009 A 
ATOM      7  C   UNL     1       4.891  -1.748   1.734  1.00  0.00     0.009 A 
BRANCH   3   8
ATOM      8  O   UNL     1       8.102  -2.940   0.508  1.00  0.00    -0.508 OA
ATOM      9  H   UNL     1       8.623  -2.628  -0.249  1.00  0.00     0.293 HD
ENDBRANCH   3   8
ENDBRANCH   1   2
BRANCH   1  10
ATOM     10  N   UNL     1       2.463  -0.209  -0.160  1.00  0.00    -0.366 N 
ATOM     11  H   UNL     1       2.505  -1.191  -0.425  1.00  0.00     0.162 HD
BRANCH  10  12
ATOM     12  C   UNL     1       1.198   0.325  -0.319  1.00  0.00     0.122 C 
ATOM     13  C   UNL     1       0.222  -0.363  -0.968  1.00  0.00     0.156 C 
ATOM     14  N   UNL     1       0.890   1.587   0.153  1.00  0.00    -0.339 N 
ATOM     15  N   UNL     1      -1.075   0.073  -1.173  1.00  0.00    -0.249 NA
ATOM     16  C   UNL     1      -0.320   2.180  -0.122  1.00  0.00     0.066 C 
ATOM     17  C   UNL     1      -1.339   1.273  -0.732  1.00  0.00     0.112 C 
ATOM     18  C   UNL     1      -0.649   3.466   0.007  1.00  0.00     0.025 C 
ATOM     19  C   UNL     1      -2.735   1.836  -0.865  1.00  0.00     0.095 C 
ATOM     20  C   UNL     1      -1.951   4.052  -0.419  1.00  0.00     0.172 C 
ATOM     21  N   UNL     1      -2.996   3.098  -0.767  1.00  0.00    -0.278 NA
ATOM     22  H   UNL     1       1.674   2.192   0.343  1.00  0.00     0.168 HD
BRANCH  19  23
ATOM     23  C   UNL     1      -3.840   0.899  -1.142  1.00  0.00     0.028 A 
ATOM     24  C   UNL     1      -4.562   1.074  -2.332  1.00  0.00     0.013 A 
ATOM     25  C   UNL     1      -4.143  -0.103  -0.213  1.00  0.00     0.080 A 
ATOM     26  C   UNL     1      -5.598   0.203  -2.639  1.00  0.00     0.001 A 
ATOM     27  N   UNL     1      -3.481  -0.223   0.965  1.00  0.00    -0.256 NA
ATOM     28  C   UNL     1      -5.199  -0.980  -0.548  1.00  0.00     0.001 A 
ATOM     29  C   UNL     1      -5.910  -0.826  -1.753  1.00  0.00     0.010 A 
ATOM     30  C   UNL     1      -3.822  -1.222   1.804  1.00  0.00     0.112 A 
ATOM     31  C   UNL     1      -5.527  -2.003   0.353  1.00  0.00     0.012 A 
ATOM     32  C   UNL     1      -4.828  -2.131   1.546  1.00  0.00     0.021 A 
ENDBRANCH  19  23
ENDBRANCH  10  12
ENDBRANCH   1  10
TORSDOF 5
