REMARK SMILES COc1ccc(O)c(C(=O)c2ccc(C(=O)N[C@@H]3CCN(C)C3)cc2)c1F
REMARK SMILES IDX 11 1 12 2 13 3 14 4 24 5 25 6 9 7 10 8 8 9 3 10 4 11 26 12
REMARK SMILES IDX 5 13 6 14 27 15 2 16 1 17 7 18 15 20 17 21 16 22 18 24 19 25
REMARK SMILES IDX 23 26 20 27 21 28 22 29
REMARK H PARENT 7 19 17 23
ROOT
ATOM      1  C   UNL     1       1.621   0.794   1.768  1.00  0.00     0.023 A 
ATOM      2  C   UNL     1       1.151  -0.256   0.971  1.00  0.00     0.013 A 
ATOM      3  C   UNL     1      -0.159  -0.229   0.479  1.00  0.00     0.014 A 
ATOM      4  C   UNL     1      -1.009   0.838   0.801  1.00  0.00     0.039 A 
ATOM      5  C   UNL     1      -0.537   1.884   1.604  1.00  0.00     0.014 A 
ATOM      6  C   UNL     1       0.770   1.856   2.097  1.00  0.00     0.013 A 
ENDROOT
BRANCH   1   7
ATOM      7  C   UNL     1       2.989   0.788   2.337  1.00  0.00     0.199 C 
ATOM      8  O   UNL     1       3.147   1.157   3.502  1.00  0.00    -0.288 OA
BRANCH   7   9
ATOM      9  C   UNL     1       4.176   0.305   1.595  1.00  0.00     0.104 A 
ATOM     10  C   UNL     1       5.409  -0.049  -0.480  1.00  0.00     0.155 A 
ATOM     11  C   UNL     1       6.447  -0.643   0.240  1.00  0.00     0.053 A 
ATOM     12  C   UNL     1       4.282   0.427   0.209  1.00  0.00     0.179 A 
ATOM     13  C   UNL     1       6.365  -0.742   1.631  1.00  0.00     0.051 A 
ATOM     14  C   UNL     1       5.245  -0.259   2.302  1.00  0.00     0.130 A 
ATOM     15  F   UNL     1       3.307   1.028  -0.492  1.00  0.00    -0.202 F 
BRANCH  10  16
ATOM     16  O   UNL     1       5.380   0.118  -1.839  1.00  0.00    -0.494 OA
ATOM     17  C   UNL     1       6.533  -0.283  -2.570  1.00  0.00     0.278 C 
ENDBRANCH  10  16
BRANCH  14  18
ATOM     18  O   UNL     1       5.260  -0.370   3.667  1.00  0.00    -0.507 OA
ATOM     19  H   UNL     1       4.532   0.190   4.024  1.00  0.00     0.293 HD
ENDBRANCH  14  18
ENDBRANCH   7   9
ENDBRANCH   1   7
BRANCH   4  20
ATOM     20  C   UNL     1      -2.409   0.909   0.297  1.00  0.00     0.251 C 
ATOM     21  N   UNL     1      -3.033  -0.299   0.052  1.00  0.00    -0.348 N 
ATOM     22  O   UNL     1      -2.958   1.994   0.151  1.00  0.00    -0.269 OA
ATOM     23  H   UNL     1      -2.634  -1.125   0.475  1.00  0.00     0.164 HD
BRANCH  21  24
ATOM     24  C   UNL     1      -4.441  -0.337  -0.315  1.00  0.00     0.097 C 
ATOM     25  C   UNL     1      -4.970  -1.766  -0.450  1.00  0.00     0.042 C 
ATOM     26  C   UNL     1      -4.742   0.313  -1.678  1.00  0.00     0.109 C 
ATOM     27  C   UNL     1      -5.520  -1.861  -1.868  1.00  0.00     0.086 C 
ATOM     28  N   UNL     1      -5.817  -0.489  -2.294  1.00  0.00    -0.304 NA
ATOM     29  C   UNL     1      -7.136  -0.051  -1.836  1.00  0.00     0.105 C 
ENDBRANCH  21  24
ENDBRANCH   4  20
TORSDOF 6
