MODEL        7USER    Run = 7USERUSER    Estimated Free Energy of Binding    =  -8.35 kcal/mol  [=(1)+(2)+(3)-(4)]USERUSER    (1) Final Intermolecular Energy     = -10.14 kcal/molUSER        vdW + Hbond + desolv Energy     = -10.06 kcal/molUSER        Electrostatic Energy            =  -0.08 kcal/molUSER        Moving Ligand-Fixed Receptor    = -10.14 kcal/molUSER        Moving Ligand-Moving Receptor   =  +0.00 kcal/molUSER    (2) Final Total Internal Energy     =  -1.49 kcal/molUSER    (3) Torsional Free Energy           =  +1.79 kcal/molUSER    (4) Unbound System's Energy         =  -1.49 kcal/molUSERUSERREMARK SMILES COc1ccc(O)c(C(=O)c2ccc(C(=O)N[C@@H]3CCNC3)cc2)c1FREMARK SMILES IDX 11 1 12 2 13 3 14 4 23 5 24 6 9 7 10 8 8 9 3 10 4 11 25 12REMARK SMILES IDX 5 13 6 14 26 15 2 16 1 17 7 18 15 20 17 21 16 22 18 24 19 25REMARK SMILES IDX 22 26 20 27 21 28REMARK H PARENT 7 19 17 23 21 29USER                              x       y       z     vdW  Elec       q    TypeUSER                           _______ _______ _______ _____ _____    ______ ____ROOTATOM      1  C   UNL     1      40.103  47.775  16.246 -0.52 -0.01    +0.023 A  ATOM      2  C   UNL     1      41.291  48.325  16.745 -0.46 -0.00    +0.013 A  ATOM      3  C   UNL     1      41.817  47.868  17.958 -0.47 -0.00    +0.014 A  ATOM      4  C   UNL     1      41.165  46.854  18.671 -0.46 -0.00    +0.039 A  ATOM      5  C   UNL     1      40.002  46.276  18.147 -0.46 -0.00    +0.014 A  ATOM      6  C   UNL     1      39.472  46.734  16.937 -0.45 -0.00    +0.013 A  ENDROOTBRANCH   1   7ATOM      7  C   UNL     1      39.524  48.215  14.954 -0.45 -0.07    +0.199 C  ATOM      8  O   UNL     1      40.016  49.190  14.384 -0.33 +0.12    -0.288 OA BRANCH   7   9ATOM      9  C   UNL     1      38.345  47.572  14.332 -0.42 -0.04    +0.104 A  ATOM     10  C   UNL     1      37.233  45.644  13.333 -0.36 -0.05    +0.155 A  ATOM     11  C   UNL     1      36.071  46.401  13.172 -0.52 -0.03    +0.053 A  ATOM     12  C   UNL     1      38.364  46.242  13.908 -0.25 -0.05    +0.179 A  ATOM     13  C   UNL     1      36.049  47.742  13.563 -0.33 -0.03    +0.051 A  ATOM     14  C   UNL     1      37.183  48.324  14.126 -0.44 -0.08    +0.130 A  ATOM     15  F   UNL     1      39.486  45.512  14.024 -0.03 +0.03    -0.202 F  BRANCH  10  16ATOM     16  O   UNL     1      37.380  44.329  12.976 -0.03 +0.15    -0.494 OA ATOM     17  C   UNL     1      37.149  43.995  11.613 -0.27 -0.08    +0.278 C  ENDBRANCH  10  16BRANCH  14  18ATOM     18  O   UNL     1      37.084  49.649  14.454 -0.10 +0.46    -0.507 OA ATOM     19  H   UNL     1      37.995  49.992  14.606 -0.34 -0.33    +0.293 HD ENDBRANCH  14  18ENDBRANCH   7   9ENDBRANCH   1   7BRANCH   4  20ATOM     20  C   UNL     1      41.691  46.339  19.965 -0.29 +0.03    +0.251 C  ATOM     21  N   UNL     1      42.674  47.098  20.569 -0.20 -0.07    -0.348 N  ATOM     22  O   UNL     1      41.232  45.315  20.456 -0.24 -0.03    -0.269 OA ATOM     23  H   UNL     1      42.808  48.047  20.251 -0.30 -0.01    +0.164 HD BRANCH  21  24ATOM     24  C   UNL     1      43.176  46.737  21.895 -0.32 +0.03    +0.097 C  ATOM     25  C   UNL     1      42.073  46.821  22.943 -0.25 +0.01    +0.041 C  ATOM     26  C   UNL     1      44.187  47.752  22.434 -0.29 +0.03    +0.105 C  ATOM     27  C   UNL     1      42.152  48.244  23.487 -0.36 +0.02    +0.083 C  ATOM     28  N   UNL     1      43.350  48.872  22.914 -0.70 -0.10    -0.315 NA ATOM     29  H   UNL     1      43.070  49.402  22.087 -0.43 +0.02    +0.122 HD ENDBRANCH  21  24ENDBRANCH   4  20TORSDOF 6TERENDMDL