REMARK SMILES Cn1ccc(-c2cccc(-c3ccc(O)c(Cl)c3)c2)ccncc1O
REMARK SMILES IDX 6 1 7 2 8 3 9 4 10 5 19 6 5 7 2 8 3 9 24 10 4 11 23 12 22 13
REMARK SMILES IDX 20 14 21 15 1 16 25 17 11 19 12 20 18 21 13 22 16 23 14 24
REMARK SMILES IDX 17 25 15 26
REMARK H PARENT 25 18 15 27
ROOT
ATOM      1  C   UNL     1      -0.043   1.025  -0.844  1.00  0.00    -0.018 A 
ATOM      2  C   UNL     1       0.200   1.996  -1.824  1.00  0.00     0.009 A 
ATOM      3  C   UNL     1       1.504   2.392  -2.110  1.00  0.00     0.001 A 
ATOM      4  C   UNL     1       2.575   1.820  -1.417  1.00  0.00     0.009 A 
ATOM      5  C   UNL     1       2.365   0.845  -0.426  1.00  0.00    -0.018 A 
ATOM      6  C   UNL     1       1.042   0.458  -0.153  1.00  0.00     0.017 A 
ENDROOT
BRANCH   1   7
ATOM      7  C   UNL     1      -1.446   0.600  -0.537  1.00  0.00    -0.015 A 
ATOM      8  N   UNL     1      -3.838  -1.413  -0.178  1.00  0.00    -0.321 N 
ATOM      9  C   UNL     1      -2.782  -1.373  -1.062  1.00  0.00     0.089 A 
ATOM     10  C   UNL     1      -4.936  -0.644  -0.506  1.00  0.00     0.209 A 
ATOM     11  C   UNL     1      -1.772  -0.515  -1.208  1.00  0.00     0.027 A 
ATOM     12  C   UNL     1      -5.183   0.601  -0.061  1.00  0.00     0.177 A 
ATOM     13  N   UNL     1      -4.591   1.524   0.711  1.00  0.00    -0.259 NA
ATOM     14  C   UNL     1      -2.042   1.409   0.355  1.00  0.00     0.029 A 
ATOM     15  C   UNL     1      -3.264   1.707   0.832  1.00  0.00     0.112 A 
ATOM     16  C   UNL     1      -4.132  -2.692   0.470  1.00  0.00     0.153 C 
BRANCH  10  17
ATOM     17  O   UNL     1      -5.881  -1.286  -1.296  1.00  0.00    -0.493 OA
ATOM     18  H   UNL     1      -6.494  -0.581  -1.554  1.00  0.00     0.295 HD
ENDBRANCH  10  17
ENDBRANCH   1   7
BRANCH   5  19
ATOM     19  C   UNL     1       3.495   0.250   0.308  1.00  0.00    -0.017 A 
ATOM     20  C   UNL     1       3.502   0.210   1.715  1.00  0.00     0.012 A 
ATOM     21  C   UNL     1       4.597  -0.293  -0.376  1.00  0.00     0.033 A 
ATOM     22  C   UNL     1       4.572  -0.351   2.419  1.00  0.00     0.048 A 
ATOM     23  C   UNL     1       5.665  -0.853   0.327  1.00  0.00     0.083 A 
ATOM     24  C   UNL     1       5.649  -0.879   1.721  1.00  0.00     0.134 A 
ATOM     25  Cl  UNL     1       7.002  -1.512  -0.542  1.00  0.00    -0.080 Cl
BRANCH  24  26
ATOM     26  O   UNL     1       6.675  -1.417   2.450  1.00  0.00    -0.506 OA
ATOM     27  H   UNL     1       7.328  -1.753   1.809  1.00  0.00     0.293 HD
ENDBRANCH  24  26
ENDBRANCH   5  19
TORSDOF 4
