REMARK SMILES COc1ccc(O)c(C(=O)c2ccc(C(=O)N[C@@H]3CCNC3)cc2)c1F
REMARK SMILES IDX 11 1 12 2 13 3 14 4 23 5 24 6 9 7 10 8 8 9 3 10 4 11 25 12
REMARK SMILES IDX 5 13 6 14 26 15 2 16 1 17 7 18 15 20 17 21 16 22 18 24 19 25
REMARK SMILES IDX 22 26 20 27 21 28
REMARK H PARENT 7 19 17 23 21 29
ROOT
ATOM      1  C   UNL     1       1.093   1.278   1.539  1.00  0.00     0.023 A 
ATOM      2  C   UNL     1       0.339   1.146   0.366  1.00  0.00     0.013 A 
ATOM      3  C   UNL     1      -0.915   0.527   0.407  1.00  0.00     0.014 A 
ATOM      4  C   UNL     1      -1.424   0.048   1.621  1.00  0.00     0.039 A 
ATOM      5  C   UNL     1      -0.687   0.222   2.799  1.00  0.00     0.014 A 
ATOM      6  C   UNL     1       0.568   0.836   2.759  1.00  0.00     0.013 A 
ENDROOT
BRANCH   1   7
ATOM      7  C   UNL     1       2.416   1.947   1.543  1.00  0.00     0.199 C 
ATOM      8  O   UNL     1       2.699   2.697   2.479  1.00  0.00    -0.288 OA
BRANCH   7   9
ATOM      9  C   UNL     1       3.402   1.803   0.449  1.00  0.00     0.104 A 
ATOM     10  C   UNL     1       4.444   0.513  -1.341  1.00  0.00     0.155 A 
ATOM     11  C   UNL     1       5.283   1.592  -1.627  1.00  0.00     0.053 A 
ATOM     12  C   UNL     1       3.513   0.628  -0.298  1.00  0.00     0.179 A 
ATOM     13  C   UNL     1       5.203   2.761  -0.866  1.00  0.00     0.051 A 
ATOM     14  C   UNL     1       4.279   2.858   0.172  1.00  0.00     0.130 A 
ATOM     15  F   UNL     1       2.737  -0.430  -0.011  1.00  0.00    -0.202 F 
BRANCH  10  16
ATOM     16  O   UNL     1       4.438  -0.685  -2.005  1.00  0.00    -0.494 OA
ATOM     17  C   UNL     1       5.418  -0.872  -3.019  1.00  0.00     0.278 C 
ENDBRANCH  10  16
BRANCH  14  18
ATOM     18  O   UNL     1       4.288   4.027   0.884  1.00  0.00    -0.507 OA
ATOM     19  H   UNL     1       3.755   3.888   1.701  1.00  0.00     0.293 HD
ENDBRANCH  14  18
ENDBRANCH   7   9
ENDBRANCH   1   7
BRANCH   4  20
ATOM     20  C   UNL     1      -2.754  -0.615   1.709  1.00  0.00     0.251 C 
ATOM     21  N   UNL     1      -3.170  -1.300   0.584  1.00  0.00    -0.348 N 
ATOM     22  O   UNL     1      -3.402  -0.567   2.747  1.00  0.00    -0.269 OA
ATOM     23  H   UNL     1      -2.482  -1.520  -0.122  1.00  0.00     0.164 HD
BRANCH  21  24
ATOM     24  C   UNL     1      -4.409  -2.078   0.608  1.00  0.00     0.097 C 
ATOM     25  C   UNL     1      -4.574  -2.889  -0.671  1.00  0.00     0.041 C 
ATOM     26  C   UNL     1      -5.656  -1.192   0.570  1.00  0.00     0.105 C 
ATOM     27  C   UNL     1      -5.360  -1.985  -1.615  1.00  0.00     0.083 C 
ATOM     28  N   UNL     1      -5.777  -0.802  -0.850  1.00  0.00    -0.315 NA
ATOM     29  H   UNL     1      -5.093  -0.060  -1.008  1.00  0.00     0.122 HD
ENDBRANCH  21  24
ENDBRANCH   4  20
TORSDOF 6
