MODEL        2USER    Run = 2USERUSER    Estimated Free Energy of Binding    =  -8.64 kcal/mol  [=(1)+(2)+(3)-(4)]USERUSER    (1) Final Intermolecular Energy     =  -9.83 kcal/molUSER        vdW + Hbond + desolv Energy     =  -9.80 kcal/molUSER        Electrostatic Energy            =  -0.03 kcal/molUSER        Moving Ligand-Fixed Receptor    =  -9.83 kcal/molUSER        Moving Ligand-Moving Receptor   =  +0.00 kcal/molUSER    (2) Final Total Internal Energy     =  -0.77 kcal/molUSER    (3) Torsional Free Energy           =  +1.19 kcal/molUSER    (4) Unbound System's Energy         =  -0.77 kcal/molUSERUSERREMARK SMILES Cn1ccnccc(-c2cccc(-c3ccc(O)c(F)c3N)c2)cc1REMARK SMILES IDX 9 1 10 2 11 3 12 4 13 5 23 6 8 7 2 8 3 9 25 10 4 11 24 12REMARK SMILES IDX 5 13 6 14 7 15 1 16 14 17 15 18 21 19 16 20 19 21 17 22REMARK SMILES IDX 20 23 22 24 18 27REMARK H PARENT 22 25 22 26 18 28USER                              x       y       z     vdW  Elec       q    TypeUSER                           _______ _______ _______ _____ _____    ______ ____ROOTATOM      1  C   UNL     1      40.160  46.691  17.790 -0.47 +0.00    -0.018 A  ATOM      2  C   UNL     1      41.117  47.697  17.592 -0.52 -0.00    +0.009 A  ATOM      3  C   UNL     1      41.131  48.432  16.407 -0.53 -0.00    +0.001 A  ATOM      4  C   UNL     1      40.187  48.168  15.414 -0.56 -0.00    +0.009 A  ATOM      5  C   UNL     1      39.216  47.167  15.588 -0.46 +0.00    -0.016 A  ATOM      6  C   UNL     1      39.215  46.432  16.783 -0.42 -0.00    +0.017 A  ENDROOTBRANCH   1   7ATOM      7  C   UNL     1      40.146  45.904  19.067 -0.43 +0.00    -0.015 A  ATOM      8  N   UNL     1      41.480  44.288  21.480 -0.12 -0.04    -0.356 N  ATOM      9  C   UNL     1      40.517  44.462  22.452 -0.18 +0.01    +0.105 A  ATOM     10  C   UNL     1      41.847  45.404  20.756 -0.28 +0.02    +0.086 A  ATOM     11  C   UNL     1      39.183  44.413  22.382 -0.21 +0.01    +0.129 A  ATOM     12  C   UNL     1      41.289  46.071  19.746 -0.40 +0.00    +0.026 A  ATOM     13  N   UNL     1      38.228  44.230  21.466 -0.19 -0.01    -0.263 NA ATOM     14  C   UNL     1      38.323  44.541  20.162 -0.29 -0.00    +0.111 A  ATOM     15  C   UNL     1      39.011  45.202  19.215 -0.38 -0.00    +0.029 A  ATOM     16  C   UNL     1      42.527  43.310  21.788 -0.30 +0.01    +0.149 C  ENDBRANCH   1   7BRANCH   5  17ATOM     17  C   UNL     1      38.225  46.899  14.533 -0.44 -0.00    +0.008 A  ATOM     18  C   UNL     1      38.061  45.573  14.077 -0.39 -0.00    +0.015 A  ATOM     19  C   UNL     1      37.456  47.929  13.944 -0.48 -0.04    +0.080 A  ATOM     20  C   UNL     1      37.137  45.254  13.079 -0.45 -0.02    +0.050 A  ATOM     21  C   UNL     1      36.503  47.576  12.975 -0.48 -0.09    +0.188 A  ATOM     22  C   UNL     1      36.358  46.261  12.537 -0.49 -0.07    +0.153 A  ATOM     23  F   UNL     1      35.719  48.524  12.429 -0.18 +0.11    -0.201 F  BRANCH  19  24ATOM     24  N   UNL     1      37.480  49.250  14.440 -0.11 +0.31    -0.396 N  ATOM     25  H   UNL     1      37.108  49.940  13.797 -0.35 -0.11    +0.156 HD ATOM     26  H   UNL     1      38.354  49.516  14.885 -0.38 -0.13    +0.156 HD ENDBRANCH  19  24BRANCH  22  27ATOM     27  O   UNL     1      35.441  45.939  11.576 -0.14 +0.28    -0.505 OA ATOM     28  H   UNL     1      34.583  46.281  11.890 -0.14 -0.26    +0.293 HD ENDBRANCH  22  27ENDBRANCH   5  17TORSDOF 4TERENDMDL