MODEL        1USER    Run = 1USERUSER    Estimated Free Energy of Binding    =  -9.36 kcal/mol  [=(1)+(2)+(3)-(4)]USERUSER    (1) Final Intermolecular Energy     = -10.55 kcal/molUSER        vdW + Hbond + desolv Energy     = -10.29 kcal/molUSER        Electrostatic Energy            =  -0.26 kcal/molUSER        Moving Ligand-Fixed Receptor    = -10.55 kcal/molUSER        Moving Ligand-Moving Receptor   =  +0.00 kcal/molUSER    (2) Final Total Internal Energy     =  -0.57 kcal/molUSER    (3) Torsional Free Energy           =  +1.19 kcal/molUSER    (4) Unbound System's Energy         =  -0.57 kcal/molUSERUSERREMARK SMILES Cn1ccc(-c2cccc(-c3ccc(O)c(Cl)c3)c2)ccncc1OREMARK SMILES IDX 6 1 7 2 8 3 9 4 10 5 19 6 5 7 2 8 3 9 24 10 4 11 23 12 22 13REMARK SMILES IDX 20 14 21 15 1 16 25 17 11 19 12 20 18 21 13 22 16 23 14 24REMARK SMILES IDX 17 25 15 26REMARK H PARENT 25 18 15 27USER                              x       y       z     vdW  Elec       q    TypeUSER                           _______ _______ _______ _____ _____    ______ ____ROOTATOM      1  C   UNL     1      35.239  46.229  14.421 -0.40 +0.01    -0.018 A  ATOM      2  C   UNL     1      35.120  46.623  13.082 -0.42 -0.01    +0.009 A  ATOM      3  C   UNL     1      36.154  47.321  12.463 -0.69 -0.00    +0.001 A  ATOM      4  C   UNL     1      37.314  47.630  13.178 -0.56 -0.00    +0.009 A  ATOM      5  C   UNL     1      37.464  47.251  14.524 -0.45 +0.01    -0.018 A  ATOM      6  C   UNL     1      36.410  46.547  15.131 -0.38 -0.01    +0.017 A  ENDROOTBRANCH   1   7ATOM      7  C   UNL     1      34.127  45.479  15.087 -0.28 +0.01    -0.015 A  ATOM      8  N   UNL     1      32.697  43.883  17.392 -0.09 +0.10    -0.321 N  ATOM      9  C   UNL     1      34.005  43.920  16.960 -0.25 -0.04    +0.089 A  ATOM     10  C   UNL     1      31.851  43.040  16.700 -0.17 -0.08    +0.209 A  ATOM     11  C   UNL     1      34.603  44.599  15.981 -0.30 -0.02    +0.027 A  ATOM     12  C   UNL     1      31.044  43.398  15.685 -0.23 -0.09    +0.177 A  ATOM     13  N   UNL     1      30.761  44.497  14.971 -0.21 +0.17    -0.259 NA ATOM     14  C   UNL     1      32.916  45.876  14.661 -0.22 -0.03    +0.029 A  ATOM     15  C   UNL     1      31.630  45.479  14.672 -0.39 -0.08    +0.112 A  ATOM     16  C   UNL     1      32.455  43.980  18.832 -0.33 -0.02    +0.153 C  BRANCH  10  17ATOM     17  O   UNL     1      31.800  41.740  17.187 -0.06 +0.18    -0.493 OA ATOM     18  H   UNL     1      32.216  41.209  16.491 -0.32 -0.23    +0.295 HD ENDBRANCH  10  17ENDBRANCH   1   7BRANCH   5  19ATOM     19  C   UNL     1      38.685  47.585  15.277 -0.48 +0.01    -0.017 A  ATOM     20  C   UNL     1      38.999  46.919  16.477 -0.43 -0.00    +0.012 A  ATOM     21  C   UNL     1      39.568  48.579  14.820 -0.50 -0.01    +0.033 A  ATOM     22  C   UNL     1      40.155  47.232  17.199 -0.46 -0.01    +0.048 A  ATOM     23  C   UNL     1      40.722  48.891  15.541 -0.55 -0.02    +0.083 A  ATOM     24  C   UNL     1      41.010  48.218  16.728 -0.43 -0.02    +0.134 A  ATOM     25  Cl  UNL     1      41.787  50.115  14.953 -0.93 +0.01    -0.080 Cl BRANCH  24  26ATOM     26  O   UNL     1      42.129  48.493  17.467 -0.40 -0.06    -0.506 OA ATOM     27  H   UNL     1      42.769  47.781  17.281 -0.35 -0.05    +0.293 HD ENDBRANCH  24  26ENDBRANCH   5  19TORSDOF 4TERENDMDL