REMARK SMILES Cn1ccnccc(-c2cccc(-c3ccc(O)c(Cl)c3O)c2)cc1
REMARK SMILES IDX 9 1 10 2 11 3 12 4 13 5 23 6 8 7 2 8 3 9 25 10 4 11 24 12
REMARK SMILES IDX 5 13 6 14 7 15 1 16 14 17 15 18 21 19 16 20 19 21 17 22
REMARK SMILES IDX 20 23 22 24 18 26
REMARK H PARENT 22 25 18 27
ROOT
ATOM      1  C   UNL     1      -0.422  -1.249   0.035  1.00  0.00    -0.018 A 
ATOM      2  C   UNL     1      -0.217  -2.633  -0.018  1.00  0.00     0.009 A 
ATOM      3  C   UNL     1       1.064  -3.144  -0.215  1.00  0.00     0.001 A 
ATOM      4  C   UNL     1       2.148  -2.275  -0.362  1.00  0.00     0.009 A 
ATOM      5  C   UNL     1       1.978  -0.881  -0.309  1.00  0.00    -0.014 A 
ATOM      6  C   UNL     1       0.678  -0.385  -0.106  1.00  0.00     0.017 A 
ENDROOT
BRANCH   1   7
ATOM      7  C   UNL     1      -1.802  -0.697   0.235  1.00  0.00    -0.015 A 
ATOM      8  N   UNL     1      -4.369   1.013  -0.493  1.00  0.00    -0.356 N 
ATOM      9  C   UNL     1      -5.338   0.235   0.110  1.00  0.00     0.105 A 
ATOM     10  C   UNL     1      -3.462   0.310  -1.256  1.00  0.00     0.086 A 
ATOM     11  C   UNL     1      -5.372  -0.267   1.350  1.00  0.00     0.129 A 
ATOM     12  C   UNL     1      -2.367  -0.387  -0.943  1.00  0.00     0.026 A 
ATOM     13  N   UNL     1      -4.555  -0.321   2.412  1.00  0.00    -0.263 NA
ATOM     14  C   UNL     1      -3.214  -0.447   2.332  1.00  0.00     0.111 A 
ATOM     15  C   UNL     1      -2.141  -0.631   1.536  1.00  0.00     0.029 A 
ATOM     16  C   UNL     1      -3.868   2.163   0.277  1.00  0.00     0.149 C 
ENDBRANCH   1   7
BRANCH   5  17
ATOM     17  C   UNL     1       3.119   0.041  -0.484  1.00  0.00     0.025 A 
ATOM     18  C   UNL     1       3.055   1.043  -1.475  1.00  0.00     0.016 A 
ATOM     19  C   UNL     1       4.285  -0.025   0.302  1.00  0.00     0.145 A 
ATOM     20  C   UNL     1       4.106   1.943  -1.677  1.00  0.00     0.049 A 
ATOM     21  C   UNL     1       5.338   0.879   0.104  1.00  0.00     0.125 A 
ATOM     22  C   UNL     1       5.242   1.858  -0.886  1.00  0.00     0.138 A 
ATOM     23  Cl  UNL     1       6.762   0.787   1.084  1.00  0.00    -0.076 Cl
BRANCH  19  24
ATOM     24  O   UNL     1       4.380  -0.983   1.283  1.00  0.00    -0.506 OA
ATOM     25  H   UNL     1       5.195  -0.817   1.788  1.00  0.00     0.293 HD
ENDBRANCH  19  24
BRANCH  22  26
ATOM     26  O   UNL     1       6.243   2.761  -1.120  1.00  0.00    -0.506 OA
ATOM     27  H   UNL     1       6.949   2.583  -0.472  1.00  0.00     0.293 HD
ENDBRANCH  22  26
ENDBRANCH   5  17
TORSDOF 4
