REMARK SMILES Cn1ccnccc(-c2cccc(-c3ccc(O)c(F)c3N)c2)cc1
REMARK SMILES IDX 9 1 10 2 11 3 12 4 13 5 23 6 8 7 2 8 3 9 25 10 4 11 24 12
REMARK SMILES IDX 5 13 6 14 7 15 1 16 14 17 15 18 21 19 16 20 19 21 17 22
REMARK SMILES IDX 20 23 22 24 18 27
REMARK H PARENT 22 25 22 26 18 28
ROOT
ATOM      1  C   UNL     1      -0.280   0.138   1.259  1.00  0.00    -0.018 A 
ATOM      2  C   UNL     1      -0.202   0.795   2.496  1.00  0.00     0.009 A 
ATOM      3  C   UNL     1       1.009   1.330   2.934  1.00  0.00     0.001 A 
ATOM      4  C   UNL     1       2.149   1.214   2.137  1.00  0.00     0.009 A 
ATOM      5  C   UNL     1       2.098   0.562   0.893  1.00  0.00    -0.016 A 
ATOM      6  C   UNL     1       0.874   0.025   0.466  1.00  0.00     0.017 A 
ENDROOT
BRANCH   1   7
ATOM      7  C   UNL     1      -1.585  -0.433   0.790  1.00  0.00    -0.015 A 
ATOM      8  N   UNL     1      -4.661  -0.290  -0.064  1.00  0.00    -0.356 N 
ATOM      9  C   UNL     1      -4.739  -1.398  -0.882  1.00  0.00     0.105 A 
ATOM     10  C   UNL     1      -3.578   0.545  -0.244  1.00  0.00     0.086 A 
ATOM     11  C   UNL     1      -4.227  -2.625  -0.746  1.00  0.00     0.129 A 
ATOM     12  C   UNL     1      -2.297   0.483   0.120  1.00  0.00     0.026 A 
ATOM     13  N   UNL     1      -3.459  -3.307   0.109  1.00  0.00    -0.263 NA
ATOM     14  C   UNL     1      -2.510  -2.781   0.901  1.00  0.00     0.111 A 
ATOM     15  C   UNL     1      -1.744  -1.710   1.173  1.00  0.00     0.029 A 
ATOM     16  C   UNL     1      -5.940   0.332   0.290  1.00  0.00     0.149 C 
ENDBRANCH   1   7
BRANCH   5  17
ATOM     17  C   UNL     1       3.307   0.448   0.062  1.00  0.00     0.008 A 
ATOM     18  C   UNL     1       4.291  -0.499   0.423  1.00  0.00     0.015 A 
ATOM     19  C   UNL     1       3.527   1.273  -1.065  1.00  0.00     0.080 A 
ATOM     20  C   UNL     1       5.460  -0.656  -0.325  1.00  0.00     0.050 A 
ATOM     21  C   UNL     1       4.689   1.064  -1.825  1.00  0.00     0.188 A 
ATOM     22  C   UNL     1       5.649   0.126  -1.451  1.00  0.00     0.153 A 
ATOM     23  F   UNL     1       4.907   1.798  -2.932  1.00  0.00    -0.201 F 
BRANCH  19  24
ATOM     24  N   UNL     1       2.531   2.146  -1.551  1.00  0.00    -0.396 N 
ATOM     25  H   UNL     1       2.885   2.888  -2.145  1.00  0.00     0.156 HD
ATOM     26  H   UNL     1       1.861   2.451  -0.850  1.00  0.00     0.156 HD
ENDBRANCH  19  24
BRANCH  22  27
ATOM     27  O   UNL     1       6.785  -0.047  -2.190  1.00  0.00    -0.505 OA
ATOM     28  H   UNL     1       6.696   0.532  -2.970  1.00  0.00     0.293 HD
ENDBRANCH  22  27
ENDBRANCH   5  17
TORSDOF 4
