MODEL        8USER    Run = 8USERUSER    Estimated Free Energy of Binding    =  -8.47 kcal/mol  [=(1)+(2)+(3)-(4)]USERUSER    (1) Final Intermolecular Energy     = -10.26 kcal/molUSER        vdW + Hbond + desolv Energy     =  -9.92 kcal/molUSER        Electrostatic Energy            =  -0.33 kcal/molUSER        Moving Ligand-Fixed Receptor    = -10.26 kcal/molUSER        Moving Ligand-Moving Receptor   =  +0.00 kcal/molUSER    (2) Final Total Internal Energy     =  -1.43 kcal/molUSER    (3) Torsional Free Energy           =  +1.79 kcal/molUSER    (4) Unbound System's Energy         =  -1.43 kcal/molUSERUSERREMARK SMILES COc1ccc(O)c(C(=O)c2ccc(C(=O)N[C@@H]3CCN(C)C3)cc2)c1FREMARK SMILES IDX 11 1 12 2 13 3 14 4 24 5 25 6 9 7 10 8 8 9 3 10 4 11 26 12REMARK SMILES IDX 5 13 6 14 27 15 2 16 1 17 7 18 15 20 17 21 16 22 18 24 19 25REMARK SMILES IDX 23 26 20 27 21 28 22 29REMARK H PARENT 7 19 17 23USER                              x       y       z     vdW  Elec       q    TypeUSER                           _______ _______ _______ _____ _____    ______ ____ROOTATOM      1  C   UNL     1      42.182  46.811  19.421 -0.48 +0.00    +0.023 A  ATOM      2  C   UNL     1      41.239  45.785  19.297 -0.44 +0.00    +0.013 A  ATOM      3  C   UNL     1      40.385  45.750  18.188 -0.46 -0.00    +0.014 A  ATOM      4  C   UNL     1      40.457  46.753  17.213 -0.47 -0.01    +0.039 A  ATOM      5  C   UNL     1      41.398  47.783  17.344 -0.45 -0.00    +0.014 A  ATOM      6  C   UNL     1      42.250  47.819  18.451 -0.46 -0.00    +0.013 A  ENDROOTBRANCH   1   7ATOM      7  C   UNL     1      43.082  46.905  20.594 -0.32 +0.06    +0.199 C  ATOM      8  O   UNL     1      44.232  47.315  20.428 -0.45 -0.20    -0.288 OA BRANCH   7   9ATOM      9  C   UNL     1      42.653  46.584  21.975 -0.25 +0.02    +0.104 A  ATOM     10  C   UNL     1      41.863  45.010  23.663 -0.07 +0.01    +0.155 A  ATOM     11  C   UNL     1      41.835  46.039  24.607 -0.08 +0.00    +0.053 A  ATOM     12  C   UNL     1      42.280  45.293  22.353 -0.14 +0.03    +0.179 A  ATOM     13  C   UNL     1      42.236  47.327  24.247 -0.18 +0.01    +0.051 A  ATOM     14  C   UNL     1      42.655  47.593  22.946 -0.25 +0.02    +0.130 A  ATOM     15  F   UNL     1      42.336  44.288  21.465 -0.08 -0.04    -0.202 F  BRANCH  10  16ATOM     16  O   UNL     1      41.508  43.708  23.898 -0.02 -0.01    -0.494 OA ATOM     17  C   UNL     1      40.285  43.253  23.332 -0.15 +0.01    +0.278 C  ENDBRANCH  10  16BRANCH  14  18ATOM     18  O   UNL     1      43.058  48.876  22.688 -0.69 -0.13    -0.507 OA ATOM     19  H   UNL     1      43.640  48.855  21.892 -0.44 -0.02    +0.293 HD ENDBRANCH  14  18ENDBRANCH   7   9ENDBRANCH   1   7BRANCH   4  20ATOM     20  C   UNL     1      39.570  46.754  16.016 -0.34 -0.06    +0.251 C  ATOM     21  N   UNL     1      38.272  47.180  16.218 -0.17 +0.16    -0.348 N  ATOM     22  O   UNL     1      40.009  46.421  14.923 -0.33 +0.03    -0.269 OA ATOM     23  H   UNL     1      38.079  47.712  17.055 +0.10 -0.10    +0.164 HD BRANCH  21  24ATOM     24  C   UNL     1      37.368  47.342  15.088 -0.44 -0.06    +0.097 C  ATOM     25  C   UNL     1      36.997  46.006  14.443 -0.44 -0.02    +0.042 C  ATOM     26  C   UNL     1      37.963  48.172  13.935 -0.51 -0.05    +0.109 C  ATOM     27  C   UNL     1      37.410  46.134  12.981 -0.47 -0.03    +0.086 C  ATOM     28  N   UNL     1      37.459  47.570  12.685 -0.88 +0.06    -0.304 NA ATOM     29  C   UNL     1      36.140  48.098  12.335 -0.56 -0.05    +0.105 C  ENDBRANCH  21  24ENDBRANCH   4  20TORSDOF 6TERENDMDL