MODEL        2USER    Run = 2USERUSER    Estimated Free Energy of Binding    =  -9.08 kcal/mol  [=(1)+(2)+(3)-(4)]USERUSER    (1) Final Intermolecular Energy     = -10.27 kcal/molUSER        vdW + Hbond + desolv Energy     = -10.02 kcal/molUSER        Electrostatic Energy            =  -0.26 kcal/molUSER        Moving Ligand-Fixed Receptor    = -10.27 kcal/molUSER        Moving Ligand-Moving Receptor   =  +0.00 kcal/molUSER    (2) Final Total Internal Energy     =  -0.49 kcal/molUSER    (3) Torsional Free Energy           =  +1.19 kcal/molUSER    (4) Unbound System's Energy         =  -0.49 kcal/molUSERUSERREMARK SMILES Cn1ccnccc(-c2cccc(-c3ccc(O)c(Cl)c3O)c2)cc1REMARK SMILES IDX 9 1 10 2 11 3 12 4 13 5 23 6 8 7 2 8 3 9 25 10 4 11 24 12REMARK SMILES IDX 5 13 6 14 7 15 1 16 14 17 15 18 21 19 16 20 19 21 17 22REMARK SMILES IDX 20 23 22 24 18 26REMARK H PARENT 22 25 18 27USER                              x       y       z     vdW  Elec       q    TypeUSER                           _______ _______ _______ _____ _____    ______ ____ROOTATOM      1  C   UNL     1      35.100  45.454  15.798 -0.32 +0.01    -0.018 A  ATOM      2  C   UNL     1      34.653  45.872  14.538 -0.33 -0.01    +0.009 A  ATOM      3  C   UNL     1      35.444  46.713  13.759 -0.47 -0.00    +0.001 A  ATOM      4  C   UNL     1      36.686  47.143  14.234 -0.47 -0.01    +0.009 A  ATOM      5  C   UNL     1      37.166  46.738  15.491 -0.39 +0.01    -0.014 A  ATOM      6  C   UNL     1      36.354  45.886  16.261 -0.35 -0.01    +0.017 A  ENDROOTBRANCH   1   7ATOM      7  C   UNL     1      34.244  44.558  16.643 -0.30 +0.01    -0.015 A  ATOM      8  N   UNL     1      31.778  42.674  17.285 -0.08 +0.11    -0.356 N  ATOM      9  C   UNL     1      32.368  41.836  18.211 -0.30 -0.02    +0.105 A  ATOM     10  C   UNL     1      32.524  42.887  16.147 -0.21 -0.04    +0.086 A  ATOM     11  C   UNL     1      33.093  42.144  19.293 -0.26 +0.00    +0.129 A  ATOM     12  C   UNL     1      33.547  43.703  15.877 -0.26 -0.01    +0.026 A  ATOM     13  N   UNL     1      33.595  43.252  19.857 -0.75 -0.01    -0.263 NA ATOM     14  C   UNL     1      34.066  44.310  19.165 -0.33 -0.03    +0.111 A  ATOM     15  C   UNL     1      34.365  44.827  17.956 -0.33 -0.01    +0.029 A  ATOM     16  C   UNL     1      31.002  43.807  17.816 -0.13 -0.02    +0.149 C  ENDBRANCH   1   7BRANCH   5  17ATOM     17  C   UNL     1      38.470  47.206  16.005 -0.42 -0.01    +0.025 A  ATOM     18  C   UNL     1      39.012  46.612  17.164 -0.42 -0.00    +0.016 A  ATOM     19  C   UNL     1      39.215  48.228  15.387 -0.41 -0.06    +0.145 A  ATOM     20  C   UNL     1      40.244  47.016  17.688 -0.45 -0.01    +0.049 A  ATOM     21  C   UNL     1      40.452  48.631  15.907 -0.48 -0.03    +0.125 A  ATOM     22  C   UNL     1      40.959  48.023  17.056 -0.41 -0.02    +0.138 A  ATOM     23  Cl  UNL     1      41.358  49.885  15.130 -0.95 +0.02    -0.076 Cl BRANCH  19  24ATOM     24  O   UNL     1      38.722  48.824  14.250 -0.15 +0.26    -0.506 OA ATOM     25  H   UNL     1      38.259  49.638  14.514 -0.30 -0.27    +0.293 HD ENDBRANCH  19  24BRANCH  22  26ATOM     26  O   UNL     1      42.160  48.383  17.605 -0.40 -0.04    -0.506 OA ATOM     27  H   UNL     1      42.798  47.679  17.388 -0.36 -0.06    +0.293 HD ENDBRANCH  22  26ENDBRANCH   5  17TORSDOF 4TERENDMDL