MODEL        5USER    Run = 5USERUSER    Estimated Free Energy of Binding    = -13.00 kcal/mol  [=(1)+(2)+(3)-(4)]USERUSER    (1) Final Intermolecular Energy     = -14.79 kcal/molUSER        vdW + Hbond + desolv Energy     = -14.71 kcal/molUSER        Electrostatic Energy            =  -0.08 kcal/molUSER        Moving Ligand-Fixed Receptor    = -14.79 kcal/molUSER        Moving Ligand-Moving Receptor   =  +0.00 kcal/molUSER    (2) Final Total Internal Energy     =  -1.80 kcal/molUSER    (3) Torsional Free Energy           =  +1.79 kcal/molUSER    (4) Unbound System's Energy         =  -1.80 kcal/molUSERUSERREMARK SMILES Oc1nc2ccccc2n1C1CCN(Cc2ccc(-c3nc4ccccc4nc3-c3ccccc3)cc2)CC1REMARK SMILES IDX 11 1 12 2 13 3 14 4 38 5 39 6 10 7 2 8 3 9 4 10 9 11 5 12REMARK SMILES IDX 8 13 6 14 7 15 1 16 15 18 16 19 17 20 37 21 18 22 36 23REMARK SMILES IDX 19 24 20 25 21 26 29 27 22 28 28 29 23 30 27 31 24 32 26 33REMARK SMILES IDX 25 34 30 35 31 36 35 37 32 38 34 39 33 40REMARK H PARENT 1 17USER                              x       y       z     vdW  Elec       q    TypeUSER                           _______ _______ _______ _____ _____    ______ ____ROOTATOM      1  C   UNL     1      38.971  47.436  15.462 -0.48 -0.03    +0.095 C  ATOM      2  C   UNL     1      37.831  46.904  16.347 -0.42 -0.02    +0.041 C  ATOM      3  C   UNL     1      36.458  47.307  15.809 -0.31 -0.09    +0.087 C  ATOM      4  N   UNL     1      36.321  47.152  14.358 -0.22 +0.22    -0.299 NA ATOM      5  C   UNL     1      37.343  47.898  13.606 -0.56 -0.04    +0.087 C  ATOM      6  C   UNL     1      38.474  48.483  14.458 -0.55 -0.02    +0.041 C  ENDROOTBRANCH   1   7ATOM      7  N   UNL     1      40.114  47.891  16.238 -0.30 +0.07    -0.291 N  ATOM      8  C   UNL     1      40.813  49.051  16.052 -0.34 -0.06    +0.295 A  ATOM      9  N   UNL     1      41.790  49.210  16.901 -0.87 -0.04    -0.195 NA ATOM     10  C   UNL     1      41.728  48.096  17.702 -0.35 -0.00    +0.092 A  ATOM     11  C   UNL     1      40.685  47.249  17.318 -0.47 -0.01    +0.072 A  ATOM     12  C   UNL     1      42.537  47.742  18.793 -0.50 +0.00    +0.031 A  ATOM     13  C   UNL     1      40.406  46.049  17.987 -0.46 -0.00    +0.029 A  ATOM     14  C   UNL     1      42.274  46.546  19.472 -0.45 +0.00    +0.002 A  ATOM     15  C   UNL     1      41.226  45.716  19.073 -0.46 +0.00    +0.002 A  BRANCH   8  16ATOM     16  O   UNL     1      40.547  49.949  15.125 -0.21 +0.21    -0.480 OA ATOM     17  H   UNL     1      39.789  50.416  15.522 -0.21 -0.22    +0.296 HD ENDBRANCH   8  16ENDBRANCH   1   7BRANCH   4  18ATOM     18  C   UNL     1      36.232  45.751  13.909 -0.42 -0.06    +0.120 C  BRANCH  18  19ATOM     19  C   UNL     1      35.531  44.837  14.891 -0.23 +0.02    -0.034 A  ATOM     20  C   UNL     1      34.239  45.129  15.342 -0.30 -0.00    +0.006 A  ATOM     21  C   UNL     1      36.172  43.691  15.376 -0.39 -0.00    +0.006 A  ATOM     22  C   UNL     1      33.596  44.277  16.246 -0.32 -0.01    +0.011 A  ATOM     23  C   UNL     1      35.526  42.841  16.278 -0.45 -0.00    +0.011 A  ATOM     24  C   UNL     1      34.220  43.110  16.717 -0.38 -0.00    +0.002 A  BRANCH  24  25ATOM     25  C   UNL     1      33.518  42.217  17.654 -0.32 -0.03    +0.097 A  ATOM     26  N   UNL     1      32.424  41.604  17.114 -0.05 +0.11    -0.244 NA ATOM     27  C   UNL     1      33.887  41.998  18.991 -0.31 -0.01    +0.097 A  ATOM     28  C   UNL     1      31.695  40.814  17.921 -0.32 -0.02    +0.089 A  ATOM     29  N   UNL     1      33.134  41.203  19.805 -0.06 -0.06    -0.244 NA ATOM     30  C   UNL     1      30.565  40.178  17.418 -0.34 -0.00    +0.030 A  ATOM     31  C   UNL     1      32.050  40.615  19.272 -0.29 +0.01    +0.089 A  ATOM     32  C   UNL     1      29.778  39.352  18.221 -0.34 +0.00    +0.002 A  ATOM     33  C   UNL     1      31.260  39.790  20.065 -0.29 +0.00    +0.030 A  ATOM     34  C   UNL     1      30.128  39.157  19.551 -0.32 +0.00    +0.002 A  BRANCH  27  35ATOM     35  C   UNL     1      35.086  42.555  19.644 -0.44 -0.00    +0.002 A  ATOM     36  C   UNL     1      35.508  43.865  19.354 -0.38 -0.00    +0.010 A  ATOM     37  C   UNL     1      35.825  41.825  20.592 -0.42 -0.00    +0.010 A  ATOM     38  C   UNL     1      36.640  44.415  19.965 -0.34 -0.00    +0.001 A  ATOM     39  C   UNL     1      36.959  42.371  21.201 -0.45 +0.00    +0.001 A  ATOM     40  C   UNL     1      37.367  43.664  20.885 -0.39 +0.00    +0.000 A  ENDBRANCH  27  35ENDBRANCH  24  25ENDBRANCH  18  19ENDBRANCH   4  18TORSDOF 6TERENDMDL