MODEL        1USER    Run = 1USERUSER    Estimated Free Energy of Binding    =  -5.97 kcal/mol  [=(1)+(2)+(3)-(4)]USERUSER    (1) Final Intermolecular Energy     = -10.44 kcal/molUSER        vdW + Hbond + desolv Energy     = -10.58 kcal/molUSER        Electrostatic Energy            =  -0.12 kcal/molUSER        Moving Ligand-Fixed Receptor    = -10.70 kcal/molUSER        Moving Ligand-Moving Receptor   =  +0.26 kcal/molUSER    (2) Final Total Internal Energy     =  -3.01 kcal/molUSER    (3) Torsional Free Energy           =  +4.47 kcal/molUSER    (4) Unbound System's Energy         =  -3.01 kcal/molUSERUSERREMARK SMILES COc1ccc(O)c(C(=O)c2ccc(NC[C@@H]3CCCNC[C@@H]3NC(=O)c3ccncc3)cc2)c1FREMARK SMILES IDX 16 1 15 2 14 4 11 5 12 6 34 7 13 8 33 9 9 10 10 11 8 12 3 13REMARK SMILES IDX 4 14 35 15 5 16 6 17 36 18 2 19 1 20 7 21 17 23 18 24 23 26REMARK SMILES IDX 22 27 21 28 20 30 19 31 24 33 25 34 26 36 27 37 28 38 32 39REMARK SMILES IDX 29 40 31 41 30 42REMARK H PARENT 15 3 7 22 21 29 24 35REMARK Flexibility Score:   99.900USER                              x       y       z     vdW  Elec       q    TypeUSER                           _______ _______ _______ _____ _____    ______ ____ROOTATOM      1  C   UNL     1      41.647  43.047  22.864 -0.28 +0.00    +0.118 C  ENDROOTBRANCH   1   2ATOM      2  N   UNL     1      41.561  42.955  21.404 -0.10 -0.01    -0.385 N  ATOM      3  H   UNL     1      42.074  42.167  21.021 -0.39 -0.02    +0.160 HD BRANCH   2   4ATOM      4  C   UNL     1      41.562  44.077  20.580 -0.28 +0.00    +0.034 A  ATOM      5  C   UNL     1      41.405  46.307  18.844 -0.48 +0.00    +0.023 A  ATOM      6  C   UNL     1      41.874  46.459  20.151 -0.39 +0.00    +0.014 A  ATOM      7  C   UNL     1      40.960  45.055  18.418 -0.43 +0.00    +0.014 A  ATOM      8  C   UNL     1      41.942  45.354  21.009 -0.30 +0.00    +0.026 A  ATOM      9  C   UNL     1      41.036  43.958  19.286 -0.12 +0.00    +0.026 A  BRANCH   5  10ATOM     10  C   UNL     1      41.317  47.509  17.980 -0.43 -0.02    +0.199 C  ATOM     11  O   UNL     1      42.113  48.433  18.157 -0.54 -0.01    -0.288 OA BRANCH  10  12ATOM     12  C   UNL     1      40.280  47.688  16.941 -0.43 -0.02    +0.104 A  ATOM     13  C   UNL     1      38.039  47.298  16.060 -0.30 -0.08    +0.155 A  ATOM     14  C   UNL     1      38.347  48.073  14.941 -0.49 -0.03    +0.053 A  ATOM     15  C   UNL     1      39.016  47.105  17.049 -0.26 -0.06    +0.179 A  ATOM     16  C   UNL     1      39.620  48.633  14.806 -0.48 -0.02    +0.051 A  ATOM     17  C   UNL     1      40.581  48.428  15.791 -0.48 -0.03    +0.130 A  ATOM     18  F   UNL     1      38.722  46.322  18.100 -0.12 +0.04    -0.202 F  BRANCH  13  19ATOM     19  O   UNL     1      36.837  46.685  16.293 -0.10 +0.34    -0.494 OA ATOM     20  C   UNL     1      35.936  46.579  15.198 -0.22 -0.24    +0.278 C  ENDBRANCH  13  19BRANCH  17  21ATOM     21  O   UNL     1      41.812  48.983  15.565 -0.53 -0.04    -0.507 OA ATOM     22  H   UNL     1      42.469  48.496  16.114 -0.06 +0.11    +0.293 HD ENDBRANCH  17  21ENDBRANCH  10  12ENDBRANCH   5  10ENDBRANCH   2   4ENDBRANCH   1   2BRANCH   1  23ATOM     23  C   UNL     1      40.277  42.793  23.542 -0.24 +0.00    +0.032 C  BRANCH  23  24ATOM     24  C   UNL     1      39.144  42.886  22.500 -0.31 +0.00    +0.009 CG0ATOM     25  G   UNL     1      38.380  44.203  22.362 +0.00 +0.00    +0.000 G0 ENDBRANCH  23  24BRANCH  23  26ATOM     26  C   UNL     1      40.114  43.702  24.782 -0.16 +0.00    +0.101 C  BRANCH  26  27ATOM     27  C   UNL     1      38.648  43.737  25.274 -0.19 +0.00    +0.106 C  BRANCH  27  28ATOM     28  N   UNL     1      37.822  44.807  24.698 -0.18 -0.02    -0.315 NA ATOM     29  H   UNL     1      37.036  44.961  25.334 +0.04 +0.00    +0.122 HD BRANCH  28  30ATOM     30  C   UNL     1      37.278  44.464  23.384 -0.29 +0.01    +0.081 C  BRANCH  30  31ATOM     31  C   UNL     1      38.378  44.202  22.364 -0.37 +0.00    +0.016 CG0ATOM     32  G   UNL     1      39.143  42.885  22.501 +0.00 +0.00    +0.000 G0 ENDBRANCH  30  31ENDBRANCH  28  30ENDBRANCH  27  28ENDBRANCH  26  27BRANCH  26  33ATOM     33  N   UNL     1      40.586  45.067  24.559 -0.00 -0.01    -0.348 N  ATOM     34  C   UNL     1      41.891  45.454  24.748 -0.03 +0.01    +0.251 C  ATOM     35  H   UNL     1      39.856  45.743  24.369 +0.07 +0.01    +0.164 HD ATOM     36  O   UNL     1      42.767  44.685  25.125 -0.02 -0.01    -0.269 OA BRANCH  34  37ATOM     37  C   UNL     1      42.210  46.884  24.494 -0.13 +0.00    +0.042 A  ATOM     38  C   UNL     1      41.159  47.744  24.175 -0.26 +0.00    +0.034 A  ATOM     39  C   UNL     1      43.506  47.391  24.593 -0.14 +0.00    +0.034 A  ATOM     40  C   UNL     1      41.451  49.075  23.944 -0.23 +0.03    +0.112 A  ATOM     41  C   UNL     1      43.693  48.740  24.344 -0.26 +0.03    +0.112 A  ATOM     42  N   UNL     1      42.698  49.589  24.017 -0.68 -0.12    -0.265 NA ENDBRANCH  34  37ENDBRANCH  26  33ENDBRANCH  23  26ENDBRANCH   1  23TORSDOF 9TERENDMDL