MODEL        10USER    Run = 10USERUSER    Estimated Free Energy of Binding    = -12.63 kcal/mol  [=(1)+(2)+(3)-(4)]USERUSER    (1) Final Intermolecular Energy     = -14.42 kcal/molUSER        vdW + Hbond + desolv Energy     = -14.16 kcal/molUSER        Electrostatic Energy            =  -0.27 kcal/molUSER        Moving Ligand-Fixed Receptor    = -14.42 kcal/molUSER        Moving Ligand-Moving Receptor   =  +0.00 kcal/molUSER    (2) Final Total Internal Energy     =  -1.84 kcal/molUSER    (3) Torsional Free Energy           =  +1.79 kcal/molUSER    (4) Unbound System's Energy         =  -1.84 kcal/molUSERUSERREMARK SMILES Cn1ccc2ccc3c4[nH]c5c(CCCN[C@H]6CC[C@H](O)CC6)cccc5c4c4c(c3c21)C(=O)NC4=OREMARK SMILES IDX 15 1 14 2 13 3 12 4 2 5 3 6 32 7 4 8 31 9 5 10 30 11 8 12REMARK SMILES IDX 6 13 29 14 33 15 7 16 9 17 28 18 36 19 35 20 10 21 27 22REMARK SMILES IDX 11 23 26 24 25 25 24 26 1 27 34 28 37 29 16 32 17 34 23 35REMARK SMILES IDX 18 36 22 37 19 38 20 39 21 40REMARK H PARENT 35 30 10 31 16 33 21 41USER                              x       y       z     vdW  Elec       q    TypeUSER                           _______ _______ _______ _____ _____    ______ ____ROOTATOM      1  C   UNL     1      35.798  42.285  19.427 -0.39 -0.01    +0.081 C  ENDROOTBRANCH   1   2ATOM      2  C   UNL     1      36.511  41.517  20.544 -0.44 -0.00    +0.020 C  BRANCH   2   3ATOM      3  C   UNL     1      36.766  42.371  21.791 -0.53 +0.00    +0.039 C  BRANCH   3   4ATOM      4  C   UNL     1      38.103  43.072  21.795 -0.28 -0.00    -0.024 A  ATOM      5  N   UNL     1      39.689  47.956  14.806 -0.24 +0.10    -0.350 N  ATOM      6  C   UNL     1      38.851  48.449  13.832 -0.28 -0.03    +0.086 A  ATOM      7  C   UNL     1      38.955  47.367  15.829 -0.43 -0.02    +0.057 A  ATOM      8  C   UNL     1      37.588  47.996  14.100 -0.52 -0.01    +0.028 A  ATOM      9  C   UNL     1      39.289  46.846  17.135 -0.43 -0.01    +0.022 A  ATOM     10  C   UNL     1      37.653  47.251  15.306 -0.44 -0.00    +0.000 A  ATOM     11  C   UNL     1      40.447  47.068  17.897 -0.43 -0.01    +0.063 A  ATOM     12  C   UNL     1      38.300  46.004  17.733 -0.36 -0.00    +0.009 A  ATOM     13  C   UNL     1      36.686  46.496  15.989 -0.38 -0.01    +0.011 A  ATOM     14  C   UNL     1      40.702  46.392  19.096 -0.37 -0.00    +0.063 A  ATOM     15  C   UNL     1      41.521  48.070  17.782 -0.29 -0.01    +0.259 C  ATOM     16  C   UNL     1      37.028  45.836  17.166 -0.35 -0.01    +0.012 A  ATOM     17  C   UNL     1      38.595  45.323  18.956 -0.35 -0.01    +0.055 A  ATOM     18  C   UNL     1      39.802  45.479  19.651 -0.39 -0.00    +0.022 A  ATOM     19  C   UNL     1      41.976  46.875  19.625 -0.29 +0.03    +0.259 C  ATOM     20  N   UNL     1      42.450  47.772  18.725 -0.39 -0.01    -0.288 N  ATOM     21  N   UNL     1      37.843  44.433  19.691 -0.14 +0.02    -0.354 N  ATOM     22  C   UNL     1      39.750  44.634  20.811 -0.33 +0.00    +0.008 A  ATOM     23  C   UNL     1      38.513  43.989  20.806 -0.27 +0.00    +0.050 A  ATOM     24  C   UNL     1      40.638  44.348  21.869 -0.26 +0.00    +0.011 A  ATOM     25  C   UNL     1      40.264  43.445  22.869 -0.26 +0.00    +0.001 A  ATOM     26  C   UNL     1      39.021  42.822  22.830 -0.29 +0.00    +0.006 A  ATOM     27  C   UNL     1      41.115  47.871  14.571 -0.15 -0.01    +0.149 C  ATOM     28  O   UNL     1      41.539  49.052  17.070 -0.93 -0.02    -0.269 OA ATOM     29  O   UNL     1      42.496  46.595  20.685 -0.28 -0.06    -0.269 OA ATOM     30  H   UNL     1      43.215  48.390  18.944 -0.34 -0.01    +0.173 HD ATOM     31  H   UNL     1      36.920  44.119  19.435 +0.11 -0.02    +0.167 HD ENDBRANCH   3   4ENDBRANCH   2   3ENDBRANCH   1   2BRANCH   1  32ATOM     32  N   UNL     1      35.084  43.425  20.005 -0.24 +0.02    -0.314 NA ATOM     33  H   UNL     1      34.941  43.277  21.003 +0.07 +0.02    +0.122 HD BRANCH  32  34ATOM     34  C   UNL     1      33.797  43.684  19.346 -0.44 -0.01    +0.053 C  ATOM     35  C   UNL     1      33.541  45.185  19.092 -0.42 -0.01    +0.021 C  ATOM     36  C   UNL     1      33.787  42.866  18.038 -0.40 -0.01    +0.021 C  ATOM     37  C   UNL     1      33.978  45.622  17.695 -0.45 -0.02    +0.033 C  ATOM     38  C   UNL     1      32.802  43.446  17.033 -0.35 -0.01    +0.033 C  ATOM     39  C   UNL     1      33.210  44.860  16.608 -0.30 -0.07    +0.114 C  BRANCH  39  40ATOM     40  O   UNL     1      32.020  45.572  16.269 -0.52 +0.23    -0.393 OA ATOM     41  H   UNL     1      32.279  46.478  16.028 -0.37 -0.31    +0.210 HD ENDBRANCH  39  40ENDBRANCH  32  34ENDBRANCH   1  32TORSDOF 6TERENDMDL