MODEL        6USER    Run = 6USERUSER    Estimated Free Energy of Binding    =  -5.87 kcal/mol  [=(1)+(2)+(3)-(4)]USERUSER    (1) Final Intermolecular Energy     = -10.35 kcal/molUSER        vdW + Hbond + desolv Energy     = -10.02 kcal/molUSER        Electrostatic Energy            =  -0.53 kcal/molUSER        Moving Ligand-Fixed Receptor    = -10.55 kcal/molUSER        Moving Ligand-Moving Receptor   =  +0.21 kcal/molUSER    (2) Final Total Internal Energy     =  -3.78 kcal/molUSER    (3) Torsional Free Energy           =  +4.47 kcal/molUSER    (4) Unbound System's Energy         =  -3.78 kcal/molUSERUSERREMARK SMILES COc1ccc(O)c(C(=O)c2ccc(CO[C@@H]3CCCNC[C@@H]3NC(=O)c3ccncc3)cc2)c1FREMARK SMILES IDX 16 1 15 2 14 3 11 4 12 5 34 6 13 7 33 8 9 9 10 10 8 11 3 12REMARK SMILES IDX 4 13 35 14 5 15 6 16 36 17 2 18 1 19 7 20 17 22 18 23 23 25REMARK SMILES IDX 22 26 21 27 20 29 19 30 24 32 25 33 26 35 27 36 28 37 32 38REMARK SMILES IDX 29 39 31 40 30 41REMARK H PARENT 7 21 21 28 24 34REMARK Flexibility Score:   99.900USER                              x       y       z     vdW  Elec       q    TypeUSER                           _______ _______ _______ _____ _____    ______ ____ROOTATOM      1  O   UNL     1      40.297  60.043  22.819 -0.67 -0.16    -0.371 OA ENDROOTBRANCH   1   2ATOM      2  C   UNL     1      40.787  61.372  22.982 -0.30 +0.05    +0.196 C  BRANCH   2   3ATOM      3  C   UNL     1      39.910  62.078  23.983 -0.35 -0.01    -0.022 A  ATOM      4  C   UNL     1      38.269  63.366  25.866 -0.34 +0.02    +0.023 A  ATOM      5  C   UNL     1      39.362  62.606  26.294 -0.26 +0.01    +0.012 A  ATOM      6  C   UNL     1      38.017  63.509  24.497 -0.41 +0.01    +0.012 A  ATOM      7  C   UNL     1      40.172  61.962  25.356 -0.22 +0.00    +0.007 A  ATOM      8  C   UNL     1      38.829  62.864  23.562 -0.60 +0.00    +0.007 A  BRANCH   4   9ATOM      9  C   UNL     1      37.402  64.095  26.822 -0.25 +0.19    +0.199 C  ATOM     10  O   UNL     1      37.256  65.313  26.689 -0.46 -0.38    -0.288 OA BRANCH   9  11ATOM     11  C   UNL     1      36.746  63.448  27.978 -0.21 +0.05    +0.104 A  ATOM     12  C   UNL     1      36.830  62.129  30.026 -0.07 +0.04    +0.155 A  ATOM     13  C   UNL     1      35.445  62.254  30.161 -0.21 +0.01    +0.053 A  ATOM     14  C   UNL     1      37.467  62.723  28.927 -0.08 +0.07    +0.179 A  ATOM     15  C   UNL     1      34.709  62.949  29.199 -0.24 +0.01    +0.051 A  ATOM     16  C   UNL     1      35.354  63.529  28.109 -0.24 +0.05    +0.130 A  ATOM     17  F   UNL     1      38.793  62.565  28.789 +0.00 -0.09    -0.202 F  BRANCH  12  18ATOM     18  O   UNL     1      37.652  61.460  30.893 +0.02 -0.10    -0.494 OA ATOM     19  C   UNL     1      37.251  60.160  31.303 -0.02 +0.05    +0.278 C  ENDBRANCH  12  18BRANCH  16  20ATOM     20  O   UNL     1      34.555  64.164  27.197 -0.63 -0.18    -0.507 OA ATOM     21  H   UNL     1      35.111  64.818  26.712 +0.09 +0.08    +0.293 HD ENDBRANCH  16  20ENDBRANCH   9  11ENDBRANCH   4   9ENDBRANCH   2   3ENDBRANCH   1   2BRANCH   1  22ATOM     22  C   UNL     1      41.335  59.039  22.867 -0.25 +0.03    +0.142 C  BRANCH  22  23ATOM     23  C   UNL     1      40.972  58.052  21.748 -0.43 +0.00    +0.035 CG0ATOM     24  G   UNL     1      41.710  56.721  21.660 +0.00 +0.00    +0.000 G0 ENDBRANCH  22  23BRANCH  22  25ATOM     25  C   UNL     1      41.408  58.447  24.295 -0.19 +0.04    +0.125 C  BRANCH  25  26ATOM     26  C   UNL     1      42.086  57.054  24.285 -0.25 +0.05    +0.108 C  BRANCH  26  27ATOM     27  N   UNL     1      41.237  55.912  23.953 -0.50 -0.24    -0.315 NA ATOM     28  H   UNL     1      40.303  56.086  24.328 +0.04 +0.11    +0.122 HD BRANCH  27  29ATOM     29  C   UNL     1      41.171  55.599  22.533 -0.36 +0.02    +0.081 C  BRANCH  29  30ATOM     30  C   UNL     1      41.710  56.722  21.659 -0.42 +0.00    +0.018 CG0ATOM     31  G   UNL     1      40.972  58.053  21.745 +0.00 +0.00    +0.000 G0 ENDBRANCH  29  30ENDBRANCH  27  29ENDBRANCH  26  27ENDBRANCH  25  26BRANCH  25  32ATOM     32  N   UNL     1      40.092  58.473  24.949 -0.10 -0.13    -0.345 N  ATOM     33  C   UNL     1      39.863  57.791  26.127 -0.19 +0.19    +0.251 C  ATOM     34  H   UNL     1      39.584  59.342  24.839 -0.49 +0.01    +0.164 HD ATOM     35  O   UNL     1      40.680  57.044  26.650 -0.23 -0.41    -0.269 OA BRANCH  33  36ATOM     36  C   UNL     1      38.552  58.037  26.785 -0.22 +0.02    +0.042 A  ATOM     37  C   UNL     1      38.272  59.325  27.243 -0.11 +0.01    +0.034 A  ATOM     38  C   UNL     1      37.621  57.018  26.985 -0.17 +0.02    +0.034 A  ATOM     39  C   UNL     1      37.059  59.543  27.869 -0.22 +0.03    +0.112 A  ATOM     40  C   UNL     1      36.437  57.339  27.625 -0.25 +0.03    +0.112 A  ATOM     41  N   UNL     1      36.135  58.579  28.066 -0.22 -0.06    -0.265 NA ENDBRANCH  33  36ENDBRANCH  25  32ENDBRANCH  22  25ENDBRANCH   1  22TORSDOF 9TERENDMDL