MODEL        2USER    Run = 2USERUSER    Estimated Free Energy of Binding    =  -6.53 kcal/mol  [=(1)+(2)+(3)-(4)]USERUSER    (1) Final Intermolecular Energy     = -11.01 kcal/molUSER        vdW + Hbond + desolv Energy     = -12.36 kcal/molUSER        Electrostatic Energy            =  -0.12 kcal/molUSER        Moving Ligand-Fixed Receptor    = -12.48 kcal/molUSER        Moving Ligand-Moving Receptor   =  +1.47 kcal/molUSER    (2) Final Total Internal Energy     =  -3.46 kcal/molUSER    (3) Torsional Free Energy           =  +4.47 kcal/molUSER    (4) Unbound System's Energy         =  -3.46 kcal/molUSERUSERREMARK SMILES COc1ccc(O)c(C(=O)c2ccc(C(=O)O[C@@H]3CCCNC[C@H]3NC(=O)c3ccncc3)cc2)c1FREMARK SMILES IDX 17 1 15 2 16 3 14 4 11 5 12 6 35 7 13 8 34 9 9 10 10 11 8 12REMARK SMILES IDX 3 13 4 14 36 15 5 16 6 17 37 18 2 19 1 20 7 21 18 23 24 25REMARK SMILES IDX 23 26 22 27 21 29 20 30 19 31 25 33 26 34 27 36 28 37 29 38REMARK SMILES IDX 33 39 30 40 32 41 31 42REMARK H PARENT 7 22 22 28 25 35REMARK Flexibility Score:   99.900USER                              x       y       z     vdW  Elec       q    TypeUSER                           _______ _______ _______ _____ _____    ______ ____ROOTATOM      1  O   UNL     1      37.474  43.900  19.546 -0.10 +0.04    -0.457 OA ENDROOTBRANCH   1   2ATOM      2  C   UNL     1      38.428  44.561  20.249 -0.20 -0.01    +0.338 C  ATOM      3  O   UNL     1      39.428  45.102  19.799 -0.28 +0.00    -0.246 OA BRANCH   2   4ATOM      4  C   UNL     1      38.061  44.585  21.687 -0.33 +0.00    +0.060 A  ATOM      5  C   UNL     1      37.317  44.570  24.394 -0.31 +0.00    +0.023 A  ATOM      6  C   UNL     1      38.075  45.630  23.878 -0.25 +0.00    +0.013 A  ATOM      7  C   UNL     1      36.930  43.522  23.547 -0.32 +0.00    +0.013 A  ATOM      8  C   UNL     1      38.446  45.637  22.529 -0.30 +0.00    +0.016 A  ATOM      9  C   UNL     1      37.292  43.533  22.197 -0.38 +0.00    +0.016 A  BRANCH   5  10ATOM     10  C   UNL     1      36.919  44.500  25.827 -0.28 -0.01    +0.199 C  ATOM     11  O   UNL     1      36.741  45.521  26.483 -0.25 +0.05    -0.288 OA BRANCH  10  12ATOM     12  C   UNL     1      36.735  43.203  26.489 -0.31 -0.01    +0.104 A  ATOM     13  C   UNL     1      37.670  41.067  27.154 -0.33 -0.02    +0.155 A  ATOM     14  C   UNL     1      36.426  40.704  27.684 -0.44 -0.02    +0.053 A  ATOM     15  C   UNL     1      37.811  42.322  26.550 -0.23 -0.02    +0.179 A  ATOM     16  C   UNL     1      35.347  41.597  27.637 -0.58 -0.02    +0.051 A  ATOM     17  C   UNL     1      35.506  42.849  27.046 -0.42 -0.03    +0.130 A  ATOM     18  F   UNL     1      39.008  42.694  26.067 -0.03 +0.00    -0.202 F  BRANCH  13  19ATOM     19  O   UNL     1      38.804  40.299  27.190 -0.16 -0.00    -0.494 OA ATOM     20  C   UNL     1      39.867  40.741  28.025 -0.20 -0.00    +0.278 C  ENDBRANCH  13  19BRANCH  17  21ATOM     21  O   UNL     1      34.466  43.732  27.017 -0.21 +0.08    -0.507 OA ATOM     22  H   UNL     1      34.797  44.633  26.873 -0.08 -0.13    +0.293 HD ENDBRANCH  17  21ENDBRANCH  10  12ENDBRANCH   5  10ENDBRANCH   2   4ENDBRANCH   1   2BRANCH   1  23ATOM     23  C   UNL     1      36.175  44.542  19.449 -0.25 -0.03    +0.200 CG0ATOM     24  G   UNL     1      35.121  43.456  19.659 +0.00 +0.00    +0.000 G0 BRANCH  23  25ATOM     25  C   UNL     1      36.112  45.230  18.070 -0.30 -0.05    +0.137 C  BRANCH  25  26ATOM     26  C   UNL     1      34.963  46.246  17.913 -0.41 -0.08    +0.109 C  BRANCH  26  27ATOM     27  N   UNL     1      33.809  45.990  18.778 -0.33 +0.17    -0.315 NA ATOM     28  H   UNL     1      33.139  46.748  18.646 -0.24 -0.09    +0.122 HD BRANCH  27  29ATOM     29  C   UNL     1      33.119  44.714  18.567 -0.39 -0.02    +0.081 C  BRANCH  29  30ATOM     30  C   UNL     1      33.936  43.421  18.692 -0.41 -0.00    +0.019 C  BRANCH  30  31ATOM     31  C   UNL     1      35.116  43.448  19.671 -0.44 -0.00    +0.049 CG0ATOM     32  G   UNL     1      36.162  44.539  19.442 +0.00 +0.00    +0.000 G0 ENDBRANCH  30  31ENDBRANCH  29  30ENDBRANCH  27  29ENDBRANCH  26  27ENDBRANCH  25  26BRANCH  25  33ATOM     33  N   UNL     1      37.402  45.879  17.796 -0.15 +0.11    -0.344 N  ATOM     34  C   UNL     1      37.605  46.673  16.695 -0.23 -0.12    +0.251 C  ATOM     35  H   UNL     1      38.022  45.975  18.589 +0.08 -0.03    +0.164 HD ATOM     36  O   UNL     1      36.762  46.870  15.829 -0.27 +0.20    -0.269 OA BRANCH  34  37ATOM     37  C   UNL     1      38.936  47.316  16.599 -0.40 -0.02    +0.042 A  ATOM     38  C   UNL     1      39.171  48.212  15.557 -0.49 -0.01    +0.034 A  ATOM     39  C   UNL     1      39.955  47.012  17.499 -0.45 -0.01    +0.034 A  ATOM     40  C   UNL     1      40.423  48.793  15.476 -0.51 -0.03    +0.112 A  ATOM     41  C   UNL     1      41.174  47.642  17.326 -0.39 -0.01    +0.112 A  ATOM     42  N   UNL     1      41.427  48.530  16.339 -0.79 +0.01    -0.265 NA ENDBRANCH  34  37ENDBRANCH  25  33ENDBRANCH  23  25ENDBRANCH   1  23TORSDOF 9TERENDMDL