MODEL        2USER    Run = 2USERUSER    Estimated Free Energy of Binding    =  -6.89 kcal/mol  [=(1)+(2)+(3)-(4)]USERUSER    (1) Final Intermolecular Energy     = -11.36 kcal/molUSER        vdW + Hbond + desolv Energy     = -11.85 kcal/molUSER        Electrostatic Energy            =  +0.02 kcal/molUSER        Moving Ligand-Fixed Receptor    = -11.83 kcal/molUSER        Moving Ligand-Moving Receptor   =  +0.47 kcal/molUSER    (2) Final Total Internal Energy     =  -2.05 kcal/molUSER    (3) Torsional Free Energy           =  +4.47 kcal/molUSER    (4) Unbound System's Energy         =  -2.05 kcal/molUSERUSERREMARK SMILES COc1ccc(O)c(C(=O)c2ccc(/C=C/[C@@H]3CCCNC[C@H]3NC(=O)c3ccncc3)cc2)c1FREMARK SMILES IDX 16 1 15 2 14 3 11 4 12 5 34 6 13 7 33 8 9 9 10 10 8 11 3 12REMARK SMILES IDX 4 13 35 14 5 15 6 16 36 17 2 18 1 19 7 20 17 22 18 23 23 25REMARK SMILES IDX 22 26 21 27 20 29 19 30 24 32 25 33 26 35 27 36 28 37 32 38REMARK SMILES IDX 29 39 31 40 30 41REMARK H PARENT 7 21 21 28 24 34REMARK Flexibility Score:   99.900USER                              x       y       z     vdW  Elec       q    TypeUSER                           _______ _______ _______ _____ _____    ______ ____ROOTATOM      1  C   UNL     1      35.876  43.730  19.501 -0.44 +0.00    -0.021 C  ENDROOTBRANCH   1   2ATOM      2  C   UNL     1      36.716  42.944  20.192 -0.45 -0.00    +0.004 C  BRANCH   2   3ATOM      3  C   UNL     1      36.803  42.944  21.658 -0.42 -0.00    -0.026 A  ATOM      4  C   UNL     1      36.998  42.867  24.457 -0.38 +0.00    +0.023 A  ATOM      5  C   UNL     1      36.670  41.707  23.749 -0.40 +0.00    +0.013 A  ATOM      6  C   UNL     1      37.267  44.054  23.770 -0.32 +0.00    +0.013 A  ATOM      7  C   UNL     1      36.579  41.749  22.353 -0.54 +0.00    +0.009 A  ATOM      8  C   UNL     1      37.161  44.092  22.378 -0.34 +0.00    +0.009 A  BRANCH   4   9ATOM      9  C   UNL     1      37.135  42.854  25.929 -0.27 -0.01    +0.199 C  ATOM     10  O   UNL     1      36.167  43.180  26.619 -0.26 +0.04    -0.288 OA BRANCH   9  11ATOM     11  C   UNL     1      38.403  42.517  26.616 -0.23 -0.01    +0.104 A  ATOM     12  C   UNL     1      40.830  42.656  26.809 -0.12 -0.01    +0.155 A  ATOM     13  C   UNL     1      40.781  41.853  27.950 -0.19 -0.00    +0.053 A  ATOM     14  C   UNL     1      39.635  42.979  26.149 -0.12 -0.00    +0.179 A  ATOM     15  C   UNL     1      39.556  41.362  28.409 -0.22 +0.00    +0.051 A  ATOM     16  C   UNL     1      38.379  41.681  27.738 -0.33 -0.01    +0.130 A  ATOM     17  F   UNL     1      39.698  43.719  25.030 -0.01 -0.00    -0.202 F  BRANCH  12  18ATOM     18  O   UNL     1      41.968  43.177  26.255 -0.02 +0.02    -0.494 OA ATOM     19  C   UNL     1      42.402  42.628  25.017 -0.09 -0.02    +0.278 C  ENDBRANCH  12  18BRANCH  16  20ATOM     20  O   UNL     1      37.227  41.134  28.238 -0.20 +0.15    -0.507 OA ATOM     21  H   UNL     1      36.590  41.868  28.397 -0.30 -0.15    +0.293 HD ENDBRANCH  16  20ENDBRANCH   9  11ENDBRANCH   4   9ENDBRANCH   2   3ENDBRANCH   1   2BRANCH   1  22ATOM     22  C   UNL     1      36.276  44.815  18.504 -0.37 -0.01    +0.035 C  BRANCH  22  23ATOM     23  C   UNL     1      34.982  45.551  18.104 -0.46 -0.01    +0.011 CG0ATOM     24  G   UNL     1      33.780  44.720  17.669 +0.00 +0.00    +0.000 G0 ENDBRANCH  22  23BRANCH  22  25ATOM     25  C   UNL     1      37.154  44.364  17.297 -0.32 -0.03    +0.103 C  BRANCH  25  26ATOM     26  C   UNL     1      36.305  44.237  15.999 -0.35 -0.04    +0.106 C  BRANCH  26  27ATOM     27  N   UNL     1      35.102  43.415  16.042 -0.20 +0.13    -0.315 NA ATOM     28  H   UNL     1      35.219  42.682  16.744 +0.06 -0.05    +0.122 HD BRANCH  27  29ATOM     29  C   UNL     1      33.862  44.141  16.268 -0.33 -0.04    +0.081 C  BRANCH  29  30ATOM     30  C   UNL     1      33.781  44.723  17.672 -0.39 -0.01    +0.016 CG0ATOM     31  G   UNL     1      34.982  45.555  18.109 +0.00 +0.00    +0.000 G0 ENDBRANCH  29  30ENDBRANCH  27  29ENDBRANCH  26  27ENDBRANCH  25  26BRANCH  25  32ATOM     32  N   UNL     1      38.247  45.315  17.047 -0.14 +0.09    -0.347 N  ATOM     33  C   UNL     1      38.009  46.589  16.582 -0.27 -0.11    +0.251 C  ATOM     34  H   UNL     1      39.163  45.082  17.405 +0.11 -0.02    +0.164 HD ATOM     35  O   UNL     1      36.891  47.025  16.338 -0.28 +0.20    -0.269 OA BRANCH  33  36ATOM     36  C   UNL     1      39.202  47.456  16.412 -0.43 -0.01    +0.042 A  ATOM     37  C   UNL     1      39.303  48.367  15.360 -0.51 -0.01    +0.034 A  ATOM     38  C   UNL     1      40.224  47.369  17.355 -0.46 -0.01    +0.034 A  ATOM     39  C   UNL     1      40.448  49.139  15.286 -0.51 -0.04    +0.112 A  ATOM     40  C   UNL     1      41.329  48.183  17.189 -0.40 -0.01    +0.112 A  ATOM     41  N   UNL     1      41.466  49.058  16.169 -0.92 -0.00    -0.265 NA ENDBRANCH  33  36ENDBRANCH  25  32ENDBRANCH  22  25ENDBRANCH   1  22TORSDOF 9TERENDMDL