MODEL        7USER    Run = 7USERUSER    Estimated Free Energy of Binding    =  -7.25 kcal/mol  [=(1)+(2)+(3)-(4)]USERUSER    (1) Final Intermolecular Energy     = -11.43 kcal/molUSER        vdW + Hbond + desolv Energy     = -11.76 kcal/molUSER        Electrostatic Energy            =  -0.10 kcal/molUSER        Moving Ligand-Fixed Receptor    = -11.86 kcal/molUSER        Moving Ligand-Moving Receptor   =  +0.43 kcal/molUSER    (2) Final Total Internal Energy     =  -2.56 kcal/molUSER    (3) Torsional Free Energy           =  +4.18 kcal/molUSER    (4) Unbound System's Energy         =  -2.56 kcal/molUSERUSERREMARK SMILES COc1ccc(O)c(C(=O)c2ccc(C(=O)N[C@@H]3CCCNC[C@H]3NC(=O)c3ccncc3)cc2)c1FREMARK SMILES IDX 15 1 16 2 17 3 14 5 11 6 12 7 35 8 13 9 34 10 9 11 10 12REMARK SMILES IDX 8 13 3 14 4 15 36 16 5 17 6 18 37 19 2 20 1 21 7 22 18 24REMARK SMILES IDX 19 25 24 27 23 28 22 29 21 31 20 32 25 34 26 35 27 37 28 38REMARK SMILES IDX 29 39 33 40 30 41 32 42 31 43REMARK H PARENT 17 4 7 23 22 30 25 36REMARK Flexibility Score:   88.900USER                              x       y       z     vdW  Elec       q    TypeUSER                           _______ _______ _______ _____ _____    ______ ____ROOTATOM      1  C   UNL     1      38.609  45.495  17.207 -0.28 -0.06    +0.251 C  ATOM      2  O   UNL     1      38.263  44.366  16.875 -0.18 +0.06    -0.269 OA ATOM      3  N   UNL     1      38.246  46.632  16.515 -0.17 +0.14    -0.347 N  ATOM      4  H   UNL     1      38.736  47.492  16.725 +0.10 -0.07    +0.164 HD ENDROOTBRANCH   1   5ATOM      5  C   UNL     1      39.526  45.690  18.364 -0.41 -0.00    +0.039 A  ATOM      6  C   UNL     1      41.263  46.193  20.507 -0.31 +0.00    +0.023 A  ATOM      7  C   UNL     1      41.462  46.833  19.279 -0.38 +0.00    +0.013 A  ATOM      8  C   UNL     1      40.196  45.301  20.663 -0.35 +0.00    +0.013 A  ATOM      9  C   UNL     1      40.603  46.572  18.207 -0.49 -0.00    +0.014 A  ATOM     10  C   UNL     1      39.334  45.040  19.590 -0.38 -0.00    +0.014 A  BRANCH   6  11ATOM     11  C   UNL     1      42.149  46.562  21.632 -0.25 +0.03    +0.199 C  ATOM     12  O   UNL     1      43.340  46.255  21.556 -0.22 -0.12    -0.288 OA BRANCH  11  13ATOM     13  C   UNL     1      41.705  47.320  22.825 -0.17 +0.01    +0.104 A  ATOM     14  C   UNL     1      40.144  47.720  24.658 -0.21 +0.02    +0.155 A  ATOM     15  C   UNL     1      40.925  48.795  25.091 -0.29 +0.01    +0.053 A  ATOM     16  C   UNL     1      40.546  46.989  23.527 -0.16 +0.02    +0.179 A  ATOM     17  C   UNL     1      42.103  49.120  24.413 -0.36 +0.01    +0.051 A  ATOM     18  C   UNL     1      42.494  48.378  23.300 -0.30 +0.03    +0.130 A  ATOM     19  F   UNL     1      39.803  45.936  23.147 -0.05 -0.02    -0.202 F  BRANCH  14  20ATOM     20  O   UNL     1      38.982  47.299  25.248 -0.06 -0.04    -0.494 OA ATOM     21  C   UNL     1      37.851  48.158  25.142 -0.30 +0.03    +0.278 C  ENDBRANCH  14  20BRANCH  18  22ATOM     22  O   UNL     1      43.678  48.749  22.718 -0.49 -0.13    -0.507 OA ATOM     23  H   UNL     1      43.682  48.385  21.801 -0.40 +0.00    +0.293 HD ENDBRANCH  18  22ENDBRANCH  11  13ENDBRANCH   6  11ENDBRANCH   1   5BRANCH   3  24ATOM     24  C   UNL     1      37.583  46.540  15.208 -0.38 -0.05    +0.106 C  BRANCH  24  25ATOM     25  C   UNL     1      38.111  47.641  14.279 -0.56 -0.01    +0.028 CG0ATOM     26  G   UNL     1      37.973  47.366  12.773 +0.00 +0.00    +0.000 G0 ENDBRANCH  24  25BRANCH  24  27ATOM     27  C   UNL     1      36.038  46.548  15.383 -0.34 -0.10    +0.118 C  BRANCH  27  28ATOM     28  C   UNL     1      35.239  46.050  14.155 -0.38 -0.08    +0.108 C  BRANCH  28  29ATOM     29  N   UNL     1      35.996  45.787  12.927 -0.25 +0.15    -0.315 NA ATOM     30  H   UNL     1      36.716  45.089  13.106 +0.08 -0.04    +0.122 HD BRANCH  29  31ATOM     31  C   UNL     1      36.588  46.948  12.273 -0.69 -0.03    +0.081 C  BRANCH  31  32ATOM     32  C   UNL     1      37.970  47.363  12.773 -0.42 -0.00    +0.017 CG0ATOM     33  G   UNL     1      38.109  47.645  14.278 +0.00 +0.00    +0.000 G0 ENDBRANCH  31  32ENDBRANCH  29  31ENDBRANCH  28  29ENDBRANCH  27  28BRANCH  27  34ATOM     34  N   UNL     1      35.662  45.804  16.593 -0.12 +0.25    -0.346 N  ATOM     35  C   UNL     1      34.386  45.323  16.775 -0.21 -0.18    +0.251 C  ATOM     36  H   UNL     1      36.411  45.419  17.146 +0.11 -0.07    +0.164 HD ATOM     37  O   UNL     1      33.459  45.548  16.007 -0.22 +0.26    -0.269 OA BRANCH  35  38ATOM     38  C   UNL     1      34.170  44.464  17.965 -0.30 -0.02    +0.042 A  ATOM     39  C   UNL     1      33.014  44.659  18.721 -0.36 -0.01    +0.034 A  ATOM     40  C   UNL     1      35.098  43.497  18.357 -0.31 -0.01    +0.034 A  ATOM     41  C   UNL     1      32.821  43.859  19.830 -0.38 -0.00    +0.112 A  ATOM     42  C   UNL     1      34.812  42.749  19.485 -0.34 -0.01    +0.112 A  ATOM     43  N   UNL     1      33.691  42.905  20.226 -0.58 -0.06    -0.265 NA ENDBRANCH  35  38ENDBRANCH  27  34ENDBRANCH  24  27ENDBRANCH   3  24TORSDOF 8TERENDMDL