MODEL        4USER    Run = 4USERUSER    Estimated Free Energy of Binding    =  -7.18 kcal/mol  [=(1)+(2)+(3)-(4)]USERUSER    (1) Final Intermolecular Energy     = -11.65 kcal/molUSER        vdW + Hbond + desolv Energy     = -12.54 kcal/molUSER        Electrostatic Energy            =  -0.35 kcal/molUSER        Moving Ligand-Fixed Receptor    = -12.89 kcal/molUSER        Moving Ligand-Moving Receptor   =  +1.24 kcal/molUSER    (2) Final Total Internal Energy     =  -2.92 kcal/molUSER    (3) Torsional Free Energy           =  +4.47 kcal/molUSER    (4) Unbound System's Energy         =  -2.92 kcal/molUSERUSERREMARK SMILES COc1ccc(O)c(C(=O)c2ccc(CN[C@@H]3CCCNC[C@H]3NC(=O)c3ccncc3)cc2)c1FREMARK SMILES IDX 16 1 15 3 14 4 11 5 12 6 34 7 13 8 33 9 9 10 10 11 8 12 3 13REMARK SMILES IDX 4 14 35 15 5 16 6 17 36 18 2 19 1 20 7 21 17 23 18 24 23 26REMARK SMILES IDX 22 27 21 28 20 30 19 31 24 33 25 34 26 36 27 37 28 38 32 39REMARK SMILES IDX 29 40 31 41 30 42REMARK H PARENT 16 2 7 22 21 29 24 35REMARK Flexibility Score:   99.900USER                              x       y       z     vdW  Elec       q    TypeUSER                           _______ _______ _______ _____ _____    ______ ____ROOTATOM      1  N   UNL     1      38.599  45.396  19.102 -0.20 +0.03    -0.308 NA ATOM      2  H   UNL     1      38.042  46.224  18.880 +0.05 -0.02    +0.123 HD ENDROOTBRANCH   1   3ATOM      3  C   UNL     1      37.899  44.211  18.600 -0.26 -0.02    +0.117 C  BRANCH   3   4ATOM      4  C   UNL     1      36.715  44.534  17.722 -0.31 +0.01    -0.034 A  ATOM      5  C   UNL     1      34.519  45.129  16.069 -0.30 -0.02    +0.023 A  ATOM      6  C   UNL     1      35.790  44.964  15.510 -0.34 -0.01    +0.012 A  ATOM      7  C   UNL     1      34.351  45.023  17.454 -0.33 -0.01    +0.012 A  ATOM      8  C   UNL     1      36.878  44.660  16.334 -0.34 -0.00    +0.006 A  ATOM      9  C   UNL     1      35.441  44.722  18.274 -0.34 -0.00    +0.006 A  BRANCH   5  10ATOM     10  C   UNL     1      33.342  45.493  15.243 -0.21 -0.18    +0.199 C  ATOM     11  O   UNL     1      33.487  46.287  14.312 -0.27 +0.32    -0.288 OA BRANCH  10  12ATOM     12  C   UNL     1      32.000  44.902  15.438 -0.31 -0.06    +0.104 A  ATOM     13  C   UNL     1      30.544  43.005  15.912 -0.22 -0.07    +0.155 A  ATOM     14  C   UNL     1      29.428  43.834  15.785 -0.24 -0.03    +0.053 A  ATOM     15  C   UNL     1      31.825  43.552  15.742 -0.23 -0.09    +0.179 A  ATOM     16  C   UNL     1      29.593  45.195  15.515 -0.30 -0.02    +0.051 A  ATOM     17  C   UNL     1      30.871  45.726  15.359 -0.36 -0.06    +0.130 A  ATOM     18  F   UNL     1      32.892  42.753  15.905 -0.05 +0.12    -0.202 F  BRANCH  13  19ATOM     19  O   UNL     1      30.508  41.665  16.195 -0.12 +0.20    -0.494 OA ATOM     20  C   UNL     1      31.132  41.238  17.399 -0.20 -0.07    +0.278 C  ENDBRANCH  13  19BRANCH  17  21ATOM     21  O   UNL     1      30.946  47.075  15.133 -0.66 +0.23    -0.507 OA ATOM     22  H   UNL     1      31.900  47.314  15.063 -0.36 -0.49    +0.293 HD ENDBRANCH  17  21ENDBRANCH  10  12ENDBRANCH   5  10ENDBRANCH   3   4ENDBRANCH   1   3BRANCH   1  23ATOM     23  C   UNL     1      39.958  45.579  18.523 -0.46 -0.00    +0.077 C  BRANCH  23  24ATOM     24  C   UNL     1      40.962  44.998  19.528 -0.45 +0.00    +0.022 CG0ATOM     25  G   UNL     1      41.549  46.002  20.519 +0.00 +0.00    +0.000 G0 ENDBRANCH  23  24BRANCH  23  26ATOM     26  C   UNL     1      40.200  47.088  18.204 -0.29 -0.01    +0.113 C  BRANCH  26  27ATOM     27  C   UNL     1      41.687  47.378  17.881 -0.40 -0.01    +0.107 C  BRANCH  27  28ATOM     28  N   UNL     1      42.594  47.701  18.978 -0.35 -0.01    -0.315 NA ATOM     29  H   UNL     1      42.265  48.551  19.442 -0.10 -0.01    +0.122 HD BRANCH  28  30ATOM     30  C   UNL     1      42.817  46.681  19.991 -0.38 +0.02    +0.081 C  BRANCH  30  31ATOM     31  C   UNL     1      41.563  45.992  20.525 -0.41 +0.00    +0.017 CG0ATOM     32  G   UNL     1      40.964  44.996  19.533 +0.00 +0.00    +0.000 G0 ENDBRANCH  30  31ENDBRANCH  28  30ENDBRANCH  27  28ENDBRANCH  26  27BRANCH  26  33ATOM     33  N   UNL     1      39.358  47.492  17.061 -0.19 +0.11    -0.346 N  ATOM     34  C   UNL     1      39.510  46.918  15.817 -0.35 -0.06    +0.251 C  ATOM     35  H   UNL     1      38.606  48.141  17.241 +0.11 -0.10    +0.164 HD ATOM     36  O   UNL     1      40.398  46.118  15.550 -0.34 +0.02    -0.269 OA BRANCH  34  37ATOM     37  C   UNL     1      38.547  47.336  14.765 -0.45 -0.02    +0.042 A  ATOM     38  C   UNL     1      38.300  46.453  13.714 -0.35 -0.01    +0.034 A  ATOM     39  C   UNL     1      37.871  48.555  14.816 -0.51 -0.02    +0.034 A  ATOM     40  C   UNL     1      37.405  46.840  12.736 -0.47 -0.03    +0.112 A  ATOM     41  C   UNL     1      36.992  48.848  13.789 -0.37 -0.07    +0.112 A  ATOM     42  N   UNL     1      36.753  48.023  12.747 -0.87 +0.09    -0.265 NA ENDBRANCH  34  37ENDBRANCH  26  33ENDBRANCH  23  26ENDBRANCH   1  23TORSDOF 9TERENDMDL