REMARK SMILES COc1cccc(CNc2cc(OC)c(OC)c([N+](=O)[O-])c2)c1O
REMARK SMILES IDX 8 1 7 2 3 3 4 4 23 5 5 6 6 7 2 8 1 9 24 10 9 12 10 14 11 15
REMARK SMILES IDX 22 16 12 17 18 18 15 19 13 20 14 21 19 22 20 23 21 24 16 25
REMARK SMILES IDX 17 26
REMARK H PARENT 24 11 9 13
ROOT
ATOM      1  C   UNL     1       0.900  -0.195  -0.561  1.00  0.00     0.152 C 
ENDROOT
BRANCH   1   2
ATOM      2  C   UNL     1       2.372   0.149  -0.548  1.00  0.00     0.017 A 
ATOM      3  C   UNL     1       4.714  -0.490  -0.215  1.00  0.00     0.160 A 
ATOM      4  C   UNL     1       5.122   0.789  -0.589  1.00  0.00     0.050 A 
ATOM      5  C   UNL     1       3.343  -0.796  -0.205  1.00  0.00     0.162 A 
ATOM      6  C   UNL     1       4.168   1.743  -0.954  1.00  0.00     0.004 A 
ATOM      7  C   UNL     1       2.809   1.425  -0.939  1.00  0.00     0.009 A 
BRANCH   3   8
ATOM      8  O   UNL     1       5.537  -1.524   0.155  1.00  0.00    -0.493 OA
ATOM      9  C   UNL     1       6.934  -1.252   0.169  1.00  0.00     0.278 C 
ENDBRANCH   3   8
BRANCH   5  10
ATOM     10  O   UNL     1       2.956  -2.063   0.149  1.00  0.00    -0.504 OA
ATOM     11  H   UNL     1       3.789  -2.534   0.351  1.00  0.00     0.293 HD
ENDBRANCH   5  10
ENDBRANCH   1   2
BRANCH   1  12
ATOM     12  N   UNL     1       0.134   0.851   0.122  1.00  0.00    -0.381 N 
ATOM     13  H   UNL     1       0.598   1.140   0.981  1.00  0.00     0.160 HD
BRANCH  12  14
ATOM     14  C   UNL     1      -1.248   0.720   0.285  1.00  0.00     0.045 A 
ATOM     15  C   UNL     1      -2.055  -0.093  -0.529  1.00  0.00     0.076 A 
ATOM     16  C   UNL     1      -1.883   1.553   1.210  1.00  0.00     0.115 A 
ATOM     17  C   UNL     1      -3.454  -0.136  -0.387  1.00  0.00     0.170 A 
ATOM     18  C   UNL     1      -3.273   1.501   1.363  1.00  0.00     0.316 A 
ATOM     19  C   UNL     1      -4.068   0.652   0.596  1.00  0.00     0.239 A 
BRANCH  17  20
ATOM     20  O   UNL     1      -4.288  -0.898  -1.164  1.00  0.00    -0.493 OA
ATOM     21  C   UNL     1      -3.721  -1.585  -2.271  1.00  0.00     0.278 C 
ENDBRANCH  17  20
BRANCH  18  22
ATOM     22  N   UNL     1      -3.876   2.356   2.363  1.00  0.00     0.067 N 
ATOM     23  O   UNL     1      -4.500   1.806   3.282  1.00  0.00    -0.258 OA
ATOM     24  O   UNL     1      -3.673   3.574   2.260  1.00  0.00    -0.258 OA
ENDBRANCH  18  22
BRANCH  19  25
ATOM     25  O   UNL     1      -5.431   0.689   0.738  1.00  0.00    -0.488 OA
ATOM     26  C   UNL     1      -5.930  -0.517   1.322  1.00  0.00     0.279 C 
ENDBRANCH  19  25
ENDBRANCH  12  14
ENDBRANCH   1  12
TORSDOF 8
