REMARK SMILES NC(=O)c1c(Nc2ccc3[nH]ncc3c2)ccnc1SCCO
REMARK SMILES IDX 20 1 19 2 4 3 5 4 16 5 18 6 17 7 2 8 1 9 3 12 6 13 7 15 8 16
REMARK SMILES IDX 15 17 9 18 14 19 10 20 13 21 11 22 12 23 21 25 22 26 23 27
REMARK H PARENT 1 10 1 11 6 14 11 24 23 28
ROOT
ATOM      1  S   UNL     1       4.115  -0.793   0.670  1.00  0.00    -0.103 SA
ENDROOT
BRANCH   1   2
ATOM      2  C   UNL     1       2.521  -0.047   0.328  1.00  0.00     0.111 A 
ATOM      3  C   UNL     1       1.336  -0.395   0.991  1.00  0.00     0.095 A 
ATOM      4  C   UNL     1       0.158   0.337   0.692  1.00  0.00     0.056 A 
ATOM      5  C   UNL     1       0.232   1.360  -0.257  1.00  0.00     0.047 A 
ATOM      6  N   UNL     1       2.579   0.959  -0.585  1.00  0.00    -0.249 NA
ATOM      7  C   UNL     1       1.443   1.631  -0.859  1.00  0.00     0.114 A 
BRANCH   3   8
ATOM      8  C   UNL     1       1.238  -1.483   2.005  1.00  0.00     0.253 C 
ATOM      9  N   UNL     1       1.980  -2.617   1.836  1.00  0.00    -0.365 N 
ATOM     10  H   UNL     1       2.761  -2.660   1.194  1.00  0.00     0.159 HD
ATOM     11  H   UNL     1       1.959  -3.293   2.590  1.00  0.00     0.159 HD
ATOM     12  O   UNL     1       0.462  -1.395   2.953  1.00  0.00    -0.269 OA
ENDBRANCH   3   8
BRANCH   4  13
ATOM     13  N   UNL     1      -1.077   0.023   1.306  1.00  0.00    -0.355 N 
ATOM     14  H   UNL     1      -0.965  -0.487   2.191  1.00  0.00     0.167 HD
BRANCH  13  15
ATOM     15  C   UNL     1      -2.408   0.067   0.848  1.00  0.00     0.039 A 
ATOM     16  C   UNL     1      -3.436   0.121   1.803  1.00  0.00     0.028 A 
ATOM     17  C   UNL     1      -2.745   0.117  -0.514  1.00  0.00     0.038 A 
ATOM     18  C   UNL     1      -4.789   0.210   1.447  1.00  0.00     0.030 A 
ATOM     19  C   UNL     1      -4.097   0.203  -0.897  1.00  0.00     0.022 A 
ATOM     20  C   UNL     1      -5.079   0.248   0.083  1.00  0.00     0.065 A 
ATOM     21  C   UNL     1      -4.810   0.257  -2.115  1.00  0.00     0.143 A 
ATOM     22  N   UNL     1      -6.265   0.329  -0.598  1.00  0.00    -0.278 N 
ATOM     23  N   UNL     1      -6.132   0.336  -1.936  1.00  0.00    -0.183 NA
ATOM     24  H   UNL     1      -7.199   0.378  -0.208  1.00  0.00     0.190 HD
ENDBRANCH  13  15
ENDBRANCH   4  13
ENDBRANCH   1   2
BRANCH   1  25
ATOM     25  C   UNL     1       4.920  -0.750  -0.980  1.00  0.00     0.104 C 
BRANCH  25  26
ATOM     26  C   UNL     1       5.778   0.500  -1.177  1.00  0.00     0.167 C 
BRANCH  26  27
ATOM     27  O   UNL     1       5.013   1.626  -1.589  1.00  0.00    -0.396 OA
ATOM     28  H   UNL     1       4.160   1.584  -1.105  1.00  0.00     0.210 HD
ENDBRANCH  26  27
ENDBRANCH  25  26
ENDBRANCH   1  25
TORSDOF 7
