MODEL        6USER    Run = 6USERUSER    Estimated Free Energy of Binding    =  -7.71 kcal/mol  [=(1)+(2)+(3)-(4)]USERUSER    (1) Final Intermolecular Energy     =  -9.79 kcal/molUSER        vdW + Hbond + desolv Energy     =  -9.44 kcal/molUSER        Electrostatic Energy            =  -0.35 kcal/molUSER        Moving Ligand-Fixed Receptor    =  -9.79 kcal/molUSER        Moving Ligand-Moving Receptor   =  +0.00 kcal/molUSER    (2) Final Total Internal Energy     =  -1.93 kcal/molUSER    (3) Torsional Free Energy           =  +2.09 kcal/molUSER    (4) Unbound System's Energy         =  -1.93 kcal/molUSERUSERREMARK SMILES NC(=O)c1c(Nc2ccc3[nH]ncc3c2)ccnc1SCCOREMARK SMILES IDX 20 1 19 2 4 3 5 4 16 5 18 6 17 7 2 8 1 9 3 12 6 13 7 15 8 16REMARK SMILES IDX 15 17 9 18 14 19 10 20 13 21 11 22 12 23 21 25 22 26 23 27REMARK H PARENT 1 10 1 11 6 14 11 24 23 28USER                              x       y       z     vdW  Elec       q    TypeUSER                           _______ _______ _______ _____ _____    ______ ____ROOTATOM      1  S   UNL     1      32.333  43.106  17.910 -0.40 +0.02    -0.103 SA ENDROOTBRANCH   1   2ATOM      2  C   UNL     1      33.550  44.417  17.788 -0.25 -0.04    +0.111 A  ATOM      3  C   UNL     1      34.756  44.301  17.082 -0.24 -0.04    +0.095 A  ATOM      4  C   UNL     1      35.591  45.444  16.985 -0.30 -0.03    +0.056 A  ATOM      5  C   UNL     1      35.178  46.626  17.607 -0.29 -0.04    +0.047 A  ATOM      6  N   UNL     1      33.157  45.577  18.378 -0.24 +0.12    -0.249 NA ATOM      7  C   UNL     1      33.974  46.645  18.281 -0.44 -0.10    +0.114 A  BRANCH   3   8ATOM      8  C   UNL     1      35.213  43.050  16.413 -0.31 -0.10    +0.253 C  ATOM      9  N   UNL     1      35.011  41.852  17.037 -0.08 +0.18    -0.365 N  ATOM     10  H   UNL     1      34.365  41.748  17.809 +0.03 -0.06    +0.159 HD ATOM     11  H   UNL     1      35.249  41.019  16.513 -0.43 -0.15    +0.159 HD ATOM     12  O   UNL     1      35.813  43.089  15.342 -0.34 +0.10    -0.269 OA ENDBRANCH   3   8BRANCH   4  13ATOM     13  N   UNL     1      36.832  45.392  16.309 -0.10 +0.16    -0.355 N  ATOM     14  H   UNL     1      36.912  44.580  15.684 +0.11 -0.06    +0.167 HD BRANCH  13  15ATOM     15  C   UNL     1      38.044  46.087  16.485 -0.35 -0.01    +0.039 A  ATOM     16  C   UNL     1      39.048  45.483  17.259 -0.36 -0.01    +0.028 A  ATOM     17  C   UNL     1      38.309  47.324  15.877 -0.41 -0.02    +0.038 A  ATOM     18  C   UNL     1      40.303  46.075  17.457 -0.45 -0.00    +0.030 A  ATOM     19  C   UNL     1      39.561  47.941  16.063 -0.50 -0.01    +0.022 A  ATOM     20  C   UNL     1      40.521  47.308  16.841 -0.47 -0.01    +0.065 A  ATOM     21  C   UNL     1      40.178  49.141  15.648 -0.47 -0.05    +0.143 A  ATOM     22  N   UNL     1      41.605  48.145  16.829 -0.21 +0.01    -0.278 N  ATOM     23  N   UNL     1      41.425  49.268  16.111 -1.05 +0.00    -0.183 NA ATOM     24  H   UNL     1      42.496  48.009  17.293 -0.36 -0.00    +0.190 HD ENDBRANCH  13  15ENDBRANCH   4  13ENDBRANCH   1   2BRANCH   1  25ATOM     25  C   UNL     1      31.283  43.420  16.435 -0.30 -0.04    +0.104 C  BRANCH  25  26ATOM     26  C   UNL     1      31.787  44.600  15.603 -0.31 -0.09    +0.167 C  BRANCH  26  27ATOM     27  O   UNL     1      31.497  45.855  16.206 -0.63 +0.16    -0.396 OA ATOM     28  H   UNL     1      32.357  46.256  16.456 -0.30 -0.23    +0.210 HD ENDBRANCH  26  27ENDBRANCH  25  26ENDBRANCH   1  25TORSDOF 7TERENDMDL