MODEL        6USER    Run = 6USERUSER    Estimated Free Energy of Binding    =  -7.48 kcal/mol  [=(1)+(2)+(3)-(4)]USERUSER    (1) Final Intermolecular Energy     =  -9.86 kcal/molUSER        vdW + Hbond + desolv Energy     =  -9.71 kcal/molUSER        Electrostatic Energy            =  -0.16 kcal/molUSER        Moving Ligand-Fixed Receptor    =  -9.86 kcal/molUSER        Moving Ligand-Moving Receptor   =  +0.00 kcal/molUSER    (2) Final Total Internal Energy     =  -1.48 kcal/molUSER    (3) Torsional Free Energy           =  +2.39 kcal/molUSER    (4) Unbound System's Energy         =  -1.48 kcal/molUSERUSERREMARK SMILES COc1cccc(CNc2cc(OC)c(OC)c([N+](=O)[O-])c2)c1OREMARK SMILES IDX 8 1 7 2 3 3 4 4 23 5 5 6 6 7 2 8 1 9 24 10 9 12 10 14 11 15REMARK SMILES IDX 22 16 12 17 18 18 15 19 13 20 14 21 19 22 20 23 21 24 16 25REMARK SMILES IDX 17 26REMARK H PARENT 24 11 9 13USER                              x       y       z     vdW  Elec       q    TypeUSER                           _______ _______ _______ _____ _____    ______ ____ROOTATOM      1  C   UNL     1      39.291  45.886  18.435 -0.38 -0.02    +0.152 C  ENDROOTBRANCH   1   2ATOM      2  C   UNL     1      39.339  46.861  17.281 -0.43 -0.00    +0.017 A  ATOM      3  C   UNL     1      40.530  48.529  15.939 -0.45 -0.03    +0.160 A  ATOM      4  C   UNL     1      39.435  48.631  15.083 -0.49 -0.02    +0.050 A  ATOM      5  C   UNL     1      40.470  47.640  17.025 -0.39 -0.03    +0.162 A  ATOM      6  C   UNL     1      38.301  47.847  15.310 -0.49 -0.00    +0.004 A  ATOM      7  C   UNL     1      38.255  46.968  16.394 -0.40 -0.00    +0.009 A  BRANCH   3   8ATOM      8  O   UNL     1      41.707  49.227  15.831 -0.73 -0.04    -0.493 OA ATOM      9  C   UNL     1      41.704  50.348  14.954 -0.49 -0.06    +0.278 C  ENDBRANCH   3   8BRANCH   5  10ATOM     10  O   UNL     1      41.561  47.537  17.850 -0.25 +0.04    -0.504 OA ATOM     11  H   UNL     1      42.328  47.745  17.280 -0.33 -0.04    +0.293 HD ENDBRANCH   5  10ENDBRANCH   1   2BRANCH   1  12ATOM     12  N   UNL     1      38.508  44.705  18.063 -0.13 +0.06    -0.381 N  ATOM     13  H   UNL     1      38.458  44.605  17.051 +0.10 -0.03    +0.160 HD BRANCH  12  14ATOM     14  C   UNL     1      37.281  44.449  18.682 -0.32 -0.01    +0.045 A  ATOM     15  C   UNL     1      37.053  43.357  19.536 -0.18 -0.01    +0.076 A  ATOM     16  C   UNL     1      36.184  45.234  18.317 -0.23 -0.04    +0.115 A  ATOM     17  C   UNL     1      35.782  43.085  20.076 -0.32 -0.01    +0.170 A  ATOM     18  C   UNL     1      34.923  44.974  18.864 -0.16 -0.10    +0.316 A  ATOM     19  C   UNL     1      34.707  43.926  19.757 -0.23 -0.03    +0.239 A  BRANCH  17  20ATOM     20  O   UNL     1      35.501  42.026  20.900 -0.19 -0.02    -0.493 OA ATOM     21  C   UNL     1      36.561  41.494  21.683 -0.42 +0.01    +0.278 C  ENDBRANCH  17  20BRANCH  18  22ATOM     22  N   UNL     1      33.829  45.842  18.484 -0.49 -0.04    +0.067 N  ATOM     23  O   UNL     1      33.912  47.037  18.801 -1.08 +0.18    -0.258 OA ATOM     24  O   UNL     1      32.915  45.338  17.815 -0.28 +0.12    -0.258 OA ENDBRANCH  18  22BRANCH  19  25ATOM     25  O   UNL     1      33.439  43.673  20.211 -0.70 -0.02    -0.488 OA ATOM     26  C   UNL     1      32.753  42.750  19.362 -0.24 +0.00    +0.279 C  ENDBRANCH  19  25ENDBRANCH  12  14ENDBRANCH   1  12TORSDOF 8TERENDMDL