MODEL        8USER    Run = 8USERUSER    Estimated Free Energy of Binding    =  -7.37 kcal/mol  [=(1)+(2)+(3)-(4)]USERUSER    (1) Final Intermolecular Energy     = -11.55 kcal/molUSER        vdW + Hbond + desolv Energy     = -11.90 kcal/molUSER        Electrostatic Energy            =  -0.01 kcal/molUSER        Moving Ligand-Fixed Receptor    = -11.90 kcal/molUSER        Moving Ligand-Moving Receptor   =  +0.35 kcal/molUSER    (2) Final Total Internal Energy     =  -1.98 kcal/molUSER    (3) Torsional Free Energy           =  +4.18 kcal/molUSER    (4) Unbound System's Energy         =  -1.98 kcal/molUSERUSERREMARK SMILES O=C(O)C[C@@H](O)CCC[C@@H]1CCCC=C2C=C(c3ccccc3)OC=C21REMARK SMILES IDX 8 1 7 2 5 3 4 4 2 5 1 6 3 7 6 9 9 11 10 12 11 13 26 15 25 16REMARK SMILES IDX 15 17 24 18 16 19 17 20 14 21 13 22 12 23 18 25 19 26 23 27REMARK SMILES IDX 20 28 22 29 21 30REMARK H PARENT 3 8 6 10REMARK Flexibility Score:  124.900USER                              x       y       z     vdW  Elec       q    TypeUSER                           _______ _______ _______ _____ _____    ______ ____ROOTATOM      1  C   UNL     1      39.499  48.427  15.426 -0.62 -0.00    +0.003 C  ENDROOTBRANCH   1   2ATOM      2  C   UNL     1      40.391  49.650  15.696 -0.64 -0.01    +0.032 C  BRANCH   2   3ATOM      3  C   UNL     1      41.771  49.594  15.021 -0.53 -0.01    +0.125 C  BRANCH   3   4ATOM      4  C   UNL     1      41.659  49.626  13.497 -0.34 -0.03    +0.154 C  BRANCH   4   5ATOM      5  C   UNL     1      43.008  49.643  12.836 -0.33 -0.08    +0.305 C  ATOM      6  O   UNL     1      43.611  48.697  12.363 -0.52 +0.04    -0.252 OA BRANCH   5   7ATOM      7  O   UNL     1      43.552  50.876  12.831 -0.24 +0.23    -0.481 OA ATOM      8  H   UNL     1      43.904  50.991  13.739 -0.34 -0.16    +0.296 HD ENDBRANCH   5   7ENDBRANCH   4   5ENDBRANCH   3   4BRANCH   3   9ATOM      9  O   UNL     1      42.521  50.742  15.428 -0.44 +0.00    -0.393 OA ATOM     10  H   UNL     1      43.394  50.691  15.001 -0.16 -0.02    +0.210 HD ENDBRANCH   3   9ENDBRANCH   2   3ENDBRANCH   1   2BRANCH   1  11ATOM     11  C   UNL     1      38.352  48.685  14.441 -0.46 -0.00    +0.008 C  BRANCH  11  12ATOM     12  C   UNL     1      37.747  47.391  13.825 -0.57 -0.01    +0.023 C  BRANCH  12  13ATOM     13  C   UNL     1      36.839  47.724  12.627 -0.69 -0.00    +0.009 CG0ATOM     14  G   UNL     1      36.032  46.556  12.059 +0.00 +0.00    +0.000 G0 ENDBRANCH  12  13BRANCH  12  15ATOM     15  C   UNL     1      37.048  46.499  14.848 -0.46 +0.00    -0.003 C  ATOM     16  C   UNL     1      36.680  46.905  16.080 -0.29 -0.16    +0.200 C  ATOM     17  C   UNL     1      36.872  45.064  14.564 -0.45 +0.01    -0.019 C  ATOM     18  O   UNL     1      36.219  46.070  17.082 -0.11 +0.28    -0.464 OA ATOM     19  C   UNL     1      36.661  44.167  15.699 -0.40 -0.02    +0.056 C  ATOM     20  C   UNL     1      36.317  44.692  16.889 -0.29 -0.05    +0.134 C  BRANCH  17  21ATOM     21  C   UNL     1      36.889  44.527  13.328 -0.37 +0.01    -0.019 C  BRANCH  21  22ATOM     22  C   UNL     1      36.790  45.235  12.004 -0.61 -0.01    +0.028 C  BRANCH  22  23ATOM     23  C   UNL     1      36.028  46.558  12.062 -0.73 -0.00    +0.005 CG0ATOM     24  G   UNL     1      36.838  47.724  12.629 +0.00 +0.00    +0.000 G0 ENDBRANCH  22  23ENDBRANCH  21  22ENDBRANCH  17  21BRANCH  20  25ATOM     25  C   UNL     1      36.034  43.876  18.084 -0.31 -0.00    +0.017 A  ATOM     26  C   UNL     1      36.787  44.012  19.261 -0.36 -0.00    +0.012 A  ATOM     27  C   UNL     1      35.009  42.919  18.054 -0.36 -0.00    +0.012 A  ATOM     28  C   UNL     1      36.509  43.224  20.382 -0.42 -0.00    +0.001 A  ATOM     29  C   UNL     1      34.731  42.131  19.174 -0.39 -0.00    +0.001 A  ATOM     30  C   UNL     1      35.480  42.285  20.338 -0.45 +0.00    +0.000 A  ENDBRANCH  20  25ENDBRANCH  12  15ENDBRANCH  11  12ENDBRANCH   1  11TORSDOF 9TERENDMDL