REMARK SMILES CC=C1C=C(O)C(C(=O)/C=C/c2ccc(-c3ccccc3)cc2CC)=N1
REMARK SMILES IDX 10 1 8 2 9 3 7 4 3 5 4 6 26 7 5 8 2 9 1 10 6 11 11 13 12 14
REMARK SMILES IDX 13 15 23 16 14 17 22 18 15 19 24 20 25 21 16 22 17 23 21 24
REMARK SMILES IDX 18 25 20 26 19 27
REMARK H PARENT 6 12
ROOT
ATOM      1  C   UNL     1       1.643  -0.235  -1.014  1.00  0.00     0.055 C 
ENDROOT
BRANCH   1   2
ATOM      2  C   UNL     1       2.929  -0.720  -1.571  1.00  0.00     0.208 C 
ATOM      3  O   UNL     1       3.082  -1.117  -2.716  1.00  0.00    -0.287 OA
BRANCH   2   4
ATOM      4  C   UNL     1       4.087  -0.700  -0.625  1.00  0.00     0.153 C 
ATOM      5  C   UNL     1       5.633  -0.019   0.660  1.00  0.00     0.063 C 
ATOM      6  C   UNL     1       5.661  -1.463   0.666  1.00  0.00     0.076 C 
ATOM      7  N   UNL     1       4.609   0.404  -0.158  1.00  0.00    -0.241 NA
ATOM      8  C   UNL     1       4.699  -1.936  -0.130  1.00  0.00     0.147 C 
BRANCH   5   9
ATOM      9  C   UNL     1       6.435   0.826   1.317  1.00  0.00    -0.002 C 
ATOM     10  C   UNL     1       7.570   0.488   2.226  1.00  0.00     0.038 C 
ENDBRANCH   5   9
BRANCH   8  11
ATOM     11  O   UNL     1       4.327  -3.208  -0.410  1.00  0.00    -0.505 OA
ATOM     12  H   UNL     1       4.940  -3.811   0.044  1.00  0.00     0.293 HD
ENDBRANCH   8  11
ENDBRANCH   2   4
ENDBRANCH   1   2
BRANCH   1  13
ATOM     13  C   UNL     1       0.532  -0.273  -1.765  1.00  0.00     0.012 C 
BRANCH  13  14
ATOM     14  C   UNL     1      -0.771   0.162  -1.249  1.00  0.00    -0.022 A 
ATOM     15  C   UNL     1      -0.933   1.495  -0.851  1.00  0.00     0.009 A 
ATOM     16  C   UNL     1      -1.865  -0.722  -1.165  1.00  0.00    -0.040 A 
ATOM     17  C   UNL     1      -2.160   1.952  -0.360  1.00  0.00     0.009 A 
ATOM     18  C   UNL     1      -3.089  -0.244  -0.656  1.00  0.00     0.013 A 
ATOM     19  C   UNL     1      -3.257   1.090  -0.250  1.00  0.00    -0.018 A 
BRANCH  16  20
ATOM     20  C   UNL     1      -1.774  -2.178  -1.564  1.00  0.00     0.033 C 
ATOM     21  C   UNL     1      -1.245  -3.050  -0.435  1.00  0.00     0.009 C 
ENDBRANCH  16  20
BRANCH  19  22
ATOM     22  C   UNL     1      -4.548   1.567   0.273  1.00  0.00    -0.018 A 
ATOM     23  C   UNL     1      -5.167   0.930   1.362  1.00  0.00     0.009 A 
ATOM     24  C   UNL     1      -5.198   2.674  -0.300  1.00  0.00     0.009 A 
ATOM     25  C   UNL     1      -6.392   1.383   1.861  1.00  0.00     0.001 A 
ATOM     26  C   UNL     1      -6.423   3.126   0.196  1.00  0.00     0.001 A 
ATOM     27  C   UNL     1      -7.019   2.480   1.277  1.00  0.00     0.000 A 
ENDBRANCH  19  22
ENDBRANCH  13  14
ENDBRANCH   1  13
TORSDOF 8
