MODEL        3USER    Run = 3USERUSER    Estimated Free Energy of Binding    =  -8.57 kcal/mol  [=(1)+(2)+(3)-(4)]USERUSER    (1) Final Intermolecular Energy     = -11.26 kcal/molUSER        vdW + Hbond + desolv Energy     = -10.93 kcal/molUSER        Electrostatic Energy            =  -0.33 kcal/molUSER        Moving Ligand-Fixed Receptor    = -11.26 kcal/molUSER        Moving Ligand-Moving Receptor   =  +0.00 kcal/molUSER    (2) Final Total Internal Energy     =  -3.71 kcal/molUSER    (3) Torsional Free Energy           =  +2.68 kcal/molUSER    (4) Unbound System's Energy         =  -3.71 kcal/molUSERUSERREMARK SMILES CCCS(=O)(=O)Nc1cccc(C=C2Sc3c(C)cc(C)nc3C2=NO)c1NREMARK SMILES IDX 8 1 9 2 10 3 11 4 12 5 27 6 7 7 4 9 5 10 6 11 3 12 2 13 1 14REMARK SMILES IDX 28 15 13 18 14 19 15 20 24 21 16 22 23 23 17 24 22 25 19 26REMARK SMILES IDX 20 27 18 28 21 29 25 30 26 31REMARK H PARENT 7 8 28 16 28 17 26 32USER                              x       y       z     vdW  Elec       q    TypeUSER                           _______ _______ _______ _____ _____    ______ ____ROOTATOM      1  C   UNL     1      42.975  45.415  22.859 -0.14 +0.01    +0.072 A  ATOM      2  C   UNL     1      43.387  44.130  23.200 -0.17 +0.00    +0.029 A  ATOM      3  C   UNL     1      43.028  43.058  22.388 -0.32 +0.00    +0.003 A  ATOM      4  C   UNL     1      42.245  43.269  21.250 -0.18 +0.00    +0.010 A  ATOM      5  C   UNL     1      41.825  44.562  20.895 -0.31 +0.00    +0.001 A  ATOM      6  C   UNL     1      42.223  45.656  21.690 -0.25 +0.01    +0.063 A  ENDROOTBRANCH   1   7ATOM      7  N   UNL     1      43.329  46.551  23.660 -0.05 -0.05    -0.281 N  ATOM      8  H   UNL     1      42.544  46.835  24.255 +0.07 +0.02    +0.180 HD BRANCH   7   9ATOM      9  S   UNL     1      43.951  47.910  22.869 -0.33 +0.06    +0.232 S  ATOM     10  O   UNL     1      42.918  48.916  22.759 -0.93 -0.06    -0.207 OA ATOM     11  O   UNL     1      44.619  47.393  21.692 -0.65 -0.13    -0.207 OA BRANCH   9  12ATOM     12  C   UNL     1      45.208  48.490  24.014 -0.14 +0.04    +0.159 C  BRANCH  12  13ATOM     13  C   UNL     1      44.739  48.488  25.467 -0.20 +0.00    +0.015 C  ATOM     14  C   UNL     1      43.418  49.209  25.687 -0.29 +0.00    +0.005 C  ENDBRANCH  12  13ENDBRANCH   9  12ENDBRANCH   7   9ENDBRANCH   1   7BRANCH   6  15ATOM     15  N   UNL     1      41.720  46.976  21.473 +0.02 -0.05    -0.397 N  ATOM     16  H   UNL     1      41.414  47.380  22.359 +0.08 +0.02    +0.156 HD ATOM     17  H   UNL     1      42.475  47.558  21.106 +0.03 +0.02    +0.156 HD ENDBRANCH   6  15BRANCH   5  18ATOM     18  C   UNL     1      40.933  44.740  19.741 -0.43 +0.00    +0.028 C  BRANCH  18  19ATOM     19  C   UNL     1      40.637  45.875  19.082 -0.49 -0.00    +0.044 C  ATOM     20  S   UNL     1      39.038  46.059  18.381 -0.48 +0.01    -0.085 SA ATOM     21  C   UNL     1      41.529  47.018  18.656 -0.48 -0.00    +0.143 C  ATOM     22  C   UNL     1      39.645  47.214  17.189 -0.42 -0.01    +0.043 A  ATOM     23  C   UNL     1      40.949  47.617  17.428 -0.44 -0.01    +0.108 A  ATOM     24  C   UNL     1      38.984  47.742  16.085 -0.45 +0.01    -0.033 A  ATOM     25  N   UNL     1      41.654  48.495  16.679 -0.72 -0.01    -0.250 NA ATOM     26  C   UNL     1      39.689  48.654  15.284 -0.53 -0.01    +0.028 A  ATOM     27  C   UNL     1      41.005  49.004  15.607 -0.60 -0.01    +0.038 A  ATOM     28  C   UNL     1      37.572  47.368  15.747 -0.46 -0.03    +0.046 C  ATOM     29  C   UNL     1      41.755  49.982  14.753 -0.71 -0.01    +0.067 C  BRANCH  21  30ATOM     30  N   UNL     1      42.580  47.548  19.192 -0.51 -0.01    -0.086 NA BRANCH  30  31ATOM     31  O   UNL     1      43.733  47.369  18.431 -0.20 -0.09    -0.410 OA ATOM     32  H   UNL     1      43.445  47.679  17.552 -0.27 -0.07    +0.330 HD ENDBRANCH  30  31ENDBRANCH  21  30ENDBRANCH  18  19ENDBRANCH   5  18TORSDOF 9TERENDMDL