MODEL        8USER    Run = 8USERUSER    Estimated Free Energy of Binding    =  -8.03 kcal/mol  [=(1)+(2)+(3)-(4)]USERUSER    (1) Final Intermolecular Energy     = -10.12 kcal/molUSER        vdW + Hbond + desolv Energy     =  -9.90 kcal/molUSER        Electrostatic Energy            =  -0.22 kcal/molUSER        Moving Ligand-Fixed Receptor    = -10.12 kcal/molUSER        Moving Ligand-Moving Receptor   =  +0.00 kcal/molUSER    (2) Final Total Internal Energy     =  -1.75 kcal/molUSER    (3) Torsional Free Energy           =  +2.09 kcal/molUSER    (4) Unbound System's Energy         =  -1.75 kcal/molUSERUSERREMARK SMILES Cc1ccc(F)cc1NN=C(C(=O)O)c1ccc([N+](=O)[O-])cc1REMARK SMILES IDX 10 1 9 2 8 4 2 5 3 6 4 7 7 8 5 9 1 10 6 11 11 12 12 13 13 14REMARK SMILES IDX 14 15 15 17 16 18 23 19 17 20 22 21 18 22 19 23 20 24 21 25REMARK H PARENT 9 3 14 16USER                              x       y       z     vdW  Elec       q    TypeUSER                           _______ _______ _______ _____ _____    ______ ____ROOTATOM      1  N   UNL     1      35.942  45.672  14.288 -0.29 +0.09    -0.167 NA ENDROOTBRANCH   1   2ATOM      2  N   UNL     1      36.502  44.561  14.856 -0.21 +0.11    -0.277 N  ATOM      3  H   UNL     1      36.017  43.700  14.586 +0.12 -0.07    +0.190 HD BRANCH   2   4ATOM      4  C   UNL     1      36.645  44.527  16.279 -0.31 -0.02    +0.062 A  ATOM      5  C   UNL     1      35.771  43.715  17.041 -0.33 +0.01    -0.026 A  ATOM      6  C   UNL     1      35.920  43.645  18.437 -0.33 -0.00    +0.008 A  ATOM      7  C   UNL     1      36.936  44.354  19.075 -0.34 -0.01    +0.039 A  ATOM      8  C   UNL     1      37.669  45.220  16.940 -0.31 -0.02    +0.067 A  ATOM      9  C   UNL     1      37.801  45.131  18.321 -0.29 -0.02    +0.125 A  ATOM     10  C   UNL     1      34.677  42.913  16.385 -0.45 -0.02    +0.046 C  ATOM     11  F   UNL     1      38.781  45.807  18.935 -0.12 +0.02    -0.207 F  ENDBRANCH   2   4ENDBRANCH   1   2BRANCH   1  12ATOM     12  C   UNL     1      36.761  46.544  13.763 -0.41 -0.09    +0.175 C  BRANCH  12  13ATOM     13  C   UNL     1      36.494  46.949  12.322 -0.44 -0.16    +0.356 C  ATOM     14  O   UNL     1      37.184  47.720  11.689 -1.06 +0.04    -0.244 OA BRANCH  13  15ATOM     15  O   UNL     1      35.420  46.330  11.822 -0.28 +0.30    -0.476 OA ATOM     16  H   UNL     1      34.775  46.321  12.559 -0.04 -0.22    +0.297 HD ENDBRANCH  13  15ENDBRANCH  12  13BRANCH  12  17ATOM     17  C   UNL     1      37.927  47.187  14.413 -0.46 -0.00    +0.010 A  ATOM     18  C   UNL     1      37.766  48.407  15.082 -0.51 -0.01    +0.018 A  ATOM     19  C   UNL     1      39.187  46.577  14.347 -0.40 -0.00    +0.018 A  ATOM     20  C   UNL     1      38.865  49.015  15.695 -0.31 -0.05    +0.086 A  ATOM     21  C   UNL     1      40.289  47.180  14.960 -0.40 -0.01    +0.086 A  ATOM     22  C   UNL     1      40.122  48.397  15.635 -0.34 -0.08    +0.269 A  BRANCH  22  23ATOM     23  N   UNL     1      41.277  49.032  16.284 -0.57 -0.00    +0.062 N  ATOM     24  O   UNL     1      41.744  50.053  15.759 -0.99 +0.01    -0.258 OA ATOM     25  O   UNL     1      41.717  48.507  17.317 -0.82 -0.01    -0.258 OA ENDBRANCH  22  23ENDBRANCH  12  17ENDBRANCH   1  12TORSDOF 7TERENDMDL