REMARK SMILES CCC=C1C=CCC(C(=O)OCC)=CN=C(NC2CCNCC2)N1
REMARK SMILES IDX 15 1 16 2 24 3 17 4 4 7 3 8 2 9 1 10 5 11 6 12 18 14 19 15
REMARK SMILES IDX 23 16 20 17 22 18 21 19 14 21 8 22 7 23 9 25 10 26 11 27
REMARK SMILES IDX 12 28 13 29
REMARK H PARENT 24 5 17 6 21 20
REMARK Flexibility Score:   21.900
ROOT
ATOM      1  N   UNL     1       0.126   1.001   1.093  1.00  0.00    -0.223 NA
ENDROOT
BRANCH   1   2
ATOM      2  C   UNL     1      -0.578   0.306   0.261  1.00  0.00     0.200 C 
ATOM      3  N   UNL     1      -0.197  -0.493  -0.797  1.00  0.00    -0.326 N 
ATOM      4  N   UNL     1      -1.958   0.320   0.320  1.00  0.00    -0.353 N 
ATOM      5  H   UNL     1      -0.763  -0.259  -1.606  1.00  0.00     0.170 HD
ATOM      6  H   UNL     1      -2.354  -0.586   0.099  1.00  0.00     0.163 HD
BRANCH   3   7
ATOM      7  C   UNL     1      -0.106  -1.889  -0.681  1.00  0.00     0.036 C 
BRANCH   7   8
ATOM      8  C   UNL     1      -0.560  -2.721  -1.641  1.00  0.00    -0.001 C 
BRANCH   8   9
ATOM      9  C   UNL     1      -0.532  -4.226  -1.633  1.00  0.00     0.026 C 
ATOM     10  C   UNL     1       0.065  -4.784  -2.919  1.00  0.00     0.008 C 
ENDBRANCH   8   9
ENDBRANCH   7   8
BRANCH   7  11
ATOM     11  C   UNL     1       0.477  -2.400   0.547  1.00  0.00     0.022 C 
BRANCH  11  12
ATOM     12  C   UNL     1       1.657  -1.982   1.032  1.00  0.00    -0.020 CG0
ATOM     13  G   UNL     1       2.592  -1.057   0.310  1.00  0.00     0.000 G0
ENDBRANCH  11  12
ENDBRANCH   7  11
ENDBRANCH   3   7
BRANCH   4  14
ATOM     14  C   UNL     1      -2.704   1.066   1.334  1.00  0.00     0.084 C 
ATOM     15  C   UNL     1      -4.109   0.455   1.499  1.00  0.00     0.040 C 
ATOM     16  C   UNL     1      -2.770   2.552   0.956  1.00  0.00     0.040 C 
ATOM     17  C   UNL     1      -5.185   1.529   1.623  1.00  0.00     0.083 C 
ATOM     18  C   UNL     1      -3.912   2.829  -0.020  1.00  0.00     0.083 C 
ATOM     19  N   UNL     1      -5.228   2.369   0.431  1.00  0.00    -0.317 NA
ATOM     20  H   UNL     1      -5.837   3.174   0.596  1.00  0.00     0.122 HD
ENDBRANCH   4  14
ENDBRANCH   1   2
BRANCH   1  21
ATOM     21  C   UNL     1       1.478   1.184   1.011  1.00  0.00     0.126 C 
BRANCH  21  22
ATOM     22  C   UNL     1       2.516   0.386   0.707  1.00  0.00     0.059 C 
BRANCH  22  23
ATOM     23  C   UNL     1       2.592  -1.057   0.310  1.00  0.00     0.072 CG0
ATOM     24  G   UNL     1       1.657  -1.982   1.032  1.00  0.00     0.000 G0
ENDBRANCH  22  23
BRANCH  22  25
ATOM     25  C   UNL     1       3.831   1.081   0.789  1.00  0.00     0.335 C 
ATOM     26  O   UNL     1       4.162   1.839   1.687  1.00  0.00    -0.247 OA
BRANCH  25  27
ATOM     27  O   UNL     1       4.583   0.755  -0.297  1.00  0.00    -0.463 OA
BRANCH  27  28
ATOM     28  C   UNL     1       5.876   1.369  -0.354  1.00  0.00     0.230 C 
ATOM     29  C   UNL     1       5.786   2.754  -0.972  1.00  0.00     0.049 C 
ENDBRANCH  27  28
ENDBRANCH  25  27
ENDBRANCH  22  25
ENDBRANCH  21  22
ENDBRANCH   1  21
TORSDOF 6
