REMARK SMILES O=C(O)C[C@@H](O)CCC[C@@H]1CCCC=C2C=C(c3ccccc3)OC=C21
REMARK SMILES IDX 8 1 7 2 5 3 4 4 2 5 1 6 3 7 6 9 9 11 10 12 11 13 26 15 25 16
REMARK SMILES IDX 15 17 24 18 16 19 17 20 14 21 13 22 12 23 18 25 19 26 23 27
REMARK SMILES IDX 20 28 22 29 21 30
REMARK H PARENT 3 8 6 10
REMARK Flexibility Score:  124.900
ROOT
ATOM      1  C   UNL     1      -3.013  -0.002  -1.011  1.00  0.00     0.003 C 
ENDROOT
BRANCH   1   2
ATOM      2  C   UNL     1      -4.206  -0.295  -0.086  1.00  0.00     0.032 C 
BRANCH   2   3
ATOM      3  C   UNL     1      -4.134   0.395   1.285  1.00  0.00     0.125 C 
BRANCH   3   4
ATOM      4  C   UNL     1      -5.495   0.418   1.982  1.00  0.00     0.154 C 
BRANCH   4   5
ATOM      5  C   UNL     1      -6.409   1.454   1.393  1.00  0.00     0.305 C 
ATOM      6  O   UNL     1      -6.114   2.346   0.618  1.00  0.00    -0.252 OA
BRANCH   5   7
ATOM      7  O   UNL     1      -7.673   1.327   1.844  1.00  0.00    -0.481 OA
ATOM      8  H   UNL     1      -8.163   2.054   1.405  1.00  0.00     0.296 HD
ENDBRANCH   5   7
ENDBRANCH   4   5
ENDBRANCH   3   4
BRANCH   3   9
ATOM      9  O   UNL     1      -3.231  -0.341   2.116  1.00  0.00    -0.393 OA
ATOM     10  H   UNL     1      -3.026   0.211   2.890  1.00  0.00     0.210 HD
ENDBRANCH   3   9
ENDBRANCH   2   3
ENDBRANCH   1   2
BRANCH   1  11
ATOM     11  C   UNL     1      -1.664  -0.509  -0.486  1.00  0.00     0.008 C 
BRANCH  11  12
ATOM     12  C   UNL     1      -0.478  -0.278  -1.466  1.00  0.00     0.023 C 
BRANCH  12  13
ATOM     13  C   UNL     1      -0.655  -1.108  -2.750  1.00  0.00     0.009 CG0
ATOM     14  G   UNL     1       0.505  -1.052  -3.744  1.00  0.00     0.000 G0
ENDBRANCH  12  13
BRANCH  12  15
ATOM     15  C   UNL     1       0.891  -0.492  -0.825  1.00  0.00    -0.003 C 
ATOM     16  C   UNL     1       1.087  -1.137   0.343  1.00  0.00     0.200 C 
ATOM     17  C   UNL     1       2.079   0.149  -1.414  1.00  0.00    -0.019 C 
ATOM     18  O   UNL     1       2.287  -1.179   1.030  1.00  0.00    -0.464 OA
ATOM     19  C   UNL     1       3.247   0.337  -0.555  1.00  0.00     0.056 C 
ATOM     20  C   UNL     1       3.321  -0.346   0.602  1.00  0.00     0.134 C 
BRANCH  17  21
ATOM     21  C   UNL     1       2.161   0.568  -2.693  1.00  0.00    -0.019 C 
BRANCH  21  22
ATOM     22  C   UNL     1       1.200   0.307  -3.821  1.00  0.00     0.028 C 
BRANCH  22  23
ATOM     23  C   UNL     1       0.505  -1.052  -3.744  1.00  0.00     0.005 CG0
ATOM     24  G   UNL     1      -0.655  -1.108  -2.750  1.00  0.00     0.000 G0
ENDBRANCH  22  23
ENDBRANCH  21  22
ENDBRANCH  17  21
BRANCH  20  25
ATOM     25  C   UNL     1       4.474  -0.267   1.518  1.00  0.00     0.017 A 
ATOM     26  C   UNL     1       5.793  -0.253   1.039  1.00  0.00     0.012 A 
ATOM     27  C   UNL     1       4.267  -0.230   2.905  1.00  0.00     0.012 A 
ATOM     28  C   UNL     1       6.874  -0.186   1.923  1.00  0.00     0.001 A 
ATOM     29  C   UNL     1       5.347  -0.163   3.789  1.00  0.00     0.001 A 
ATOM     30  C   UNL     1       6.650  -0.139   3.297  1.00  0.00     0.000 A 
ENDBRANCH  20  25
ENDBRANCH  12  15
ENDBRANCH  11  12
ENDBRANCH   1  11
TORSDOF 9
