MODEL        4USER    Run = 4USERUSER    Estimated Free Energy of Binding    =  -9.59 kcal/mol  [=(1)+(2)+(3)-(4)]USERUSER    (1) Final Intermolecular Energy     = -11.97 kcal/molUSER        vdW + Hbond + desolv Energy     = -11.87 kcal/molUSER        Electrostatic Energy            =  -0.10 kcal/molUSER        Moving Ligand-Fixed Receptor    = -11.97 kcal/molUSER        Moving Ligand-Moving Receptor   =  +0.00 kcal/molUSER    (2) Final Total Internal Energy     =  -2.01 kcal/molUSER    (3) Torsional Free Energy           =  +2.39 kcal/molUSER    (4) Unbound System's Energy         =  -2.01 kcal/molUSERUSERREMARK SMILES CC=C1C=C(O)C(C(=O)/C=C/c2ccc(-c3ccccc3)cc2CC)=N1REMARK SMILES IDX 10 1 8 2 9 3 7 4 3 5 4 6 26 7 5 8 2 9 1 10 6 11 11 13 12 14REMARK SMILES IDX 13 15 23 16 14 17 22 18 15 19 24 20 25 21 16 22 17 23 21 24REMARK SMILES IDX 18 25 20 26 19 27REMARK H PARENT 6 12USER                              x       y       z     vdW  Elec       q    TypeUSER                           _______ _______ _______ _____ _____    ______ ____ROOTATOM      1  C   UNL     1      39.152  48.367  15.735 -0.54 -0.03    +0.055 C  ENDROOTBRANCH   1   2ATOM      2  C   UNL     1      40.415  48.207  16.496 -0.43 -0.05    +0.208 C  ATOM      3  O   UNL     1      41.432  48.853  16.294 -0.97 -0.00    -0.287 OA BRANCH   2   4ATOM      4  C   UNL     1      40.389  47.172  17.575 -0.44 -0.02    +0.153 C  ATOM      5  C   UNL     1      39.737  45.624  18.872 -0.45 -0.00    +0.063 C  ATOM      6  C   UNL     1      41.105  45.936  19.213 -0.46 +0.00    +0.076 C  ATOM      7  N   UNL     1      39.346  46.423  17.821 -0.28 +0.05    -0.241 NA ATOM      8  C   UNL     1      41.558  46.907  18.417 -0.48 -0.00    +0.147 C  BRANCH   5   9ATOM      9  C   UNL     1      38.929  44.721  19.438 -0.44 +0.00    -0.002 C  ATOM     10  C   UNL     1      37.501  44.437  19.107 -0.39 -0.00    +0.038 C  ENDBRANCH   5   9BRANCH   8  11ATOM     11  O   UNL     1      42.775  47.497  18.344 -0.25 -0.01    -0.505 OA ATOM     12  H   UNL     1      42.929  47.765  17.422 -0.36 -0.05    +0.293 HD ENDBRANCH   8  11ENDBRANCH   2   4ENDBRANCH   1   2BRANCH   1  13ATOM     13  C   UNL     1      38.725  47.380  14.933 -0.54 -0.00    +0.012 C  BRANCH  13  14ATOM     14  C   UNL     1      37.355  46.859  15.002 -0.40 +0.01    -0.022 A  ATOM     15  C   UNL     1      36.921  46.242  16.182 -0.37 -0.01    +0.009 A  ATOM     16  C   UNL     1      36.462  46.985  13.919 -0.47 +0.02    -0.040 A  ATOM     17  C   UNL     1      35.621  45.739  16.291 -0.34 -0.01    +0.009 A  ATOM     18  C   UNL     1      35.160  46.460  14.046 -0.41 -0.01    +0.013 A  ATOM     19  C   UNL     1      34.720  45.835  15.224 -0.31 +0.02    -0.018 A  BRANCH  16  20ATOM     20  C   UNL     1      36.851  47.628  12.607 -0.68 -0.01    +0.033 C  ATOM     21  C   UNL     1      36.940  46.614  11.475 -0.68 -0.00    +0.009 C  ENDBRANCH  16  20BRANCH  19  22ATOM     22  C   UNL     1      33.353  45.300  15.334 -0.30 +0.02    -0.018 A  ATOM     23  C   UNL     1      33.068  44.213  16.178 -0.32 -0.00    +0.009 A  ATOM     24  C   UNL     1      32.294  45.861  14.600 -0.40 -0.01    +0.009 A  ATOM     25  C   UNL     1      31.769  43.705  16.285 -0.33 -0.00    +0.001 A  ATOM     26  C   UNL     1      30.997  45.352  14.704 -0.48 -0.00    +0.001 A  ATOM     27  C   UNL     1      30.736  44.275  15.548 -0.35 -0.00    +0.000 A  ENDBRANCH  19  22ENDBRANCH  13  14ENDBRANCH   1  13TORSDOF 8TERENDMDL