MODEL        10USER    Run = 10USERUSER    Estimated Free Energy of Binding    =  -9.49 kcal/mol  [=(1)+(2)+(3)-(4)]USERUSER    (1) Final Intermolecular Energy     = -10.98 kcal/molUSER        vdW + Hbond + desolv Energy     = -10.86 kcal/molUSER        Electrostatic Energy            =  -0.11 kcal/molUSER        Moving Ligand-Fixed Receptor    = -10.98 kcal/molUSER        Moving Ligand-Moving Receptor   =  +0.00 kcal/molUSER    (2) Final Total Internal Energy     =  -0.94 kcal/molUSER    (3) Torsional Free Energy           =  +1.49 kcal/molUSER    (4) Unbound System's Energy         =  -0.94 kcal/molUSERUSERREMARK SMILES C[C@H]1C(=Cc2cccn2C)C=Nc2[nH]cc(-c3cccc(C(=O)O)c3)c21REMARK SMILES IDX 1 1 2 2 3 3 11 4 12 5 13 6 14 7 15 8 16 9 26 10 4 12 5 13REMARK SMILES IDX 6 14 9 15 7 16 8 17 10 18 17 19 18 20 25 21 19 22 21 23REMARK SMILES IDX 20 24 22 25 23 26 24 27REMARK H PARENT 14 11 24 28USER                              x       y       z     vdW  Elec       q    TypeUSER                           _______ _______ _______ _____ _____    ______ ____ROOTATOM      1  C   UNL     1      39.301  44.266  18.695 -0.37 -0.00    +0.018 C  ATOM      2  C   UNL     1      39.393  45.465  19.644 -0.42 -0.00    +0.052 C  ATOM      3  C   UNL     1      39.182  45.014  21.089 -0.39 -0.00    -0.020 C  ATOM      4  C   UNL     1      40.421  44.917  21.946 -0.25 +0.01    +0.118 C  ATOM      5  N   UNL     1      41.601  45.396  21.677 -0.15 -0.03    -0.239 NA ATOM      6  C   UNL     1      41.665  46.046  20.496 -0.28 +0.02    +0.134 A  ATOM      7  N   UNL     1      42.774  46.736  20.100 -0.23 -0.10    -0.346 N  ATOM      8  C   UNL     1      42.542  47.305  18.871 -0.48 +0.01    +0.093 A  ATOM      9  C   UNL     1      41.260  46.970  18.473 -0.51 -0.00    +0.005 A  ATOM     10  C   UNL     1      40.712  46.158  19.507 -0.39 +0.00    +0.011 A  ATOM     11  H   UNL     1      43.618  46.810  20.648 +0.04 +0.09    +0.167 HD ENDROOTBRANCH   3  12ATOM     12  C   UNL     1      37.957  44.754  21.582 -0.39 +0.00    +0.032 C  BRANCH  12  13ATOM     13  C   UNL     1      37.398  43.458  21.653 -0.37 +0.00    +0.041 A  ATOM     14  C   UNL     1      37.685  42.378  22.466 -0.41 +0.00    +0.028 A  ATOM     15  N   UNL     1      36.401  43.067  20.784 -0.20 -0.00    -0.351 N  ATOM     16  C   UNL     1      36.824  41.318  22.097 -0.56 +0.00    +0.020 A  ATOM     17  C   UNL     1      36.041  41.770  21.059 -0.44 +0.00    +0.086 A  ATOM     18  C   UNL     1      35.801  43.871  19.739 -0.36 -0.02    +0.149 C  ENDBRANCH  12  13ENDBRANCH   3  12BRANCH   9  19ATOM     19  C   UNL     1      40.682  47.413  17.218 -0.52 +0.00    -0.016 A  ATOM     20  C   UNL     1      39.497  46.841  16.739 -0.46 -0.00    +0.009 A  ATOM     21  C   UNL     1      41.303  48.425  16.477 -0.44 -0.00    +0.024 A  ATOM     22  C   UNL     1      38.935  47.275  15.537 -0.47 -0.00    +0.002 A  ATOM     23  C   UNL     1      40.741  48.866  15.271 -0.57 -0.01    +0.060 A  ATOM     24  C   UNL     1      39.554  48.288  14.803 -0.53 -0.01    +0.016 A  BRANCH  23  25ATOM     25  C   UNL     1      41.435  49.947  14.532 -0.44 -0.08    +0.335 C  ATOM     26  O   UNL     1      41.388  50.132  13.330 -0.47 +0.08    -0.246 OA BRANCH  25  27ATOM     27  O   UNL     1      42.159  50.747  15.334 -0.54 +0.05    -0.478 OA ATOM     28  H   UNL     1      41.488  51.186  15.897 -0.28 -0.13    +0.297 HD ENDBRANCH  25  27ENDBRANCH  23  25ENDBRANCH   9  19TORSDOF 5TERENDMDL