MODEL        2USER    Run = 2USERUSER    Estimated Free Energy of Binding    =  -7.59 kcal/mol  [=(1)+(2)+(3)-(4)]USERUSER    (1) Final Intermolecular Energy     =  -9.38 kcal/molUSER        vdW + Hbond + desolv Energy     =  -9.09 kcal/molUSER        Electrostatic Energy            =  -0.29 kcal/molUSER        Moving Ligand-Fixed Receptor    =  -9.38 kcal/molUSER        Moving Ligand-Moving Receptor   =  +0.00 kcal/molUSER    (2) Final Total Internal Energy     =  -1.84 kcal/molUSER    (3) Torsional Free Energy           =  +1.79 kcal/molUSER    (4) Unbound System's Energy         =  -1.84 kcal/molUSERUSERREMARK SMILES COc1ccc(C(N)=O)cc1NC(=O)c1ccc(N(C)C)cc1OREMARK SMILES IDX 12 1 13 2 14 3 11 5 3 6 4 7 5 8 10 9 6 10 2 11 1 12 7 13REMARK SMILES IDX 8 14 9 15 15 18 16 19 23 20 17 21 22 22 18 23 24 24 19 26REMARK SMILES IDX 20 27 21 28REMARK H PARENT 12 4 8 16 8 17 24 25USER                              x       y       z     vdW  Elec       q    TypeUSER                           _______ _______ _______ _____ _____    ______ ____ROOTATOM      1  N   UNL     1      38.359  46.250  17.309 -0.20 +0.10    -0.319 N  ATOM      2  C   UNL     1      39.710  46.381  17.058 -0.33 -0.05    +0.259 C  ATOM      3  O   UNL     1      40.240  46.423  15.951 -0.30 +0.03    -0.269 OA ATOM      4  H   UNL     1      38.056  46.030  18.253 +0.09 -0.04    +0.170 HD ENDROOTBRANCH   1   5ATOM      5  C   UNL     1      37.299  46.236  16.373 -0.32 -0.04    +0.084 A  ATOM      6  C   UNL     1      36.041  45.797  16.845 -0.26 -0.09    +0.142 A  ATOM      7  C   UNL     1      34.949  45.763  15.975 -0.29 -0.04    +0.049 A  ATOM      8  C   UNL     1      35.105  46.160  14.644 -0.37 -0.02    +0.018 A  ATOM      9  C   UNL     1      37.441  46.647  15.045 -0.37 -0.02    +0.044 A  ATOM     10  C   UNL     1      36.348  46.595  14.170 -0.42 -0.03    +0.041 A  BRANCH   6  11ATOM     11  O   UNL     1      36.005  45.432  18.171 -0.08 +0.18    -0.495 OA ATOM     12  C   UNL     1      34.720  45.216  18.746 -0.27 -0.11    +0.278 C  ENDBRANCH   6  11BRANCH  10  13ATOM     13  C   UNL     1      36.449  47.010  12.744 -0.51 -0.12    +0.248 C  ATOM     14  N   UNL     1      35.448  46.634  11.894 -0.21 +0.24    -0.366 N  ATOM     15  O   UNL     1      37.384  47.694  12.344 -1.08 +0.04    -0.270 OA ATOM     16  H   UNL     1      34.567  46.248  12.205 -0.30 -0.13    +0.159 HD ATOM     17  H   UNL     1      35.490  47.005  10.954 -0.02 -0.11    +0.159 HD ENDBRANCH  10  13ENDBRANCH   1   5BRANCH   2  18ATOM     18  C   UNL     1      40.600  46.408  18.256 -0.43 -0.01    +0.082 A  ATOM     19  C   UNL     1      40.408  45.544  19.337 -0.43 +0.00    +0.020 A  ATOM     20  C   UNL     1      41.642  47.337  18.330 -0.44 -0.01    +0.130 A  ATOM     21  C   UNL     1      41.277  45.588  20.441 -0.35 +0.00    +0.027 A  ATOM     22  C   UNL     1      42.503  47.366  19.434 -0.44 +0.01    +0.072 A  ATOM     23  C   UNL     1      42.360  46.482  20.517 -0.36 +0.01    +0.040 A  BRANCH  20  24ATOM     24  O   UNL     1      41.887  48.265  17.349 -0.48 -0.01    -0.507 OA ATOM     25  H   UNL     1      41.831  47.803  16.483 -0.27 -0.03    +0.293 HD ENDBRANCH  20  24BRANCH  23  26ATOM     26  N   UNL     1      43.207  46.516  21.632 -0.13 -0.13    -0.378 N  ATOM     27  C   UNL     1      43.476  45.277  22.361 -0.18 +0.05    +0.143 C  ATOM     28  C   UNL     1      43.264  47.741  22.431 -0.32 +0.03    +0.143 C  ENDBRANCH  23  26ENDBRANCH   2  18TORSDOF 6TERENDMDL