REMARK SMILES COc1ccc(C(N)=O)cc1NC(=O)c1ccc(N(C)C)cc1O
REMARK SMILES IDX 12 1 13 2 14 3 11 5 3 6 4 7 5 8 10 9 6 10 2 11 1 12 7 13
REMARK SMILES IDX 8 14 9 15 15 18 16 19 23 20 17 21 22 22 18 23 24 24 19 26
REMARK SMILES IDX 20 27 21 28
REMARK H PARENT 12 4 8 16 8 17 24 25
ROOT
ATOM      1  N   UNL     1      -1.094  -0.205   0.265  1.00  0.00    -0.319 N 
ATOM      2  C   UNL     1      -0.347   0.791  -0.329  1.00  0.00     0.259 C 
ATOM      3  O   UNL     1      -0.768   1.650  -1.100  1.00  0.00    -0.269 OA
ATOM      4  H   UNL     1      -0.611  -0.971   0.724  1.00  0.00     0.170 HD
ENDROOT
BRANCH   1   5
ATOM      5  C   UNL     1      -2.494  -0.396   0.203  1.00  0.00     0.084 A 
ATOM      6  C   UNL     1      -2.998  -1.589   0.768  1.00  0.00     0.142 A 
ATOM      7  C   UNL     1      -4.372  -1.839   0.745  1.00  0.00     0.049 A 
ATOM      8  C   UNL     1      -5.240  -0.912   0.162  1.00  0.00     0.018 A 
ATOM      9  C   UNL     1      -3.372   0.533  -0.363  1.00  0.00     0.044 A 
ATOM     10  C   UNL     1      -4.747   0.271  -0.401  1.00  0.00     0.041 A 
BRANCH   6  11
ATOM     11  O   UNL     1      -2.053  -2.427   1.314  1.00  0.00    -0.495 OA
ATOM     12  C   UNL     1      -2.521  -3.651   1.871  1.00  0.00     0.278 C 
ENDBRANCH   6  11
BRANCH  10  13
ATOM     13  C   UNL     1      -5.723   1.222  -1.002  1.00  0.00     0.248 C 
ATOM     14  N   UNL     1      -5.246   2.175  -1.857  1.00  0.00    -0.366 N 
ATOM     15  O   UNL     1      -6.922   1.139  -0.765  1.00  0.00    -0.270 OA
ATOM     16  H   UNL     1      -4.311   2.164  -2.240  1.00  0.00     0.159 HD
ATOM     17  H   UNL     1      -5.936   2.749  -2.324  1.00  0.00     0.159 HD
ENDBRANCH  10  13
ENDBRANCH   1   5
BRANCH   2  18
ATOM     18  C   UNL     1       1.119   0.768  -0.048  1.00  0.00     0.082 A 
ATOM     19  C   UNL     1       1.637   0.204   1.120  1.00  0.00     0.020 A 
ATOM     20  C   UNL     1       2.012   1.348  -0.953  1.00  0.00     0.130 A 
ATOM     21  C   UNL     1       3.024   0.186   1.343  1.00  0.00     0.027 A 
ATOM     22  C   UNL     1       3.393   1.319  -0.721  1.00  0.00     0.072 A 
ATOM     23  C   UNL     1       3.946   0.722   0.425  1.00  0.00     0.040 A 
BRANCH  20  24
ATOM     24  O   UNL     1       1.607   1.974  -2.105  1.00  0.00    -0.507 OA
ATOM     25  H   UNL     1       0.630   2.076  -2.061  1.00  0.00     0.293 HD
ENDBRANCH  20  24
BRANCH  23  26
ATOM     26  N   UNL     1       5.324   0.704   0.672  1.00  0.00    -0.378 N 
ATOM     27  C   UNL     1       6.241   1.161  -0.372  1.00  0.00     0.143 C 
ATOM     28  C   UNL     1       5.860  -0.311   1.579  1.00  0.00     0.143 C 
ENDBRANCH  23  26
ENDBRANCH   2  18
TORSDOF 6
