REMARK SMILES CCCS(=O)(=O)Nc1cccc(C=C2Sc3c(C)cc(C)nc3C2=NO)c1N
REMARK SMILES IDX 8 1 9 2 10 3 11 4 12 5 27 6 7 7 4 9 5 10 6 11 3 12 2 13 1 14
REMARK SMILES IDX 28 15 13 18 14 19 15 20 24 21 16 22 23 23 17 24 22 25 19 26
REMARK SMILES IDX 20 27 18 28 21 29 25 30 26 31
REMARK H PARENT 7 8 28 16 28 17 26 32
ROOT
ATOM      1  C   UNL     1       2.791   1.979  -0.292  1.00  0.00     0.072 A 
ATOM      2  C   UNL     1       2.653   2.606   0.943  1.00  0.00     0.029 A 
ATOM      3  C   UNL     1       1.384   2.769   1.491  1.00  0.00     0.003 A 
ATOM      4  C   UNL     1       0.256   2.322   0.797  1.00  0.00     0.010 A 
ATOM      5  C   UNL     1       0.383   1.687  -0.450  1.00  0.00     0.001 A 
ATOM      6  C   UNL     1       1.669   1.480  -0.988  1.00  0.00     0.063 A 
ENDROOT
BRANCH   1   7
ATOM      7  N   UNL     1       4.079   1.780  -0.891  1.00  0.00    -0.281 N 
ATOM      8  H   UNL     1       3.984   1.520  -1.878  1.00  0.00     0.180 HD
BRANCH   7   9
ATOM      9  S   UNL     1       5.145   0.711  -0.130  1.00  0.00     0.232 S 
ATOM     10  O   UNL     1       5.318   1.108   1.250  1.00  0.00    -0.207 OA
ATOM     11  O   UNL     1       6.279   0.603  -1.024  1.00  0.00    -0.207 OA
BRANCH   9  12
ATOM     12  C   UNL     1       4.244  -0.843  -0.179  1.00  0.00     0.159 C 
BRANCH  12  13
ATOM     13  C   UNL     1       4.981  -1.983   0.518  1.00  0.00     0.015 C 
ATOM     14  C   UNL     1       6.182  -2.503  -0.256  1.00  0.00     0.005 C 
ENDBRANCH  12  13
ENDBRANCH   9  12
ENDBRANCH   7   9
ENDBRANCH   1   7
BRANCH   6  15
ATOM     15  N   UNL     1       1.868   0.971  -2.308  1.00  0.00    -0.397 N 
ATOM     16  H   UNL     1       1.119   0.320  -2.545  1.00  0.00     0.156 HD
ATOM     17  H   UNL     1       1.829   1.749  -2.969  1.00  0.00     0.156 HD
ENDBRANCH   6  15
BRANCH   5  18
ATOM     18  C   UNL     1      -0.827   1.305  -1.192  1.00  0.00     0.028 C 
BRANCH  18  19
ATOM     19  C   UNL     1      -1.810   0.470  -0.812  1.00  0.00     0.044 C 
ATOM     20  S   UNL     1      -3.289   0.412  -1.756  1.00  0.00    -0.085 SA
ATOM     21  C   UNL     1      -1.962  -0.351   0.448  1.00  0.00     0.143 C 
ATOM     22  C   UNL     1      -4.209  -0.164  -0.361  1.00  0.00     0.043 A 
ATOM     23  C   UNL     1      -3.412  -0.507   0.720  1.00  0.00     0.108 A 
ATOM     24  C   UNL     1      -5.587  -0.308  -0.236  1.00  0.00    -0.033 A 
ATOM     25  N   UNL     1      -3.854  -0.981   1.907  1.00  0.00    -0.250 NA
ATOM     26  C   UNL     1      -6.079  -0.794   0.986  1.00  0.00     0.028 A 
ATOM     27  C   UNL     1      -5.194  -1.117   2.022  1.00  0.00     0.038 A 
ATOM     28  C   UNL     1      -6.529   0.035  -1.351  1.00  0.00     0.046 C 
ATOM     29  C   UNL     1      -5.721  -1.640   3.325  1.00  0.00     0.067 C 
BRANCH  21  30
ATOM     30  N   UNL     1      -1.100  -0.943   1.210  1.00  0.00    -0.086 NA
BRANCH  30  31
ATOM     31  O   UNL     1       0.199  -0.891   0.711  1.00  0.00    -0.410 OA
ATOM     32  H   UNL     1       0.712  -1.293   1.437  1.00  0.00     0.330 HD
ENDBRANCH  30  31
ENDBRANCH  21  30
ENDBRANCH  18  19
ENDBRANCH   5  18
TORSDOF 9
