REMARK SMILES Cc1ccc(F)cc1NN=C(C(=O)O)c1ccc([N+](=O)[O-])cc1
REMARK SMILES IDX 10 1 9 2 8 4 2 5 3 6 4 7 7 8 5 9 1 10 6 11 11 12 12 13 13 14
REMARK SMILES IDX 14 15 15 17 16 18 23 19 17 20 22 21 18 22 19 23 20 24 21 25
REMARK H PARENT 9 3 14 16
ROOT
ATOM      1  N   UNL     1      -0.552  -2.211   0.752  1.00  0.00    -0.167 NA
ENDROOT
BRANCH   1   2
ATOM      2  N   UNL     1      -1.082  -1.055   1.257  1.00  0.00    -0.277 N 
ATOM      3  H   UNL     1      -1.587  -1.210   2.135  1.00  0.00     0.190 HD
BRANCH   2   4
ATOM      4  C   UNL     1      -1.942  -0.280   0.416  1.00  0.00     0.062 A 
ATOM      5  C   UNL     1      -2.501   0.919   0.919  1.00  0.00    -0.026 A 
ATOM      6  C   UNL     1      -3.321   1.708   0.093  1.00  0.00     0.008 A 
ATOM      7  C   UNL     1      -3.571   1.329  -1.224  1.00  0.00     0.039 A 
ATOM      8  C   UNL     1      -2.194  -0.635  -0.917  1.00  0.00     0.067 A 
ATOM      9  C   UNL     1      -3.003   0.164  -1.716  1.00  0.00     0.125 A 
ATOM     10  C   UNL     1      -2.233   1.376   2.329  1.00  0.00     0.046 C 
ATOM     11  F   UNL     1      -3.239  -0.196  -2.985  1.00  0.00    -0.207 F 
ENDBRANCH   2   4
ENDBRANCH   1   2
BRANCH   1  12
ATOM     12  C   UNL     1       0.607  -2.119   0.158  1.00  0.00     0.175 C 
BRANCH  12  13
ATOM     13  C   UNL     1       1.157  -3.393  -0.464  1.00  0.00     0.356 C 
ATOM     14  O   UNL     1       1.065  -3.675  -1.641  1.00  0.00    -0.244 OA
BRANCH  13  15
ATOM     15  O   UNL     1       1.783  -4.157   0.437  1.00  0.00    -0.476 OA
ATOM     16  H   UNL     1       2.052  -4.955  -0.062  1.00  0.00     0.297 HD
ENDBRANCH  13  15
ENDBRANCH  12  13
BRANCH  12  17
ATOM     17  C   UNL     1       1.453  -0.911   0.019  1.00  0.00     0.010 A 
ATOM     18  C   UNL     1       1.891  -0.510  -1.250  1.00  0.00     0.018 A 
ATOM     19  C   UNL     1       1.820  -0.181   1.157  1.00  0.00     0.018 A 
ATOM     20  C   UNL     1       2.689   0.630  -1.383  1.00  0.00     0.086 A 
ATOM     21  C   UNL     1       2.617   0.960   1.030  1.00  0.00     0.086 A 
ATOM     22  C   UNL     1       3.047   1.363  -0.242  1.00  0.00     0.269 A 
BRANCH  22  23
ATOM     23  N   UNL     1       3.881   2.564  -0.381  1.00  0.00     0.062 N 
ATOM     24  O   UNL     1       4.267   2.870  -1.518  1.00  0.00    -0.258 OA
ATOM     25  O   UNL     1       4.152   3.199   0.649  1.00  0.00    -0.258 OA
ENDBRANCH  22  23
ENDBRANCH  12  17
ENDBRANCH   1  12
TORSDOF 7
