MODEL        4USER    Run = 4USERUSER    Estimated Free Energy of Binding    =  -6.03 kcal/mol  [=(1)+(2)+(3)-(4)]USERUSER    (1) Final Intermolecular Energy     =  -9.91 kcal/molUSER        vdW + Hbond + desolv Energy     =  -9.75 kcal/molUSER        Electrostatic Energy            =  -0.21 kcal/molUSER        Moving Ligand-Fixed Receptor    =  -9.96 kcal/molUSER        Moving Ligand-Moving Receptor   =  +0.06 kcal/molUSER    (2) Final Total Internal Energy     =  -1.67 kcal/molUSER    (3) Torsional Free Energy           =  +3.88 kcal/molUSER    (4) Unbound System's Energy         =  -1.67 kcal/molUSERUSERREMARK SMILES CCC=C1C=CCC(C(=O)OCC)=CN=C(NC2CCNCC2)N1REMARK SMILES IDX 15 1 16 2 24 3 17 4 4 7 3 8 2 9 1 10 5 11 6 12 18 14 19 15REMARK SMILES IDX 23 16 20 17 22 18 21 19 14 21 8 22 7 23 9 25 10 26 11 27REMARK SMILES IDX 12 28 13 29REMARK H PARENT 24 5 17 6 21 20REMARK Flexibility Score:   21.900USER                              x       y       z     vdW  Elec       q    TypeUSER                           _______ _______ _______ _____ _____    ______ ____ROOTATOM      1  N   UNL     1      37.812  46.194  17.495 -0.24 +0.08    -0.223 NA ENDROOTBRANCH   1   2ATOM      2  C   UNL     1      36.800  46.580  16.789 -0.23 -0.13    +0.200 C  ATOM      3  N   UNL     1      36.625  47.697  15.998 -0.12 +0.35    -0.326 N  ATOM      4  N   UNL     1      35.627  45.852  16.778 -0.12 +0.25    -0.353 N  ATOM      5  H   UNL     1      35.732  48.122  16.223 +0.08 -0.37    +0.170 HD ATOM      6  H   UNL     1      35.187  45.859  15.866 +0.11 -0.14    +0.163 HD BRANCH   3   7ATOM      7  C   UNL     1      36.782  47.654  14.603 -0.50 -0.03    +0.036 C  BRANCH   7   8ATOM      8  C   UNL     1      36.022  46.862  13.819 -0.56 +0.00    -0.001 C  BRANCH   8   9ATOM      9  C   UNL     1      36.491  45.935  12.730 -0.63 -0.01    +0.026 C  ATOM     10  C   UNL     1      37.293  44.767  13.292 -0.44 -0.00    +0.008 C  ENDBRANCH   8   9ENDBRANCH   7   8BRANCH   7  11ATOM     11  C   UNL     1      37.832  48.486  14.044 -0.58 -0.01    +0.022 C  BRANCH  11  12ATOM     12  C   UNL     1      39.140  48.263  14.254 -0.54 +0.01    -0.020 CG0ATOM     13  G   UNL     1      39.697  47.035  14.912 +0.00 +0.00    +0.000 G0 ENDBRANCH  11  12ENDBRANCH   7  11ENDBRANCH   3   7BRANCH   4  14ATOM     14  C   UNL     1      35.463  44.595  17.510 -0.31 -0.03    +0.084 C  ATOM     15  C   UNL     1      36.126  43.447  16.725 -0.41 -0.01    +0.040 C  ATOM     16  C   UNL     1      33.975  44.323  17.768 -0.35 -0.02    +0.040 C  ATOM     17  C   UNL     1      35.269  42.186  16.730 -0.36 -0.04    +0.083 C  ATOM     18  C   UNL     1      33.313  43.654  16.565 -0.33 -0.04    +0.083 C  ATOM     19  N   UNL     1      33.973  42.429  16.106 -0.10 +0.17    -0.317 NA ATOM     20  H   UNL     1      33.358  41.627  16.261 -0.50 -0.10    +0.122 HD ENDBRANCH   4  14ENDBRANCH   1   2BRANCH   1  21ATOM     21  C   UNL     1      39.070  46.722  17.414 -0.38 -0.03    +0.126 C  BRANCH  21  22ATOM     22  C   UNL     1      39.861  47.110  16.399 -0.51 -0.01    +0.059 C  BRANCH  22  23ATOM     23  C   UNL     1      39.697  47.035  14.911 -0.48 -0.01    +0.072 CG0ATOM     24  G   UNL     1      39.140  48.263  14.254 +0.00 +0.00    +0.000 G0 ENDBRANCH  22  23BRANCH  22  25ATOM     25  C   UNL     1      41.138  47.725  16.856 -0.21 -0.04    +0.335 C  ATOM     26  O   UNL     1      41.627  47.570  17.964 -0.48 +0.02    -0.247 OA BRANCH  25  27ATOM     27  O   UNL     1      41.652  48.494  15.858 -0.46 -0.01    -0.463 OA BRANCH  27  28ATOM     28  C   UNL     1      41.275  49.876  15.893 -0.45 -0.03    +0.230 C  ATOM     29  C   UNL     1      41.868  50.625  14.712 -0.64 -0.01    +0.049 C  ENDBRANCH  27  28ENDBRANCH  25  27ENDBRANCH  22  25ENDBRANCH  21  22ENDBRANCH   1  21TORSDOF 6TERENDMDL