REMARK SMILES COc1ccccc1-c1cc(NC(=O)[C@H]2CC[C@@H](N)C2)ccc1OC
REMARK SMILES IDX 9 1 10 2 11 3 21 4 22 5 23 6 8 7 3 8 4 9 5 10 7 11 6 12 2 13
REMARK SMILES IDX 1 14 24 15 25 16 12 17 13 18 14 20 15 21 16 22 20 23 17 24
REMARK SMILES IDX 18 25 19 26
REMARK H PARENT 12 19 19 27 19 28
ROOT
ATOM      1  C   UNL     1      -2.240  -0.473   0.188  1.00  0.00     0.030 A 
ATOM      2  C   UNL     1      -0.952   0.102   0.201  1.00  0.00     0.038 A 
ATOM      3  C   UNL     1       0.175  -0.596  -0.248  1.00  0.00     0.042 A 
ATOM      4  C   UNL     1       0.011  -1.896  -0.714  1.00  0.00     0.030 A 
ATOM      5  C   UNL     1      -1.258  -2.488  -0.742  1.00  0.00     0.049 A 
ATOM      6  C   UNL     1      -2.386  -1.790  -0.298  1.00  0.00     0.126 A 
ENDROOT
BRANCH   1   7
ATOM      7  C   UNL     1      -3.383   0.320   0.692  1.00  0.00     0.028 A 
ATOM      8  C   UNL     1      -3.786   1.528   0.090  1.00  0.00     0.126 A 
ATOM      9  C   UNL     1      -4.829   2.294   0.620  1.00  0.00     0.047 A 
ATOM     10  C   UNL     1      -5.517   1.845   1.744  1.00  0.00     0.004 A 
ATOM     11  C   UNL     1      -4.095  -0.109   1.826  1.00  0.00     0.013 A 
ATOM     12  C   UNL     1      -5.154   0.642   2.344  1.00  0.00     0.001 A 
BRANCH   8  13
ATOM     13  O   UNL     1      -3.121   2.019  -1.007  1.00  0.00    -0.496 OA
ATOM     14  C   UNL     1      -3.782   1.595  -2.201  1.00  0.00     0.278 C 
ENDBRANCH   8  13
ENDBRANCH   1   7
BRANCH   6  15
ATOM     15  O   UNL     1      -3.661  -2.299  -0.308  1.00  0.00    -0.496 OA
ATOM     16  C   UNL     1      -3.844  -3.610  -0.826  1.00  0.00     0.278 C 
ENDBRANCH   6  15
BRANCH   3  17
ATOM     17  N   UNL     1       1.413   0.077  -0.189  1.00  0.00    -0.326 N 
ATOM     18  C   UNL     1       2.657  -0.399  -0.572  1.00  0.00     0.227 C 
ATOM     19  H   UNL     1       1.378   1.024   0.169  1.00  0.00     0.169 HD
ATOM     20  O   UNL     1       2.891  -1.498  -1.064  1.00  0.00    -0.274 OA
BRANCH  18  21
ATOM     21  C   UNL     1       3.756   0.638  -0.355  1.00  0.00     0.080 C 
ATOM     22  C   UNL     1       3.903   1.056   1.121  1.00  0.00     0.015 C 
ATOM     23  C   UNL     1       5.147   0.145  -0.771  1.00  0.00     0.032 C 
ATOM     24  C   UNL     1       5.384   0.903   1.465  1.00  0.00     0.019 C 
ATOM     25  C   UNL     1       6.086   0.955   0.114  1.00  0.00     0.051 C 
BRANCH  25  26
ATOM     26  N   UNL     1       7.437   0.426   0.160  1.00  0.00    -0.328 NA
ATOM     27  H   UNL     1       7.424  -0.528   0.520  1.00  0.00     0.119 HD
ATOM     28  H   UNL     1       7.807   0.354  -0.788  1.00  0.00     0.119 HD
ENDBRANCH  25  26
ENDBRANCH  18  21
ENDBRANCH   3  17
TORSDOF 6
