MODEL        7USER    Run = 7USERUSER    Estimated Free Energy of Binding    =  -8.95 kcal/mol  [=(1)+(2)+(3)-(4)]USERUSER    (1) Final Intermolecular Energy     = -10.74 kcal/molUSER        vdW + Hbond + desolv Energy     = -10.52 kcal/molUSER        Electrostatic Energy            =  -0.22 kcal/molUSER        Moving Ligand-Fixed Receptor    = -10.74 kcal/molUSER        Moving Ligand-Moving Receptor   =  +0.00 kcal/molUSER    (2) Final Total Internal Energy     =  -1.04 kcal/molUSER    (3) Torsional Free Energy           =  +1.79 kcal/molUSER    (4) Unbound System's Energy         =  -1.04 kcal/molUSERUSERREMARK SMILES COc1ccccc1-c1cc(NC(=O)[C@H]2CC[C@@H](N)C2)ccc1OCREMARK SMILES IDX 9 1 10 2 11 3 21 4 22 5 23 6 8 7 3 8 4 9 5 10 7 11 6 12 2 13REMARK SMILES IDX 1 14 24 15 25 16 12 17 13 18 14 20 15 21 16 22 20 23 17 24REMARK SMILES IDX 18 25 19 26REMARK H PARENT 12 19 19 27 19 28USER                              x       y       z     vdW  Elec       q    TypeUSER                           _______ _______ _______ _____ _____    ______ ____ROOTATOM      1  C   UNL     1      35.963  44.074  19.772 -0.38 -0.00    +0.030 A  ATOM      2  C   UNL     1      36.948  44.717  18.994 -0.31 -0.01    +0.038 A  ATOM      3  C   UNL     1      36.617  45.512  17.890 -0.31 -0.01    +0.042 A  ATOM      4  C   UNL     1      35.275  45.661  17.556 -0.35 -0.02    +0.030 A  ATOM      5  C   UNL     1      34.278  45.037  18.315 -0.37 -0.02    +0.049 A  ATOM      6  C   UNL     1      34.607  44.246  19.421 -0.31 -0.03    +0.126 A  ENDROOTBRANCH   1   7ATOM      7  C   UNL     1      36.388  43.237  20.916 -0.42 +0.00    +0.028 A  ATOM      8  C   UNL     1      37.139  43.754  21.990 -0.31 +0.01    +0.126 A  ATOM      9  C   UNL     1      37.584  42.932  23.030 -0.35 +0.00    +0.047 A  ATOM     10  C   UNL     1      37.254  41.580  23.035 -0.37 +0.00    +0.004 A  ATOM     11  C   UNL     1      36.069  41.868  20.947 -0.50 +0.00    +0.013 A  ATOM     12  C   UNL     1      36.492  41.049  21.997 -0.52 +0.00    +0.001 A  BRANCH   8  13ATOM     13  O   UNL     1      37.506  45.077  22.014 -0.11 -0.04    -0.496 OA ATOM     14  C   UNL     1      38.913  45.191  21.792 -0.23 +0.02    +0.278 C  ENDBRANCH   8  13ENDBRANCH   1   7BRANCH   6  15ATOM     15  O   UNL     1      33.685  43.615  20.219 -0.65 -0.03    -0.496 OA ATOM     16  C   UNL     1      32.324  43.652  19.812 -0.30 +0.00    +0.278 C  ENDBRANCH   6  15BRANCH   3  17ATOM     17  N   UNL     1      37.683  46.107  17.185 -0.17 +0.12    -0.326 N  ATOM     18  C   UNL     1      38.967  46.361  17.641 -0.31 -0.05    +0.227 C  ATOM     19  H   UNL     1      37.480  46.370  16.228 +0.12 -0.08    +0.169 HD ATOM     20  O   UNL     1      39.409  46.078  18.750 -0.31 +0.03    -0.274 OA BRANCH  18  21ATOM     21  C   UNL     1      39.834  47.017  16.570 -0.49 -0.02    +0.080 C  ATOM     22  C   UNL     1      39.016  47.850  15.564 -0.56 -0.01    +0.015 C  ATOM     23  C   UNL     1      40.874  47.989  17.142 -0.56 -0.00    +0.032 C  ATOM     24  C   UNL     1      39.682  49.225  15.504 -0.53 -0.01    +0.019 C  ATOM     25  C   UNL     1      41.100  48.972  16.001 -0.63 -0.01    +0.051 C  BRANCH  25  26ATOM     26  N   UNL     1      41.778  50.188  16.412 -0.72 -0.02    -0.328 NA ATOM     27  H   UNL     1      42.138  50.678  15.593 -0.12 -0.01    +0.119 HD ATOM     28  H   UNL     1      41.105  50.827  16.837 -0.45 -0.04    +0.119 HD ENDBRANCH  25  26ENDBRANCH  18  21ENDBRANCH   3  17TORSDOF 6TERENDMDL