MODEL        2USER    Run = 2USERUSER    Estimated Free Energy of Binding    =  -7.52 kcal/mol  [=(1)+(2)+(3)-(4)]USERUSER    (1) Final Intermolecular Energy     = -10.81 kcal/molUSER        vdW + Hbond + desolv Energy     = -10.63 kcal/molUSER        Electrostatic Energy            =  -0.30 kcal/molUSER        Moving Ligand-Fixed Receptor    = -10.94 kcal/molUSER        Moving Ligand-Moving Receptor   =  +0.13 kcal/molUSER    (2) Final Total Internal Energy     =  -1.63 kcal/molUSER    (3) Torsional Free Energy           =  +3.28 kcal/molUSER    (4) Unbound System's Energy         =  -1.63 kcal/molUSERUSERREMARK SMILES NCCC[C@H]1COc2ccc(O)c(N)c2-c2cc(O)ccc21REMARK SMILES IDX 4 1 3 2 2 3 1 4 5 7 22 9 21 10 16 11 20 12 17 13 18 14 15 15REMARK SMILES IDX 13 16 8 17 11 18 9 19 10 20 14 21 7 24 6 25 12 27 19 29REMARK H PARENT 1 5 1 6 14 22 14 23 12 28 19 30REMARK Flexibility Score:   90.900USER                              x       y       z     vdW  Elec       q    TypeUSER                           _______ _______ _______ _____ _____    ______ ____ROOTATOM      1  C   UNL     1      35.764  45.402  17.365 -0.39 -0.01    +0.013 C  ENDROOTBRANCH   1   2ATOM      2  C   UNL     1      35.017  45.229  18.696 -0.44 -0.01    +0.016 C  BRANCH   2   3ATOM      3  C   UNL     1      33.670  45.950  18.736 -0.45 -0.04    +0.077 C  BRANCH   3   4ATOM      4  N   UNL     1      33.844  47.391  18.586 -0.86 +0.29    -0.330 NA ATOM      5  H   UNL     1      34.082  47.609  17.618 -0.46 -0.25    +0.118 HD ATOM      6  H   UNL     1      32.955  47.861  18.761 -0.45 -0.10    +0.118 HD ENDBRANCH   3   4ENDBRANCH   2   3ENDBRANCH   1   2BRANCH   1   7ATOM      7  C   UNL     1      37.226  44.915  17.373 -0.37 -0.02    +0.058 CG0ATOM      8  G   UNL     1      37.575  43.883  16.285 +0.00 +0.00    +0.000 G0 BRANCH   7   9ATOM      9  C   UNL     1      38.283  45.998  17.281 -0.37 +0.01    -0.033 A  ATOM     10  C   UNL     1      39.099  46.229  18.413 -0.35 -0.00    +0.008 A  ATOM     11  C   UNL     1      38.562  46.646  16.061 -0.41 +0.00    -0.005 A  ATOM     12  C   UNL     1      40.222  47.047  18.335 -0.27 -0.01    +0.046 A  ATOM     13  C   UNL     1      39.754  47.401  15.997 -0.47 -0.01    +0.055 A  ATOM     14  C   UNL     1      40.554  47.609  17.116 -0.43 -0.02    +0.116 A  BRANCH  11  15ATOM     15  C   UNL     1      37.669  46.563  14.873 -0.37 -0.02    +0.051 A  ATOM     16  C   UNL     1      37.290  47.751  14.176 -0.46 -0.05    +0.086 A  ATOM     17  C   UNL     1      37.115  45.356  14.388 -0.31 -0.05    +0.129 A  ATOM     18  C   UNL     1      36.588  47.673  12.958 -0.52 -0.06    +0.139 A  ATOM     19  C   UNL     1      36.392  45.326  13.174 -0.39 -0.02    +0.051 A  ATOM     20  C   UNL     1      36.148  46.477  12.442 -0.60 -0.03    +0.052 A  BRANCH  16  21ATOM     21  N   UNL     1      37.720  49.066  14.544 -0.13 +0.29    -0.395 N  ATOM     22  H   UNL     1      37.156  49.753  14.041 -0.31 -0.12    +0.156 HD ATOM     23  H   UNL     1      38.696  49.205  14.279 -0.33 -0.10    +0.156 HD ENDBRANCH  16  21BRANCH  17  24ATOM     24  O   UNL     1      37.111  44.119  14.964 -0.03 +0.16    -0.492 OA BRANCH  24  25ATOM     25  C   UNL     1      37.575  43.883  16.283 -0.04 -0.06    +0.238 CG0ATOM     26  G   UNL     1      37.226  44.914  17.372 +0.00 +0.00    +0.000 G0 ENDBRANCH  24  25ENDBRANCH  17  24BRANCH  18  27ATOM     27  O   UNL     1      36.298  48.835  12.292 -0.31 +0.18    -0.506 OA ATOM     28  H   UNL     1      35.917  48.517  11.447 -0.20 -0.21    +0.293 HD ENDBRANCH  18  27ENDBRANCH  11  15BRANCH  14  29ATOM     29  O   UNL     1      41.664  48.385  16.966 -0.58 -0.01    -0.508 OA ATOM     30  H   UNL     1      42.452  47.822  17.052 -0.33 -0.04    +0.293 HD ENDBRANCH  14  29ENDBRANCH   7   9ENDBRANCH   1   7TORSDOF 7TERENDMDL