MODEL        7USER    Run = 7USERUSER    Estimated Free Energy of Binding    =  -4.44 kcal/mol  [=(1)+(2)+(3)-(4)]USERUSER    (1) Final Intermolecular Energy     =  -8.92 kcal/molUSER        vdW + Hbond + desolv Energy     =  -9.72 kcal/molUSER        Electrostatic Energy            =  +0.05 kcal/molUSER        Moving Ligand-Fixed Receptor    =  -9.67 kcal/molUSER        Moving Ligand-Moving Receptor   =  +0.75 kcal/molUSER    (2) Final Total Internal Energy     =  -3.42 kcal/molUSER    (3) Torsional Free Energy           =  +4.47 kcal/molUSER    (4) Unbound System's Energy         =  -3.42 kcal/molUSERUSERREMARK SMILES COc1ccc(O)c(C(=O)c2ccc(C(=O)O[C@@H]3CCCNC[C@@H]3NC(=O)c3ccn(C)c3)cc2)c1FREMARK SMILES IDX 17 1 15 2 16 3 14 4 11 5 12 6 35 7 13 8 34 9 9 10 10 11 8 12REMARK SMILES IDX 3 13 4 14 36 15 5 16 6 17 37 18 2 19 1 20 7 21 18 23 24 25REMARK SMILES IDX 23 26 22 27 21 29 20 30 19 31 25 33 26 34 27 36 28 37 29 38REMARK SMILES IDX 33 39 30 40 31 41 32 42REMARK H PARENT 7 22 22 28 25 35REMARK Flexibility Score:   99.900USER                              x       y       z     vdW  Elec       q    TypeUSER                           _______ _______ _______ _____ _____    ______ ____ROOTATOM      1  O   UNL     1      33.467  43.991  18.102 -0.04 +0.13    -0.457 OA ENDROOTBRANCH   1   2ATOM      2  C   UNL     1      33.564  42.693  17.715 -0.18 -0.10    +0.338 C  ATOM      3  O   UNL     1      34.602  42.087  17.514 -0.35 +0.09    -0.246 OA BRANCH   2   4ATOM      4  C   UNL     1      32.212  42.089  17.576 -0.30 -0.02    +0.060 A  ATOM      5  C   UNL     1      29.621  41.032  17.274 -0.28 -0.00    +0.023 A  ATOM      6  C   UNL     1      30.636  40.257  17.847 -0.34 -0.00    +0.013 A  ATOM      7  C   UNL     1      29.907  42.341  16.861 -0.26 -0.00    +0.013 A  ATOM      8  C   UNL     1      31.927  40.781  17.992 -0.39 -0.00    +0.016 A  ATOM      9  C   UNL     1      31.193  42.868  17.013 -0.29 -0.00    +0.016 A  BRANCH   5  10ATOM     10  C   UNL     1      28.232  40.523  17.087 -0.21 +0.01    +0.199 C  ATOM     11  O   UNL     1      27.967  39.335  17.244 -0.11 -0.14    -0.288 OA BRANCH  10  12ATOM     12  C   UNL     1      27.140  41.431  16.719 -0.18 -0.01    +0.104 A  ATOM     13  C   UNL     1      25.749  43.337  17.282 -0.25 -0.01    +0.155 A  ATOM     14  C   UNL     1      25.015  43.128  16.111 -0.29 -0.00    +0.053 A  ATOM     15  C   UNL     1      26.815  42.478  17.577 -0.13 -0.02    +0.179 A  ATOM     16  C   UNL     1      25.345  42.078  15.244 -0.30 -0.01    +0.051 A  ATOM     17  C   UNL     1      26.409  41.233  15.548 -0.26 -0.03    +0.130 A  ATOM     18  F   UNL     1      27.544  42.683  18.687 -0.01 +0.02    -0.202 F  BRANCH  13  19ATOM     19  O   UNL     1      25.534  44.344  18.184 -0.21 +0.03    -0.494 OA ATOM     20  C   UNL     1      26.415  45.458  18.138 -0.18 +0.02    +0.278 C  ENDBRANCH  13  19BRANCH  17  21ATOM     21  O   UNL     1      26.754  40.229  14.688 -0.57 +0.07    -0.507 OA ATOM     22  H   UNL     1      27.345  39.601  15.135 +0.22 +0.20    +0.293 HD ENDBRANCH  17  21ENDBRANCH  10  12ENDBRANCH   5  10ENDBRANCH   2   4ENDBRANCH   1   2BRANCH   1  23ATOM     23  C   UNL     1      34.283  44.933  17.358 -0.25 -0.11    +0.200 CG0ATOM     24  G   UNL     1      34.062  44.608  15.873 +0.00 +0.00    +0.000 G0 BRANCH  23  25ATOM     25  C   UNL     1      35.748  44.821  17.842 -0.29 -0.05    +0.137 C  BRANCH  25  26ATOM     26  C   UNL     1      36.728  44.465  16.696 -0.32 -0.04    +0.109 C  BRANCH  26  27ATOM     27  N   UNL     1      36.967  45.582  15.780 -0.13 +0.14    -0.315 NA ATOM     28  H   UNL     1      37.932  45.524  15.454 +0.09 -0.04    +0.122 HD BRANCH  27  29ATOM     29  C   UNL     1      36.047  45.690  14.658 -0.39 -0.05    +0.081 C  BRANCH  29  30ATOM     30  C   UNL     1      34.548  45.715  14.950 -0.38 -0.02    +0.019 C  BRANCH  30  31ATOM     31  C   UNL     1      34.057  44.610  15.879 -0.34 -0.03    +0.049 CG0ATOM     32  G   UNL     1      34.282  44.935  17.364 +0.00 +0.00    +0.000 G0 ENDBRANCH  30  31ENDBRANCH  29  30ENDBRANCH  27  29ENDBRANCH  26  27ENDBRANCH  25  26BRANCH  25  33ATOM     33  N   UNL     1      35.844  43.863  18.961 -0.12 +0.06    -0.344 N  ATOM     34  C   UNL     1      36.833  43.961  19.915 -0.27 -0.02    +0.253 C  ATOM     35  H   UNL     1      34.993  43.393  19.229 +0.12 -0.02    +0.164 HD ATOM     36  O   UNL     1      37.755  44.766  19.840 -0.26 +0.01    -0.269 OA BRANCH  34  37ATOM     37  C   UNL     1      36.677  43.047  21.047 -0.40 +0.00    +0.057 A  ATOM     38  C   UNL     1      36.156  41.717  21.101 -0.50 +0.00    +0.033 A  ATOM     39  C   UNL     1      37.053  43.355  22.345 -0.33 +0.01    +0.099 A  ATOM     40  C   UNL     1      36.225  41.282  22.408 -0.43 +0.00    +0.086 A  ATOM     41  N   UNL     1      36.776  42.288  23.153 -0.23 -0.03    -0.356 N  ATOM     42  C   UNL     1      37.039  42.240  24.573 -0.36 +0.00    +0.149 C  ENDBRANCH  34  37ENDBRANCH  25  33ENDBRANCH  23  25ENDBRANCH   1  23TORSDOF 9TERENDMDL