REMARK SMILES Cc1c(O)cccc1-c1c[nH]c2ccc(-c3nnc(NC4CC4)[nH]3)cc12
REMARK SMILES IDX 9 1 10 2 11 3 12 4 13 5 14 6 15 7 25 8 26 9 8 11 2 12 3 13
REMARK SMILES IDX 5 14 7 15 6 16 1 17 4 18 16 20 17 21 24 22 18 23 19 24 20 26
REMARK SMILES IDX 21 28 22 29 23 30
REMARK H PARENT 11 10 4 19 24 25 20 27
ROOT
ATOM      1  C   UNL     1      -2.502  -1.220   0.025  1.00  0.00     0.007 A 
ATOM      2  C   UNL     1      -3.533  -2.041  -0.383  1.00  0.00     0.092 A 
ATOM      3  N   UNL     1      -3.104  -2.736  -1.484  1.00  0.00    -0.361 N 
ATOM      4  C   UNL     1      -1.810  -2.384  -1.796  1.00  0.00     0.046 A 
ATOM      5  C   UNL     1      -0.979  -2.829  -2.827  1.00  0.00     0.027 A 
ATOM      6  C   UNL     1       0.309  -2.285  -2.897  1.00  0.00     0.014 A 
ATOM      7  C   UNL     1       0.768  -1.335  -1.974  1.00  0.00     0.020 A 
ATOM      8  C   UNL     1      -0.096  -0.906  -0.951  1.00  0.00     0.023 A 
ATOM      9  C   UNL     1      -1.402  -1.437  -0.858  1.00  0.00     0.008 A 
ATOM     10  H   UNL     1      -3.653  -3.412  -1.997  1.00  0.00     0.166 HD
ENDROOT
BRANCH   1  11
ATOM     11  C   UNL     1      -2.600  -0.345   1.179  1.00  0.00    -0.010 A 
ATOM     12  C   UNL     1      -3.263   0.901   1.122  1.00  0.00    -0.001 A 
ATOM     13  C   UNL     1      -3.343   1.651   2.308  1.00  0.00     0.119 A 
ATOM     14  C   UNL     1      -2.740   1.219   3.489  1.00  0.00     0.046 A 
ATOM     15  C   UNL     1      -2.000  -0.778   2.374  1.00  0.00     0.009 A 
ATOM     16  C   UNL     1      -2.064   0.005   3.524  1.00  0.00     0.004 A 
ATOM     17  C   UNL     1      -3.893   1.397  -0.153  1.00  0.00     0.049 C 
BRANCH  13  18
ATOM     18  O   UNL     1      -4.013   2.840   2.393  1.00  0.00    -0.508 OA
ATOM     19  H   UNL     1      -4.593   2.937   1.622  1.00  0.00     0.293 HD
ENDBRANCH  13  18
ENDBRANCH   1  11
BRANCH   7  20
ATOM     20  C   UNL     1       2.130  -0.814  -2.105  1.00  0.00     0.162 A 
ATOM     21  N   UNL     1       2.941  -0.959  -3.139  1.00  0.00    -0.128 NA
ATOM     22  N   UNL     1       2.803  -0.106  -1.144  1.00  0.00    -0.307 N 
ATOM     23  N   UNL     1       4.138  -0.342  -2.845  1.00  0.00    -0.112 NA
ATOM     24  C   UNL     1       4.041   0.177  -1.645  1.00  0.00     0.222 A 
ATOM     25  H   UNL     1       2.478   0.126  -0.222  1.00  0.00     0.171 HD
BRANCH  24  26
ATOM     26  N   UNL     1       4.980   0.854  -0.946  1.00  0.00    -0.352 N 
ATOM     27  H   UNL     1       5.808   1.077  -1.498  1.00  0.00     0.163 HD
BRANCH  26  28
ATOM     28  C   UNL     1       4.545   1.862   0.023  1.00  0.00     0.082 C 
ATOM     29  C   UNL     1       5.474   2.269   1.135  1.00  0.00     0.027 C 
ATOM     30  C   UNL     1       4.225   1.498   1.447  1.00  0.00     0.027 C 
ENDBRANCH  26  28
ENDBRANCH  24  26
ENDBRANCH   7  20
TORSDOF 5
