MODEL        4USER    Run = 4USERUSER    Estimated Free Energy of Binding    =  -8.11 kcal/mol  [=(1)+(2)+(3)-(4)]USERUSER    (1) Final Intermolecular Energy     =  -9.30 kcal/molUSER        vdW + Hbond + desolv Energy     =  -9.11 kcal/molUSER        Electrostatic Energy            =  -0.19 kcal/molUSER        Moving Ligand-Fixed Receptor    =  -9.30 kcal/molUSER        Moving Ligand-Moving Receptor   =  +0.00 kcal/molUSER    (2) Final Total Internal Energy     =  -0.48 kcal/molUSER    (3) Torsional Free Energy           =  +1.19 kcal/molUSER    (4) Unbound System's Energy         =  -0.48 kcal/molUSERUSERREMARK SMILES O=C1Nc2ccccc2[C@@H]1C=Cc1ccc(C(F)(F)F)cn1REMARK SMILES IDX 12 1 11 2 10 3 2 4 3 5 4 6 9 7 5 8 8 9 6 10 7 11 1 12 13 14REMARK SMILES IDX 14 15 22 16 15 17 21 18 16 19 17 20 18 21 19 22 20 23REMARK H PARENT 3 13USER                              x       y       z     vdW  Elec       q    TypeUSER                           _______ _______ _______ _____ _____    ______ ____ROOTATOM      1  C   UNL     1      39.339  48.812  15.005 -0.53 -0.01    +0.025 C  ENDROOTBRANCH   1   2ATOM      2  C   UNL     1      38.086  48.527  14.610 -0.60 +0.00    -0.007 C  BRANCH   2   3ATOM      3  C   UNL     1      37.563  47.206  14.110 -0.45 -0.06    +0.134 C  ATOM      4  C   UNL     1      36.819  47.231  12.739 -0.52 -0.09    +0.235 C  ATOM      5  N   UNL     1      35.548  46.704  12.940 -0.32 +0.21    -0.325 N  ATOM      6  C   UNL     1      35.354  46.340  14.262 -0.39 -0.04    +0.045 A  ATOM      7  C   UNL     1      36.501  46.613  15.009 -0.39 +0.01    -0.008 A  ATOM      8  C   UNL     1      34.221  45.781  14.814 -0.24 -0.02    +0.026 A  ATOM      9  C   UNL     1      36.542  46.312  16.360 -0.37 -0.00    +0.007 A  ATOM     10  C   UNL     1      34.254  45.483  16.178 -0.31 -0.00    +0.002 A  ATOM     11  C   UNL     1      35.404  45.746  16.945 -0.35 -0.00    +0.000 A  ATOM     12  O   UNL     1      37.246  47.633  11.667 -1.04 +0.05    -0.274 OA ATOM     13  H   UNL     1      34.871  46.613  12.198 -0.19 -0.14    +0.169 HD ENDBRANCH   2   3ENDBRANCH   1   2BRANCH   1  14ATOM     14  C   UNL     1      40.002  48.185  16.160 -0.49 -0.02    +0.063 A  ATOM     15  C   UNL     1      39.420  47.087  16.786 -0.45 -0.01    +0.029 A  ATOM     16  N   UNL     1      41.178  48.714  16.573 -0.73 +0.02    -0.256 NA ATOM     17  C   UNL     1      40.069  46.511  17.877 -0.47 -0.00    +0.017 A  ATOM     18  C   UNL     1      41.787  48.136  17.634 -0.31 -0.00    +0.124 A  ATOM     19  C   UNL     1      41.280  47.046  18.324 -0.47 -0.00    +0.074 A  BRANCH  19  20ATOM     20  C   UNL     1      42.041  46.465  19.474 -0.22 +0.06    +0.417 C  ATOM     21  F   UNL     1      43.334  46.887  19.505 -0.18 -0.07    -0.166 F  ATOM     22  F   UNL     1      41.511  46.795  20.684 -0.08 -0.02    -0.166 F  ATOM     23  F   UNL     1      42.093  45.104  19.451 -0.03 -0.04    -0.166 F  ENDBRANCH  19  20ENDBRANCH   1  14TORSDOF 4TERENDMDL