MODEL        7USER    Run = 7USERUSER    Estimated Free Energy of Binding    =  -7.67 kcal/mol  [=(1)+(2)+(3)-(4)]USERUSER    (1) Final Intermolecular Energy     = -11.85 kcal/molUSER        vdW + Hbond + desolv Energy     = -12.72 kcal/molUSER        Electrostatic Energy            =  -0.32 kcal/molUSER        Moving Ligand-Fixed Receptor    = -13.04 kcal/molUSER        Moving Ligand-Moving Receptor   =  +1.19 kcal/molUSER    (2) Final Total Internal Energy     =  -2.28 kcal/molUSER    (3) Torsional Free Energy           =  +4.18 kcal/molUSER    (4) Unbound System's Energy         =  -2.28 kcal/molUSERUSERREMARK SMILES COc1ccc(O)c(C(=O)c2ccc(C(=O)N[C@@H]3CCCNC[C@H]3NC(=O)c3ccncc3)cc2)c1FREMARK SMILES IDX 15 1 16 2 17 3 14 5 11 6 12 7 35 8 13 9 34 10 9 11 10 12REMARK SMILES IDX 8 13 3 14 4 15 36 16 5 17 6 18 37 19 2 20 1 21 7 22 18 24REMARK SMILES IDX 19 25 24 27 23 28 22 29 21 31 20 32 25 34 26 35 27 37 28 38REMARK SMILES IDX 29 39 33 40 30 41 32 42 31 43REMARK H PARENT 17 4 7 23 22 30 25 36REMARK Flexibility Score:   88.900USER                              x       y       z     vdW  Elec       q    TypeUSER                           _______ _______ _______ _____ _____    ______ ____ROOTATOM      1  C   UNL     1      39.883  46.080  16.269 -0.24 -0.04    +0.251 C  ATOM      2  O   UNL     1      40.467  46.050  15.192 -0.37 +0.01    -0.269 OA ATOM      3  N   UNL     1      38.508  46.086  16.386 -0.15 +0.11    -0.347 N  ATOM      4  H   UNL     1      38.110  46.320  17.285 +0.09 -0.06    +0.164 HD ENDROOTBRANCH   1   5ATOM      5  C   UNL     1      40.654  46.192  17.539 -0.46 -0.00    +0.039 A  ATOM      6  C   UNL     1      42.083  46.540  19.926 -0.42 +0.00    +0.023 A  ATOM      7  C   UNL     1      42.183  47.490  18.905 -0.47 +0.00    +0.013 A  ATOM      8  C   UNL     1      41.270  45.414  19.753 -0.40 +0.00    +0.013 A  ATOM      9  C   UNL     1      41.480  47.310  17.710 -0.41 -0.00    +0.014 A  ATOM     10  C   UNL     1      40.564  45.233  18.556 -0.45 -0.00    +0.014 A  BRANCH   6  11ATOM     11  C   UNL     1      42.783  46.815  21.200 -0.30 +0.05    +0.199 C  ATOM     12  O   UNL     1      43.997  46.610  21.250 -0.44 -0.20    -0.288 OA BRANCH  11  13ATOM     13  C   UNL     1      42.124  47.367  22.407 -0.18 +0.01    +0.104 A  ATOM     14  C   UNL     1      40.284  47.434  24.009 -0.21 +0.02    +0.155 A  ATOM     15  C   UNL     1      40.933  48.453  24.713 -0.30 +0.01    +0.053 A  ATOM     16  C   UNL     1      40.890  46.898  22.860 -0.09 +0.02    +0.179 A  ATOM     17  C   UNL     1      42.181  48.912  24.284 -0.37 +0.01    +0.051 A  ATOM     18  C   UNL     1      42.774  48.362  23.150 -0.30 +0.03    +0.130 A  ATOM     19  F   UNL     1      40.271  45.895  22.218 -0.06 -0.01    -0.202 F  BRANCH  14  20ATOM     20  O   UNL     1      39.070  46.893  24.340 -0.10 -0.05    -0.494 OA ATOM     21  C   UNL     1      38.141  47.742  25.007 -0.27 +0.03    +0.278 C  ENDBRANCH  14  20BRANCH  18  22ATOM     22  O   UNL     1      44.012  48.853  22.823 -0.43 -0.15    -0.507 OA ATOM     23  H   UNL     1      44.155  48.673  21.864 -0.46 -0.02    +0.293 HD ENDBRANCH  18  22ENDBRANCH  11  13ENDBRANCH   6  11ENDBRANCH   1   5BRANCH   3  24ATOM     24  C   UNL     1      37.653  46.261  15.206 -0.37 -0.05    +0.106 C  BRANCH  24  25ATOM     25  C   UNL     1      38.213  47.382  14.321 -0.54 -0.01    +0.028 CG0ATOM     26  G   UNL     1      37.728  47.386  12.862 +0.00 +0.00    +0.000 G0 ENDBRANCH  24  25BRANCH  24  27ATOM     27  C   UNL     1      36.173  46.475  15.636 -0.35 -0.10    +0.118 C  BRANCH  27  28ATOM     28  C   UNL     1      35.125  46.171  14.539 -0.37 -0.09    +0.108 C  BRANCH  28  29ATOM     29  N   UNL     1      35.291  46.848  13.249 -0.28 +0.23    -0.315 NA ATOM     30  H   UNL     1      34.480  46.673  12.659 -0.35 -0.11    +0.122 HD BRANCH  29  31ATOM     31  C   UNL     1      36.511  46.540  12.512 -0.65 -0.04    +0.081 C  BRANCH  31  32ATOM     32  C   UNL     1      37.731  47.391  12.856 -0.54 -0.00    +0.017 CG0ATOM     33  G   UNL     1      38.199  47.377  14.321 +0.00 +0.00    +0.000 G0 ENDBRANCH  31  32ENDBRANCH  29  31ENDBRANCH  28  29ENDBRANCH  27  28BRANCH  27  34ATOM     34  N   UNL     1      35.889  45.718  16.862 -0.12 +0.21    -0.346 N  ATOM     35  C   UNL     1      36.079  44.357  16.928 -0.21 -0.09    +0.251 C  ATOM     36  H   UNL     1      35.821  46.243  17.719 +0.10 -0.10    +0.164 HD ATOM     37  O   UNL     1      36.405  43.669  15.969 -0.28 +0.09    -0.269 OA BRANCH  35  38ATOM     38  C   UNL     1      35.897  43.731  18.261 -0.30 -0.01    +0.042 A  ATOM     39  C   UNL     1      34.891  42.776  18.412 -0.36 -0.01    +0.034 A  ATOM     40  C   UNL     1      36.679  44.091  19.360 -0.35 -0.00    +0.034 A  ATOM     41  C   UNL     1      34.725  42.200  19.655 -0.30 -0.00    +0.112 A  ATOM     42  C   UNL     1      36.431  43.457  20.563 -0.35 -0.00    +0.112 A  ATOM     43  N   UNL     1      35.475  42.515  20.733 -0.29 -0.01    -0.265 NA ENDBRANCH  35  38ENDBRANCH  27  34ENDBRANCH  24  27ENDBRANCH   3  24TORSDOF 8TERENDMDL