MODEL        6USER    Run = 6USERUSER    Estimated Free Energy of Binding    =  -9.21 kcal/mol  [=(1)+(2)+(3)-(4)]USERUSER    (1) Final Intermolecular Energy     = -11.89 kcal/molUSER        vdW + Hbond + desolv Energy     = -11.51 kcal/molUSER        Electrostatic Energy            =  -0.38 kcal/molUSER        Moving Ligand-Fixed Receptor    = -11.89 kcal/molUSER        Moving Ligand-Moving Receptor   =  +0.00 kcal/molUSER    (2) Final Total Internal Energy     =  -1.71 kcal/molUSER    (3) Torsional Free Energy           =  +2.68 kcal/molUSER    (4) Unbound System's Energy         =  -1.71 kcal/molUSERUSERREMARK SMILES NC=Nc1cc(-c2ccc(OCCN3CCOCC3)cc2)ncc1COREMARK SMILES IDX 7 1 8 2 9 3 10 4 20 5 21 6 6 7 4 8 5 9 24 10 23 11 22 12REMARK SMILES IDX 3 13 2 14 1 15 25 18 26 19 11 21 12 22 13 23 14 24 15 25REMARK SMILES IDX 19 26 16 27 18 28 17 29REMARK H PARENT 1 16 1 17 26 20USER                              x       y       z     vdW  Elec       q    TypeUSER                           _______ _______ _______ _____ _____    ______ ____ROOTATOM      1  C   UNL     1      36.562  45.073  18.136 -0.34 -0.00    +0.000 A  ATOM      2  C   UNL     1      35.223  45.302  17.771 -0.35 -0.01    +0.014 A  ATOM      3  C   UNL     1      34.169  44.547  18.311 -0.33 -0.02    +0.047 A  ATOM      4  C   UNL     1      34.429  43.536  19.231 -0.31 -0.02    +0.119 A  ATOM      5  C   UNL     1      35.750  43.288  19.599 -0.38 -0.00    +0.047 A  ATOM      6  C   UNL     1      36.799  44.042  19.059 -0.34 -0.00    +0.014 A  ENDROOTBRANCH   1   7ATOM      7  C   UNL     1      37.682  45.863  17.580 -0.32 -0.02    +0.072 A  ATOM      8  C   UNL     1      40.008  46.467  17.390 -0.43 -0.01    +0.074 A  ATOM      9  C   UNL     1      39.008  45.671  17.955 -0.38 -0.01    +0.057 A  ATOM     10  C   UNL     1      39.674  47.410  16.415 -0.48 -0.01    +0.022 A  ATOM     11  C   UNL     1      38.330  47.534  16.100 -0.33 -0.06    +0.120 A  ATOM     12  N   UNL     1      37.343  46.797  16.657 -0.20 +0.15    -0.256 NA BRANCH   8  13ATOM     13  N   UNL     1      41.353  46.267  17.754 -0.29 +0.01    -0.239 NA BRANCH  13  14ATOM     14  C   UNL     1      41.757  46.911  18.797 -0.45 +0.00    +0.190 C  ATOM     15  N   UNL     1      42.908  47.628  18.822 -0.31 -0.03    -0.390 N  ATOM     16  H   UNL     1      43.315  47.783  17.905 -0.35 -0.01    +0.157 HD ATOM     17  H   UNL     1      42.932  48.444  19.422 -0.45 -0.02    +0.157 HD ENDBRANCH  13  14ENDBRANCH   8  13BRANCH  10  18ATOM     18  C   UNL     1      40.691  48.300  15.759 -0.48 -0.03    +0.195 C  BRANCH  18  19ATOM     19  O   UNL     1      41.761  48.650  16.628 -0.75 -0.04    -0.392 OA ATOM     20  H   UNL     1      42.292  47.835  16.748 -0.38 -0.03    +0.211 HD ENDBRANCH  18  19ENDBRANCH  10  18ENDBRANCH   1   7BRANCH   4  21ATOM     21  O   UNL     1      33.512  42.725  19.835 -0.55 -0.05    -0.492 OA BRANCH  21  22ATOM     22  C   UNL     1      32.312  42.385  19.139 -0.25 -0.01    +0.245 C  BRANCH  22  23ATOM     23  C   UNL     1      32.492  41.179  18.195 -0.38 -0.02    +0.126 C  BRANCH  23  24ATOM     24  N   UNL     1      32.253  39.854  18.803 -0.45 -0.02    -0.295 NA ATOM     25  C   UNL     1      32.724  38.743  17.953 -0.29 -0.01    +0.113 C  ATOM     26  C   UNL     1      30.813  39.669  19.084 -0.33 +0.01    +0.113 C  ATOM     27  C   UNL     1      32.382  37.375  18.570 -0.41 +0.03    +0.175 C  ATOM     28  C   UNL     1      30.526  38.282  19.679 -0.36 +0.03    +0.175 C  ATOM     29  O   UNL     1      30.973  37.243  18.797 -0.83 -0.18    -0.379 OA ENDBRANCH  23  24ENDBRANCH  22  23ENDBRANCH  21  22ENDBRANCH   4  21TORSDOF 9TERENDMDL