REMARK SMILES NC=Nc1cc(-c2ccc(OCCN3CCOCC3)cc2)ncc1CO
REMARK SMILES IDX 7 1 8 2 9 3 10 4 20 5 21 6 6 7 4 8 5 9 24 10 23 11 22 12
REMARK SMILES IDX 3 13 2 14 1 15 25 18 26 19 11 21 12 22 13 23 14 24 15 25
REMARK SMILES IDX 19 26 16 27 18 28 17 29
REMARK H PARENT 1 16 1 17 26 20
ROOT
ATOM      1  C   UNL     1       1.444   0.307  -0.965  1.00  0.00     0.000 A 
ATOM      2  C   UNL     1       0.800   1.142  -0.034  1.00  0.00     0.014 A 
ATOM      3  C   UNL     1      -0.559   1.473  -0.154  1.00  0.00     0.047 A 
ATOM      4  C   UNL     1      -1.312   0.978  -1.214  1.00  0.00     0.119 A 
ATOM      5  C   UNL     1      -0.690   0.156  -2.152  1.00  0.00     0.047 A 
ATOM      6  C   UNL     1       0.666  -0.172  -2.031  1.00  0.00     0.014 A 
ENDROOT
BRANCH   1   7
ATOM      7  C   UNL     1       2.874  -0.054  -0.850  1.00  0.00     0.072 A 
ATOM      8  C   UNL     1       4.896  -0.482   0.391  1.00  0.00     0.074 A 
ATOM      9  C   UNL     1       3.540  -0.145   0.368  1.00  0.00     0.057 A 
ATOM     10  C   UNL     1       5.557  -0.776  -0.804  1.00  0.00     0.022 A 
ATOM     11  C   UNL     1       4.818  -0.661  -1.971  1.00  0.00     0.120 A 
ATOM     12  N   UNL     1       3.514  -0.306  -2.019  1.00  0.00    -0.256 NA
BRANCH   8  13
ATOM     13  N   UNL     1       5.571  -0.591   1.622  1.00  0.00    -0.239 NA
BRANCH  13  14
ATOM     14  C   UNL     1       5.916   0.521   2.177  1.00  0.00     0.190 C 
ATOM     15  N   UNL     1       6.563   0.583   3.368  1.00  0.00    -0.390 N 
ATOM     16  H   UNL     1       6.930  -0.310   3.682  1.00  0.00     0.157 HD
ATOM     17  H   UNL     1       7.200   1.358   3.509  1.00  0.00     0.157 HD
ENDBRANCH  13  14
ENDBRANCH   8  13
BRANCH  10  18
ATOM     18  C   UNL     1       7.011  -1.148  -0.862  1.00  0.00     0.195 C 
BRANCH  18  19
ATOM     19  O   UNL     1       7.370  -2.124   0.108  1.00  0.00    -0.392 OA
ATOM     20  H   UNL     1       6.810  -1.948   0.893  1.00  0.00     0.211 HD
ENDBRANCH  18  19
ENDBRANCH  10  18
ENDBRANCH   1   7
BRANCH   4  21
ATOM     21  O   UNL     1      -2.634   1.214  -1.459  1.00  0.00    -0.492 OA
BRANCH  21  22
ATOM     22  C   UNL     1      -3.389   1.997  -0.533  1.00  0.00     0.245 C 
BRANCH  22  23
ATOM     23  C   UNL     1      -3.903   1.171   0.664  1.00  0.00     0.126 C 
BRANCH  23  24
ATOM     24  N   UNL     1      -4.731  -0.002   0.318  1.00  0.00    -0.295 NA
ATOM     25  C   UNL     1      -6.000   0.369  -0.339  1.00  0.00     0.113 C 
ATOM     26  C   UNL     1      -5.030  -0.796   1.529  1.00  0.00     0.113 C 
ATOM     27  C   UNL     1      -6.880  -0.865  -0.607  1.00  0.00     0.175 C 
ATOM     28  C   UNL     1      -5.927  -2.002   1.208  1.00  0.00     0.175 C 
ATOM     29  O   UNL     1      -7.157  -1.580   0.604  1.00  0.00    -0.379 OA
ENDBRANCH  23  24
ENDBRANCH  22  23
ENDBRANCH  21  22
ENDBRANCH   4  21
TORSDOF 9
