MODEL        2USER    Run = 2USERUSER    Estimated Free Energy of Binding    =  -9.98 kcal/mol  [=(1)+(2)+(3)-(4)]USERUSER    (1) Final Intermolecular Energy     = -11.47 kcal/molUSER        vdW + Hbond + desolv Energy     = -11.33 kcal/molUSER        Electrostatic Energy            =  -0.14 kcal/molUSER        Moving Ligand-Fixed Receptor    = -11.47 kcal/molUSER        Moving Ligand-Moving Receptor   =  +0.00 kcal/molUSER    (2) Final Total Internal Energy     =  -0.77 kcal/molUSER    (3) Torsional Free Energy           =  +1.49 kcal/molUSER    (4) Unbound System's Energy         =  -0.77 kcal/molUSERUSERREMARK SMILES Cc1c(O)cccc1-c1c[nH]c2ccc(-c3nnc(NC4CC4)[nH]3)cc12REMARK SMILES IDX 9 1 10 2 11 3 12 4 13 5 14 6 15 7 25 8 26 9 8 11 2 12 3 13REMARK SMILES IDX 5 14 7 15 6 16 1 17 4 18 16 20 17 21 24 22 18 23 19 24 20 26REMARK SMILES IDX 21 28 22 29 23 30REMARK H PARENT 11 10 4 19 24 25 20 27USER                              x       y       z     vdW  Elec       q    TypeUSER                           _______ _______ _______ _____ _____    ______ ____ROOTATOM      1  C   UNL     1      35.398  45.832  15.649 -0.35 -0.01    +0.007 A  ATOM      2  C   UNL     1      34.555  45.894  14.559 -0.25 -0.08    +0.092 A  ATOM      3  N   UNL     1      35.136  46.714  13.627 -0.22 +0.28    -0.361 N  ATOM      4  C   UNL     1      36.344  47.183  14.091 -0.44 -0.03    +0.046 A  ATOM      5  C   UNL     1      37.270  48.039  13.489 -0.55 -0.01    +0.027 A  ATOM      6  C   UNL     1      38.430  48.344  14.211 -0.50 -0.01    +0.014 A  ATOM      7  C   UNL     1      38.675  47.816  15.486 -0.48 -0.01    +0.020 A  ATOM      8  C   UNL     1      37.720  46.961  16.064 -0.39 -0.01    +0.023 A  ATOM      9  C   UNL     1      36.539  46.637  15.359 -0.39 -0.01    +0.008 A  ATOM     10  H   UNL     1      34.740  46.945  12.726 -0.23 -0.14    +0.166 HD ENDROOTBRANCH   1  11ATOM     11  C   UNL     1      35.105  45.037  16.828 -0.31 +0.01    -0.010 A  ATOM     12  C   UNL     1      35.403  43.658  16.896 -0.35 +0.00    -0.001 A  ATOM     13  C   UNL     1      35.123  42.990  18.101 -0.28 -0.03    +0.119 A  ATOM     14  C   UNL     1      34.518  43.641  19.175 -0.36 -0.01    +0.046 A  ATOM     15  C   UNL     1      34.501  45.690  17.917 -0.43 -0.01    +0.009 A  ATOM     16  C   UNL     1      34.202  44.992  19.084 -0.40 -0.00    +0.004 A  ATOM     17  C   UNL     1      36.028  42.932  15.734 -0.47 -0.02    +0.049 C  BRANCH  13  18ATOM     18  O   UNL     1      35.425  41.673  18.309 -0.35 +0.12    -0.508 OA ATOM     19  H   UNL     1      35.056  41.141  17.587 -0.33 -0.17    +0.293 HD ENDBRANCH  13  18ENDBRANCH   1  11BRANCH   7  20ATOM     20  C   UNL     1      39.913  48.174  16.180 -0.40 -0.05    +0.162 A  ATOM     21  N   UNL     1      40.712  49.191  15.907 -0.62 +0.03    -0.128 NA ATOM     22  N   UNL     1      40.466  47.479  17.223 -0.30 +0.05    -0.307 N  ATOM     23  N   UNL     1      41.781  49.153  16.777 -0.97 -0.02    -0.112 NA ATOM     24  C   UNL     1      41.618  48.123  17.572 -0.26 -0.01    +0.222 A  ATOM     25  H   UNL     1      40.125  46.627  17.633 +0.11 -0.02    +0.171 HD BRANCH  24  26ATOM     26  N   UNL     1      42.432  47.691  18.562 -0.34 -0.00    -0.352 N  ATOM     27  H   UNL     1      42.706  48.432  19.207 -0.24 -0.01    +0.163 HD BRANCH  26  28ATOM     28  C   UNL     1      42.192  46.368  19.142 -0.46 +0.01    +0.082 C  ATOM     29  C   UNL     1      40.899  46.100  19.865 -0.41 +0.00    +0.027 C  ATOM     30  C   UNL     1      42.189  46.151  20.631 -0.40 +0.01    +0.027 C  ENDBRANCH  26  28ENDBRANCH  24  26ENDBRANCH   7  20TORSDOF 5TERENDMDL