REMARK SMILES NCCC[C@H]1COc2ccc(O)c(N)c2-c2cc(O)ccc21
REMARK SMILES IDX 4 1 3 2 2 3 1 4 5 7 22 9 21 10 16 11 20 12 17 13 18 14 15 15
REMARK SMILES IDX 13 16 8 17 11 18 9 19 10 20 14 21 7 24 6 25 12 27 19 29
REMARK H PARENT 1 5 1 6 14 22 14 23 12 28 19 30
REMARK Flexibility Score:   90.900
ROOT
ATOM      1  C   UNL     1       1.273   0.905   1.360  1.00  0.00     0.013 C 
ENDROOT
BRANCH   1   2
ATOM      2  C   UNL     1       2.131   1.754   0.410  1.00  0.00     0.016 C 
BRANCH   2   3
ATOM      3  C   UNL     1       3.621   1.418   0.471  1.00  0.00     0.077 C 
BRANCH   3   4
ATOM      4  N   UNL     1       4.393   2.309  -0.389  1.00  0.00    -0.330 NA
ATOM      5  H   UNL     1       4.026   2.269  -1.340  1.00  0.00     0.118 HD
ATOM      6  H   UNL     1       4.260   3.274  -0.085  1.00  0.00     0.118 HD
ENDBRANCH   3   4
ENDBRANCH   2   3
ENDBRANCH   1   2
BRANCH   1   7
ATOM      7  C   UNL     1       1.238  -0.600   1.033  1.00  0.00     0.058 CG0
ATOM      8  G   UNL     1       0.483  -1.471   2.054  1.00  0.00     0.000 G0
BRANCH   7   9
ATOM      9  C   UNL     1       0.680  -0.967  -0.329  1.00  0.00    -0.033 A 
ATOM     10  C   UNL     1       1.569  -1.502  -1.289  1.00  0.00     0.008 A 
ATOM     11  C   UNL     1      -0.705  -0.935  -0.584  1.00  0.00    -0.005 A 
ATOM     12  C   UNL     1       1.098  -2.059  -2.474  1.00  0.00     0.046 A 
ATOM     13  C   UNL     1      -1.154  -1.582  -1.756  1.00  0.00     0.055 A 
ATOM     14  C   UNL     1      -0.268  -2.116  -2.687  1.00  0.00     0.116 A 
BRANCH  11  15
ATOM     15  C   UNL     1      -1.683  -0.261   0.314  1.00  0.00     0.051 A 
ATOM     16  C   UNL     1      -2.656   0.634  -0.227  1.00  0.00     0.086 A 
ATOM     17  C   UNL     1      -1.696  -0.415   1.719  1.00  0.00     0.129 A 
ATOM     18  C   UNL     1      -3.688   1.145   0.583  1.00  0.00     0.139 A 
ATOM     19  C   UNL     1      -2.736   0.137   2.500  1.00  0.00     0.051 A 
ATOM     20  C   UNL     1      -3.749   0.896   1.934  1.00  0.00     0.052 A 
BRANCH  16  21
ATOM     21  N   UNL     1      -2.770   0.945  -1.620  1.00  0.00    -0.395 N 
ATOM     22  H   UNL     1      -3.403   0.275  -2.060  1.00  0.00     0.156 HD
ATOM     23  H   UNL     1      -1.860   0.864  -2.075  1.00  0.00     0.156 HD
ENDBRANCH  16  21
BRANCH  17  24
ATOM     24  O   UNL     1      -0.772  -1.011   2.528  1.00  0.00    -0.492 OA
BRANCH  24  25
ATOM     25  C   UNL     1       0.483  -1.471   2.054  1.00  0.00     0.238 CG0
ATOM     26  G   UNL     1       1.238  -0.600   1.033  1.00  0.00     0.000 G0
ENDBRANCH  24  25
ENDBRANCH  17  24
BRANCH  18  27
ATOM     27  O   UNL     1      -4.635   1.952   0.009  1.00  0.00    -0.506 OA
ATOM     28  H   UNL     1      -4.293   2.082  -0.900  1.00  0.00     0.293 HD
ENDBRANCH  18  27
ENDBRANCH  11  15
BRANCH  14  29
ATOM     29  O   UNL     1      -0.793  -2.687  -3.807  1.00  0.00    -0.508 OA
ATOM     30  H   UNL     1      -0.068  -3.055  -4.339  1.00  0.00     0.293 HD
ENDBRANCH  14  29
ENDBRANCH   7   9
ENDBRANCH   1   7
TORSDOF 7
