REMARK SMILES O=C1Nc2ccccc2[C@@H]1C=Cc1ccc(C(F)(F)F)cn1
REMARK SMILES IDX 12 1 11 2 10 3 2 4 3 5 4 6 9 7 5 8 8 9 6 10 7 11 1 12 13 14
REMARK SMILES IDX 14 15 22 16 15 17 21 18 16 19 17 20 18 21 19 22 20 23
REMARK H PARENT 3 13
ROOT
ATOM      1  C   UNL     1      -0.598  -0.545  -0.853  1.00  0.00     0.025 C 
ENDROOT
BRANCH   1   2
ATOM      2  C   UNL     1       0.379   0.376  -0.929  1.00  0.00    -0.007 C 
BRANCH   2   3
ATOM      3  C   UNL     1       1.783   0.180  -1.437  1.00  0.00     0.134 C 
ATOM      4  C   UNL     1       2.148  -1.257  -1.922  1.00  0.00     0.235 C 
ATOM      5  N   UNL     1       3.251  -1.681  -1.189  1.00  0.00    -0.325 N 
ATOM      6  C   UNL     1       3.658  -0.717  -0.283  1.00  0.00     0.045 A 
ATOM      7  C   UNL     1       2.833   0.405  -0.372  1.00  0.00    -0.008 A 
ATOM      8  C   UNL     1       4.716  -0.795   0.598  1.00  0.00     0.026 A 
ATOM      9  C   UNL     1       3.065   1.508   0.433  1.00  0.00     0.007 A 
ATOM     10  C   UNL     1       4.950   0.311   1.418  1.00  0.00     0.002 A 
ATOM     11  C   UNL     1       4.132   1.453   1.336  1.00  0.00     0.000 A 
ATOM     12  O   UNL     1       1.588  -1.917  -2.784  1.00  0.00    -0.274 OA
ATOM     13  H   UNL     1       3.679  -2.585  -1.320  1.00  0.00     0.169 HD
ENDBRANCH   2   3
ENDBRANCH   1   2
BRANCH   1  14
ATOM     14  C   UNL     1      -1.954  -0.269  -0.352  1.00  0.00     0.063 A 
ATOM     15  C   UNL     1      -2.913  -1.277  -0.345  1.00  0.00     0.029 A 
ATOM     16  N   UNL     1      -2.217   0.982   0.094  1.00  0.00    -0.256 NA
ATOM     17  C   UNL     1      -4.190  -0.990   0.136  1.00  0.00     0.017 A 
ATOM     18  C   UNL     1      -3.464   1.235   0.555  1.00  0.00     0.124 A 
ATOM     19  C   UNL     1      -4.484   0.297   0.593  1.00  0.00     0.074 A 
BRANCH  19  20
ATOM     20  C   UNL     1      -5.825   0.669   1.143  1.00  0.00     0.417 C 
ATOM     21  F   UNL     1      -5.861   0.616   2.502  1.00  0.00    -0.166 F 
ATOM     22  F   UNL     1      -6.205   1.934   0.808  1.00  0.00    -0.166 F 
ATOM     23  F   UNL     1      -6.828  -0.145   0.711  1.00  0.00    -0.166 F 
ENDBRANCH  19  20
ENDBRANCH   1  14
TORSDOF 4
