MODEL        9USER    Run = 9USERUSER    Estimated Free Energy of Binding    = -13.17 kcal/mol  [=(1)+(2)+(3)-(4)]USERUSER    (1) Final Intermolecular Energy     = -14.96 kcal/molUSER        vdW + Hbond + desolv Energy     = -14.81 kcal/molUSER        Electrostatic Energy            =  -0.15 kcal/molUSER        Moving Ligand-Fixed Receptor    = -14.96 kcal/molUSER        Moving Ligand-Moving Receptor   =  +0.00 kcal/molUSER    (2) Final Total Internal Energy     =  -2.61 kcal/molUSER    (3) Torsional Free Energy           =  +1.79 kcal/molUSER    (4) Unbound System's Energy         =  -2.61 kcal/molUSERUSERREMARK SMILES Oc1nc2ccccc2n1C1CCN(Cc2ccc(-c3nc4cc(F)ccc4nc3-c3ccc(F)cc3)cc2)CC1REMARK SMILES IDX 15 1 14 2 11 3 12 4 41 5 13 6 40 7 10 8 2 9 3 10 4 11 9 12REMARK SMILES IDX 5 13 8 14 6 15 7 16 1 17 16 19 17 20 39 21 18 22 38 23 19 24REMARK SMILES IDX 20 25 21 26 30 27 22 28 29 29 23 30 28 31 24 32 27 33 26 34REMARK SMILES IDX 25 35 31 36 32 37 37 38 33 39 36 40 34 41 35 42REMARK H PARENT 1 18USER                              x       y       z     vdW  Elec       q    TypeUSER                           _______ _______ _______ _____ _____    ______ ____ROOTATOM      1  C   UNL     1      35.802  46.245  13.507 -0.48 -0.07    +0.120 C  ENDROOTBRANCH   1   2ATOM      2  N   UNL     1      36.675  47.391  13.202 -0.41 +0.14    -0.299 NA ATOM      3  C   UNL     1      38.577  47.594  15.364 -0.48 -0.04    +0.095 C  ATOM      4  C   UNL     1      37.864  48.863  14.880 -0.53 -0.03    +0.041 C  ATOM      5  C   UNL     1      38.825  46.599  14.217 -0.47 -0.01    +0.041 C  ATOM      6  C   UNL     1      36.554  48.483  14.184 -0.28 -0.07    +0.087 C  ATOM      7  C   UNL     1      38.059  46.985  12.950 -0.36 -0.02    +0.087 C  BRANCH   3   8ATOM      8  N   UNL     1      39.776  47.883  16.135 -0.29 +0.09    -0.291 N  ATOM      9  C   UNL     1      40.630  48.936  15.948 -0.34 -0.07    +0.295 A  ATOM     10  N   UNL     1      41.620  48.956  16.797 -0.91 -0.02    -0.195 NA ATOM     11  C   UNL     1      41.419  47.846  17.583 -0.44 -0.01    +0.092 A  ATOM     12  C   UNL     1      40.271  47.148  17.193 -0.45 -0.01    +0.072 A  ATOM     13  C   UNL     1      42.187  47.367  18.657 -0.53 +0.00    +0.031 A  ATOM     14  C   UNL     1      39.853  45.975  17.835 -0.44 -0.00    +0.029 A  ATOM     15  C   UNL     1      41.782  46.197  19.311 -0.46 +0.00    +0.002 A  ATOM     16  C   UNL     1      40.633  45.515  18.904 -0.46 +0.00    +0.002 A  BRANCH   9  17ATOM     17  O   UNL     1      40.506  49.848  15.004 -0.18 +0.22    -0.480 OA ATOM     18  H   UNL     1      39.839  50.441  15.396 -0.22 -0.23    +0.296 HD ENDBRANCH   9  17ENDBRANCH   3   8ENDBRANCH   1   2BRANCH   1  19ATOM     19  C   UNL     1      35.977  45.730  14.922 -0.36 +0.02    -0.034 A  ATOM     20  C   UNL     1      36.709  44.560  15.167 -0.37 -0.00    +0.006 A  ATOM     21  C   UNL     1      35.418  46.413  16.008 -0.26 -0.01    +0.006 A  ATOM     22  C   UNL     1      36.875  44.081  16.469 -0.35 -0.00    +0.011 A  ATOM     23  C   UNL     1      35.584  45.929  17.310 -0.36 -0.01    +0.011 A  ATOM     24  C   UNL     1      36.326  44.764  17.566 -0.32 -0.00    +0.002 A  BRANCH  24  25ATOM     25  C   UNL     1      36.497  44.277  18.945 -0.29 -0.02    +0.097 A  ATOM     26  N   UNL     1      37.647  44.704  19.542 -0.22 +0.02    -0.244 NA ATOM     27  C   UNL     1      35.579  43.466  19.633 -0.34 -0.01    +0.097 A  ATOM     28  C   UNL     1      37.853  44.347  20.821 -0.32 +0.00    +0.092 A  ATOM     29  N   UNL     1      35.791  43.114  20.933 -0.27 -0.01    -0.244 NA ATOM     30  C   UNL     1      39.003  44.773  21.467 -0.30 +0.00    +0.069 A  ATOM     31  C   UNL     1      36.918  43.548  21.521 -0.35 +0.00    +0.090 A  ATOM     32  C   UNL     1      39.239  44.419  22.789 -0.20 +0.01    +0.125 A  ATOM     33  C   UNL     1      37.174  43.205  22.844 -0.37 +0.00    +0.033 A  ATOM     34  C   UNL     1      38.333  43.635  23.487 -0.27 +0.00    +0.041 A  ATOM     35  F   UNL     1      40.353  44.840  23.398 -0.01 -0.01    -0.207 F  BRANCH  27  36ATOM     36  C   UNL     1      34.343  42.905  19.056 -0.40 -0.00    +0.003 A  ATOM     37  C   UNL     1      34.365  41.830  18.147 -0.38 -0.00    +0.013 A  ATOM     38  C   UNL     1      33.088  43.426  19.428 -0.42 -0.00    +0.013 A  ATOM     39  C   UNL     1      33.182  41.316  17.607 -0.35 -0.02    +0.040 A  ATOM     40  C   UNL     1      31.904  42.912  18.892 -0.29 -0.00    +0.040 A  ATOM     41  C   UNL     1      31.962  41.864  17.983 -0.26 -0.03    +0.123 A  ATOM     42  F   UNL     1      30.830  41.372  17.466 -0.05 +0.04    -0.207 F  ENDBRANCH  27  36ENDBRANCH  24  25ENDBRANCH   1  19TORSDOF 6TERENDMDL