MODEL        7USER    Run = 7USERUSER    Estimated Free Energy of Binding    = -13.08 kcal/mol  [=(1)+(2)+(3)-(4)]USERUSER    (1) Final Intermolecular Energy     = -14.87 kcal/molUSER        vdW + Hbond + desolv Energy     = -14.74 kcal/molUSER        Electrostatic Energy            =  -0.13 kcal/molUSER        Moving Ligand-Fixed Receptor    = -14.87 kcal/molUSER        Moving Ligand-Moving Receptor   =  +0.00 kcal/molUSER    (2) Final Total Internal Energy     =  -2.72 kcal/molUSER    (3) Torsional Free Energy           =  +1.79 kcal/molUSER    (4) Unbound System's Energy         =  -2.72 kcal/molUSERUSERREMARK SMILES Oc1nc2ccccc2n1C1CCN(Cc2ccc(-c3nc4ccc(F)cc4nc3-c3ccncc3)cc2)CC1REMARK SMILES IDX 11 1 12 2 13 3 14 4 39 5 40 6 10 7 2 8 3 9 4 10 9 11 5 12REMARK SMILES IDX 8 13 6 14 7 15 1 16 15 18 16 19 17 20 38 21 18 22 37 23REMARK SMILES IDX 19 24 20 25 21 26 30 27 22 28 29 29 23 30 28 31 24 32 27 33REMARK SMILES IDX 25 34 26 35 31 36 32 37 36 38 33 39 35 40 34 41REMARK H PARENT 1 17USER                              x       y       z     vdW  Elec       q    TypeUSER                           _______ _______ _______ _____ _____    ______ ____ROOTATOM      1  C   UNL     1      39.266  48.368  14.843 -0.53 -0.04    +0.095 C  ATOM      2  C   UNL     1      37.843  48.744  15.273 -0.53 -0.03    +0.041 C  ATOM      3  C   UNL     1      36.870  48.573  14.112 -0.49 -0.06    +0.087 C  ATOM      4  N   UNL     1      36.835  47.217  13.545 -0.31 +0.15    -0.299 NA ATOM      5  C   UNL     1      37.968  46.373  13.953 -0.44 -0.03    +0.087 C  ATOM      6  C   UNL     1      39.295  47.130  13.932 -0.19 -0.01    +0.041 C  ENDROOTBRANCH   1   7ATOM      7  N   UNL     1      40.154  48.274  15.997 -0.32 +0.08    -0.291 N  ATOM      8  C   UNL     1      41.158  49.140  16.331 -0.23 -0.02    +0.295 A  ATOM      9  N   UNL     1      41.802  48.798  17.411 -0.71 -0.02    -0.195 NA ATOM     10  C   UNL     1      41.207  47.623  17.802 -0.44 -0.01    +0.092 A  ATOM     11  C   UNL     1      40.171  47.262  16.936 -0.45 -0.01    +0.072 A  ATOM     12  C   UNL     1      41.512  46.800  18.898 -0.47 +0.00    +0.031 A  ATOM     13  C   UNL     1      39.417  46.094  17.116 -0.41 -0.01    +0.029 A  ATOM     14  C   UNL     1      40.770  45.629  19.091 -0.46 +0.00    +0.002 A  ATOM     15  C   UNL     1      39.740  45.285  18.213 -0.43 -0.00    +0.002 A  BRANCH   8  16ATOM     16  O   UNL     1      41.477  50.223  15.654 -0.67 +0.08    -0.480 OA ATOM     17  H   UNL     1      41.423  50.901  16.352 -0.30 -0.11    +0.296 HD ENDBRANCH   8  16ENDBRANCH   1   7BRANCH   4  18ATOM     18  C   UNL     1      35.571  46.514  13.827 -0.45 -0.08    +0.120 C  BRANCH  18  19ATOM     19  C   UNL     1      35.571  45.769  15.145 -0.34 +0.02    -0.034 A  ATOM     20  C   UNL     1      35.468  46.462  16.356 -0.28 -0.01    +0.006 A  ATOM     21  C   UNL     1      35.715  44.376  15.176 -0.28 -0.00    +0.006 A  ATOM     22  C   UNL     1      35.498  45.774  17.572 -0.37 -0.01    +0.011 A  ATOM     23  C   UNL     1      35.754  43.691  16.396 -0.38 -0.00    +0.011 A  ATOM     24  C   UNL     1      35.630  44.375  17.617 -0.31 -0.00    +0.002 A  BRANCH  24  25ATOM     25  C   UNL     1      35.671  43.676  18.916 -0.29 -0.02    +0.097 A  ATOM     26  N   UNL     1      36.782  43.964  19.654 -0.21 +0.02    -0.244 NA ATOM     27  C   UNL     1      34.700  42.779  19.390 -0.35 -0.01    +0.097 A  ATOM     28  C   UNL     1      36.933  43.333  20.829 -0.35 +0.00    +0.090 A  ATOM     29  N   UNL     1      34.871  42.129  20.578 -0.26 -0.02    -0.244 NA ATOM     30  C   UNL     1      38.056  43.599  21.606 -0.33 +0.00    +0.033 A  ATOM     31  C   UNL     1      35.976  42.403  21.292 -0.37 +0.00    +0.092 A  ATOM     32  C   UNL     1      38.250  42.962  22.831 -0.31 +0.00    +0.041 A  ATOM     33  C   UNL     1      36.176  41.770  22.510 -0.43 +0.00    +0.069 A  ATOM     34  C   UNL     1      37.304  42.049  23.271 -0.35 +0.01    +0.125 A  ATOM     35  F   UNL     1      37.480  41.432  24.446 -0.02 -0.01    -0.207 F  BRANCH  27  36ATOM     36  C   UNL     1      33.422  42.458  18.725 -0.39 -0.00    +0.005 A  ATOM     37  C   UNL     1      32.369  43.379  18.637 -0.34 -0.00    +0.030 A  ATOM     38  C   UNL     1      33.206  41.181  18.188 -0.35 -0.01    +0.030 A  ATOM     39  C   UNL     1      31.196  43.003  18.003 -0.20 -0.02    +0.111 A  ATOM     40  C   UNL     1      31.994  40.896  17.578 -0.27 -0.03    +0.111 A  ATOM     41  N   UNL     1      30.987  41.784  17.467 -0.14 +0.06    -0.265 NA ENDBRANCH  27  36ENDBRANCH  24  25ENDBRANCH  18  19ENDBRANCH   4  18TORSDOF 6TERENDMDL