MODEL        9USER    Run = 9USERUSER    Estimated Free Energy of Binding    = -10.36 kcal/mol  [=(1)+(2)+(3)-(4)]USERUSER    (1) Final Intermolecular Energy     = -12.15 kcal/molUSER        vdW + Hbond + desolv Energy     = -11.96 kcal/molUSER        Electrostatic Energy            =  -0.19 kcal/molUSER        Moving Ligand-Fixed Receptor    = -12.15 kcal/molUSER        Moving Ligand-Moving Receptor   =  +0.00 kcal/molUSER    (2) Final Total Internal Energy     =  -1.38 kcal/molUSER    (3) Torsional Free Energy           =  +1.79 kcal/molUSER    (4) Unbound System's Energy         =  -1.38 kcal/molUSERUSERREMARK SMILES CC(=O)N[C@H]1CCN(C(=O)c2ccc(C(=O)Nc3cccc(N4CCOCC4)c3F)cc2)C1REMARK SMILES IDX 11 1 12 2 13 3 14 4 31 5 32 6 9 7 10 8 8 9 5 10 6 11 33 12REMARK SMILES IDX 7 13 4 14 2 15 1 16 3 17 15 19 17 20 16 21 18 23 19 24 29 25REMARK SMILES IDX 20 26 22 27 21 28 30 29 23 30 24 31 28 32 25 33 27 34 26 35REMARK H PARENT 4 18 17 22USER                              x       y       z     vdW  Elec       q    TypeUSER                           _______ _______ _______ _____ _____    ______ ____ROOTATOM      1  C   UNL     1      37.092  42.573  23.919 -0.38 +0.00    +0.040 A  ATOM      2  C   UNL     1      37.225  43.827  23.313 -0.33 +0.00    +0.014 A  ATOM      3  C   UNL     1      36.849  43.996  21.977 -0.33 +0.00    +0.014 A  ATOM      4  C   UNL     1      36.309  42.914  21.263 -0.40 +0.00    +0.040 A  ATOM      5  C   UNL     1      36.155  41.668  21.890 -0.53 +0.00    +0.014 A  ATOM      6  C   UNL     1      36.539  41.496  23.221 -0.44 +0.00    +0.014 A  ENDROOTBRANCH   1   7ATOM      7  C   UNL     1      37.492  42.414  25.329 -0.24 -0.01    +0.253 C  ATOM      8  O   UNL     1      38.553  41.843  25.569 -0.17 -0.01    -0.269 OA BRANCH   7   9ATOM      9  N   UNL     1      36.642  42.903  26.300 -0.15 +0.04    -0.337 N  ATOM     10  C   UNL     1      35.622  44.106  28.069 -0.51 -0.03    +0.103 C  ATOM     11  C   UNL     1      34.559  43.288  27.331 -0.58 -0.01    +0.048 C  ATOM     12  C   UNL     1      36.778  44.140  27.061 -0.35 -0.02    +0.144 C  ATOM     13  C   UNL     1      35.383  42.242  26.595 -0.47 -0.02    +0.122 C  BRANCH  10  14ATOM     14  N   UNL     1      35.142  45.419  28.461 -0.24 +0.10    -0.352 N  ATOM     15  C   UNL     1      33.925  45.568  29.092 -0.25 -0.03    +0.217 C  ATOM     16  C   UNL     1      33.528  47.003  29.321 -0.25 -0.01    +0.114 C  ATOM     17  O   UNL     1      33.237  44.629  29.477 -0.69 +0.02    -0.275 OA ATOM     18  H   UNL     1      35.562  46.234  28.032 -0.33 -0.06    +0.163 HD ENDBRANCH  10  14ENDBRANCH   7   9ENDBRANCH   1   7BRANCH   4  19ATOM     19  C   UNL     1      35.905  43.022  19.832 -0.30 -0.02    +0.255 C  ATOM     20  N   UNL     1      35.731  44.309  19.359 -0.18 +0.05    -0.319 N  ATOM     21  O   UNL     1      35.796  41.979  19.202 -0.35 +0.03    -0.269 OA ATOM     22  H   UNL     1      36.020  45.073  19.954 +0.09 -0.02    +0.170 HD BRANCH  20  23ATOM     23  C   UNL     1      35.265  44.683  18.073 -0.28 -0.03    +0.079 A  ATOM     24  C   UNL     1      33.949  44.324  17.761 -0.30 -0.01    +0.029 A  ATOM     25  C   UNL     1      36.035  45.340  17.093 -0.22 -0.08    +0.169 A  ATOM     26  C   UNL     1      33.402  44.668  16.528 -0.32 -0.00    +0.005 A  ATOM     27  C   UNL     1      35.510  45.707  15.829 -0.30 -0.06    +0.075 A  ATOM     28  C   UNL     1      34.170  45.360  15.586 -0.30 -0.02    +0.029 A  ATOM     29  F   UNL     1      37.350  45.509  17.305 -0.08 +0.07    -0.202 F  BRANCH  27  30ATOM     30  N   UNL     1      36.246  46.388  14.865 -0.13 +0.25    -0.364 N  ATOM     31  C   UNL     1      36.060  46.121  13.428 -0.46 -0.08    +0.145 C  ATOM     32  C   UNL     1      37.014  47.600  15.191 -0.39 -0.11    +0.145 C  ATOM     33  C   UNL     1      37.276  46.640  12.642 -0.50 -0.06    +0.181 C  ATOM     34  C   UNL     1      36.979  48.587  14.011 -0.45 -0.12    +0.181 C  ATOM     35  O   UNL     1      37.527  48.048  12.799 -0.85 +0.05    -0.378 OA ENDBRANCH  27  30ENDBRANCH  20  23ENDBRANCH   4  19TORSDOF 6TERENDMDL