MODEL        6USER    Run = 6USERUSER    Estimated Free Energy of Binding    =  -8.63 kcal/mol  [=(1)+(2)+(3)-(4)]USERUSER    (1) Final Intermolecular Energy     = -10.42 kcal/molUSER        vdW + Hbond + desolv Energy     = -10.36 kcal/molUSER        Electrostatic Energy            =  -0.06 kcal/molUSER        Moving Ligand-Fixed Receptor    = -10.42 kcal/molUSER        Moving Ligand-Moving Receptor   =  +0.00 kcal/molUSER    (2) Final Total Internal Energy     =  -1.37 kcal/molUSER    (3) Torsional Free Energy           =  +1.79 kcal/molUSER    (4) Unbound System's Energy         =  -1.37 kcal/molUSERUSERREMARK SMILES CN1CCN(c2nc3ccccc3nc2NC2=CC(=CS(N)(=O)=O)[C@H]2F)CC1REMARK SMILES IDX 17 1 18 2 19 3 25 4 26 5 16 6 15 8 6 9 7 10 8 11 14 12 9 13REMARK SMILES IDX 13 14 10 15 12 16 11 17 5 18 2 19 3 20 28 21 4 22 27 23 1 24REMARK SMILES IDX 20 25 21 26 23 27 24 28 22 29REMARK H PARENT 16 7 22 30 22 31USER                              x       y       z     vdW  Elec       q    TypeUSER                           _______ _______ _______ _____ _____    ______ ____ROOTATOM      1  C   UNL     1      36.585  45.785  16.626 -0.38 -0.03    +0.056 C  ATOM      2  C   UNL     1      36.106  45.593  15.363 -0.40 -0.02    +0.033 C  ATOM      3  C   UNL     1      37.363  45.871  14.739 -0.45 -0.00    +0.006 C  ATOM      4  C   UNL     1      38.030  46.041  16.089 -0.27 -0.09    +0.244 C  ATOM      5  F   UNL     1      38.613  47.251  16.323 -0.08 +0.10    -0.235 F  ENDROOTBRANCH   1   6ATOM      6  N   UNL     1      36.121  45.771  17.853 -0.14 +0.15    -0.338 N  ATOM      7  H   UNL     1      35.457  46.463  18.205 +0.10 -0.10    +0.168 HD BRANCH   6   8ATOM      8  C   UNL     1      36.174  44.689  18.777 -0.23 -0.04    +0.174 A  ATOM      9  C   UNL     1      35.334  43.563  18.549 -0.23 -0.04    +0.172 A  ATOM     10  N   UNL     1      35.327  42.505  19.392 -0.26 +0.02    -0.225 NA ATOM     11  C   UNL     1      36.150  42.570  20.452 -0.40 -0.00    +0.091 A  ATOM     12  N   UNL     1      36.986  44.750  19.854 -0.19 +0.02    -0.225 NA ATOM     13  C   UNL     1      36.187  41.510  21.352 -0.51 +0.00    +0.031 A  ATOM     14  C   UNL     1      36.979  43.695  20.684 -0.34 -0.00    +0.091 A  ATOM     15  C   UNL     1      37.027  41.530  22.468 -0.53 +0.00    +0.002 A  ATOM     16  C   UNL     1      37.805  43.707  21.803 -0.35 +0.00    +0.031 A  ATOM     17  C   UNL     1      37.839  42.635  22.695 -0.39 +0.00    +0.002 A  BRANCH   9  18ATOM     18  N   UNL     1      34.468  43.570  17.411 -0.07 +0.12    -0.351 N  ATOM     19  N   UNL     1      31.616  42.772  16.863 -0.11 +0.11    -0.303 NA ATOM     20  C   UNL     1      32.099  44.173  16.826 -0.29 -0.04    +0.105 C  ATOM     21  C   UNL     1      32.606  41.878  17.502 -0.33 -0.04    +0.105 C  ATOM     22  C   UNL     1      33.328  44.476  17.718 -0.29 -0.05    +0.133 C  ATOM     23  C   UNL     1      34.044  42.196  17.041 -0.36 -0.06    +0.133 C  ATOM     24  C   UNL     1      30.303  42.642  17.502 -0.23 -0.02    +0.105 C  ENDBRANCH   9  18ENDBRANCH   6   8ENDBRANCH   1   6BRANCH   3  25ATOM     25  C   UNL     1      37.779  45.986  13.474 -0.37 -0.04    +0.129 C  BRANCH  25  26ATOM     26  S   UNL     1      36.998  47.128  12.440 -0.69 -0.08    +0.231 S  ATOM     27  O   UNL     1      36.899  48.413  13.098 -0.94 +0.08    -0.208 OA ATOM     28  O   UNL     1      37.537  47.018  11.104 -0.86 +0.04    -0.208 OA BRANCH  26  29ATOM     29  N   UNL     1      35.409  46.584  12.322 -0.39 +0.14    -0.225 NA ATOM     30  H   UNL     1      34.768  47.288  12.703 -0.22 -0.12    +0.137 HD ATOM     31  H   UNL     1      35.193  46.363  11.352 -0.15 -0.10    +0.137 HD ENDBRANCH  26  29ENDBRANCH  25  26ENDBRANCH   3  25TORSDOF 6TERENDMDL