MODEL        9USER    Run = 9USERUSER    Estimated Free Energy of Binding    = -13.10 kcal/mol  [=(1)+(2)+(3)-(4)]USERUSER    (1) Final Intermolecular Energy     = -15.18 kcal/molUSER        vdW + Hbond + desolv Energy     = -14.99 kcal/molUSER        Electrostatic Energy            =  -0.20 kcal/molUSER        Moving Ligand-Fixed Receptor    = -15.18 kcal/molUSER        Moving Ligand-Moving Receptor   =  +0.00 kcal/molUSER    (2) Final Total Internal Energy     =  -2.28 kcal/molUSER    (3) Torsional Free Energy           =  +2.09 kcal/molUSER    (4) Unbound System's Energy         =  -2.28 kcal/molUSERUSERREMARK SMILES Nc1cc(-c2nc3ccccc3nc2-c2ccc(CN3CCC(n4c(O)nc5ccccc54)CC3)cc2)ccn1REMARK SMILES IDX 15 1 16 2 17 3 18 4 36 5 37 6 14 7 5 8 6 9 7 10 13 11 8 12REMARK SMILES IDX 12 13 9 14 11 15 10 16 4 17 2 18 3 19 40 20 39 21 38 22 1 23REMARK SMILES IDX 19 26 20 27 21 28 35 29 22 30 34 31 23 32 24 33 25 34 33 35REMARK SMILES IDX 27 36 32 37 28 38 31 39 29 40 30 41 26 42REMARK H PARENT 1 24 1 25 26 43USER                              x       y       z     vdW  Elec       q    TypeUSER                           _______ _______ _______ _____ _____    ______ ____ROOTATOM      1  C   UNL     1      35.671  44.254  17.639 -0.31 -0.00    +0.002 A  ATOM      2  C   UNL     1      34.594  45.096  17.322 -0.33 -0.01    +0.011 A  ATOM      3  C   UNL     1      34.485  45.682  16.059 -0.26 -0.01    +0.006 A  ATOM      4  C   UNL     1      35.462  45.452  15.079 -0.34 +0.02    -0.034 A  ATOM      5  C   UNL     1      36.542  44.619  15.388 -0.37 -0.00    +0.006 A  ATOM      6  C   UNL     1      36.646  44.029  16.653 -0.34 -0.00    +0.011 A  ENDROOTBRANCH   1   7ATOM      7  C   UNL     1      35.784  43.659  18.981 -0.30 -0.02    +0.097 A  ATOM      8  C   UNL     1      34.810  42.853  19.590 -0.36 -0.01    +0.097 A  ATOM      9  N   UNL     1      35.042  42.263  20.796 -0.26 -0.02    -0.244 NA ATOM     10  C   UNL     1      36.220  42.513  21.396 -0.40 +0.00    +0.089 A  ATOM     11  N   UNL     1      36.969  43.922  19.599 -0.21 +0.02    -0.244 NA ATOM     12  C   UNL     1      36.498  41.938  22.631 -0.48 +0.00    +0.030 A  ATOM     13  C   UNL     1      37.185  43.353  20.798 -0.33 -0.00    +0.089 A  ATOM     14  C   UNL     1      37.708  42.175  23.287 -0.37 +0.00    +0.002 A  ATOM     15  C   UNL     1      38.385  43.585  21.459 -0.27 +0.00    +0.030 A  ATOM     16  C   UNL     1      38.654  43.003  22.699 -0.31 +0.00    +0.002 A  BRANCH   8  17ATOM     17  C   UNL     1      33.472  42.571  19.035 -0.39 -0.00    +0.008 A  ATOM     18  C   UNL     1      31.899  41.151  17.884 -0.29 -0.03    +0.123 A  ATOM     19  C   UNL     1      33.178  41.372  18.373 -0.36 -0.01    +0.057 A  ATOM     20  N   UNL     1      30.913  42.056  17.982 -0.13 +0.04    -0.240 NA ATOM     21  C   UNL     1      31.209  43.222  18.589 -0.13 -0.01    +0.114 A  ATOM     22  C   UNL     1      32.450  43.521  19.124 -0.39 -0.00    +0.030 A  BRANCH  18  23ATOM     23  N   UNL     1      31.589  39.963  17.226 -0.07 +0.09    -0.384 N  ATOM     24  H   UNL     1      31.547  40.179  16.233 -0.41 -0.10    +0.158 HD ATOM     25  H   UNL     1      30.723  39.567  17.568 +0.09 +0.01    +0.158 HD ENDBRANCH  18  23ENDBRANCH   8  17ENDBRANCH   1   7BRANCH   4  26ATOM     26  C   UNL     1      35.373  46.141  13.734 -0.39 -0.08    +0.120 C  BRANCH  26  27ATOM     27  N   UNL     1      36.444  47.126  13.514 -0.30 +0.17    -0.299 NA ATOM     28  C   UNL     1      36.617  47.963  14.708 -0.36 -0.08    +0.087 C  ATOM     29  C   UNL     1      37.687  46.507  13.031 -0.45 -0.03    +0.087 C  ATOM     30  C   UNL     1      37.814  48.899  14.566 -0.44 -0.03    +0.041 C  ATOM     31  C   UNL     1      38.870  46.649  13.985 -0.39 -0.01    +0.041 C  ATOM     32  C   UNL     1      39.118  48.123  14.322 -0.49 -0.03    +0.095 C  BRANCH  32  33ATOM     33  N   UNL     1      40.091  48.262  15.400 -0.31 +0.08    -0.291 N  ATOM     34  C   UNL     1      40.996  49.275  15.559 -0.38 -0.05    +0.295 A  ATOM     35  C   UNL     1      40.239  47.422  16.485 -0.46 -0.01    +0.072 A  ATOM     36  N   UNL     1      41.723  49.158  16.636 -0.91 -0.03    -0.195 NA ATOM     37  C   UNL     1      39.597  46.245  16.891 -0.43 -0.01    +0.029 A  ATOM     38  C   UNL     1      41.263  48.010  17.233 -0.42 -0.01    +0.092 A  ATOM     39  C   UNL     1      40.024  45.662  18.089 -0.45 -0.00    +0.002 A  ATOM     40  C   UNL     1      41.677  47.408  18.431 -0.49 -0.00    +0.031 A  ATOM     41  C   UNL     1      41.047  46.230  18.849 -0.49 +0.00    +0.002 A  BRANCH  34  42ATOM     42  O   UNL     1      41.139  50.295  14.738 -0.31 +0.17    -0.480 OA ATOM     43  H   UNL     1      40.370  50.843  14.984 -0.18 -0.22    +0.296 HD ENDBRANCH  34  42ENDBRANCH  32  33ENDBRANCH  26  27ENDBRANCH   4  26TORSDOF 7TERENDMDL