MODEL        9USER    Run = 9USERUSER    Estimated Free Energy of Binding    = -12.43 kcal/mol  [=(1)+(2)+(3)-(4)]USERUSER    (1) Final Intermolecular Energy     = -14.22 kcal/molUSER        vdW + Hbond + desolv Energy     = -14.01 kcal/molUSER        Electrostatic Energy            =  -0.20 kcal/molUSER        Moving Ligand-Fixed Receptor    = -14.22 kcal/molUSER        Moving Ligand-Moving Receptor   =  +0.00 kcal/molUSER    (2) Final Total Internal Energy     =  -1.40 kcal/molUSER    (3) Torsional Free Energy           =  +1.79 kcal/molUSER    (4) Unbound System's Energy         =  -1.40 kcal/molUSERUSERREMARK SMILES Oc1nc2ccccc2n1C1CCN(Cc2ccc(-c3nc4cc(F)ccc4nc3-c3ccncc3)cc2)CC1REMARK SMILES IDX 11 1 12 2 13 3 14 4 39 5 40 6 10 7 2 8 3 9 4 10 9 11 5 12REMARK SMILES IDX 8 13 6 14 7 15 1 16 15 18 16 19 17 20 38 21 18 22 37 23REMARK SMILES IDX 19 24 20 25 21 26 30 27 22 28 29 29 23 30 28 31 24 32 27 33REMARK SMILES IDX 26 34 25 35 31 36 32 37 36 38 33 39 35 40 34 41REMARK H PARENT 1 17USER                              x       y       z     vdW  Elec       q    TypeUSER                           _______ _______ _______ _____ _____    ______ ____ROOTATOM      1  C   UNL     1      30.736  40.426  18.845 -0.14 +0.00    +0.095 C  ATOM      2  C   UNL     1      30.574  40.077  17.361 -0.37 -0.00    +0.041 C  ATOM      3  C   UNL     1      30.838  41.305  16.480 -0.21 -0.03    +0.087 C  ATOM      4  N   UNL     1      31.775  42.257  17.084 -0.12 +0.11    -0.299 NA ATOM      5  C   UNL     1      32.793  41.608  17.901 -0.39 -0.02    +0.087 C  ATOM      6  C   UNL     1      32.140  40.984  19.138 -0.40 +0.00    +0.041 C  ENDROOTBRANCH   1   7ATOM      7  N   UNL     1      30.374  39.334  19.735 -0.15 -0.03    -0.291 N  ATOM      8  C   UNL     1      31.174  38.751  20.678 -0.24 +0.05    +0.295 A  ATOM      9  N   UNL     1      30.587  37.786  21.332 -0.30 -0.01    -0.195 NA ATOM     10  C   UNL     1      29.322  37.735  20.798 -0.25 +0.00    +0.092 A  ATOM     11  C   UNL     1      29.152  38.695  19.798 -0.26 +0.01    +0.072 A  ATOM     12  C   UNL     1      28.255  36.887  21.129 -0.30 -0.01    +0.031 A  ATOM     13  C   UNL     1      27.944  38.851  19.106 -0.25 +0.00    +0.029 A  ATOM     14  C   UNL     1      27.042  37.028  20.449 -0.30 -0.00    +0.002 A  ATOM     15  C   UNL     1      26.892  37.996  19.455 -0.24 -0.00    +0.002 A  BRANCH   8  16ATOM     16  O   UNL     1      32.415  39.106  20.939 -0.98 -0.28    -0.480 OA ATOM     17  H   UNL     1      32.564  38.655  21.790 +0.07 +0.11    +0.296 HD ENDBRANCH   8  16ENDBRANCH   1   7BRANCH   4  18ATOM     18  C   UNL     1      32.284  43.269  16.151 -0.31 -0.06    +0.120 C  BRANCH  18  19ATOM     19  C   UNL     1      33.665  43.826  16.429 -0.31 +0.02    -0.034 A  ATOM     20  C   UNL     1      34.814  43.104  16.079 -0.39 -0.00    +0.006 A  ATOM     21  C   UNL     1      33.825  45.079  17.034 -0.33 -0.00    +0.006 A  ATOM     22  C   UNL     1      36.090  43.621  16.333 -0.39 -0.00    +0.011 A  ATOM     23  C   UNL     1      35.102  45.595  17.284 -0.35 -0.01    +0.011 A  ATOM     24  C   UNL     1      36.259  44.882  16.925 -0.33 -0.00    +0.002 A  BRANCH  24  25ATOM     25  C   UNL     1      37.594  45.450  17.188 -0.30 -0.03    +0.097 A  ATOM     26  N   UNL     1      38.107  45.107  18.404 -0.23 +0.04    -0.244 NA ATOM     27  C   UNL     1      38.320  46.259  16.299 -0.33 -0.03    +0.097 A  ATOM     28  C   UNL     1      39.342  45.541  18.707 -0.36 -0.01    +0.092 A  ATOM     29  N   UNL     1      39.580  46.681  16.605 -0.27 +0.05    -0.244 NA ATOM     30  C   UNL     1      39.900  45.205  19.932 -0.35 +0.00    +0.069 A  ATOM     31  C   UNL     1      40.086  46.329  17.799 -0.41 -0.01    +0.090 A  ATOM     32  C   UNL     1      41.176  45.638  20.265 -0.30 +0.01    +0.125 A  ATOM     33  C   UNL     1      41.362  46.751  18.153 -0.49 -0.00    +0.033 A  ATOM     34  C   UNL     1      41.917  46.411  19.385 -0.44 +0.00    +0.041 A  ATOM     35  F   UNL     1      41.698  45.307  21.452 -0.05 -0.03    -0.207 F  BRANCH  27  36ATOM     36  C   UNL     1      37.833  46.754  14.999 -0.42 -0.00    +0.005 A  ATOM     37  C   UNL     1      37.448  48.093  14.848 -0.49 -0.02    +0.030 A  ATOM     38  C   UNL     1      37.703  45.916  13.882 -0.42 -0.01    +0.030 A  ATOM     39  C   UNL     1      36.991  48.532  13.617 -0.44 -0.06    +0.111 A  ATOM     40  C   UNL     1      37.238  46.448  12.691 -0.47 -0.04    +0.111 A  ATOM     41  N   UNL     1      36.887  47.741  12.531 -0.97 +0.09    -0.265 NA ENDBRANCH  27  36ENDBRANCH  24  25ENDBRANCH  18  19ENDBRANCH   4  18TORSDOF 6TERENDMDL