REMARK SMILES CN1CCN(c2nc3ccccc3nc2NC2=CC(=CS(N)(=O)=O)[C@H]2F)CC1
REMARK SMILES IDX 17 1 18 2 19 3 25 4 26 5 16 6 15 8 6 9 7 10 8 11 14 12 9 13
REMARK SMILES IDX 13 14 10 15 12 16 11 17 5 18 2 19 3 20 28 21 4 22 27 23 1 24
REMARK SMILES IDX 20 25 21 26 23 27 24 28 22 29
REMARK H PARENT 16 7 22 30 22 31
ROOT
ATOM      1  C   UNL     1       2.210   0.580  -1.277  1.00  0.00     0.056 C 
ATOM      2  C   UNL     1       3.104   1.263  -2.048  1.00  0.00     0.033 C 
ATOM      3  C   UNL     1       4.246   0.663  -1.427  1.00  0.00     0.006 C 
ATOM      4  C   UNL     1       3.356  -0.204  -0.560  1.00  0.00     0.244 C 
ATOM      5  F   UNL     1       3.506  -0.062   0.787  1.00  0.00    -0.235 F 
ENDROOT
BRANCH   1   6
ATOM      6  N   UNL     1       0.908   0.517  -1.125  1.00  0.00    -0.338 N 
ATOM      7  H   UNL     1       0.254   1.044  -1.707  1.00  0.00     0.168 HD
BRANCH   6   8
ATOM      8  C   UNL     1       0.176  -0.469  -0.406  1.00  0.00     0.174 A 
ATOM      9  C   UNL     1      -1.238  -0.329  -0.314  1.00  0.00     0.172 A 
ATOM     10  N   UNL     1      -1.993  -1.225   0.362  1.00  0.00    -0.225 NA
ATOM     11  C   UNL     1      -1.345  -2.250   0.940  1.00  0.00     0.091 A 
ATOM     12  N   UNL     1       0.818  -1.496   0.192  1.00  0.00    -0.225 NA
ATOM     13  C   UNL     1      -2.071  -3.203   1.647  1.00  0.00     0.031 A 
ATOM     14  C   UNL     1       0.062  -2.384   0.856  1.00  0.00     0.091 A 
ATOM     15  C   UNL     1      -1.443  -4.288   2.264  1.00  0.00     0.002 A 
ATOM     16  C   UNL     1       0.677  -3.464   1.482  1.00  0.00     0.031 A 
ATOM     17  C   UNL     1      -0.062  -4.418   2.182  1.00  0.00     0.002 A 
BRANCH   9  18
ATOM     18  N   UNL     1      -1.859   0.798  -0.937  1.00  0.00    -0.351 N 
ATOM     19  N   UNL     1      -4.371   2.398  -0.492  1.00  0.00    -0.303 NA
ATOM     20  C   UNL     1      -3.006   2.938  -0.289  1.00  0.00     0.105 C 
ATOM     21  C   UNL     1      -4.353   0.925  -0.622  1.00  0.00     0.105 C 
ATOM     22  C   UNL     1      -1.923   1.891   0.071  1.00  0.00     0.133 C 
ATOM     23  C   UNL     1      -3.184   0.444  -1.506  1.00  0.00     0.133 C 
ATOM     24  C   UNL     1      -5.309   2.821   0.552  1.00  0.00     0.105 C 
ENDBRANCH   9  18
ENDBRANCH   6   8
ENDBRANCH   1   6
BRANCH   3  25
ATOM     25  C   UNL     1       5.568   0.831  -1.530  1.00  0.00     0.129 C 
BRANCH  25  26
ATOM     26  S   UNL     1       6.604  -0.036  -0.454  1.00  0.00     0.231 S 
ATOM     27  O   UNL     1       6.189  -1.419  -0.364  1.00  0.00    -0.208 OA
ATOM     28  O   UNL     1       7.981   0.309  -0.726  1.00  0.00    -0.208 OA
BRANCH  26  29
ATOM     29  N   UNL     1       6.279   0.608   1.067  1.00  0.00    -0.225 NA
ATOM     30  H   UNL     1       5.390   0.239   1.422  1.00  0.00     0.137 HD
ATOM     31  H   UNL     1       7.051   0.403   1.699  1.00  0.00     0.137 HD
ENDBRANCH  26  29
ENDBRANCH  25  26
ENDBRANCH   3  25
TORSDOF 6
