MODEL        2USER    Run = 2USERUSER    Estimated Free Energy of Binding    =  -8.65 kcal/mol  [=(1)+(2)+(3)-(4)]USERUSER    (1) Final Intermolecular Energy     = -11.04 kcal/molUSER        vdW + Hbond + desolv Energy     = -10.89 kcal/molUSER        Electrostatic Energy            =  -0.15 kcal/molUSER        Moving Ligand-Fixed Receptor    = -11.04 kcal/molUSER        Moving Ligand-Moving Receptor   =  +0.00 kcal/molUSER    (2) Final Total Internal Energy     =  -1.65 kcal/molUSER    (3) Torsional Free Energy           =  +2.39 kcal/molUSER    (4) Unbound System's Energy         =  -1.65 kcal/molUSERUSERREMARK SMILES COc1cc(OCc2ccncc2)ccc1C(=O)NCCc1ccccc1FREMARK SMILES IDX 17 1 18 2 19 3 16 5 3 6 4 7 5 8 15 9 14 10 2 11 1 12 6 13REMARK SMILES IDX 7 14 8 15 9 16 13 17 10 18 12 19 11 20 20 21 21 22 22 23REMARK SMILES IDX 23 24 27 25 24 26 26 27 25 28 28 29REMARK H PARENT 19 4USER                              x       y       z     vdW  Elec       q    TypeUSER                           _______ _______ _______ _____ _____    ______ ____ROOTATOM      1  C   UNL     1      40.664  48.292  16.715 -0.37 -0.04    +0.255 C  ATOM      2  O   UNL     1      41.483  49.102  16.287 -1.03 -0.01    -0.269 OA ATOM      3  N   UNL     1      39.394  48.182  16.197 -0.22 +0.14    -0.352 N  ATOM      4  H   UNL     1      38.861  47.366  16.481 +0.11 -0.06    +0.163 HD ENDROOTBRANCH   1   5ATOM      5  C   UNL     1      41.029  47.386  17.855 -0.47 -0.01    +0.082 A  ATOM      6  C   UNL     1      40.298  46.245  18.247 -0.38 -0.01    +0.135 A  ATOM      7  C   UNL     1      40.743  45.483  19.345 -0.38 +0.00    +0.093 A  ATOM      8  C   UNL     1      41.903  45.834  20.041 -0.28 +0.02    +0.123 A  ATOM      9  C   UNL     1      42.197  47.722  18.559 -0.49 -0.00    +0.021 A  ATOM     10  C   UNL     1      42.627  46.954  19.640 -0.46 +0.01    +0.047 A  BRANCH   6  11ATOM     11  O   UNL     1      39.169  45.935  17.527 -0.13 +0.09    -0.496 OA ATOM     12  C   UNL     1      38.049  45.399  18.224 -0.25 -0.05    +0.278 C  ENDBRANCH   6  11BRANCH   8  13ATOM     13  O   UNL     1      42.432  45.178  21.116 -0.07 -0.13    -0.489 OA BRANCH  13  14ATOM     14  C   UNL     1      41.790  45.351  22.379 -0.14 +0.03    +0.265 C  BRANCH  14  15ATOM     15  C   UNL     1      42.136  46.718  22.910 -0.22 -0.00    -0.008 A  ATOM     16  C   UNL     1      43.438  47.219  22.821 -0.27 +0.01    +0.027 A  ATOM     17  C   UNL     1      41.160  47.512  23.521 -0.25 +0.00    +0.027 A  ATOM     18  C   UNL     1      43.703  48.477  23.343 -0.26 +0.03    +0.111 A  ATOM     19  C   UNL     1      41.523  48.756  24.011 -0.32 +0.02    +0.111 A  ATOM     20  N   UNL     1      42.776  49.255  23.939 -0.82 -0.10    -0.265 NA ENDBRANCH  14  15ENDBRANCH  13  14ENDBRANCH   8  13ENDBRANCH   1   5BRANCH   3  21ATOM     21  C   UNL     1      39.000  48.863  14.978 -0.39 -0.07    +0.121 C  BRANCH  21  22ATOM     22  C   UNL     1      37.502  48.714  14.717 -0.55 -0.05    +0.060 C  BRANCH  22  23ATOM     23  C   UNL     1      37.194  47.506  13.874 -0.53 +0.00    -0.010 A  ATOM     24  C   UNL     1      37.640  46.231  14.252 -0.42 -0.00    +0.007 A  ATOM     25  C   UNL     1      36.428  47.629  12.711 -0.56 -0.06    +0.126 A  ATOM     26  C   UNL     1      37.331  45.116  13.470 -0.45 -0.00    +0.000 A  ATOM     27  C   UNL     1      36.118  46.521  11.927 -0.62 -0.02    +0.039 A  ATOM     28  C   UNL     1      36.573  45.259  12.307 -0.55 -0.00    +0.003 A  ATOM     29  F   UNL     1      35.977  48.834  12.336 -0.15 +0.09    -0.207 F  ENDBRANCH  22  23ENDBRANCH  21  22ENDBRANCH   3  21TORSDOF 8TERENDMDL