REMARK SMILES Nc1cc(-c2nc3ccccc3nc2-c2ccc(CN3CCC(n4c(O)nc5ccccc54)CC3)cc2)ccn1
REMARK SMILES IDX 15 1 16 2 17 3 18 4 36 5 37 6 14 7 5 8 6 9 7 10 13 11 8 12
REMARK SMILES IDX 12 13 9 14 11 15 10 16 4 17 2 18 3 19 40 20 39 21 38 22 1 23
REMARK SMILES IDX 19 26 20 27 21 28 35 29 22 30 34 31 23 32 24 33 25 34 33 35
REMARK SMILES IDX 27 36 32 37 28 38 31 39 29 40 30 41 26 42
REMARK H PARENT 1 24 1 25 26 43
ROOT
ATOM      1  C   UNL     1      -3.052   0.656   1.412  1.00  0.00     0.002 A 
ATOM      2  C   UNL     1      -2.243   1.790   1.240  1.00  0.00     0.011 A 
ATOM      3  C   UNL     1      -0.862   1.728   1.444  1.00  0.00     0.006 A 
ATOM      4  C   UNL     1      -0.253   0.529   1.841  1.00  0.00    -0.034 A 
ATOM      5  C   UNL     1      -1.052  -0.605   2.021  1.00  0.00     0.006 A 
ATOM      6  C   UNL     1      -2.434  -0.541   1.811  1.00  0.00     0.011 A 
ENDROOT
BRANCH   1   7
ATOM      7  C   UNL     1      -4.508   0.740   1.214  1.00  0.00     0.097 A 
ATOM      8  C   UNL     1      -5.247  -0.053   0.322  1.00  0.00     0.097 A 
ATOM      9  N   UNL     1      -6.607   0.025   0.276  1.00  0.00    -0.244 NA
ATOM     10  C   UNL     1      -7.208   0.915   1.086  1.00  0.00     0.089 A 
ATOM     11  N   UNL     1      -5.120   1.651   2.021  1.00  0.00    -0.244 NA
ATOM     12  C   UNL     1      -8.593   1.034   1.069  1.00  0.00     0.030 A 
ATOM     13  C   UNL     1      -6.460   1.737   1.958  1.00  0.00     0.089 A 
ATOM     14  C   UNL     1      -9.254   1.947   1.893  1.00  0.00     0.002 A 
ATOM     15  C   UNL     1      -7.127   2.644   2.772  1.00  0.00     0.030 A 
ATOM     16  C   UNL     1      -8.518   2.756   2.747  1.00  0.00     0.002 A 
BRANCH   8  17
ATOM     17  C   UNL     1      -4.671  -1.010  -0.641  1.00  0.00     0.008 A 
ATOM     18  C   UNL     1      -3.087  -1.613  -2.358  1.00  0.00     0.123 A 
ATOM     19  C   UNL     1      -3.602  -0.669  -1.481  1.00  0.00     0.057 A 
ATOM     20  N   UNL     1      -3.588  -2.852  -2.474  1.00  0.00    -0.240 NA
ATOM     21  C   UNL     1      -4.639  -3.165  -1.690  1.00  0.00     0.114 A 
ATOM     22  C   UNL     1      -5.204  -2.296  -0.773  1.00  0.00     0.030 A 
BRANCH  18  23
ATOM     23  N   UNL     1      -2.023  -1.291  -3.197  1.00  0.00    -0.384 N 
ATOM     24  H   UNL     1      -1.788  -2.136  -3.712  1.00  0.00     0.158 HD
ATOM     25  H   UNL     1      -1.235  -0.932  -2.672  1.00  0.00     0.158 HD
ENDBRANCH  18  23
ENDBRANCH   8  17
ENDBRANCH   1   7
BRANCH   4  26
ATOM     26  C   UNL     1       1.234   0.483   2.123  1.00  0.00     0.120 C 
BRANCH  26  27
ATOM     27  N   UNL     1       2.057   0.864   0.964  1.00  0.00    -0.299 NA
ATOM     28  C   UNL     1       3.402   1.257   1.403  1.00  0.00     0.087 C 
ATOM     29  C   UNL     1       2.047  -0.158  -0.093  1.00  0.00     0.087 C 
ATOM     30  C   UNL     1       4.323   1.520   0.216  1.00  0.00     0.041 C 
ATOM     31  C   UNL     1       3.409  -0.791  -0.366  1.00  0.00     0.041 C 
ATOM     32  C   UNL     1       4.449   0.286  -0.692  1.00  0.00     0.095 C 
BRANCH  32  33
ATOM     33  N   UNL     1       5.795  -0.275  -0.733  1.00  0.00    -0.291 N 
ATOM     34  C   UNL     1       6.540  -0.692   0.336  1.00  0.00     0.295 A 
ATOM     35  C   UNL     1       6.541  -0.537  -1.864  1.00  0.00     0.072 A 
ATOM     36  N   UNL     1       7.701  -1.182  -0.000  1.00  0.00    -0.195 NA
ATOM     37  C   UNL     1       6.314  -0.356  -3.234  1.00  0.00     0.029 A 
ATOM     38  C   UNL     1       7.721  -1.100  -1.370  1.00  0.00     0.092 A 
ATOM     39  C   UNL     1       7.327  -0.760  -4.111  1.00  0.00     0.002 A 
ATOM     40  C   UNL     1       8.724  -1.498  -2.267  1.00  0.00     0.031 A 
ATOM     41  C   UNL     1       8.514  -1.322  -3.639  1.00  0.00     0.002 A 
BRANCH  34  42
ATOM     42  O   UNL     1       6.152  -0.636   1.594  1.00  0.00    -0.480 OA
ATOM     43  H   UNL     1       6.926  -1.021   2.046  1.00  0.00     0.296 HD
ENDBRANCH  34  42
ENDBRANCH  32  33
ENDBRANCH  26  27
ENDBRANCH   4  26
TORSDOF 7
