REMARK SMILES COc1cc(F)c(O)c(C(=O)c2ccc(C(=O)N[C@@H]3CCN(C)C[C@@H]3NC(=O)c3cnc(OC(C)C)nc3)cc2)c1
REMARK SMILES IDX 19 1 20 2 21 3 22 4 23 5 24 6 25 7 18 8 16 9 17 10 15 12
REMARK SMILES IDX 12 13 13 14 40 15 14 16 39 17 10 18 11 19 9 20 3 21 4 22
REMARK SMILES IDX 41 23 5 24 7 25 6 26 2 27 1 28 8 29 26 31 27 32 28 34 29 35
REMARK SMILES IDX 30 36 38 37 31 38 37 39 32 40 33 41 34 42 35 43 36 44
REMARK H PARENT 18 11 8 30 26 33
ROOT
ATOM      1  C   UNL     1      -0.936  -3.492   1.375  1.00  0.00     0.107 C 
ATOM      2  C   UNL     1      -0.529  -4.980   1.367  1.00  0.00     0.042 C 
ATOM      3  C   UNL     1      -1.139  -5.764   0.195  1.00  0.00     0.086 C 
ATOM      4  N   UNL     1      -1.314  -4.892  -0.968  1.00  0.00    -0.304 NA
ATOM      5  C   UNL     1      -1.651  -5.658  -2.167  1.00  0.00     0.105 C 
ATOM      6  C   UNL     1      -2.351  -3.865  -0.700  1.00  0.00     0.111 C 
ATOM      7  C   UNL     1      -2.348  -3.345   0.764  1.00  0.00     0.118 C 
ENDROOT
BRANCH   1   8
ATOM      8  N   UNL     1       0.077  -2.686   0.675  1.00  0.00    -0.347 N 
ATOM      9  C   UNL     1       0.202  -1.323   0.818  1.00  0.00     0.251 C 
ATOM     10  O   UNL     1      -0.551  -0.647   1.514  1.00  0.00    -0.269 OA
ATOM     11  H   UNL     1       0.655  -3.185   0.011  1.00  0.00     0.164 HD
BRANCH   9  12
ATOM     12  C   UNL     1       1.323  -0.681   0.085  1.00  0.00     0.039 A 
ATOM     13  C   UNL     1       3.526   0.538  -1.164  1.00  0.00     0.023 A 
ATOM     14  C   UNL     1       2.874  -0.546  -1.770  1.00  0.00     0.013 A 
ATOM     15  C   UNL     1       3.040   1.040   0.050  1.00  0.00     0.013 A 
ATOM     16  C   UNL     1       1.775  -1.152  -1.154  1.00  0.00     0.014 A 
ATOM     17  C   UNL     1       1.941   0.433   0.668  1.00  0.00     0.014 A 
BRANCH  13  18
ATOM     18  C   UNL     1       4.745   1.085  -1.824  1.00  0.00     0.196 C 
ATOM     19  O   UNL     1       5.110   0.674  -2.922  1.00  0.00    -0.288 OA
BRANCH  18  20
ATOM     20  C   UNL     1       5.599   2.055  -1.122  1.00  0.00     0.071 A 
ATOM     21  C   UNL     1       7.389   2.454   0.464  1.00  0.00     0.122 A 
ATOM     22  C   UNL     1       7.312   3.820   0.180  1.00  0.00     0.089 A 
ATOM     23  C   UNL     1       6.540   1.566  -0.200  1.00  0.00     0.062 A 
ATOM     24  C   UNL     1       6.382   4.289  -0.744  1.00  0.00     0.169 A 
ATOM     25  C   UNL     1       5.516   3.418  -1.397  1.00  0.00     0.162 A 
ATOM     26  F   UNL     1       6.316   5.603  -1.009  1.00  0.00    -0.203 F 
BRANCH  21  27
ATOM     27  O   UNL     1       8.342   2.113   1.383  1.00  0.00    -0.497 OA
ATOM     28  C   UNL     1       8.362   0.755   1.813  1.00  0.00     0.278 C 
ENDBRANCH  21  27
BRANCH  25  29
ATOM     29  O   UNL     1       4.588   3.906  -2.273  1.00  0.00    -0.504 OA
ATOM     30  H   UNL     1       4.752   4.863  -2.378  1.00  0.00     0.293 HD
ENDBRANCH  25  29
ENDBRANCH  18  20
ENDBRANCH  13  18
ENDBRANCH   9  12
ENDBRANCH   1   8
BRANCH   7  31
ATOM     31  N   UNL     1      -2.869  -1.986   0.879  1.00  0.00    -0.346 N 
ATOM     32  C   UNL     1      -4.209  -1.707   0.740  1.00  0.00     0.254 C 
ATOM     33  H   UNL     1      -2.205  -1.272   1.182  1.00  0.00     0.164 HD
ATOM     34  O   UNL     1      -5.043  -2.575   0.497  1.00  0.00    -0.269 OA
BRANCH  32  35
ATOM     35  C   UNL     1      -4.639  -0.307   0.907  1.00  0.00     0.076 A 
ATOM     36  C   UNL     1      -3.815   0.796   0.821  1.00  0.00     0.132 A 
ATOM     37  C   UNL     1      -5.969  -0.022   1.117  1.00  0.00     0.132 A 
ATOM     38  N   UNL     1      -4.251   2.073   0.945  1.00  0.00    -0.203 NA
ATOM     39  N   UNL     1      -6.459   1.229   1.263  1.00  0.00    -0.203 NA
ATOM     40  C   UNL     1      -5.569   2.225   1.160  1.00  0.00     0.316 A 
BRANCH  40  41
ATOM     41  O   UNL     1      -6.093   3.486   1.318  1.00  0.00    -0.461 OA
BRANCH  41  42
ATOM     42  C   UNL     1      -5.389   4.514   0.609  1.00  0.00     0.170 C 
ATOM     43  C   UNL     1      -5.694   4.435  -0.890  1.00  0.00     0.052 C 
ATOM     44  C   UNL     1      -5.897   5.846   1.167  1.00  0.00     0.052 C 
ENDBRANCH  41  42
ENDBRANCH  40  41
ENDBRANCH  32  35
ENDBRANCH   7  31
TORSDOF 10
