REMARK SMILES COc1cc(F)c(O)c(C(=O)c2ccc(C(=O)N[C@@H]3CCN(C)C[C@@H]3NC(=O)c3cnc(N4CCN(C)CC4)nc3)cc2)c1
REMARK SMILES IDX 16 1 17 2 18 3 15 5 12 6 13 7 43 8 14 9 42 10 10 11 11 12
REMARK SMILES IDX 9 13 3 14 4 15 44 16 5 17 7 18 6 19 2 20 1 21 8 22 19 24
REMARK SMILES IDX 20 25 25 26 21 27 24 28 22 29 23 30 26 31 27 32 28 34 29 35
REMARK SMILES IDX 30 36 41 37 31 38 40 39 32 40 33 41 34 42 39 43 35 44 38 45
REMARK SMILES IDX 36 46 37 47
REMARK H PARENT 18 4 8 23 26 33
ROOT
ATOM      1  C   UNL     1      -2.305  -2.701  -0.033  1.00  0.00     0.251 C 
ATOM      2  O   UNL     1      -2.893  -3.778  -0.027  1.00  0.00    -0.269 OA
ATOM      3  N   UNL     1      -1.120  -2.495  -0.711  1.00  0.00    -0.347 N 
ATOM      4  H   UNL     1      -0.872  -1.533  -0.937  1.00  0.00     0.164 HD
ENDROOT
BRANCH   1   5
ATOM      5  C   UNL     1      -2.901  -1.524   0.665  1.00  0.00     0.039 A 
ATOM      6  C   UNL     1      -4.148   0.650   1.928  1.00  0.00     0.023 A 
ATOM      7  C   UNL     1      -4.883  -0.505   1.642  1.00  0.00     0.013 A 
ATOM      8  C   UNL     1      -2.781   0.698   1.631  1.00  0.00     0.013 A 
ATOM      9  C   UNL     1      -4.261  -1.583   1.008  1.00  0.00     0.014 A 
ATOM     10  C   UNL     1      -2.159  -0.384   1.000  1.00  0.00     0.014 A 
BRANCH   6  11
ATOM     11  C   UNL     1      -4.771   1.818   2.594  1.00  0.00     0.196 C 
ATOM     12  O   UNL     1      -4.142   2.416   3.466  1.00  0.00    -0.288 OA
BRANCH  11  13
ATOM     13  C   UNL     1      -6.141   2.287   2.263  1.00  0.00     0.071 A 
ATOM     14  C   UNL     1      -7.991   2.510   0.691  1.00  0.00     0.122 A 
ATOM     15  C   UNL     1      -8.739   3.163   1.668  1.00  0.00     0.089 A 
ATOM     16  C   UNL     1      -6.692   2.082   0.989  1.00  0.00     0.062 A 
ATOM     17  C   UNL     1      -8.180   3.396   2.923  1.00  0.00     0.169 A 
ATOM     18  C   UNL     1      -6.886   2.977   3.226  1.00  0.00     0.162 A 
ATOM     19  F   UNL     1      -8.915   4.043   3.840  1.00  0.00    -0.203 F 
BRANCH  14  20
ATOM     20  O   UNL     1      -8.403   2.227  -0.582  1.00  0.00    -0.497 OA
ATOM     21  C   UNL     1      -9.725   2.619  -0.935  1.00  0.00     0.278 C 
ENDBRANCH  14  20
BRANCH  18  22
ATOM     22  O   UNL     1      -6.394   3.264   4.473  1.00  0.00    -0.504 OA
ATOM     23  H   UNL     1      -5.428   3.081   4.470  1.00  0.00     0.293 HD
ENDBRANCH  18  22
ENDBRANCH  11  13
ENDBRANCH   6  11
ENDBRANCH   1   5
BRANCH   3  24
ATOM     24  C   UNL     1      -0.585  -3.510  -1.617  1.00  0.00     0.107 C 
ATOM     25  C   UNL     1      -0.130  -4.796  -0.892  1.00  0.00     0.042 C 
ATOM     26  C   UNL     1       0.502  -2.959  -2.581  1.00  0.00     0.118 C 
ATOM     27  C   UNL     1       1.380  -5.026  -0.943  1.00  0.00     0.086 C 
ATOM     28  C   UNL     1       1.171  -4.175  -3.254  1.00  0.00     0.111 C 
ATOM     29  N   UNL     1       1.984  -4.940  -2.285  1.00  0.00    -0.304 NA
ATOM     30  C   UNL     1       2.298  -6.264  -2.822  1.00  0.00     0.105 C 
BRANCH  26  31
ATOM     31  N   UNL     1       1.544  -2.137  -1.937  1.00  0.00    -0.346 N 
ATOM     32  C   UNL     1       1.366  -0.836  -1.539  1.00  0.00     0.254 C 
ATOM     33  H   UNL     1       2.430  -2.616  -1.834  1.00  0.00     0.164 HD
ATOM     34  O   UNL     1       0.284  -0.263  -1.635  1.00  0.00    -0.269 OA
BRANCH  32  35
ATOM     35  C   UNL     1       2.523  -0.124  -0.962  1.00  0.00     0.076 A 
ATOM     36  C   UNL     1       3.700  -0.706  -0.562  1.00  0.00     0.130 A 
ATOM     37  C   UNL     1       2.472   1.236  -0.770  1.00  0.00     0.130 A 
ATOM     38  N   UNL     1       4.740  -0.016  -0.039  1.00  0.00    -0.221 NA
ATOM     39  N   UNL     1       3.488   1.963  -0.248  1.00  0.00    -0.221 NA
ATOM     40  C   UNL     1       4.612   1.316   0.109  1.00  0.00     0.225 A 
BRANCH  40  41
ATOM     41  N   UNL     1       5.661   2.037   0.675  1.00  0.00    -0.338 N 
ATOM     42  C   UNL     1       6.971   1.379   0.567  1.00  0.00     0.135 C 
ATOM     43  C   UNL     1       5.640   3.474   0.368  1.00  0.00     0.135 C 
ATOM     44  C   UNL     1       8.072   2.199   1.277  1.00  0.00     0.105 C 
ATOM     45  C   UNL     1       6.790   4.218   1.087  1.00  0.00     0.105 C 
ATOM     46  N   UNL     1       8.136   3.632   0.914  1.00  0.00    -0.303 NA
ATOM     47  C   UNL     1       8.639   3.823  -0.445  1.00  0.00     0.105 C 
ENDBRANCH  40  41
ENDBRANCH  32  35
ENDBRANCH  26  31
ENDBRANCH   3  24
TORSDOF 9
