REMARK SMILES COc1cc(F)c(O)c(C(=O)c2ccc(C(=O)N[C@@H]3CCN([C@@H]4CCOC4)C[C@H]3NC(=O)c3cnc(OC)nc3)cc2)c1
REMARK SMILES IDX 16 1 17 2 18 3 15 5 12 6 13 7 42 8 14 9 41 10 10 11 11 12
REMARK SMILES IDX 9 13 3 14 4 15 43 16 5 17 7 18 6 19 2 20 1 21 8 22 19 24
REMARK SMILES IDX 20 25 29 26 21 27 28 28 22 29 30 30 31 31 32 33 33 34 34 35
REMARK SMILES IDX 40 36 35 37 39 38 36 39 37 40 38 41 23 42 24 43 27 44 25 45
REMARK SMILES IDX 26 46
REMARK H PARENT 18 4 8 23 30 32
ROOT
ATOM      1  C   UNL     1       0.893  -0.989   0.404  1.00  0.00     0.251 C 
ATOM      2  O   UNL     1       0.900  -1.534   1.503  1.00  0.00    -0.269 OA
ATOM      3  N   UNL     1      -0.189  -0.989  -0.445  1.00  0.00    -0.347 N 
ATOM      4  H   UNL     1      -0.112  -0.540  -1.349  1.00  0.00     0.164 HD
ENDROOT
BRANCH   1   5
ATOM      5  C   UNL     1       2.123  -0.326  -0.112  1.00  0.00     0.039 A 
ATOM      6  C   UNL     1       4.486   0.748  -1.159  1.00  0.00     0.023 A 
ATOM      7  C   UNL     1       4.547  -0.321  -0.259  1.00  0.00     0.013 A 
ATOM      8  C   UNL     1       3.248   1.294  -1.518  1.00  0.00     0.013 A 
ATOM      9  C   UNL     1       3.367  -0.850   0.270  1.00  0.00     0.014 A 
ATOM     10  C   UNL     1       2.067   0.769  -0.984  1.00  0.00     0.014 A 
BRANCH   6  11
ATOM     11  C   UNL     1       5.705   1.261  -1.826  1.00  0.00     0.196 C 
ATOM     12  O   UNL     1       5.657   1.569  -3.017  1.00  0.00    -0.288 OA
BRANCH  11  13
ATOM     13  C   UNL     1       7.008   1.363  -1.128  1.00  0.00     0.071 A 
ATOM     14  C   UNL     1       8.316   1.843   0.858  1.00  0.00     0.122 A 
ATOM     15  C   UNL     1       9.478   1.531   0.151  1.00  0.00     0.089 A 
ATOM     16  C   UNL     1       7.075   1.756   0.219  1.00  0.00     0.062 A 
ATOM     17  C   UNL     1       9.407   1.159  -1.188  1.00  0.00     0.169 A 
ATOM     18  C   UNL     1       8.181   1.088  -1.841  1.00  0.00     0.162 A 
ATOM     19  F   UNL     1      10.541   0.867  -1.839  1.00  0.00    -0.203 F 
BRANCH  14  20
ATOM     20  O   UNL     1       8.525   2.215   2.159  1.00  0.00    -0.497 OA
ATOM     21  C   UNL     1       7.378   2.551   2.933  1.00  0.00     0.278 C 
ENDBRANCH  14  20
BRANCH  18  22
ATOM     22  O   UNL     1       8.168   0.749  -3.169  1.00  0.00    -0.504 OA
ATOM     23  H   UNL     1       7.298   1.011  -3.545  1.00  0.00     0.293 HD
ENDBRANCH  18  22
ENDBRANCH  11  13
ENDBRANCH   6  11
ENDBRANCH   1   5
BRANCH   3  24
ATOM     24  C   UNL     1      -1.462  -1.618  -0.102  1.00  0.00     0.107 C 
ATOM     25  C   UNL     1      -1.388  -3.144  -0.194  1.00  0.00     0.042 C 
ATOM     26  C   UNL     1      -2.618  -1.069  -0.993  1.00  0.00     0.118 C 
ATOM     27  C   UNL     1      -2.725  -3.783   0.215  1.00  0.00     0.087 C 
ATOM     28  C   UNL     1      -3.634  -2.176  -1.360  1.00  0.00     0.112 C 
ATOM     29  N   UNL     1      -3.908  -2.988  -0.170  1.00  0.00    -0.296 NA
BRANCH  26  30
ATOM     30  N   UNL     1      -3.303   0.026  -0.300  1.00  0.00    -0.346 N 
ATOM     31  C   UNL     1      -2.775   1.298  -0.257  1.00  0.00     0.254 C 
ATOM     32  H   UNL     1      -3.995  -0.287   0.371  1.00  0.00     0.164 HD
ATOM     33  O   UNL     1      -1.811   1.639  -0.934  1.00  0.00    -0.269 OA
BRANCH  31  34
ATOM     34  C   UNL     1      -3.426   2.280   0.636  1.00  0.00     0.076 A 
ATOM     35  C   UNL     1      -4.333   1.976   1.626  1.00  0.00     0.132 A 
ATOM     36  C   UNL     1      -3.143   3.626   0.510  1.00  0.00     0.132 A 
ATOM     37  N   UNL     1      -4.928   2.901   2.414  1.00  0.00    -0.203 NA
ATOM     38  N   UNL     1      -3.705   4.594   1.273  1.00  0.00    -0.203 NA
ATOM     39  C   UNL     1      -4.586   4.179   2.197  1.00  0.00     0.316 A 
BRANCH  39  40
ATOM     40  O   UNL     1      -5.228   5.092   3.004  1.00  0.00    -0.467 OA
ATOM     41  C   UNL     1      -4.742   6.416   2.843  1.00  0.00     0.282 C 
ENDBRANCH  39  40
ENDBRANCH  31  34
ENDBRANCH  26  30
BRANCH  29  42
ATOM     42  C   UNL     1      -5.124  -3.811  -0.222  1.00  0.00     0.084 C 
ATOM     43  C   UNL     1      -5.348  -4.677  -1.451  1.00  0.00     0.050 C 
ATOM     44  C   UNL     1      -6.451  -3.041  -0.154  1.00  0.00     0.179 C 
ATOM     45  C   UNL     1      -6.809  -5.044  -1.288  1.00  0.00     0.162 C 
ATOM     46  O   UNL     1      -7.457  -3.887  -0.739  1.00  0.00    -0.380 OA
ENDBRANCH  29  42
ENDBRANCH   3  24
TORSDOF 10
