MODEL        10USER    Run = 10USERUSER    Estimated Free Energy of Binding    = -10.92 kcal/mol  [=(1)+(2)+(3)-(4)]USERUSER    (1) Final Intermolecular Energy     = -13.60 kcal/molUSER        vdW + Hbond + desolv Energy     = -13.32 kcal/molUSER        Electrostatic Energy            =  -0.28 kcal/molUSER        Moving Ligand-Fixed Receptor    = -13.60 kcal/molUSER        Moving Ligand-Moving Receptor   =  +0.00 kcal/molUSER    (2) Final Total Internal Energy     =  -2.76 kcal/molUSER    (3) Torsional Free Energy           =  +2.68 kcal/molUSER    (4) Unbound System's Energy         =  -2.76 kcal/molUSERUSERREMARK SMILES COc1cc(F)c(O)c(C(=O)c2ccc(C(=O)N[C@@H]3CCN(C)C[C@@H]3NC(=O)c3cnc(N4CCN(C)CC4)nc3)cc2)c1REMARK SMILES IDX 16 1 17 2 18 3 15 5 12 6 13 7 43 8 14 9 42 10 10 11 11 12REMARK SMILES IDX 9 13 3 14 4 15 44 16 5 17 7 18 6 19 2 20 1 21 8 22 19 24REMARK SMILES IDX 20 25 25 26 21 27 24 28 22 29 23 30 26 31 27 32 28 34 29 35REMARK SMILES IDX 30 36 41 37 31 38 40 39 32 40 33 41 34 42 39 43 35 44 38 45REMARK SMILES IDX 36 46 37 47REMARK H PARENT 18 4 8 23 26 33USER                              x       y       z     vdW  Elec       q    TypeUSER                           _______ _______ _______ _____ _____    ______ ____ROOTATOM      1  C   UNL     1      39.581  46.232  17.857 -0.33 -0.04    +0.251 C  ATOM      2  O   UNL     1      38.685  45.465  18.195 -0.28 +0.04    -0.269 OA ATOM      3  N   UNL     1      39.534  46.977  16.695 -0.22 +0.09    -0.347 N  ATOM      4  H   UNL     1      40.129  47.803  16.645 +0.11 -0.04    +0.164 HD ENDROOTBRANCH   1   5ATOM      5  C   UNL     1      40.760  46.438  18.748 -0.44 -0.00    +0.039 A  ATOM      6  C   UNL     1      42.896  46.794  20.533 -0.38 +0.01    +0.023 A  ATOM      7  C   UNL     1      41.824  45.969  20.885 -0.34 +0.00    +0.013 A  ATOM      8  C   UNL     1      42.926  47.398  19.271 -0.53 +0.00    +0.013 A  ATOM      9  C   UNL     1      40.759  45.798  19.997 -0.39 +0.00    +0.014 A  ATOM     10  C   UNL     1      41.861  47.223  18.381 -0.52 -0.00    +0.014 A  BRANCH   6  11ATOM     11  C   UNL     1      44.042  47.007  21.449 -0.27 +0.11    +0.196 C  ATOM     12  O   UNL     1      45.120  47.375  20.984 -0.66 -0.38    -0.288 OA BRANCH  11  13ATOM     13  C   UNL     1      43.946  46.774  22.913 -0.21 +0.02    +0.071 A  ATOM     14  C   UNL     1      44.279  45.356  24.867 -0.02 +0.01    +0.122 A  ATOM     15  C   UNL     1      43.774  46.366  25.683 -0.03 +0.01    +0.089 A  ATOM     16  C   UNL     1      44.355  45.560  23.484 -0.10 +0.02    +0.062 A  ATOM     17  C   UNL     1      43.338  47.559  25.112 -0.09 +0.02    +0.169 A  ATOM     18  C   UNL     1      43.406  47.769  23.736 -0.21 +0.03    +0.162 A  ATOM     19  F   UNL     1      42.839  48.509  25.918 -0.05 -0.02    -0.203 F  BRANCH  14  20ATOM     20  O   UNL     1      44.729  44.134  25.285 +0.02 -0.02    -0.497 OA ATOM     21  C   UNL     1      44.463  43.023  24.436 -0.07 +0.00    +0.278 C  ENDBRANCH  14  20BRANCH  18  22ATOM     22  O   UNL     1      42.933  48.958  23.244 -0.80 -0.18    -0.504 OA ATOM     23  H   UNL     1      42.584  49.484  23.998 +0.12 +0.12    +0.293 HD ENDBRANCH  18  22ENDBRANCH  11  13ENDBRANCH   6  11ENDBRANCH   1   5BRANCH   3  24ATOM     24  C   UNL     1      38.320  47.028  15.882 -0.41 -0.05    +0.107 C  ATOM     25  C   UNL     1      38.228  45.883  14.849 -0.43 -0.01    +0.042 C  ATOM     26  C   UNL     1      38.069  48.422  15.243 -0.50 -0.08    +0.118 C  ATOM     27  C   UNL     1      38.323  46.357  13.400 -0.13 -0.02    +0.086 C  ATOM     28  C   UNL     1      36.947  48.248  14.199 -0.51 -0.07    +0.111 C  ATOM     29  N   UNL     1      37.416  47.462  13.039 -0.66 +0.09    -0.304 NA ATOM     30  C   UNL     1      36.275  46.989  12.254 -0.67 -0.05    +0.105 C  BRANCH  26  31ATOM     31  N   UNL     1      39.244  49.024  14.584 +0.04 +0.19    -0.346 N  ATOM     32  C   UNL     1      40.353  49.481  15.250 -0.35 -0.10    +0.254 C  ATOM     33  H   UNL     1      39.151  49.095  13.578 -0.15 -0.07    +0.164 HD ATOM     34  O   UNL     1      40.482  49.368  16.466 -0.41 +0.07    -0.269 OA BRANCH  32  35ATOM     35  C   UNL     1      41.425  50.113  14.456 -0.57 -0.02    +0.076 A  ATOM     36  C   UNL     1      42.448  50.877  14.961 -0.27 -0.02    +0.130 A  ATOM     37  C   UNL     1      41.446  49.975  13.088 +0.05 -0.04    +0.130 A  ATOM     38  N   UNL     1      43.415  51.438  14.197 -0.25 +0.06    -0.221 NA ATOM     39  N   UNL     1      42.393  50.521  12.289 -0.46 +0.09    -0.221 NA ATOM     40  C   UNL     1      43.367  51.247  12.866 -0.26 -0.10    +0.225 A  BRANCH  40  41ATOM     41  N   UNL     1      44.337  51.843  12.062 -0.22 +0.18    -0.338 N  ATOM     42  C   UNL     1      43.846  52.271  10.744 -0.47 -0.07    +0.135 C  ATOM     43  C   UNL     1      45.196  52.805  12.767 -0.29 -0.05    +0.135 C  ATOM     44  C   UNL     1      44.988  52.856   9.883 -0.35 -0.04    +0.105 C  ATOM     45  C   UNL     1      46.290  53.370  11.831 -0.19 -0.03    +0.105 C  ATOM     46  N   UNL     1      45.812  53.898  10.536 -0.05 +0.12    -0.303 NA ATOM     47  C   UNL     1      45.072  55.147  10.700 -0.12 -0.07    +0.105 C  ENDBRANCH  40  41ENDBRANCH  32  35ENDBRANCH  26  31ENDBRANCH   3  24TORSDOF 9TERENDMDL