MODEL        4USER    Run = 4USERUSER    Estimated Free Energy of Binding    =  -9.91 kcal/mol  [=(1)+(2)+(3)-(4)]USERUSER    (1) Final Intermolecular Energy     = -12.89 kcal/molUSER        vdW + Hbond + desolv Energy     = -12.71 kcal/molUSER        Electrostatic Energy            =  -0.18 kcal/molUSER        Moving Ligand-Fixed Receptor    = -12.89 kcal/molUSER        Moving Ligand-Moving Receptor   =  +0.00 kcal/molUSER    (2) Final Total Internal Energy     =  -2.98 kcal/molUSER    (3) Torsional Free Energy           =  +2.98 kcal/molUSER    (4) Unbound System's Energy         =  -2.98 kcal/molUSERUSERREMARK SMILES COc1cc(F)c(O)c(C(=O)c2ccc(C(=O)N[C@@H]3CCN(C)C[C@@H]3NC(=O)c3cnc(OC(C)C)nc3)cc2)c1REMARK SMILES IDX 19 1 20 2 21 3 22 4 23 5 24 6 25 7 18 8 16 9 17 10 15 12REMARK SMILES IDX 12 13 13 14 40 15 14 16 39 17 10 18 11 19 9 20 3 21 4 22REMARK SMILES IDX 41 23 5 24 7 25 6 26 2 27 1 28 8 29 26 31 27 32 28 34 29 35REMARK SMILES IDX 30 36 38 37 31 38 37 39 32 40 33 41 34 42 35 43 36 44REMARK H PARENT 18 11 8 30 26 33USER                              x       y       z     vdW  Elec       q    TypeUSER                           _______ _______ _______ _____ _____    ______ ____ROOTATOM      1  C   UNL     1      36.662  47.147  14.195 -0.46 -0.07    +0.107 C  ATOM      2  C   UNL     1      35.926  47.393  12.862 -0.65 -0.02    +0.042 C  ATOM      3  C   UNL     1      36.356  46.423  11.750 -0.63 -0.04    +0.086 C  ATOM      4  N   UNL     1      36.741  45.130  12.320 -0.31 +0.10    -0.304 NA ATOM      5  C   UNL     1      36.910  44.116  11.281 -0.38 -0.03    +0.105 C  ATOM      6  C   UNL     1      37.982  45.262  13.123 +0.27 -0.03    +0.111 C  ATOM      7  C   UNL     1      38.078  46.601  13.904 -0.43 -0.04    +0.118 C  ENDROOTBRANCH   1   8ATOM      8  N   UNL     1      35.869  46.253  15.054 -0.14 +0.27    -0.347 N  ATOM      9  C   UNL     1      36.118  46.061  16.394 -0.24 -0.17    +0.251 C  ATOM     10  O   UNL     1      37.055  46.589  16.987 -0.26 +0.15    -0.269 OA ATOM     11  H   UNL     1      35.149  45.717  14.587 +0.11 -0.12    +0.164 HD BRANCH   9  12ATOM     12  C   UNL     1      35.177  45.172  17.122 -0.30 -0.02    +0.039 A  ATOM     13  C   UNL     1      33.304  43.620  18.529 -0.34 -0.00    +0.023 A  ATOM     14  C   UNL     1      33.818  43.176  17.301 -0.33 -0.00    +0.013 A  ATOM     15  C   UNL     1      33.768  44.824  19.072 -0.41 -0.00    +0.013 A  ATOM     16  C   UNL     1      34.753  43.943  16.601 -0.33 -0.01    +0.014 A  ATOM     17  C   UNL     1      34.703  45.594  18.371 -0.43 -0.01    +0.014 A  BRANCH  13  18ATOM     18  C   UNL     1      32.244  42.802  19.185 -0.29 -0.01    +0.196 C  ATOM     19  O   UNL     1      32.038  42.884  20.393 -0.45 -0.06    -0.288 OA BRANCH  18  20ATOM     20  C   UNL     1      31.495  41.799  18.415 -0.24 -0.01    +0.071 A  ATOM     21  C   UNL     1      30.070  41.302  16.517 -0.28 -0.03    +0.122 A  ATOM     22  C   UNL     1      30.124  39.947  16.854 -0.22 +0.00    +0.089 A  ATOM     23  C   UNL     1      30.770  42.230  17.291 -0.24 -0.02    +0.062 A  ATOM     24  C   UNL     1      30.856  39.533  17.964 -0.28 +0.01    +0.169 A  ATOM     25  C   UNL     1      31.540  40.449  18.756 -0.27 -0.00    +0.162 A  ATOM     26  F   UNL     1      30.901  38.229  18.279 -0.12 -0.06    -0.203 F  BRANCH  21  27ATOM     27  O   UNL     1      29.326  41.586  15.406 -0.13 +0.24    -0.497 OA ATOM     28  C   UNL     1      28.033  40.993  15.331 -0.22 -0.10    +0.278 C  ENDBRANCH  21  27BRANCH  25  29ATOM     29  O   UNL     1      32.222  40.023  19.861 -0.73 -0.17    -0.504 OA ATOM     30  H   UNL     1      32.184  40.736  20.527 +0.24 +0.10    +0.293 HD ENDBRANCH  25  29ENDBRANCH  18  20ENDBRANCH  13  18ENDBRANCH   9  12ENDBRANCH   1   8BRANCH   7  31ATOM     31  N   UNL     1      38.894  46.491  15.110 -0.17 +0.10    -0.346 N  ATOM     32  C   UNL     1      39.933  47.356  15.366 -0.37 -0.05    +0.254 C  ATOM     33  H   UNL     1      38.581  45.814  15.807 +0.11 -0.05    +0.164 HD ATOM     34  O   UNL     1      40.247  48.259  14.594 -0.39 +0.06    -0.269 OA BRANCH  32  35ATOM     35  C   UNL     1      40.675  47.182  16.627 -0.44 -0.01    +0.076 A  ATOM     36  C   UNL     1      40.730  46.019  17.367 -0.36 -0.01    +0.132 A  ATOM     37  C   UNL     1      41.432  48.220  17.122 -0.35 -0.01    +0.132 A  ATOM     38  N   UNL     1      41.452  45.884  18.505 -0.33 -0.01    -0.203 NA ATOM     39  N   UNL     1      42.160  48.148  18.259 -0.48 -0.00    -0.203 NA ATOM     40  C   UNL     1      42.141  46.970  18.896 -0.30 +0.02    +0.316 A  BRANCH  40  41ATOM     41  O   UNL     1      42.884  46.926  20.051 -0.22 -0.12    -0.461 OA BRANCH  41  42ATOM     42  C   UNL     1      42.125  46.648  21.235 -0.27 +0.03    +0.170 C  ATOM     43  C   UNL     1      42.120  45.144  21.526 -0.30 +0.01    +0.052 C  ATOM     44  C   UNL     1      42.823  47.390  22.378 -0.34 +0.01    +0.052 C  ENDBRANCH  41  42ENDBRANCH  40  41ENDBRANCH  32  35ENDBRANCH   7  31TORSDOF 10TERENDMDL