REMARK SMILES COc1cc(F)c(O)c(C(=O)c2ccc(C(=O)N[C@@H]3CCN(C)C[C@@H]3NC(=O)c3cnc(N4CCOCC4)nc3)cc2)c1
REMARK SMILES IDX 12 1 13 2 14 3 15 4 41 5 42 6 10 7 11 8 9 9 3 10 4 11 43 12
REMARK SMILES IDX 5 13 7 14 6 15 2 16 1 17 8 18 16 20 18 21 17 22 19 24 20 25
REMARK SMILES IDX 25 26 21 27 24 28 22 29 23 30 26 31 27 32 28 34 29 35 30 36
REMARK SMILES IDX 40 37 31 38 39 39 32 40 33 41 34 42 38 43 35 44 37 45 36 46
REMARK H PARENT 8 19 18 23 26 33
ROOT
ATOM      1  C   UNL     1       3.173  -1.376  -1.889  1.00  0.00     0.023 A 
ATOM      2  C   UNL     1       3.306  -0.343  -0.951  1.00  0.00     0.013 A 
ATOM      3  C   UNL     1       2.475   0.783  -1.017  1.00  0.00     0.014 A 
ATOM      4  C   UNL     1       1.492   0.875  -2.012  1.00  0.00     0.039 A 
ATOM      5  C   UNL     1       1.369  -0.150  -2.957  1.00  0.00     0.014 A 
ATOM      6  C   UNL     1       2.198  -1.275  -2.889  1.00  0.00     0.013 A 
ENDROOT
BRANCH   1   7
ATOM      7  C   UNL     1       3.999  -2.613  -1.823  1.00  0.00     0.196 C 
ATOM      8  O   UNL     1       3.568  -3.663  -2.295  1.00  0.00    -0.288 OA
BRANCH   7   9
ATOM      9  C   UNL     1       5.311  -2.632  -1.141  1.00  0.00     0.071 A 
ATOM     10  C   UNL     1       6.738  -3.665   0.539  1.00  0.00     0.122 A 
ATOM     11  C   UNL     1       7.748  -2.753   0.235  1.00  0.00     0.089 A 
ATOM     12  C   UNL     1       5.526  -3.610  -0.160  1.00  0.00     0.062 A 
ATOM     13  C   UNL     1       7.531  -1.800  -0.759  1.00  0.00     0.169 A 
ATOM     14  C   UNL     1       6.326  -1.732  -1.452  1.00  0.00     0.162 A 
ATOM     15  F   UNL     1       8.495  -0.916  -1.049  1.00  0.00    -0.203 F 
BRANCH  10  16
ATOM     16  O   UNL     1       6.804  -4.649   1.486  1.00  0.00    -0.497 OA
ATOM     17  C   UNL     1       7.975  -4.698   2.292  1.00  0.00     0.278 C 
ENDBRANCH  10  16
BRANCH  14  18
ATOM     18  O   UNL     1       6.160  -0.792  -2.432  1.00  0.00    -0.504 OA
ATOM     19  H   UNL     1       6.971  -0.255  -2.478  1.00  0.00     0.293 HD
ENDBRANCH  14  18
ENDBRANCH   7   9
ENDBRANCH   1   7
BRANCH   4  20
ATOM     20  C   UNL     1       0.569   2.041  -2.107  1.00  0.00     0.251 C 
ATOM     21  N   UNL     1       0.252   2.671  -0.921  1.00  0.00    -0.347 N 
ATOM     22  O   UNL     1       0.098   2.367  -3.190  1.00  0.00    -0.269 OA
ATOM     23  H   UNL     1       0.650   2.337  -0.053  1.00  0.00     0.164 HD
BRANCH  21  24
ATOM     24  C   UNL     1      -0.552   3.905  -0.871  1.00  0.00     0.107 C 
ATOM     25  C   UNL     1       0.349   5.136  -0.771  1.00  0.00     0.042 C 
ATOM     26  C   UNL     1      -1.578   3.860   0.286  1.00  0.00     0.118 C 
ATOM     27  C   UNL     1       0.980   5.270   0.613  1.00  0.00     0.086 C 
ATOM     28  C   UNL     1      -0.880   4.088   1.648  1.00  0.00     0.111 C 
ATOM     29  N   UNL     1      -0.049   5.303   1.655  1.00  0.00    -0.304 NA
ATOM     30  C   UNL     1       0.548   5.512   2.974  1.00  0.00     0.105 C 
BRANCH  26  31
ATOM     31  N   UNL     1      -2.314   2.591   0.236  1.00  0.00    -0.346 N 
ATOM     32  C   UNL     1      -3.459   2.361   0.962  1.00  0.00     0.254 C 
ATOM     33  H   UNL     1      -1.893   1.861  -0.323  1.00  0.00     0.164 HD
ATOM     34  O   UNL     1      -3.930   3.160   1.761  1.00  0.00    -0.269 OA
BRANCH  32  35
ATOM     35  C   UNL     1      -4.108   1.056   0.771  1.00  0.00     0.076 A 
ATOM     36  C   UNL     1      -4.059   0.331  -0.393  1.00  0.00     0.130 A 
ATOM     37  C   UNL     1      -4.846   0.481   1.776  1.00  0.00     0.130 A 
ATOM     38  N   UNL     1      -4.645  -0.877  -0.545  1.00  0.00    -0.221 NA
ATOM     39  N   UNL     1      -5.442  -0.729   1.666  1.00  0.00    -0.221 NA
ATOM     40  C   UNL     1      -5.324  -1.388   0.498  1.00  0.00     0.225 A 
BRANCH  40  41
ATOM     41  N   UNL     1      -5.886  -2.641   0.366  1.00  0.00    -0.336 N 
ATOM     42  C   UNL     1      -6.029  -3.158  -0.997  1.00  0.00     0.148 C 
ATOM     43  C   UNL     1      -6.888  -3.086   1.338  1.00  0.00     0.148 C 
ATOM     44  C   UNL     1      -6.718  -4.529  -0.961  1.00  0.00     0.181 C 
ATOM     45  C   UNL     1      -8.191  -3.467   0.614  1.00  0.00     0.181 C 
ATOM     46  O   UNL     1      -8.030  -4.496  -0.376  1.00  0.00    -0.378 OA
ENDBRANCH  40  41
ENDBRANCH  32  35
ENDBRANCH  26  31
ENDBRANCH  21  24
ENDBRANCH   4  20
TORSDOF 9
