MODEL        5USER    Run = 5USERUSER    Estimated Free Energy of Binding    = -10.44 kcal/mol  [=(1)+(2)+(3)-(4)]USERUSER    (1) Final Intermolecular Energy     = -13.42 kcal/molUSER        vdW + Hbond + desolv Energy     = -13.43 kcal/molUSER        Electrostatic Energy            =  +0.00 kcal/molUSER        Moving Ligand-Fixed Receptor    = -13.42 kcal/molUSER        Moving Ligand-Moving Receptor   =  +0.00 kcal/molUSER    (2) Final Total Internal Energy     =  -2.79 kcal/molUSER    (3) Torsional Free Energy           =  +2.98 kcal/molUSER    (4) Unbound System's Energy         =  -2.79 kcal/molUSERUSERREMARK SMILES COc1cc(F)c(O)c(C(=O)c2ccc(C(=O)N[C@@H]3CCN([C@@H]4CCOC4)C[C@H]3NC(=O)c3cnc(OC)nc3)cc2)c1REMARK SMILES IDX 16 1 17 2 18 3 15 5 12 6 13 7 42 8 14 9 41 10 10 11 11 12REMARK SMILES IDX 9 13 3 14 4 15 43 16 5 17 7 18 6 19 2 20 1 21 8 22 19 24REMARK SMILES IDX 20 25 29 26 21 27 28 28 22 29 30 30 31 31 32 33 33 34 34 35REMARK SMILES IDX 40 36 35 37 39 38 36 39 37 40 38 41 23 42 24 43 27 44 25 45REMARK SMILES IDX 26 46REMARK H PARENT 18 4 8 23 30 32USER                              x       y       z     vdW  Elec       q    TypeUSER                           _______ _______ _______ _____ _____    ______ ____ROOTATOM      1  C   UNL     1      39.147  45.198  20.492 -0.26 +0.00    +0.251 C  ATOM      2  O   UNL     1      40.053  45.481  21.269 -0.22 -0.01    -0.269 OA ATOM      3  N   UNL     1      38.156  44.286  20.770 -0.15 -0.00    -0.347 N  ATOM      4  H   UNL     1      37.455  44.084  20.069 +0.10 -0.01    +0.164 HD ENDROOTBRANCH   1   5ATOM      5  C   UNL     1      39.106  45.807  19.134 -0.34 -0.00    +0.039 A  ATOM      6  C   UNL     1      39.195  46.857  16.540 -0.43 -0.01    +0.023 A  ATOM      7  C   UNL     1      40.252  47.096  17.424 -0.49 -0.00    +0.013 A  ATOM      8  C   UNL     1      38.085  46.113  16.959 -0.38 -0.00    +0.013 A  ATOM      9  C   UNL     1      40.202  46.580  18.721 -0.37 -0.00    +0.014 A  ATOM     10  C   UNL     1      38.031  45.601  18.259 -0.34 -0.00    +0.014 A  BRANCH   6  11ATOM     11  C   UNL     1      39.263  47.291  15.126 -0.40 -0.06    +0.196 C  ATOM     12  O   UNL     1      40.156  48.061  14.773 -0.35 +0.06    -0.288 OA BRANCH  11  13ATOM     13  C   UNL     1      38.254  46.881  14.121 -0.41 -0.02    +0.071 A  ATOM     14  C   UNL     1      37.148  45.168  12.806 -0.38 -0.04    +0.122 A  ATOM     15  C   UNL     1      36.337  46.150  12.235 -0.56 -0.04    +0.089 A  ATOM     16  C   UNL     1      38.108  45.532  13.756 -0.27 -0.02    +0.062 A  ATOM     17  C   UNL     1      36.498  47.486  12.588 -0.53 -0.07    +0.169 A  ATOM     18  C   UNL     1      37.463  47.864  13.516 -0.41 -0.06    +0.162 A  ATOM     19  F   UNL     1      35.705  48.405  12.020 -0.17 +0.12    -0.203 F  BRANCH  14  20ATOM     20  O   UNL     1      36.903  43.898  12.358 -0.14 +0.15    -0.497 OA ATOM     21  C   UNL     1      37.265  43.600  11.013 -0.33 -0.08    +0.278 C  ENDBRANCH  14  20BRANCH  18  22ATOM     22  O   UNL     1      37.604  49.197  13.804 -0.17 +0.28    -0.504 OA ATOM     23  H   UNL     1      38.493  49.334  14.200 -0.27 -0.21    +0.293 HD ENDBRANCH  18  22ENDBRANCH  11  13ENDBRANCH   6  11ENDBRANCH   1   5BRANCH   3  24ATOM     24  C   UNL     1      38.068  43.580  22.046 -0.34 +0.01    +0.107 C  ATOM     25  C   UNL     1      37.251  42.291  21.930 -0.50 +0.00    +0.042 C  ATOM     26  C   UNL     1      37.482  44.503  23.159 -0.29 +0.01    +0.118 C  ATOM     27  C   UNL     1      37.211  41.545  23.274 -0.28 +0.01    +0.087 C  ATOM     28  C   UNL     1      36.559  43.722  24.124 -0.05 +0.02    +0.112 C  ATOM     29  N   UNL     1      37.185  42.437  24.450 -0.21 -0.01    -0.296 NA BRANCH  26  30ATOM     30  N   UNL     1      38.574  45.129  23.911 -0.10 -0.03    -0.346 N  ATOM     31  C   UNL     1      38.330  46.005  24.945 -0.19 +0.02    +0.254 C  ATOM     32  H   UNL     1      39.465  45.108  23.428 +0.08 +0.01    +0.164 HD ATOM     33  O   UNL     1      37.213  46.178  25.419 -0.83 -0.02    -0.269 OA BRANCH  31  34ATOM     34  C   UNL     1      39.483  46.744  25.503 -0.17 +0.00    +0.076 A  ATOM     35  C   UNL     1      39.981  46.595  26.778 -0.11 +0.01    +0.132 A  ATOM     36  C   UNL     1      40.151  47.673  24.731 -0.21 +0.01    +0.132 A  ATOM     37  N   UNL     1      41.027  47.302  27.267 -0.44 -0.02    -0.203 NA ATOM     38  N   UNL     1      41.205  48.405  25.166 -0.20 -0.03    -0.203 NA ATOM     39  C   UNL     1      41.593  48.185  26.432 -0.10 +0.03    +0.316 A  BRANCH  39  40ATOM     40  O   UNL     1      42.639  48.899  26.972 -0.08 -0.01    -0.467 OA ATOM     41  C   UNL     1      42.697  48.817  28.388 -0.11 +0.01    +0.282 C  ENDBRANCH  39  40ENDBRANCH  31  34ENDBRANCH  26  30BRANCH  29  42ATOM     42  C   UNL     1      36.662  41.753  25.640 -0.38 -0.01    +0.084 C  ATOM     43  C   UNL     1      35.589  42.458  26.455 -0.49 -0.01    +0.050 C  ATOM     44  C   UNL     1      37.696  41.427  26.728 -0.35 -0.03    +0.179 C  ATOM     45  C   UNL     1      35.603  41.638  27.729 -0.52 -0.06    +0.162 C  ATOM     46  O   UNL     1      36.973  41.279  27.963 -0.32 +0.12    -0.380 OA ENDBRANCH  29  42ENDBRANCH   3  24TORSDOF 10TERENDMDL