MODEL        2USER    Run = 2USERUSER    Estimated Free Energy of Binding    =  -8.96 kcal/mol  [=(1)+(2)+(3)-(4)]USERUSER    (1) Final Intermolecular Energy     = -11.64 kcal/molUSER        vdW + Hbond + desolv Energy     = -11.50 kcal/molUSER        Electrostatic Energy            =  -0.14 kcal/molUSER        Moving Ligand-Fixed Receptor    = -11.64 kcal/molUSER        Moving Ligand-Moving Receptor   =  +0.00 kcal/molUSER    (2) Final Total Internal Energy     =  -3.00 kcal/molUSER    (3) Torsional Free Energy           =  +2.68 kcal/molUSER    (4) Unbound System's Energy         =  -3.00 kcal/molUSERUSERREMARK SMILES COc1cc(F)c(O)c(C(=O)c2ccc(C(=O)N[C@@H]3CCN(C)C[C@@H]3NC(=O)c3cnc(N4CCOCC4)nc3)cc2)c1REMARK SMILES IDX 12 1 13 2 14 3 15 4 41 5 42 6 10 7 11 8 9 9 3 10 4 11 43 12REMARK SMILES IDX 5 13 7 14 6 15 2 16 1 17 8 18 16 20 18 21 17 22 19 24 20 25REMARK SMILES IDX 25 26 21 27 24 28 22 29 23 30 26 31 27 32 28 34 29 35 30 36REMARK SMILES IDX 40 37 31 38 39 39 32 40 33 41 34 42 38 43 35 44 37 45 36 46REMARK H PARENT 8 19 18 23 26 33USER                              x       y       z     vdW  Elec       q    TypeUSER                           _______ _______ _______ _____ _____    ______ ____ROOTATOM      1  C   UNL     1      41.852  46.108  22.411 -0.22 +0.00    +0.023 A  ATOM      2  C   UNL     1      41.395  47.093  23.297 -0.23 +0.00    +0.013 A  ATOM      3  C   UNL     1      40.936  46.739  24.573 -0.16 +0.00    +0.014 A  ATOM      4  C   UNL     1      40.948  45.397  24.977 -0.08 +0.00    +0.039 A  ATOM      5  C   UNL     1      41.390  44.412  24.087 -0.12 +0.00    +0.014 A  ATOM      6  C   UNL     1      41.850  44.767  22.814 -0.18 +0.00    +0.013 A  ENDROOTBRANCH   1   7ATOM      7  C   UNL     1      42.397  46.447  21.068 -0.29 +0.04    +0.196 C  ATOM      8  O   UNL     1      43.573  46.786  20.952 -0.32 -0.14    -0.288 OA BRANCH   7   9ATOM      9  C   UNL     1      41.539  46.450  19.863 -0.34 +0.01    +0.071 A  ATOM     10  C   UNL     1      39.567  45.567  18.743 -0.35 -0.01    +0.122 A  ATOM     11  C   UNL     1      39.852  46.356  17.629 -0.41 -0.01    +0.089 A  ATOM     12  C   UNL     1      40.405  45.627  19.863 -0.36 +0.00    +0.062 A  ATOM     13  C   UNL     1      40.970  47.188  17.650 -0.39 -0.02    +0.169 A  ATOM     14  C   UNL     1      41.814  47.247  18.755 -0.39 +0.00    +0.162 A  ATOM     15  F   UNL     1      41.253  47.942  16.579 -0.16 +0.02    -0.203 F  BRANCH  10  16ATOM     16  O   UNL     1      38.514  44.704  18.867 -0.11 +0.05    -0.497 OA ATOM     17  C   UNL     1      38.097  44.372  20.185 -0.24 -0.01    +0.278 C  ENDBRANCH  10  16BRANCH  14  18ATOM     18  O   UNL     1      42.891  48.090  18.741 -0.30 -0.01    -0.504 OA ATOM     19  H   UNL     1      43.032  48.417  19.648 -0.36 -0.05    +0.293 HD ENDBRANCH  14  18ENDBRANCH   7   9ENDBRANCH   1   7BRANCH   4  20ATOM     20  C   UNL     1      40.493  44.975  26.332 -0.07 +0.01    +0.251 C  ATOM     21  N   UNL     1      39.183  44.556  26.437 -0.04 +0.01    -0.347 N  ATOM     22  O   UNL     1      41.254  45.053  27.289 -0.16 -0.02    -0.269 OA ATOM     23  H   UNL     1      38.593  44.541  25.615 +0.08 +0.00    +0.164 HD BRANCH  21  24ATOM     24  C   UNL     1      38.627  44.000  27.683 -0.22 -0.01    +0.107 C  ATOM     25  C   UNL     1      38.756  42.477  27.703 -0.36 -0.00    +0.042 C  ATOM     26  C   UNL     1      37.160  44.445  27.892 -0.36 -0.02    +0.118 C  ATOM     27  C   UNL     1      37.771  41.808  26.747 -0.39 -0.01    +0.086 C  ATOM     28  C   UNL     1      36.211  43.666  26.951 -0.41 -0.02    +0.111 C  ATOM     29  N   UNL     1      36.395  42.209  27.051 -0.22 +0.07    -0.304 NA ATOM     30  C   UNL     1      35.444  41.508  26.189 -0.46 -0.03    +0.105 C  BRANCH  26  31ATOM     31  N   UNL     1      37.062  45.899  27.712 -0.18 +0.07    -0.346 N  ATOM     32  C   UNL     1      36.921  46.493  26.480 -0.20 -0.04    +0.254 C  ATOM     33  H   UNL     1      37.167  46.453  28.552 +0.02 -0.04    +0.164 HD ATOM     34  O   UNL     1      36.931  45.877  25.423 -0.84 -0.02    -0.269 OA BRANCH  32  35ATOM     35  C   UNL     1      36.790  47.957  26.467 -0.35 -0.01    +0.076 A  ATOM     36  C   UNL     1      36.889  48.732  25.339 -0.38 +0.00    +0.130 A  ATOM     37  C   UNL     1      36.577  48.657  27.629 -0.26 -0.01    +0.130 A  ATOM     38  N   UNL     1      36.746  50.076  25.342 -0.29 -0.00    -0.221 NA ATOM     39  N   UNL     1      36.421  50.001  27.673 -0.16 -0.01    -0.221 NA ATOM     40  C   UNL     1      36.507  50.685  26.517 -0.19 +0.03    +0.225 A  BRANCH  40  41ATOM     41  N   UNL     1      36.314  52.051  26.522 -0.12 -0.09    -0.336 N  ATOM     42  C   UNL     1      36.811  52.782  27.689 -0.19 +0.08    +0.148 C  ATOM     43  C   UNL     1      35.135  52.613  25.857 -0.19 +0.02    +0.148 C  ATOM     44  C   UNL     1      36.464  54.271  27.554 -0.20 +0.10    +0.181 C  ATOM     45  C   UNL     1      34.316  53.450  26.855 -0.25 +0.03    +0.181 C  ATOM     46  O   UNL     1      35.053  54.525  27.459 -0.12 -0.10    -0.378 OA ENDBRANCH  40  41ENDBRANCH  32  35ENDBRANCH  26  31ENDBRANCH  21  24ENDBRANCH   4  20TORSDOF 9TERENDMDL