REMARK SMILES Oc1nc2ccccc2n1[C@H]1CCN(Cc2ccc(-c3nc4cc(F)ccc4nc3-c3ccncc3)cc2)C[C@@H]1N1CCOCC1
REMARK SMILES IDX 11 1 12 2 13 3 14 4 39 5 40 6 10 7 2 8 3 9 4 10 9 11 5 12
REMARK SMILES IDX 8 13 6 14 7 15 1 16 41 18 42 19 46 20 43 21 45 22 44 23
REMARK SMILES IDX 15 24 16 25 17 26 38 27 18 28 37 29 19 30 20 31 21 32 30 33
REMARK SMILES IDX 22 34 29 35 23 36 28 37 24 38 27 39 26 40 25 41 31 42 32 43
REMARK SMILES IDX 36 44 33 45 35 46 34 47
REMARK H PARENT 1 17
ROOT
ATOM      1  C   UNL     1      -3.458   0.301  -0.207  1.00  0.00     0.112 C 
ATOM      2  C   UNL     1      -2.281   0.801  -1.056  1.00  0.00     0.043 C 
ATOM      3  C   UNL     1      -1.361  -0.347  -1.480  1.00  0.00     0.087 C 
ATOM      4  N   UNL     1      -1.212  -1.379  -0.458  1.00  0.00    -0.297 NA
ATOM      5  C   UNL     1      -1.482  -0.909   0.901  1.00  0.00     0.106 C 
ATOM      6  C   UNL     1      -2.968  -0.461   1.073  1.00  0.00     0.094 C 
ENDROOT
BRANCH   1   7
ATOM      7  N   UNL     1      -4.367   1.409   0.082  1.00  0.00    -0.289 N 
ATOM      8  C   UNL     1      -4.104   2.490   0.879  1.00  0.00     0.295 A 
ATOM      9  N   UNL     1      -5.098   3.330   0.958  1.00  0.00    -0.195 NA
ATOM     10  C   UNL     1      -6.066   2.789   0.146  1.00  0.00     0.092 A 
ATOM     11  C   UNL     1      -5.635   1.593  -0.432  1.00  0.00     0.072 A 
ATOM     12  C   UNL     1      -7.346   3.278  -0.152  1.00  0.00     0.031 A 
ATOM     13  C   UNL     1      -6.434   0.855  -1.316  1.00  0.00     0.029 A 
ATOM     14  C   UNL     1      -8.162   2.549  -1.026  1.00  0.00     0.002 A 
ATOM     15  C   UNL     1      -7.709   1.361  -1.600  1.00  0.00     0.002 A 
BRANCH   8  16
ATOM     16  O   UNL     1      -2.972   2.697   1.519  1.00  0.00    -0.480 OA
ATOM     17  H   UNL     1      -3.154   3.547   1.961  1.00  0.00     0.296 HD
ENDBRANCH   8  16
ENDBRANCH   1   7
BRANCH   6  18
ATOM     18  N   UNL     1      -3.824  -1.570   1.586  1.00  0.00    -0.292 NA
ATOM     19  C   UNL     1      -3.926  -2.747   0.701  1.00  0.00     0.113 C 
ATOM     20  C   UNL     1      -5.178  -1.133   1.975  1.00  0.00     0.113 C 
ATOM     21  C   UNL     1      -4.762  -3.860   1.359  1.00  0.00     0.175 C 
ATOM     22  C   UNL     1      -5.965  -2.286   2.618  1.00  0.00     0.175 C 
ATOM     23  O   UNL     1      -6.071  -3.396   1.714  1.00  0.00    -0.379 OA
ENDBRANCH   6  18
BRANCH   4  24
ATOM     24  C   UNL     1      -0.010  -2.209  -0.599  1.00  0.00     0.120 C 
BRANCH  24  25
ATOM     25  C   UNL     1       1.322  -1.499  -0.479  1.00  0.00    -0.034 A 
ATOM     26  C   UNL     1       2.081  -1.220  -1.625  1.00  0.00     0.006 A 
ATOM     27  C   UNL     1       1.821  -1.094   0.765  1.00  0.00     0.006 A 
ATOM     28  C   UNL     1       3.293  -0.530  -1.531  1.00  0.00     0.011 A 
ATOM     29  C   UNL     1       3.024  -0.387   0.856  1.00  0.00     0.011 A 
ATOM     30  C   UNL     1       3.784  -0.098  -0.288  1.00  0.00     0.002 A 
BRANCH  30  31
ATOM     31  C   UNL     1       5.034   0.669  -0.180  1.00  0.00     0.097 A 
ATOM     32  N   UNL     1       4.869   1.908   0.362  1.00  0.00    -0.244 NA
ATOM     33  C   UNL     1       6.290   0.228  -0.620  1.00  0.00     0.097 A 
ATOM     34  C   UNL     1       5.944   2.708   0.425  1.00  0.00     0.092 A 
ATOM     35  N   UNL     1       7.376   1.050  -0.569  1.00  0.00    -0.244 NA
ATOM     36  C   UNL     1       5.812   3.980   0.959  1.00  0.00     0.069 A 
ATOM     37  C   UNL     1       7.204   2.279  -0.052  1.00  0.00     0.090 A 
ATOM     38  C   UNL     1       6.906   4.831   1.027  1.00  0.00     0.125 A 
ATOM     39  C   UNL     1       8.286   3.150   0.023  1.00  0.00     0.033 A 
ATOM     40  C   UNL     1       8.146   4.430   0.560  1.00  0.00     0.041 A 
ATOM     41  F   UNL     1       6.759   6.057   1.543  1.00  0.00    -0.207 F 
BRANCH  33  42
ATOM     42  C   UNL     1       6.585  -1.122  -1.135  1.00  0.00     0.005 A 
ATOM     43  C   UNL     1       6.186  -2.280  -0.452  1.00  0.00     0.030 A 
ATOM     44  C   UNL     1       7.317  -1.290  -2.319  1.00  0.00     0.030 A 
ATOM     45  C   UNL     1       6.498  -3.522  -0.985  1.00  0.00     0.111 A 
ATOM     46  C   UNL     1       7.586  -2.573  -2.772  1.00  0.00     0.111 A 
ATOM     47  N   UNL     1       7.184  -3.693  -2.135  1.00  0.00    -0.265 NA
ENDBRANCH  33  42
ENDBRANCH  30  31
ENDBRANCH  24  25
ENDBRANCH   4  24
TORSDOF 7
