MODEL        10USER    Run = 10USERUSER    Estimated Free Energy of Binding    = -13.00 kcal/mol  [=(1)+(2)+(3)-(4)]USERUSER    (1) Final Intermolecular Energy     = -15.39 kcal/molUSER        vdW + Hbond + desolv Energy     = -15.33 kcal/molUSER        Electrostatic Energy            =  -0.06 kcal/molUSER        Moving Ligand-Fixed Receptor    = -15.39 kcal/molUSER        Moving Ligand-Moving Receptor   =  +0.00 kcal/molUSER    (2) Final Total Internal Energy     =  -2.07 kcal/molUSER    (3) Torsional Free Energy           =  +2.39 kcal/molUSER    (4) Unbound System's Energy         =  -2.07 kcal/molUSERUSERREMARK SMILES NS(=O)(=O)c1cc(-c2nc3ccccc3nc2-c2ccncc2)ccc1CN1CCC(n2c(O)nc3ccccc32)CC1REMARK SMILES IDX 27 1 26 2 5 3 6 4 7 5 25 6 24 7 2 8 3 9 4 10 1 11 8 14 9 15REMARK SMILES IDX 17 16 10 17 16 18 11 19 15 20 12 21 14 22 13 23 18 24 19 25REMARK SMILES IDX 23 26 20 27 22 28 21 29 28 30 29 31 43 32 30 33 42 34 31 35REMARK SMILES IDX 32 36 33 37 41 38 35 39 40 40 36 41 39 42 37 43 38 44 34 45REMARK H PARENT 1 12 1 13 34 46USER                              x       y       z     vdW  Elec       q    TypeUSER                           _______ _______ _______ _____ _____    ______ ____ROOTATOM      1  C   UNL     1      39.348  43.929  21.339 -0.21 +0.00    +0.121 C  ENDROOTBRANCH   1   2ATOM      2  C   UNL     1      38.673  44.407  22.609 -0.30 -0.00    -0.014 A  ATOM      3  C   UNL     1      37.634  43.704  23.245 -0.29 +0.01    +0.087 A  ATOM      4  C   UNL     1      37.084  44.183  24.447 -0.29 +0.00    +0.032 A  ATOM      5  C   UNL     1      37.534  45.376  25.038 -0.30 +0.00    +0.004 A  ATOM      6  C   UNL     1      39.129  45.595  23.204 -0.29 +0.00    +0.007 A  ATOM      7  C   UNL     1      38.575  46.066  24.399 -0.28 +0.00    +0.011 A  BRANCH   3   8ATOM      8  S   UNL     1      36.970  42.208  22.550 -0.52 +0.02    +0.238 S  ATOM      9  O   UNL     1      38.051  41.336  22.157 -0.34 -0.03    -0.207 OA ATOM     10  O   UNL     1      35.836  42.515  21.707 -0.34 -0.02    -0.207 OA BRANCH   8  11ATOM     11  N   UNL     1      36.256  41.435  23.872 -0.28 +0.01    -0.225 NA ATOM     12  H   UNL     1      35.616  42.092  24.322 +0.10 +0.01    +0.137 HD ATOM     13  H   UNL     1      36.998  41.105  24.491 +0.01 -0.02    +0.137 HD ENDBRANCH   8  11ENDBRANCH   3   8BRANCH   5  14ATOM     14  C   UNL     1      36.942  45.848  26.304 -0.24 -0.01    +0.097 A  ATOM     15  N   UNL     1      36.906  47.206  26.416 -0.31 +0.03    -0.244 NA ATOM     16  C   UNL     1      36.429  45.026  27.319 -0.27 -0.02    +0.097 A  ATOM     17  C   UNL     1      36.333  47.728  27.514 -0.26 -0.02    +0.089 A  ATOM     18  N   UNL     1      35.837  45.561  28.425 -0.30 +0.06    -0.244 NA ATOM     19  C   UNL     1      36.267  49.109  27.663 -0.31 -0.00    +0.030 A  ATOM     20  C   UNL     1      35.791  46.902  28.523 -0.31 -0.02    +0.089 A  ATOM     21  C   UNL     1      35.675  49.690  28.786 -0.24 +0.00    +0.002 A  ATOM     22  C   UNL     1      35.205  47.490  29.637 -0.32 -0.01    +0.030 A  ATOM     23  C   UNL     1      35.142  48.878  29.777 -0.28 -0.00    +0.002 A  BRANCH  16  24ATOM     24  C   UNL     1      36.481  43.554  27.335 -0.42 -0.00    +0.005 A  ATOM     25  C   UNL     1      37.683  42.851  27.493 -0.34 -0.00    +0.030 A  ATOM     26  C   UNL     1      35.303  42.803  27.221 -0.53 -0.01    +0.030 A  ATOM     27  C   UNL     1      37.658  41.465  27.494 -0.39 -0.02    +0.111 A  ATOM     28  C   UNL     1      35.378  41.421  27.235 -0.53 -0.04    +0.111 A  ATOM     29  N   UNL     1      36.533  40.735  27.357 -0.34 +0.09    -0.265 NA ENDBRANCH  16  24ENDBRANCH   5  14ENDBRANCH   1   2BRANCH   1  30ATOM     30  N   UNL     1      39.301  44.928  20.268 -0.19 +0.00    -0.299 NA ATOM     31  C   UNL     1      38.355  44.615  19.201 -0.37 -0.01    +0.087 C  ATOM     32  C   UNL     1      40.647  45.234  19.765 -0.41 +0.00    +0.087 C  ATOM     33  C   UNL     1      38.120  45.868  18.354 -0.31 -0.01    +0.041 C  ATOM     34  C   UNL     1      40.667  45.777  18.334 -0.51 -0.00    +0.041 C  ATOM     35  C   UNL     1      39.425  46.623  18.041 -0.37 -0.02    +0.095 C  BRANCH  35  36ATOM     36  N   UNL     1      39.446  47.173  16.689 -0.26 +0.08    -0.291 N  ATOM     37  C   UNL     1      40.399  48.026  16.199 -0.31 -0.06    +0.295 A  ATOM     38  C   UNL     1      38.553  46.942  15.663 -0.38 -0.03    +0.072 A  ATOM     39  N   UNL     1      40.194  48.374  14.958 -0.39 +0.05    -0.195 NA ATOM     40  C   UNL     1      37.391  46.167  15.545 -0.36 -0.01    +0.029 A  ATOM     41  C   UNL     1      39.047  47.708  14.604 -0.43 -0.03    +0.092 A  ATOM     42  C   UNL     1      36.726  46.185  14.312 -0.42 -0.00    +0.002 A  ATOM     43  C   UNL     1      38.364  47.714  13.377 -0.33 -0.01    +0.031 A  ATOM     44  C   UNL     1      37.202  46.947  13.245 -0.56 -0.00    +0.002 A  BRANCH  37  45ATOM     45  O   UNL     1      41.435  48.469  16.881 -0.69 +0.01    -0.480 OA ATOM     46  H   UNL     1      42.071  47.741  16.759 -0.31 -0.05    +0.296 HD ENDBRANCH  37  45ENDBRANCH  35  36ENDBRANCH   1  30TORSDOF 8TERENDMDL