MODEL        7USER    Run = 7USERUSER    Estimated Free Energy of Binding    = -12.99 kcal/mol  [=(1)+(2)+(3)-(4)]USERUSER    (1) Final Intermolecular Energy     = -15.07 kcal/molUSER        vdW + Hbond + desolv Energy     = -14.94 kcal/molUSER        Electrostatic Energy            =  -0.14 kcal/molUSER        Moving Ligand-Fixed Receptor    = -15.07 kcal/molUSER        Moving Ligand-Moving Receptor   =  +0.00 kcal/molUSER    (2) Final Total Internal Energy     =  -2.10 kcal/molUSER    (3) Torsional Free Energy           =  +2.09 kcal/molUSER    (4) Unbound System's Energy         =  -2.10 kcal/molUSERUSERREMARK SMILES Oc1nc2ccccc2n1[C@H]1CCN(Cc2ccc(-c3nc4cc(F)ccc4nc3-c3ccncc3)cc2)C[C@@H]1N1CCOCC1REMARK SMILES IDX 11 1 12 2 13 3 14 4 39 5 40 6 10 7 2 8 3 9 4 10 9 11 5 12REMARK SMILES IDX 8 13 6 14 7 15 1 16 41 18 42 19 46 20 43 21 45 22 44 23REMARK SMILES IDX 15 24 16 25 17 26 38 27 18 28 37 29 19 30 20 31 21 32 30 33REMARK SMILES IDX 22 34 29 35 23 36 28 37 24 38 27 39 26 40 25 41 31 42 32 43REMARK SMILES IDX 36 44 33 45 35 46 34 47REMARK H PARENT 1 17USER                              x       y       z     vdW  Elec       q    TypeUSER                           _______ _______ _______ _____ _____    ______ ____ROOTATOM      1  C   UNL     1      37.664  45.363  17.399 -0.35 -0.03    +0.112 C  ATOM      2  C   UNL     1      37.032  44.170  18.127 -0.34 -0.01    +0.043 C  ATOM      3  C   UNL     1      37.475  44.100  19.591 -0.35 -0.01    +0.087 C  ATOM      4  N   UNL     1      38.864  44.501  19.797 -0.18 +0.01    -0.297 NA ATOM      5  C   UNL     1      39.701  44.366  18.605 -0.35 -0.00    +0.106 C  ATOM      6  C   UNL     1      39.231  45.315  17.457 -0.34 -0.01    +0.094 C  ENDROOTBRANCH   1   7ATOM      7  N   UNL     1      37.131  45.456  16.041 -0.15 +0.12    -0.289 N  ATOM      8  C   UNL     1      36.594  44.433  15.307 -0.17 -0.11    +0.295 A  ATOM      9  N   UNL     1      36.192  44.801  14.123 -0.23 +0.08    -0.195 NA ATOM     10  C   UNL     1      36.451  46.150  14.079 -0.37 -0.05    +0.092 A  ATOM     11  C   UNL     1      37.025  46.597  15.271 -0.34 -0.04    +0.072 A  ATOM     12  C   UNL     1      36.210  47.064  13.043 -0.59 -0.02    +0.031 A  ATOM     13  C   UNL     1      37.366  47.939  15.483 -0.42 -0.02    +0.029 A  ATOM     14  C   UNL     1      36.554  48.408  13.234 -0.51 -0.00    +0.002 A  ATOM     15  C   UNL     1      37.118  48.836  14.436 -0.50 -0.00    +0.002 A  BRANCH   8  16ATOM     16  O   UNL     1      36.479  43.188  15.720 -0.19 +0.16    -0.480 OA ATOM     17  H   UNL     1      35.632  42.928  15.313 +0.19 -0.11    +0.296 HD ENDBRANCH   8  16ENDBRANCH   1   7BRANCH   6  18ATOM     18  N   UNL     1      39.961  46.615  17.481 -0.27 +0.05    -0.292 NA ATOM     19  C   UNL     1      40.200  47.228  16.159 -0.48 -0.02    +0.113 C  ATOM     20  C   UNL     1      41.231  46.561  18.230 -0.49 -0.00    +0.113 C  ATOM     21  C   UNL     1      40.884  48.599  16.303 -0.49 -0.03    +0.175 C  ATOM     22  C   UNL     1      41.869  47.955  18.334 -0.30 -0.00    +0.175 C  ATOM     23  O   UNL     1      42.116  48.500  17.029 -0.34 -0.07    -0.379 OA ENDBRANCH   6  18BRANCH   4  24ATOM     24  C   UNL     1      39.467  44.001  21.038 -0.21 +0.00    +0.120 C  BRANCH  24  25ATOM     25  C   UNL     1      38.878  44.517  22.334 -0.29 -0.00    -0.034 A  ATOM     26  C   UNL     1      39.369  45.697  22.913 -0.29 +0.00    +0.006 A  ATOM     27  C   UNL     1      37.830  43.846  22.975 -0.34 +0.00    +0.006 A  ATOM     28  C   UNL     1      38.808  46.205  24.088 -0.29 +0.00    +0.011 A  ATOM     29  C   UNL     1      37.257  44.366  24.140 -0.31 +0.00    +0.011 A  ATOM     30  C   UNL     1      37.739  45.550  24.720 -0.28 +0.00    +0.002 A  BRANCH  30  31ATOM     31  C   UNL     1      37.109  46.098  25.931 -0.26 -0.00    +0.097 A  ATOM     32  N   UNL     1      36.919  47.446  25.884 -0.55 +0.01    -0.244 NA ATOM     33  C   UNL     1      36.761  45.353  27.066 -0.26 -0.02    +0.097 A  ATOM     34  C   UNL     1      36.423  48.044  26.978 -0.29 -0.01    +0.092 A  ATOM     35  N   UNL     1      36.273  45.966  28.181 -0.26 +0.06    -0.244 NA ATOM     36  C   UNL     1      36.227  49.415  26.972 -0.32 -0.00    +0.069 A  ATOM     37  C   UNL     1      36.106  47.299  28.137 -0.27 -0.02    +0.090 A  ATOM     38  C   UNL     1      35.724  50.059  28.093 -0.18 +0.01    +0.125 A  ATOM     39  C   UNL     1      35.606  47.966  29.251 -0.33 -0.01    +0.033 A  ATOM     40  C   UNL     1      35.414  49.347  29.239 -0.24 -0.00    +0.041 A  ATOM     41  F   UNL     1      35.545  51.385  28.070 -0.04 -0.03    -0.207 F  BRANCH  33  42ATOM     42  C   UNL     1      36.845  43.885  27.178 -0.38 -0.00    +0.005 A  ATOM     43  C   UNL     1      38.069  43.222  27.345 -0.29 -0.00    +0.030 A  ATOM     44  C   UNL     1      35.690  43.095  27.081 -0.48 -0.01    +0.030 A  ATOM     45  C   UNL     1      38.083  41.838  27.439 -0.34 -0.01    +0.111 A  ATOM     46  C   UNL     1      35.804  41.716  27.181 -0.49 -0.04    +0.111 A  ATOM     47  N   UNL     1      36.975  41.071  27.367 -0.33 +0.07    -0.265 NA ENDBRANCH  33  42ENDBRANCH  30  31ENDBRANCH  24  25ENDBRANCH   4  24TORSDOF 7TERENDMDL