REMARK SMILES NS(=O)(=O)c1cc(-c2nc3ccccc3nc2-c2ccncc2)ccc1CN1CCC(n2c(O)nc3ccccc32)CC1
REMARK SMILES IDX 27 1 26 2 5 3 6 4 7 5 25 6 24 7 2 8 3 9 4 10 1 11 8 14 9 15
REMARK SMILES IDX 17 16 10 17 16 18 11 19 15 20 12 21 14 22 13 23 18 24 19 25
REMARK SMILES IDX 23 26 20 27 22 28 21 29 28 30 29 31 43 32 30 33 42 34 31 35
REMARK SMILES IDX 32 36 33 37 41 38 35 39 40 40 36 41 39 42 37 43 38 44 34 45
REMARK H PARENT 1 12 1 13 34 46
ROOT
ATOM      1  C   UNL     1       0.900  -2.232   0.644  1.00  0.00     0.121 C 
ENDROOT
BRANCH   1   2
ATOM      2  C   UNL     1      -0.419  -1.515   0.437  1.00  0.00    -0.014 A 
ATOM      3  C   UNL     1      -0.911  -0.531   1.314  1.00  0.00     0.087 A 
ATOM      4  C   UNL     1      -2.123   0.126   1.036  1.00  0.00     0.032 A 
ATOM      5  C   UNL     1      -2.885  -0.187  -0.103  1.00  0.00     0.004 A 
ATOM      6  C   UNL     1      -1.177  -1.822  -0.706  1.00  0.00     0.007 A 
ATOM      7  C   UNL     1      -2.382  -1.165  -0.973  1.00  0.00     0.011 A 
BRANCH   3   8
ATOM      8  S   UNL     1      -0.038  -0.099   2.801  1.00  0.00     0.238 S 
ATOM      9  O   UNL     1       0.815   1.038   2.548  1.00  0.00    -0.207 OA
ATOM     10  O   UNL     1       0.397  -1.296   3.485  1.00  0.00    -0.207 OA
BRANCH   8  11
ATOM     11  N   UNL     1      -1.250   0.494   3.818  1.00  0.00    -0.225 NA
ATOM     12  H   UNL     1      -1.038   1.469   4.038  1.00  0.00     0.137 HD
ATOM     13  H   UNL     1      -1.300  -0.105   4.643  1.00  0.00     0.137 HD
ENDBRANCH   8  11
ENDBRANCH   3   8
BRANCH   5  14
ATOM     14  C   UNL     1      -4.148   0.527  -0.371  1.00  0.00     0.097 A 
ATOM     15  N   UNL     1      -4.032   1.883  -0.299  1.00  0.00    -0.244 NA
ATOM     16  C   UNL     1      -5.372  -0.077  -0.697  1.00  0.00     0.097 A 
ATOM     17  C   UNL     1      -5.121   2.620  -0.583  1.00  0.00     0.089 A 
ATOM     18  N   UNL     1      -6.469   0.675  -0.997  1.00  0.00    -0.244 NA
ATOM     19  C   UNL     1      -5.043   4.007  -0.531  1.00  0.00     0.030 A 
ATOM     20  C   UNL     1      -6.345   2.013  -0.938  1.00  0.00     0.089 A 
ATOM     21  C   UNL     1      -6.149   4.807  -0.824  1.00  0.00     0.002 A 
ATOM     22  C   UNL     1      -7.440   2.818  -1.227  1.00  0.00     0.030 A 
ATOM     23  C   UNL     1      -7.353   4.210  -1.173  1.00  0.00     0.002 A 
BRANCH  16  24
ATOM     24  C   UNL     1      -5.626  -1.528  -0.732  1.00  0.00     0.005 A 
ATOM     25  C   UNL     1      -5.298  -2.369   0.339  1.00  0.00     0.030 A 
ATOM     26  C   UNL     1      -6.243  -2.111  -1.847  1.00  0.00     0.030 A 
ATOM     27  C   UNL     1      -5.562  -3.726   0.235  1.00  0.00     0.111 A 
ATOM     28  C   UNL     1      -6.469  -3.477  -1.858  1.00  0.00     0.111 A 
ATOM     29  N   UNL     1      -6.130  -4.300  -0.844  1.00  0.00    -0.265 NA
ENDBRANCH  16  24
ENDBRANCH   5  14
ENDBRANCH   1   2
BRANCH   1  30
ATOM     30  N   UNL     1       2.037  -1.310   0.707  1.00  0.00    -0.299 NA
ATOM     31  C   UNL     1       2.358  -0.671  -0.566  1.00  0.00     0.087 C 
ATOM     32  C   UNL     1       3.203  -1.943   1.337  1.00  0.00     0.087 C 
ATOM     33  C   UNL     1       3.288   0.517  -0.312  1.00  0.00     0.041 C 
ATOM     34  C   UNL     1       4.542  -1.317   0.937  1.00  0.00     0.041 C 
ATOM     35  C   UNL     1       4.404   0.189   0.697  1.00  0.00     0.095 C 
BRANCH  35  36
ATOM     36  N   UNL     1       5.680   0.804   0.346  1.00  0.00    -0.291 N 
ATOM     37  C   UNL     1       6.362   1.704   1.120  1.00  0.00     0.295 A 
ATOM     38  C   UNL     1       6.439   0.599  -0.789  1.00  0.00     0.072 A 
ATOM     39  N   UNL     1       7.482   2.106   0.583  1.00  0.00    -0.195 NA
ATOM     40  C   UNL     1       6.281  -0.200  -1.930  1.00  0.00     0.029 A 
ATOM     41  C   UNL     1       7.549   1.428  -0.609  1.00  0.00     0.092 A 
ATOM     42  C   UNL     1       7.286  -0.140  -2.903  1.00  0.00     0.002 A 
ATOM     43  C   UNL     1       8.545   1.475  -1.598  1.00  0.00     0.031 A 
ATOM     44  C   UNL     1       8.400   0.684  -2.743  1.00  0.00     0.002 A 
BRANCH  37  45
ATOM     45  O   UNL     1       5.962   2.141   2.296  1.00  0.00    -0.480 OA
ATOM     46  H   UNL     1       6.677   2.762   2.524  1.00  0.00     0.296 HD
ENDBRANCH  37  45
ENDBRANCH  35  36
ENDBRANCH   1  30
TORSDOF 8
