REMARK SMILES Nc1nccc(-c2ccc(C(=O)CN3CCC(Nc4nc5ccccc5[nH]4)CC3)cc2)n1
REMARK SMILES IDX 11 1 12 2 10 3 7 4 8 5 31 6 9 7 30 8 6 9 2 10 3 11 32 12
REMARK SMILES IDX 4 13 5 14 1 15 13 18 14 19 15 20 29 21 16 22 28 23 17 24
REMARK SMILES IDX 18 25 19 27 20 28 27 29 21 30 26 31 22 32 25 33 23 34 24 35
REMARK H PARENT 1 16 1 17 18 26 27 36
ROOT
ATOM      1  C   UNL     1       1.921  -1.896  -1.388  1.00  0.00     0.176 C 
ATOM      2  O   UNL     1       1.919  -3.123  -1.495  1.00  0.00    -0.293 OA
ENDROOT
BRANCH   1   3
ATOM      3  C   UNL     1       3.111  -1.219  -0.792  1.00  0.00     0.019 A 
ATOM      4  C   UNL     1       5.444  -0.018   0.292  1.00  0.00     0.000 A 
ATOM      5  C   UNL     1       4.224   0.679   0.233  1.00  0.00     0.011 A 
ATOM      6  C   UNL     1       5.464  -1.334  -0.203  1.00  0.00     0.011 A 
ATOM      7  C   UNL     1       3.070   0.089  -0.304  1.00  0.00     0.012 A 
ATOM      8  C   UNL     1       4.313  -1.932  -0.729  1.00  0.00     0.012 A 
BRANCH   4   9
ATOM      9  C   UNL     1       6.668   0.594   0.841  1.00  0.00     0.076 A 
ATOM     10  C   UNL     1       8.941   0.845   0.639  1.00  0.00     0.220 A 
ATOM     11  N   UNL     1       9.025   1.656   1.696  1.00  0.00    -0.222 NA
ATOM     12  N   UNL     1       7.811   0.307   0.177  1.00  0.00    -0.213 NA
ATOM     13  C   UNL     1       7.877   1.907   2.348  1.00  0.00     0.117 A 
ATOM     14  C   UNL     1       6.660   1.403   1.961  1.00  0.00     0.049 A 
BRANCH  10  15
ATOM     15  N   UNL     1      10.100   0.594  -0.063  1.00  0.00    -0.368 N 
ATOM     16  H   UNL     1      10.761   1.342   0.099  1.00  0.00     0.159 HD
ATOM     17  H   UNL     1       9.876   0.368  -1.021  1.00  0.00     0.159 HD
ENDBRANCH  10  15
ENDBRANCH   4   9
ENDBRANCH   1   3
BRANCH   1  18
ATOM     18  C   UNL     1       0.751  -1.059  -1.895  1.00  0.00     0.165 C 
BRANCH  18  19
ATOM     19  N   UNL     1      -0.145  -0.619  -0.807  1.00  0.00    -0.296 NA
ATOM     20  C   UNL     1      -0.808  -1.737  -0.113  1.00  0.00     0.087 C 
ATOM     21  C   UNL     1      -1.092   0.386  -1.321  1.00  0.00     0.087 C 
ATOM     22  C   UNL     1      -2.201  -2.051  -0.649  1.00  0.00     0.040 C 
ATOM     23  C   UNL     1      -2.361   0.485  -0.480  1.00  0.00     0.040 C 
ATOM     24  C   UNL     1      -3.139  -0.838  -0.534  1.00  0.00     0.084 C 
BRANCH  24  25
ATOM     25  N   UNL     1      -3.978  -0.982   0.658  1.00  0.00    -0.353 N 
ATOM     26  H   UNL     1      -3.433  -0.970   1.521  1.00  0.00     0.163 HD
BRANCH  25  27
ATOM     27  C   UNL     1      -5.128  -0.290   0.794  1.00  0.00     0.201 A 
ATOM     28  N   UNL     1      -5.552   0.301   1.883  1.00  0.00    -0.213 NA
ATOM     29  N   UNL     1      -6.044  -0.182  -0.218  1.00  0.00    -0.324 N 
ATOM     30  C   UNL     1      -6.777   0.832   1.558  1.00  0.00     0.091 A 
ATOM     31  C   UNL     1      -7.109   0.549   0.239  1.00  0.00     0.067 A 
ATOM     32  C   UNL     1      -7.673   1.571   2.345  1.00  0.00     0.030 A 
ATOM     33  C   UNL     1      -8.300   0.961  -0.361  1.00  0.00     0.028 A 
ATOM     34  C   UNL     1      -8.878   1.996   1.770  1.00  0.00     0.002 A 
ATOM     35  C   UNL     1      -9.182   1.696   0.440  1.00  0.00     0.002 A 
ATOM     36  H   UNL     1      -5.963  -0.611  -1.124  1.00  0.00     0.170 HD
ENDBRANCH  25  27
ENDBRANCH  24  25
ENDBRANCH  18  19
ENDBRANCH   1  18
TORSDOF 7
