REMARK SMILES Cc1ccc2nc(NC3CCN(CC(=O)c4ccc(-c5ccnc(N)n5)cc4)CC3)oc2c1
REMARK SMILES IDX 13 1 12 2 9 3 10 4 30 5 11 6 29 7 8 8 7 10 2 11 3 12 33 13
REMARK SMILES IDX 4 14 32 15 5 16 31 17 6 18 1 19 14 20 15 21 16 22 17 23
REMARK SMILES IDX 28 24 18 25 27 26 19 27 20 28 21 29 26 30 22 31 24 32 23 33
REMARK SMILES IDX 25 34
REMARK H PARENT 8 9 25 35 25 36
ROOT
ATOM      1  C   UNL     1      -0.915   1.233  -0.163  1.00  0.00     0.165 C 
ENDROOT
BRANCH   1   2
ATOM      2  N   UNL     1      -0.430  -0.135   0.114  1.00  0.00    -0.296 NA
ATOM      3  C   UNL     1       2.458  -0.070   0.770  1.00  0.00     0.086 C 
ATOM      4  C   UNL     1       1.395   0.377   1.776  1.00  0.00     0.040 C 
ATOM      5  C   UNL     1       1.952   0.133  -0.660  1.00  0.00     0.040 C 
ATOM      6  C   UNL     1       0.060  -0.311   1.493  1.00  0.00     0.087 C 
ATOM      7  C   UNL     1       0.597  -0.549  -0.855  1.00  0.00     0.087 C 
BRANCH   3   8
ATOM      8  N   UNL     1       3.678   0.690   0.997  1.00  0.00    -0.337 N 
ATOM      9  H   UNL     1       3.587   1.698   1.042  1.00  0.00     0.165 HD
BRANCH   8  10
ATOM     10  C   UNL     1       4.848   0.216   0.542  1.00  0.00     0.295 A 
ATOM     11  C   UNL     1       9.118  -0.083  -0.736  1.00  0.00    -0.047 A 
ATOM     12  C   UNL     1       8.699  -1.401  -0.994  1.00  0.00     0.006 A 
ATOM     13  C   UNL     1       8.211   0.867  -0.232  1.00  0.00     0.053 A 
ATOM     14  C   UNL     1       7.383  -1.819  -0.737  1.00  0.00     0.033 A 
ATOM     15  C   UNL     1       6.920   0.411   0.008  1.00  0.00     0.157 A 
ATOM     16  C   UNL     1       6.482  -0.881  -0.222  1.00  0.00     0.111 A 
ATOM     17  O   UNL     1       5.866   1.125   0.496  1.00  0.00    -0.424 OA
ATOM     18  N   UNL     1       5.158  -0.990   0.118  1.00  0.00    -0.194 NA
ATOM     19  C   UNL     1      10.528   0.329  -1.055  1.00  0.00     0.044 C 
ENDBRANCH   8  10
ENDBRANCH   3   8
ENDBRANCH   1   2
BRANCH   1  20
ATOM     20  C   UNL     1      -2.124   1.588   0.696  1.00  0.00     0.176 C 
ATOM     21  O   UNL     1      -2.016   2.366   1.646  1.00  0.00    -0.293 OA
BRANCH  20  22
ATOM     22  C   UNL     1      -3.463   1.002   0.377  1.00  0.00     0.019 A 
ATOM     23  C   UNL     1      -4.581   1.482   1.067  1.00  0.00     0.012 A 
ATOM     24  C   UNL     1      -3.643  -0.000  -0.580  1.00  0.00     0.012 A 
ATOM     25  C   UNL     1      -5.856   0.970   0.801  1.00  0.00     0.011 A 
ATOM     26  C   UNL     1      -4.923  -0.512  -0.840  1.00  0.00     0.011 A 
ATOM     27  C   UNL     1      -6.057  -0.043  -0.153  1.00  0.00     0.000 A 
BRANCH  27  28
ATOM     28  C   UNL     1      -7.412  -0.575  -0.414  1.00  0.00     0.076 A 
ATOM     29  C   UNL     1      -7.647  -1.889  -0.772  1.00  0.00     0.049 A 
ATOM     30  N   UNL     1      -8.425   0.309  -0.268  1.00  0.00    -0.213 NA
ATOM     31  C   UNL     1      -8.961  -2.236  -0.974  1.00  0.00     0.117 A 
ATOM     32  C   UNL     1      -9.664  -0.125  -0.510  1.00  0.00     0.220 A 
ATOM     33  N   UNL     1      -9.983  -1.375  -0.845  1.00  0.00    -0.222 NA
BRANCH  32  34
ATOM     34  N   UNL     1     -10.697   0.776  -0.355  1.00  0.00    -0.368 N 
ATOM     35  H   UNL     1     -10.415   1.514   0.273  1.00  0.00     0.159 HD
ATOM     36  H   UNL     1     -11.551   0.281  -0.143  1.00  0.00     0.159 HD
ENDBRANCH  32  34
ENDBRANCH  27  28
ENDBRANCH  20  22
ENDBRANCH   1  20
TORSDOF 7
