MODEL        10USER    Run = 10USERUSER    Estimated Free Energy of Binding    = -10.02 kcal/mol  [=(1)+(2)+(3)-(4)]USERUSER    (1) Final Intermolecular Energy     = -12.11 kcal/molUSER        vdW + Hbond + desolv Energy     = -11.91 kcal/molUSER        Electrostatic Energy            =  -0.20 kcal/molUSER        Moving Ligand-Fixed Receptor    = -12.11 kcal/molUSER        Moving Ligand-Moving Receptor   =  +0.00 kcal/molUSER    (2) Final Total Internal Energy     =  -1.92 kcal/molUSER    (3) Torsional Free Energy           =  +2.09 kcal/molUSER    (4) Unbound System's Energy         =  -1.92 kcal/molUSERUSERREMARK SMILES Cc1ccc2nc(NC3CCN(CC(=O)c4ccc(-c5ccnc(N)n5)cc4)CC3)oc2c1REMARK SMILES IDX 13 1 12 2 9 3 10 4 30 5 11 6 29 7 8 8 7 10 2 11 3 12 33 13REMARK SMILES IDX 4 14 32 15 5 16 31 17 6 18 1 19 14 20 15 21 16 22 17 23REMARK SMILES IDX 28 24 18 25 27 26 19 27 20 28 21 29 26 30 22 31 24 32 23 33REMARK SMILES IDX 25 34REMARK H PARENT 8 9 25 35 25 36USER                              x       y       z     vdW  Elec       q    TypeUSER                           _______ _______ _______ _____ _____    ______ ____ROOTATOM      1  C   UNL     1      34.001  44.657  19.085 -0.36 -0.05    +0.165 C  ENDROOTBRANCH   1   2ATOM      2  N   UNL     1      33.286  43.786  18.130 -0.11 +0.08    -0.296 NA ATOM      3  C   UNL     1      35.036  43.168  15.821 -0.29 -0.04    +0.086 C  ATOM      4  C   UNL     1      35.230  42.492  17.180 -0.46 -0.01    +0.040 C  ATOM      5  C   UNL     1      34.399  44.547  16.002 -0.35 -0.02    +0.040 C  ATOM      6  C   UNL     1      33.918  42.464  17.962 -0.39 -0.02    +0.087 C  ATOM      7  C   UNL     1      33.114  44.444  16.825 -0.31 -0.04    +0.087 C  BRANCH   3   8ATOM      8  N   UNL     1      36.326  43.280  15.156 -0.15 +0.11    -0.337 N  ATOM      9  H   UNL     1      36.947  42.483  15.227 +0.11 -0.05    +0.165 HD BRANCH   8  10ATOM     10  C   UNL     1      36.909  44.484  15.041 -0.14 -0.11    +0.295 A  ATOM     11  C   UNL     1      39.651  47.963  15.611 -0.50 +0.01    -0.047 A  ATOM     12  C   UNL     1      38.791  48.495  14.633 -0.52 -0.00    +0.006 A  ATOM     13  C   UNL     1      39.448  46.663  16.107 -0.42 -0.01    +0.053 A  ATOM     14  C   UNL     1      37.726  47.748  14.104 -0.50 -0.01    +0.033 A  ATOM     15  C   UNL     1      38.383  45.959  15.556 -0.27 -0.05    +0.157 A  ATOM     16  C   UNL     1      37.530  46.449  14.584 -0.33 -0.05    +0.111 A  ATOM     17  O   UNL     1      37.982  44.691  15.859 -0.09 +0.12    -0.424 OA ATOM     18  N   UNL     1      36.591  45.500  14.268 -0.26 +0.09    -0.194 NA ATOM     19  C   UNL     1      40.760  48.810  16.172 -0.62 -0.01    +0.044 C  ENDBRANCH   8  10ENDBRANCH   3   8ENDBRANCH   1   2BRANCH   1  20ATOM     20  C   UNL     1      35.011  43.873  19.917 -0.33 -0.02    +0.176 C  ATOM     21  O   UNL     1      34.676  42.848  20.515 -0.52 -0.03    -0.293 OA BRANCH  20  22ATOM     22  C   UNL     1      36.430  44.339  20.000 -0.36 -0.00    +0.019 A  ATOM     23  C   UNL     1      37.086  44.261  21.233 -0.37 +0.00    +0.012 A  ATOM     24  C   UNL     1      37.127  44.845  18.900 -0.31 -0.00    +0.012 A  ATOM     25  C   UNL     1      38.415  44.679  21.361 -0.36 +0.00    +0.011 A  ATOM     26  C   UNL     1      38.458  45.266  19.034 -0.36 -0.00    +0.011 A  ATOM     27  C   UNL     1      39.131  45.197  20.268 -0.37 -0.00    +0.000 A  BRANCH  27  28ATOM     28  C   UNL     1      40.533  45.640  20.426 -0.31 +0.00    +0.076 A  ATOM     29  C   UNL     1      41.344  45.211  21.460 -0.27 +0.01    +0.049 A  ATOM     30  N   UNL     1      40.987  46.492  19.479 -0.28 -0.01    -0.213 NA ATOM     31  C   UNL     1      42.626  45.704  21.468 -0.21 +0.03    +0.117 A  ATOM     32  C   UNL     1      42.243  46.930  19.593 -0.31 +0.03    +0.220 A  ATOM     33  N   UNL     1      43.098  46.559  20.546 -0.24 -0.09    -0.222 NA BRANCH  32  34ATOM     34  N   UNL     1      42.707  47.794  18.623 -0.32 -0.01    -0.368 N  ATOM     35  H   UNL     1      43.081  47.268  17.847 -0.49 -0.03    +0.159 HD ATOM     36  H   UNL     1      43.302  48.492  19.046 -0.51 -0.02    +0.159 HD ENDBRANCH  32  34ENDBRANCH  27  28ENDBRANCH  20  22ENDBRANCH   1  20TORSDOF 7TERENDMDL