MODEL        1USER    Run = 1USERUSER    Estimated Free Energy of Binding    =  -9.59 kcal/mol  [=(1)+(2)+(3)-(4)]USERUSER    (1) Final Intermolecular Energy     = -11.68 kcal/molUSER        vdW + Hbond + desolv Energy     = -11.44 kcal/molUSER        Electrostatic Energy            =  -0.24 kcal/molUSER        Moving Ligand-Fixed Receptor    = -11.68 kcal/molUSER        Moving Ligand-Moving Receptor   =  +0.00 kcal/molUSER    (2) Final Total Internal Energy     =  -1.11 kcal/molUSER    (3) Torsional Free Energy           =  +2.09 kcal/molUSER    (4) Unbound System's Energy         =  -1.11 kcal/molUSERUSERREMARK SMILES Cc1[nH]ncc1CC[C@H](N)CNC(=O)c1ccc2ccccc2c1REMARK SMILES IDX 8 1 7 2 6 3 2 4 3 5 4 6 5 7 1 8 9 10 10 11 11 14 12 15 13 16REMARK SMILES IDX 14 18 15 19 16 20 24 21 17 22 23 23 18 24 22 25 19 26 21 27REMARK SMILES IDX 20 28REMARK H PARENT 3 9 10 12 10 13 12 17USER                              x       y       z     vdW  Elec       q    TypeUSER                           _______ _______ _______ _____ _____    ______ ____ROOTATOM      1  C   UNL     1      37.743  48.504  13.835 -0.57 -0.01    +0.025 C  ENDROOTBRANCH   1   2ATOM      2  C   UNL     1      37.931  48.337  15.349 -0.55 -0.03    +0.041 C  BRANCH   2   3ATOM      3  C   UNL     1      39.346  48.455  15.814 -0.51 +0.00    -0.007 A  ATOM      4  C   UNL     1      40.109  47.533  16.509 -0.49 -0.01    +0.035 A  ATOM      5  N   UNL     1      41.331  48.117  16.693 -0.31 +0.02    -0.283 N  ATOM      6  N   UNL     1      41.419  49.356  16.186 -1.06 +0.00    -0.184 NA ATOM      7  C   UNL     1      40.212  49.564  15.660 -0.42 -0.06    +0.138 A  ATOM      8  C   UNL     1      39.809  46.166  16.994 -0.46 -0.01    +0.066 C  ATOM      9  H   UNL     1      42.146  47.731  17.156 -0.42 -0.03    +0.190 HD ENDBRANCH   2   3ENDBRANCH   1   2BRANCH   1  10ATOM     10  C   UNL     1      37.173  47.271  13.101 -0.61 -0.03    +0.070 C  BRANCH  10  11ATOM     11  N   UNL     1      37.286  47.407  11.645 -0.89 +0.07    -0.326 NA ATOM     12  H   UNL     1      36.839  46.628  11.167 +0.04 -0.04    +0.119 HD ATOM     13  H   UNL     1      36.806  48.255  11.338 -0.31 -0.04    +0.119 HD ENDBRANCH  10  11BRANCH  10  14ATOM     14  C   UNL     1      35.699  47.000  13.506 -0.47 -0.09    +0.134 C  BRANCH  14  15ATOM     15  N   UNL     1      35.569  46.212  14.719 -0.16 +0.28    -0.350 N  ATOM     16  C   UNL     1      36.192  44.990  14.864 -0.25 -0.12    +0.251 C  ATOM     17  H   UNL     1      34.875  46.500  15.393 +0.08 -0.22    +0.163 HD ATOM     18  O   UNL     1      36.896  44.482  13.998 -0.30 +0.09    -0.269 OA BRANCH  16  19ATOM     19  C   UNL     1      35.933  44.263  16.137 -0.33 -0.02    +0.040 A  ATOM     20  C   UNL     1      35.001  43.224  16.219 -0.40 -0.01    +0.014 A  ATOM     21  C   UNL     1      36.636  44.658  17.281 -0.32 -0.01    +0.022 A  ATOM     22  C   UNL     1      34.793  42.569  17.436 -0.41 -0.00    +0.009 A  ATOM     23  C   UNL     1      36.438  44.006  18.508 -0.32 +0.00    -0.018 A  ATOM     24  C   UNL     1      35.506  42.944  18.587 -0.35 +0.00    -0.018 A  ATOM     25  C   UNL     1      37.145  44.386  19.660 -0.36 -0.00    +0.009 A  ATOM     26  C   UNL     1      35.309  42.293  19.814 -0.42 -0.00    +0.009 A  ATOM     27  C   UNL     1      36.937  43.727  20.874 -0.41 +0.00    +0.001 A  ATOM     28  C   UNL     1      36.021  42.682  20.950 -0.46 +0.00    +0.001 A  ENDBRANCH  16  19ENDBRANCH  14  15ENDBRANCH  10  14ENDBRANCH   1  10TORSDOF 7TERENDMDL