MODEL        8USER    Run = 8USERUSER    Estimated Free Energy of Binding    = -10.70 kcal/mol  [=(1)+(2)+(3)-(4)]USERUSER    (1) Final Intermolecular Energy     = -12.79 kcal/molUSER        vdW + Hbond + desolv Energy     = -12.62 kcal/molUSER        Electrostatic Energy            =  -0.17 kcal/molUSER        Moving Ligand-Fixed Receptor    = -12.79 kcal/molUSER        Moving Ligand-Moving Receptor   =  +0.00 kcal/molUSER    (2) Final Total Internal Energy     =  -1.11 kcal/molUSER    (3) Torsional Free Energy           =  +2.09 kcal/molUSER    (4) Unbound System's Energy         =  -1.11 kcal/molUSERUSERREMARK SMILES Nc1nccc(-c2ccc(C(=O)CN3CCC(Nc4nc5ccccc5[nH]4)CC3)cc2)n1REMARK SMILES IDX 11 1 12 2 10 3 7 4 8 5 31 6 9 7 30 8 6 9 2 10 3 11 32 12REMARK SMILES IDX 4 13 5 14 1 15 13 18 14 19 15 20 29 21 16 22 28 23 17 24REMARK SMILES IDX 18 25 19 27 20 28 27 29 21 30 26 31 22 32 25 33 23 34 24 35REMARK H PARENT 1 16 1 17 18 26 27 36USER                              x       y       z     vdW  Elec       q    TypeUSER                           _______ _______ _______ _____ _____    ______ ____ROOTATOM      1  C   UNL     1      41.156  48.621  16.262 -0.45 -0.01    +0.176 C  ATOM      2  O   UNL     1      41.765  49.683  16.401 -1.03 -0.05    -0.293 OA ENDROOTBRANCH   1   3ATOM      3  C   UNL     1      41.082  47.668  17.409 -0.51 -0.00    +0.019 A  ATOM      4  C   UNL     1      41.030  45.918  19.644 -0.43 +0.00    +0.000 A  ATOM      5  C   UNL     1      39.981  45.939  18.708 -0.44 -0.00    +0.011 A  ATOM      6  C   UNL     1      42.108  46.795  19.429 -0.48 +0.00    +0.011 A  ATOM      7  C   UNL     1      40.002  46.804  17.604 -0.47 -0.00    +0.012 A  ATOM      8  C   UNL     1      42.141  47.652  18.322 -0.51 -0.00    +0.012 A  BRANCH   4   9ATOM      9  C   UNL     1      41.014  45.025  20.816 -0.30 +0.01    +0.076 A  ATOM     10  C   UNL     1      42.081  43.342  21.957 -0.23 +0.01    +0.220 A  ATOM     11  N   UNL     1      41.166  43.314  22.929 -0.17 -0.00    -0.222 NA ATOM     12  N   UNL     1      42.055  44.165  20.908 -0.20 -0.04    -0.213 NA ATOM     13  C   UNL     1      40.134  44.164  22.802 -0.17 +0.01    +0.117 A  ATOM     14  C   UNL     1      40.007  45.051  21.761 -0.27 +0.00    +0.049 A  BRANCH  10  15ATOM     15  N   UNL     1      43.164  42.498  22.079 -0.06 +0.02    -0.368 N  ATOM     16  H   UNL     1      43.662  42.460  21.199 -0.30 +0.02    +0.159 HD ATOM     17  H   UNL     1      42.870  41.623  22.487 -0.51 -0.05    +0.159 HD ENDBRANCH  10  15ENDBRANCH   4   9ENDBRANCH   1   3BRANCH   1  18ATOM     18  C   UNL     1      40.442  48.289  14.956 -0.49 -0.03    +0.165 C  BRANCH  18  19ATOM     19  N   UNL     1      39.114  47.680  15.174 -0.25 +0.10    -0.296 NA ATOM     20  C   UNL     1      38.793  46.623  14.200 -0.43 -0.02    +0.087 C  ATOM     21  C   UNL     1      38.090  48.737  15.240 -0.50 -0.06    +0.087 C  ATOM     22  C   UNL     1      37.975  47.115  13.010 -0.48 -0.01    +0.040 C  ATOM     23  C   UNL     1      36.692  48.225  14.909 -0.31 -0.04    +0.040 C  ATOM     24  C   UNL     1      36.638  47.729  13.457 -0.59 -0.04    +0.084 C  BRANCH  24  25ATOM     25  N   UNL     1      35.570  46.739  13.299 -0.26 +0.23    -0.353 N  ATOM     26  H   UNL     1      35.562  46.320  12.368 +0.08 -0.09    +0.163 HD BRANCH  25  27ATOM     27  C   UNL     1      35.319  45.819  14.253 -0.22 -0.14    +0.201 A  ATOM     28  N   UNL     1      36.067  44.786  14.548 -0.22 +0.09    -0.213 NA ATOM     29  N   UNL     1      34.174  45.833  15.003 -0.14 +0.33    -0.324 N  ATOM     30  C   UNL     1      35.394  44.118  15.543 -0.23 -0.04    +0.091 A  ATOM     31  C   UNL     1      34.202  44.759  15.854 -0.27 -0.04    +0.067 A  ATOM     32  C   UNL     1      35.740  42.946  16.231 -0.44 -0.01    +0.030 A  ATOM     33  C   UNL     1      33.311  44.300  16.826 -0.30 -0.01    +0.028 A  ATOM     34  C   UNL     1      34.864  42.460  17.211 -0.43 -0.00    +0.002 A  ATOM     35  C   UNL     1      33.673  43.128  17.501 -0.34 -0.00    +0.002 A  ATOM     36  H   UNL     1      33.423  46.494  14.906 -0.27 -0.29    +0.170 HD ENDBRANCH  25  27ENDBRANCH  24  25ENDBRANCH  18  19ENDBRANCH   1  18TORSDOF 7TERENDMDL