REMARK SMILES Cc1[nH]ncc1CC[C@H](N)CNC(=O)c1ccc2ccccc2c1
REMARK SMILES IDX 8 1 7 2 6 3 2 4 3 5 4 6 5 7 1 8 9 10 10 11 11 14 12 15 13 16
REMARK SMILES IDX 14 18 15 19 16 20 24 21 17 22 23 23 18 24 22 25 19 26 21 27
REMARK SMILES IDX 20 28
REMARK H PARENT 3 9 10 12 10 13 12 17
ROOT
ATOM      1  C   UNL     1      -1.860  -0.051  -0.152  1.00  0.00     0.025 C 
ENDROOT
BRANCH   1   2
ATOM      2  C   UNL     1      -2.837  -1.164   0.250  1.00  0.00     0.041 C 
BRANCH   2   3
ATOM      3  C   UNL     1      -4.224  -0.991  -0.278  1.00  0.00    -0.007 A 
ATOM      4  C   UNL     1      -5.407  -0.851   0.426  1.00  0.00     0.035 A 
ATOM      5  N   UNL     1      -6.392  -0.724  -0.514  1.00  0.00    -0.283 N 
ATOM      6  N   UNL     1      -5.944  -0.788  -1.777  1.00  0.00    -0.184 NA
ATOM      7  C   UNL     1      -4.629  -0.958  -1.634  1.00  0.00     0.138 A 
ATOM      8  C   UNL     1      -5.695  -0.807   1.878  1.00  0.00     0.066 C 
ATOM      9  H   UNL     1      -7.386  -0.595  -0.365  1.00  0.00     0.190 HD
ENDBRANCH   2   3
ENDBRANCH   1   2
BRANCH   1  10
ATOM     10  C   UNL     1      -1.838   1.177   0.784  1.00  0.00     0.070 C 
BRANCH  10  11
ATOM     11  N   UNL     1      -3.169   1.778   0.919  1.00  0.00    -0.326 NA
ATOM     12  H   UNL     1      -3.110   2.720   1.301  1.00  0.00     0.119 HD
ATOM     13  H   UNL     1      -3.607   1.862  -0.000  1.00  0.00     0.119 HD
ENDBRANCH  10  11
BRANCH  10  14
ATOM     14  C   UNL     1      -0.811   2.238   0.305  1.00  0.00     0.134 C 
BRANCH  14  15
ATOM     15  N   UNL     1       0.569   1.805   0.434  1.00  0.00    -0.350 N 
ATOM     16  C   UNL     1       1.270   1.278  -0.630  1.00  0.00     0.251 C 
ATOM     17  H   UNL     1       0.956   1.743   1.365  1.00  0.00     0.163 HD
ATOM     18  O   UNL     1       0.794   1.138  -1.751  1.00  0.00    -0.269 OA
BRANCH  16  19
ATOM     19  C   UNL     1       2.660   0.826  -0.347  1.00  0.00     0.040 A 
ATOM     20  C   UNL     1       3.450   1.432   0.634  1.00  0.00     0.014 A 
ATOM     21  C   UNL     1       3.184  -0.225  -1.110  1.00  0.00     0.022 A 
ATOM     22  C   UNL     1       4.749   0.971   0.866  1.00  0.00     0.009 A 
ATOM     23  C   UNL     1       4.486  -0.698  -0.885  1.00  0.00    -0.018 A 
ATOM     24  C   UNL     1       5.279  -0.094   0.119  1.00  0.00    -0.018 A 
ATOM     25  C   UNL     1       5.019  -1.757  -1.637  1.00  0.00     0.009 A 
ATOM     26  C   UNL     1       6.581  -0.568   0.343  1.00  0.00     0.009 A 
ATOM     27  C   UNL     1       6.316  -2.217  -1.401  1.00  0.00     0.001 A 
ATOM     28  C   UNL     1       7.095  -1.623  -0.412  1.00  0.00     0.001 A 
ENDBRANCH  16  19
ENDBRANCH  14  15
ENDBRANCH  10  14
ENDBRANCH   1  10
TORSDOF 7
