REMARK SMILES C[C@H](O)NC[C@H]1C(=O)N[C@H](c2c(F)cccc2F)N1C(=O)CN1CCC(c2ccc(OC3CC3)c3c2CCC3)CC1
REMARK SMILES IDX 6 1 7 2 8 3 9 4 10 5 19 6 5 8 4 9 2 11 1 12 3 13 20 15 21 16
REMARK SMILES IDX 22 17 23 18 24 19 41 20 25 21 40 22 26 23 27 24 28 25 36 26
REMARK SMILES IDX 29 27 35 28 37 29 30 30 39 31 38 32 31 33 32 34 33 35 34 36
REMARK SMILES IDX 11 37 12 38 17 39 14 40 16 41 15 42 13 43 18 44
REMARK H PARENT 9 7 4 10 3 14
ROOT
ATOM      1  C   UNL     1      -4.675   0.743   1.096  1.00  0.00     0.190 C 
ATOM      2  C   UNL     1      -6.095   0.285   1.411  1.00  0.00     0.246 C 
ATOM      3  O   UNL     1      -6.817   0.731   2.291  1.00  0.00    -0.273 OA
ATOM      4  N   UNL     1      -6.487  -0.650   0.487  1.00  0.00    -0.330 N 
ATOM      5  C   UNL     1      -5.413  -1.055  -0.358  1.00  0.00     0.219 C 
ATOM      6  N   UNL     1      -4.311  -0.206   0.034  1.00  0.00    -0.303 N 
ATOM      7  H   UNL     1      -7.388  -1.105   0.533  1.00  0.00     0.166 HD
ENDROOT
BRANCH   1   8
ATOM      8  C   UNL     1      -4.757   2.210   0.610  1.00  0.00     0.118 C 
BRANCH   8   9
ATOM      9  N   UNL     1      -4.162   3.193   1.530  1.00  0.00    -0.290 NA
ATOM     10  H   UNL     1      -4.063   4.078   1.036  1.00  0.00     0.125 HD
BRANCH   9  11
ATOM     11  C   UNL     1      -4.974   3.428   2.718  1.00  0.00     0.179 C 
ATOM     12  C   UNL     1      -4.403   4.606   3.498  1.00  0.00     0.056 C 
BRANCH  11  13
ATOM     13  O   UNL     1      -4.945   2.301   3.565  1.00  0.00    -0.379 OA
ATOM     14  H   UNL     1      -5.820   1.873   3.489  1.00  0.00     0.212 HD
ENDBRANCH  11  13
ENDBRANCH   9  11
ENDBRANCH   8   9
ENDBRANCH   1   8
BRANCH   6  15
ATOM     15  C   UNL     1      -3.094  -0.289  -0.619  1.00  0.00     0.239 C 
ATOM     16  O   UNL     1      -2.995  -0.956  -1.649  1.00  0.00    -0.273 OA
BRANCH  15  17
ATOM     17  C   UNL     1      -1.906   0.438   0.056  1.00  0.00     0.185 C 
BRANCH  17  18
ATOM     18  N   UNL     1      -0.650   0.398  -0.729  1.00  0.00    -0.294 NA
ATOM     19  C   UNL     1      -0.140  -0.972  -0.899  1.00  0.00     0.085 C 
ATOM     20  C   UNL     1       0.352   1.329  -0.186  1.00  0.00     0.085 C 
ATOM     21  C   UNL     1       1.363  -1.008  -1.179  1.00  0.00     0.024 C 
ATOM     22  C   UNL     1       1.381   0.667   0.733  1.00  0.00     0.024 C 
ATOM     23  C   UNL     1       2.153  -0.465   0.023  1.00  0.00     0.022 C 
BRANCH  23  24
ATOM     24  C   UNL     1       3.572  -0.120  -0.396  1.00  0.00    -0.041 A 
ATOM     25  C   UNL     1       3.913   1.143  -0.909  1.00  0.00     0.008 A 
ATOM     26  C   UNL     1       4.597  -1.066  -0.338  1.00  0.00    -0.038 A 
ATOM     27  C   UNL     1       5.229   1.454  -1.300  1.00  0.00     0.047 A 
ATOM     28  C   UNL     1       5.911  -0.755  -0.735  1.00  0.00    -0.002 A 
ATOM     29  C   UNL     1       4.536  -2.483   0.160  1.00  0.00     0.036 C 
ATOM     30  C   UNL     1       6.247   0.506  -1.199  1.00  0.00     0.123 A 
ATOM     31  C   UNL     1       6.825  -1.923  -0.527  1.00  0.00     0.040 C 
ATOM     32  C   UNL     1       5.820  -3.075  -0.432  1.00  0.00     0.010 C 
BRANCH  30  33
ATOM     33  O   UNL     1       7.550   0.716  -1.562  1.00  0.00    -0.490 OA
BRANCH  33  34
ATOM     34  C   UNL     1       7.996   2.085  -1.558  1.00  0.00     0.173 C 
ATOM     35  C   UNL     1       9.299   2.325  -2.273  1.00  0.00     0.049 C 
ATOM     36  C   UNL     1       8.011   2.793  -2.884  1.00  0.00     0.049 C 
ENDBRANCH  33  34
ENDBRANCH  30  33
ENDBRANCH  23  24
ENDBRANCH  17  18
ENDBRANCH  15  17
ENDBRANCH   6  15
BRANCH   5  37
ATOM     37  C   UNL     1      -5.152  -2.528  -0.204  1.00  0.00     0.066 A 
ATOM     38  C   UNL     1      -4.551  -3.075   0.934  1.00  0.00     0.133 A 
ATOM     39  C   UNL     1      -5.535  -3.412  -1.216  1.00  0.00     0.133 A 
ATOM     40  C   UNL     1      -4.319  -4.445   1.050  1.00  0.00     0.040 A 
ATOM     41  C   UNL     1      -5.310  -4.784  -1.117  1.00  0.00     0.040 A 
ATOM     42  C   UNL     1      -4.692  -5.305   0.019  1.00  0.00     0.006 A 
ATOM     43  F   UNL     1      -4.213  -2.285   1.961  1.00  0.00    -0.206 F 
ATOM     44  F   UNL     1      -6.164  -2.945  -2.305  1.00  0.00    -0.206 F 
ENDBRANCH   5  37
TORSDOF 11
