MODEL        8USER    Run = 8USERUSER    Estimated Free Energy of Binding    = -11.13 kcal/mol  [=(1)+(2)+(3)-(4)]USERUSER    (1) Final Intermolecular Energy     = -14.41 kcal/molUSER        vdW + Hbond + desolv Energy     = -14.28 kcal/molUSER        Electrostatic Energy            =  -0.13 kcal/molUSER        Moving Ligand-Fixed Receptor    = -14.41 kcal/molUSER        Moving Ligand-Moving Receptor   =  +0.00 kcal/molUSER    (2) Final Total Internal Energy     =  -3.33 kcal/molUSER    (3) Torsional Free Energy           =  +3.28 kcal/molUSER    (4) Unbound System's Energy         =  -3.33 kcal/molUSERUSERREMARK SMILES C[C@H](O)NC[C@H]1C(=O)N[C@H](c2c(F)cccc2F)N1C(=O)CN1CCC(c2ccc(OC3CC3)c3c2CCC3)CC1REMARK SMILES IDX 6 1 7 2 8 3 9 4 10 5 19 6 5 8 4 9 2 11 1 12 3 13 20 15 21 16REMARK SMILES IDX 22 17 23 18 24 19 41 20 25 21 40 22 26 23 27 24 28 25 36 26REMARK SMILES IDX 29 27 35 28 37 29 30 30 39 31 38 32 31 33 32 34 33 35 34 36REMARK SMILES IDX 11 37 12 38 17 39 14 40 16 41 15 42 13 43 18 44REMARK H PARENT 9 7 4 10 3 14USER                              x       y       z     vdW  Elec       q    TypeUSER                           _______ _______ _______ _____ _____    ______ ____ROOTATOM      1  C   UNL     1      39.376  47.131  17.266 -0.33 -0.05    +0.190 C  ATOM      2  C   UNL     1      40.362  47.438  16.144 -0.39 -0.04    +0.246 C  ATOM      3  O   UNL     1      41.356  48.144  16.232 -0.59 +0.02    -0.273 OA ATOM      4  N   UNL     1      40.019  46.718  15.028 -0.22 +0.05    -0.330 N  ATOM      5  C   UNL     1      38.762  46.062  15.176 -0.30 -0.06    +0.219 C  ATOM      6  N   UNL     1      38.376  46.334  16.542 -0.19 +0.10    -0.303 N  ATOM      7  H   UNL     1      40.528  46.800  14.159 +0.13 -0.01    +0.166 HD ENDROOTBRANCH   1   8ATOM      8  C   UNL     1      40.138  46.328  18.348 -0.44 -0.01    +0.118 C  BRANCH   8   9ATOM      9  N   UNL     1      41.515  45.962  17.980 -0.25 +0.00    -0.290 NA ATOM     10  H   UNL     1      41.710  46.332  17.051 -0.30 -0.01    +0.125 HD BRANCH   9  11ATOM     11  C   UNL     1      42.514  46.498  18.897 -0.32 +0.03    +0.179 C  ATOM     12  C   UNL     1      41.919  46.589  20.297 -0.39 +0.01    +0.056 C  BRANCH  11  13ATOM     13  O   UNL     1      42.891  47.800  18.508 -0.38 -0.01    -0.379 OA ATOM     14  H   UNL     1      43.024  47.774  17.540 -0.43 -0.03    +0.212 HD ENDBRANCH  11  13ENDBRANCH   9  11ENDBRANCH   8   9ENDBRANCH   1   8BRANCH   6  15ATOM     15  C   UNL     1      37.208  45.804  17.060 -0.26 -0.10    +0.239 C  ATOM     16  O   UNL     1      37.220  44.691  17.587 -0.21 +0.07    -0.273 OA BRANCH  15  17ATOM     17  C   UNL     1      35.929  46.656  16.873 -0.22 -0.17    +0.185 C  BRANCH  17  18ATOM     18  N   UNL     1      34.673  45.933  17.177 -0.18 +0.26    -0.294 NA ATOM     19  C   UNL     1      34.645  45.413  18.554 -0.43 -0.04    +0.085 C  ATOM     20  C   UNL     1      34.385  44.907  16.162 -0.32 -0.05    +0.085 C  ATOM     21  C   UNL     1      33.685  44.234  18.716 -0.43 -0.01    +0.024 C  ATOM     22  C   UNL     1      34.819  43.496  16.564 -0.42 -0.01    +0.024 C  ATOM     23  C   UNL     1      34.152  43.033  17.876 -0.39 -0.01    +0.022 C  BRANCH  23  24ATOM     24  C   UNL     1      33.017  42.037  17.712 -0.35 +0.01    -0.041 A  ATOM     25  C   UNL     1      33.158  40.681  18.053 -0.26 -0.00    +0.008 A  ATOM     26  C   UNL     1      31.791  42.416  17.161 -0.28 +0.01    -0.038 A  ATOM     27  C   UNL     1      32.104  39.762  17.893 -0.41 -0.01    +0.047 A  ATOM     28  C   UNL     1      30.740  41.495  16.997 -0.32 +0.00    -0.002 A  ATOM     29  C   UNL     1      31.351  43.780  16.708 -0.34 -0.01    +0.036 C  ATOM     30  C   UNL     1      30.874  40.170  17.376 -0.26 -0.01    +0.123 A  ATOM     31  C   UNL     1      29.523  42.164  16.436 -0.31 -0.01    +0.040 C  ATOM     32  C   UNL     1      30.130  43.440  15.845 -0.35 -0.01    +0.010 C  BRANCH  30  33ATOM     33  O   UNL     1      29.798  39.347  17.178 -0.13 -0.12    -0.490 OA BRANCH  33  34ATOM     34  C   UNL     1      28.949  39.128  18.320 -0.26 +0.04    +0.173 C  ATOM     35  C   UNL     1      29.194  37.832  19.047 -0.36 +0.02    +0.049 C  ATOM     36  C   UNL     1      29.618  39.131  19.667 -0.30 +0.00    +0.049 C  ENDBRANCH  33  34ENDBRANCH  30  33ENDBRANCH  23  24ENDBRANCH  17  18ENDBRANCH  15  17ENDBRANCH   6  15BRANCH   5  37ATOM     37  C   UNL     1      37.788  46.557  14.141 -0.39 -0.02    +0.066 A  ATOM     38  C   UNL     1      37.115  45.699  13.265 -0.38 -0.05    +0.133 A  ATOM     39  C   UNL     1      37.510  47.922  14.044 -0.43 -0.07    +0.133 A  ATOM     40  C   UNL     1      36.219  46.185  12.314 -0.60 -0.02    +0.040 A  ATOM     41  C   UNL     1      36.617  48.425  13.099 -0.47 -0.02    +0.040 A  ATOM     42  C   UNL     1      35.972  47.553  12.223 -0.56 -0.00    +0.006 A  ATOM     43  F   UNL     1      37.298  44.375  13.347 -0.08 +0.06    -0.206 F  ATOM     44  F   UNL     1      38.088  48.782  14.897 -0.16 +0.14    -0.206 F  ENDBRANCH   5  37TORSDOF 11TERENDMDL