REMARK SMILES Oc1cnc(-c2ccc(CN3CCC(n4c(O)nc5ccccc54)CC3)cc2)c(-c2cnn(CCN3CCOCC3)c2)c1
REMARK SMILES IDX 6 1 7 2 8 3 9 4 27 5 28 6 5 7 2 8 3 9 43 10 4 11 29 12 1 13
REMARK SMILES IDX 30 15 31 16 42 17 32 18 33 19 34 20 35 21 36 22 37 23 41 24
REMARK SMILES IDX 38 25 40 26 39 27 10 28 11 29 12 30 26 31 13 32 25 33 14 34
REMARK SMILES IDX 15 35 16 36 24 37 18 38 23 39 19 40 22 41 20 42 21 43 17 44
REMARK H PARENT 1 14 17 45
ROOT
ATOM      1  C   UNL     1      -0.527  -1.648   1.165  1.00  0.00     0.001 A 
ATOM      2  C   UNL     1       0.282  -2.211   0.168  1.00  0.00     0.011 A 
ATOM      3  C   UNL     1       1.193  -1.431  -0.548  1.00  0.00     0.006 A 
ATOM      4  C   UNL     1       1.334  -0.065  -0.269  1.00  0.00    -0.034 A 
ATOM      5  C   UNL     1       0.543   0.502   0.737  1.00  0.00     0.006 A 
ATOM      6  C   UNL     1      -0.374  -0.281   1.446  1.00  0.00     0.011 A 
ENDROOT
BRANCH   1   7
ATOM      7  C   UNL     1      -1.490  -2.484   1.900  1.00  0.00     0.078 A 
ATOM      8  C   UNL     1      -3.059  -4.170   3.407  1.00  0.00     0.134 A 
ATOM      9  C   UNL     1      -1.688  -4.310   3.329  1.00  0.00     0.157 A 
ATOM     10  C   UNL     1      -3.666  -3.145   2.691  1.00  0.00     0.059 A 
ATOM     11  N   UNL     1      -0.897  -3.498   2.593  1.00  0.00    -0.252 NA
ATOM     12  C   UNL     1      -2.882  -2.276   1.912  1.00  0.00     0.015 A 
BRANCH   8  13
ATOM     13  O   UNL     1      -3.775  -5.044   4.166  1.00  0.00    -0.506 OA
ATOM     14  H   UNL     1      -4.717  -4.811   4.121  1.00  0.00     0.293 HD
ENDBRANCH   8  13
BRANCH  12  15
ATOM     15  C   UNL     1      -3.546  -1.254   1.117  1.00  0.00     0.022 A 
ATOM     16  C   UNL     1      -3.351  -0.842  -0.221  1.00  0.00     0.144 A 
ATOM     17  C   UNL     1      -4.594  -0.469   1.559  1.00  0.00     0.117 A 
ATOM     18  N   UNL     1      -4.212   0.109  -0.599  1.00  0.00    -0.181 NA
ATOM     19  N   UNL     1      -4.960   0.313   0.499  1.00  0.00    -0.271 N 
BRANCH  19  20
ATOM     20  C   UNL     1      -6.096   1.215   0.439  1.00  0.00     0.159 C 
BRANCH  20  21
ATOM     21  C   UNL     1      -7.344   0.462  -0.030  1.00  0.00     0.108 C 
BRANCH  21  22
ATOM     22  N   UNL     1      -8.561   1.295  -0.091  1.00  0.00    -0.297 NA
ATOM     23  C   UNL     1      -8.578   2.199  -1.264  1.00  0.00     0.113 C 
ATOM     24  C   UNL     1      -9.764   0.418  -0.102  1.00  0.00     0.113 C 
ATOM     25  C   UNL     1      -9.185   1.575  -2.538  1.00  0.00     0.175 C 
ATOM     26  C   UNL     1     -10.898   0.943  -0.997  1.00  0.00     0.175 C 
ATOM     27  O   UNL     1     -10.487   0.990  -2.368  1.00  0.00    -0.379 OA
ENDBRANCH  21  22
ENDBRANCH  20  21
ENDBRANCH  19  20
ENDBRANCH  12  15
ENDBRANCH   1   7
BRANCH   4  28
ATOM     28  C   UNL     1       2.317   0.779  -1.050  1.00  0.00     0.120 C 
BRANCH  28  29
ATOM     29  N   UNL     1       3.701   0.292  -0.951  1.00  0.00    -0.299 NA
ATOM     30  C   UNL     1       4.224   0.386   0.423  1.00  0.00     0.087 C 
ATOM     31  C   UNL     1       4.570   0.929  -1.938  1.00  0.00     0.087 C 
ATOM     32  C   UNL     1       5.739   0.605   0.501  1.00  0.00     0.041 C 
ATOM     33  C   UNL     1       5.903   0.185  -2.007  1.00  0.00     0.041 C 
ATOM     34  C   UNL     1       6.454  -0.164  -0.612  1.00  0.00     0.095 C 
BRANCH  34  35
ATOM     35  N   UNL     1       7.903  -0.033  -0.523  1.00  0.00    -0.291 N 
ATOM     36  C   UNL     1       8.766  -1.041  -0.191  1.00  0.00     0.295 A 
ATOM     37  C   UNL     1       8.669   1.097  -0.732  1.00  0.00     0.072 A 
ATOM     38  N   UNL     1      10.018  -0.673  -0.192  1.00  0.00    -0.195 NA
ATOM     39  C   UNL     1       8.368   2.423  -1.073  1.00  0.00     0.029 A 
ATOM     40  C   UNL     1       9.980   0.658  -0.531  1.00  0.00     0.092 A 
ATOM     41  C   UNL     1       9.440   3.309  -1.221  1.00  0.00     0.002 A 
ATOM     42  C   UNL     1      11.040   1.564  -0.688  1.00  0.00     0.031 A 
ATOM     43  C   UNL     1      10.757   2.889  -1.037  1.00  0.00     0.002 A 
BRANCH  36  44
ATOM     44  O   UNL     1       8.401  -2.265   0.123  1.00  0.00    -0.480 OA
ATOM     45  H   UNL     1       9.261  -2.682   0.312  1.00  0.00     0.296 HD
ENDBRANCH  36  44
ENDBRANCH  34  35
ENDBRANCH  28  29
ENDBRANCH   4  28
TORSDOF 10
