REMARK SMILES Cn1ccc(-c2nc3cc(O)ccc3nc2-c2ccc(CN3CCC(n4c(O)nc5ccccc54)CC3)cc2)n1
REMARK SMILES IDX 21 1 20 2 17 3 18 4 39 5 19 6 38 7 16 8 6 9 7 10 8 11 15 12
REMARK SMILES IDX 9 13 14 14 10 15 13 16 12 17 5 18 2 19 3 20 40 21 4 22 1 23
REMARK SMILES IDX 11 24 22 26 23 27 37 28 24 29 36 30 25 31 26 32 27 33 35 34
REMARK SMILES IDX 29 35 34 36 30 37 33 38 31 39 32 40 28 41
REMARK H PARENT 11 25 28 42
ROOT
ATOM      1  C   UNL     1       1.292  -1.520  -0.750  1.00  0.00     0.120 C 
ENDROOT
BRANCH   1   2
ATOM      2  C   UNL     1      -0.090  -0.931  -0.567  1.00  0.00    -0.034 A 
ATOM      3  C   UNL     1      -2.697   0.138  -0.232  1.00  0.00     0.002 A 
ATOM      4  C   UNL     1      -1.988   0.316  -1.432  1.00  0.00     0.011 A 
ATOM      5  C   UNL     1      -2.067  -0.569   0.804  1.00  0.00     0.011 A 
ATOM      6  C   UNL     1      -0.705  -0.216  -1.602  1.00  0.00     0.006 A 
ATOM      7  C   UNL     1      -0.785  -1.101   0.638  1.00  0.00     0.006 A 
BRANCH   3   8
ATOM      8  C   UNL     1      -4.034   0.730  -0.064  1.00  0.00     0.099 A 
ATOM      9  C   UNL     1      -5.212   0.043   0.256  1.00  0.00     0.118 A 
ATOM     10  N   UNL     1      -6.388   0.707   0.477  1.00  0.00    -0.242 NA
ATOM     11  C   UNL     1      -6.378   2.043   0.344  1.00  0.00     0.093 A 
ATOM     12  N   UNL     1      -4.039   2.091  -0.204  1.00  0.00    -0.244 NA
ATOM     13  C   UNL     1      -7.554   2.754   0.547  1.00  0.00     0.076 A 
ATOM     14  C   UNL     1      -5.198   2.739  -0.003  1.00  0.00     0.090 A 
ATOM     15  C   UNL     1      -7.576   4.138   0.413  1.00  0.00     0.117 A 
ATOM     16  C   UNL     1      -5.240   4.122  -0.130  1.00  0.00     0.034 A 
ATOM     17  C   UNL     1      -6.424   4.830   0.077  1.00  0.00     0.048 A 
BRANCH   9  18
ATOM     18  C   UNL     1      -5.325  -1.417   0.362  1.00  0.00     0.113 A 
ATOM     19  N   UNL     1      -4.986  -3.495   0.040  1.00  0.00    -0.275 N 
ATOM     20  C   UNL     1      -6.020  -3.466   0.923  1.00  0.00     0.109 A 
ATOM     21  N   UNL     1      -4.553  -2.278  -0.324  1.00  0.00    -0.171 NA
ATOM     22  C   UNL     1      -6.275  -2.134   1.147  1.00  0.00     0.052 A 
ATOM     23  C   UNL     1      -4.339  -4.667  -0.499  1.00  0.00     0.173 C 
ENDBRANCH   9  18
BRANCH  15  24
ATOM     24  O   UNL     1      -8.717   4.856   0.605  1.00  0.00    -0.508 OA
ATOM     25  H   UNL     1      -9.447   4.247   0.808  1.00  0.00     0.293 HD
ENDBRANCH  15  24
ENDBRANCH   3   8
ENDBRANCH   1   2
BRANCH   1  26
ATOM     26  N   UNL     1       2.270  -1.037   0.239  1.00  0.00    -0.299 NA
ATOM     27  C   UNL     1       2.574   0.395   0.140  1.00  0.00     0.087 C 
ATOM     28  C   UNL     1       3.506  -1.819   0.232  1.00  0.00     0.087 C 
ATOM     29  C   UNL     1       3.393   0.758  -1.095  1.00  0.00     0.041 C 
ATOM     30  C   UNL     1       4.428  -1.543  -0.961  1.00  0.00     0.041 C 
ATOM     31  C   UNL     1       4.705  -0.049  -1.198  1.00  0.00     0.095 C 
BRANCH  31  32
ATOM     32  N   UNL     1       5.811   0.584  -0.476  1.00  0.00    -0.291 N 
ATOM     33  C   UNL     1       6.311   1.810  -0.861  1.00  0.00     0.295 A 
ATOM     34  C   UNL     1       6.599   0.169   0.581  1.00  0.00     0.072 A 
ATOM     35  N   UNL     1       7.258   2.261  -0.093  1.00  0.00    -0.195 NA
ATOM     36  C   UNL     1       6.706  -0.994   1.359  1.00  0.00     0.029 A 
ATOM     37  C   UNL     1       7.455   1.257   0.814  1.00  0.00     0.092 A 
ATOM     38  C   UNL     1       7.646  -1.020   2.399  1.00  0.00     0.002 A 
ATOM     39  C   UNL     1       8.389   1.213   1.863  1.00  0.00     0.031 A 
ATOM     40  C   UNL     1       8.471   0.069   2.656  1.00  0.00     0.002 A 
BRANCH  33  41
ATOM     41  O   UNL     1       5.890   2.499  -1.904  1.00  0.00    -0.480 OA
ATOM     42  H   UNL     1       6.464   3.285  -1.854  1.00  0.00     0.296 HD
ENDBRANCH  33  41
ENDBRANCH  31  32
ENDBRANCH   1  26
TORSDOF 7
