REMARK SMILES Cc1cc(Nc2cc(N3CCC[C@@H](OC(F)F)C3)c(CCNC(=O)C3CC3)c(C)n2)n[nH]1
REMARK SMILES IDX 6 1 7 2 8 3 19 4 28 5 29 6 30 7 5 8 4 10 2 11 3 12 32 13
REMARK SMILES IDX 31 14 1 15 9 17 10 18 18 19 11 20 13 21 12 22 14 23 15 24
REMARK SMILES IDX 16 25 17 26 20 27 21 28 22 29 23 30 24 32 25 33 26 34 27 35
REMARK H PARENT 5 9 32 16 22 31
ROOT
ATOM      1  C   UNL     1      -2.528  -0.819   0.048  1.00  0.00     0.133 A 
ATOM      2  C   UNL     1      -1.826   0.362  -0.172  1.00  0.00     0.073 A 
ATOM      3  C   UNL     1      -0.445   0.418   0.055  1.00  0.00     0.046 A 
ATOM      4  C   UNL     1       0.208  -0.738   0.518  1.00  0.00    -0.001 A 
ATOM      5  C   UNL     1      -0.564  -1.892   0.702  1.00  0.00     0.045 A 
ATOM      6  C   UNL     1       0.034  -3.192   1.161  1.00  0.00     0.067 C 
ATOM      7  N   UNL     1      -1.901  -1.925   0.483  1.00  0.00    -0.236 NA
ENDROOT
BRANCH   1   8
ATOM      8  N   UNL     1      -3.922  -0.809  -0.193  1.00  0.00    -0.323 N 
ATOM      9  H   UNL     1      -4.335  -0.012   0.270  1.00  0.00     0.170 HD
BRANCH   8  10
ATOM     10  C   UNL     1      -4.720  -1.877  -0.422  1.00  0.00     0.153 A 
ATOM     11  C   UNL     1      -6.592  -3.088  -0.480  1.00  0.00     0.034 A 
ATOM     12  C   UNL     1      -6.100  -1.862  -0.090  1.00  0.00     0.071 A 
ATOM     13  N   UNL     1      -5.521  -3.745  -1.015  1.00  0.00    -0.281 N 
ATOM     14  N   UNL     1      -4.397  -3.022  -1.027  1.00  0.00    -0.158 NA
ATOM     15  C   UNL     1      -7.936  -3.696  -0.396  1.00  0.00     0.066 C 
ATOM     16  H   UNL     1      -5.486  -4.682  -1.403  1.00  0.00     0.190 HD
ENDBRANCH   8  10
ENDBRANCH   1   8
BRANCH   3  17
ATOM     17  N   UNL     1       0.297   1.601  -0.165  1.00  0.00    -0.369 N 
ATOM     18  C   UNL     1       0.122   2.185  -1.500  1.00  0.00     0.117 C 
ATOM     19  C   UNL     1       0.116   2.574   0.945  1.00  0.00     0.148 C 
ATOM     20  C   UNL     1       1.275   3.159  -1.758  1.00  0.00     0.024 C 
ATOM     21  C   UNL     1       0.649   3.984   0.569  1.00  0.00     0.144 C 
ATOM     22  C   UNL     1       1.752   3.877  -0.488  1.00  0.00     0.036 C 
BRANCH  21  23
ATOM     23  O   UNL     1      -0.388   4.802   0.011  1.00  0.00    -0.318 OA
BRANCH  23  24
ATOM     24  C   UNL     1      -1.208   5.428   0.983  1.00  0.00     0.484 C 
ATOM     25  F   UNL     1      -2.487   5.340   0.550  1.00  0.00    -0.179 F 
ATOM     26  F   UNL     1      -1.142   4.767   2.162  1.00  0.00    -0.179 F 
ENDBRANCH  23  24
ENDBRANCH  21  23
ENDBRANCH   3  17
BRANCH   4  27
ATOM     27  C   UNL     1       1.704  -0.743   0.734  1.00  0.00     0.061 C 
BRANCH  27  28
ATOM     28  C   UNL     1       2.459  -1.008  -0.571  1.00  0.00     0.120 C 
BRANCH  28  29
ATOM     29  N   UNL     1       3.898  -0.973  -0.386  1.00  0.00    -0.356 N 
ATOM     30  C   UNL     1       4.581  -2.025   0.174  1.00  0.00     0.223 C 
ATOM     31  H   UNL     1       4.386  -0.115  -0.594  1.00  0.00     0.163 HD
ATOM     32  O   UNL     1       4.052  -3.068   0.535  1.00  0.00    -0.275 OA
BRANCH  30  33
ATOM     33  C   UNL     1       6.051  -1.851   0.352  1.00  0.00     0.078 C 
ATOM     34  C   UNL     1       6.899  -1.020  -0.582  1.00  0.00     0.014 C 
ATOM     35  C   UNL     1       6.650  -0.546   0.821  1.00  0.00     0.014 C 
ENDBRANCH  30  33
ENDBRANCH  28  29
ENDBRANCH  27  28
ENDBRANCH   4  27
TORSDOF 9
