MODEL        9USER    Run = 9USERUSER    Estimated Free Energy of Binding    = -11.92 kcal/mol  [=(1)+(2)+(3)-(4)]USERUSER    (1) Final Intermolecular Energy     = -14.01 kcal/molUSER        vdW + Hbond + desolv Energy     = -13.72 kcal/molUSER        Electrostatic Energy            =  -0.30 kcal/molUSER        Moving Ligand-Fixed Receptor    = -14.01 kcal/molUSER        Moving Ligand-Moving Receptor   =  +0.00 kcal/molUSER    (2) Final Total Internal Energy     =  -1.52 kcal/molUSER    (3) Torsional Free Energy           =  +2.09 kcal/molUSER    (4) Unbound System's Energy         =  -1.52 kcal/molUSERUSERREMARK SMILES Cn1ccc(-c2nc3cc(O)ccc3nc2-c2ccc(CN3CCC(n4c(O)nc5ccccc54)CC3)cc2)n1REMARK SMILES IDX 21 1 20 2 17 3 18 4 39 5 19 6 38 7 16 8 6 9 7 10 8 11 15 12REMARK SMILES IDX 9 13 14 14 10 15 13 16 12 17 5 18 2 19 3 20 40 21 4 22 1 23REMARK SMILES IDX 11 24 22 26 23 27 37 28 24 29 36 30 25 31 26 32 27 33 35 34REMARK SMILES IDX 29 35 34 36 30 37 33 38 31 39 32 40 28 41REMARK H PARENT 11 25 28 42USER                              x       y       z     vdW  Elec       q    TypeUSER                           _______ _______ _______ _____ _____    ______ ____ROOTATOM      1  C   UNL     1      32.825  42.793  16.514 -0.26 -0.06    +0.120 C  ENDROOTBRANCH   1   2ATOM      2  C   UNL     1      34.151  43.498  16.699 -0.33 +0.01    -0.034 A  ATOM      3  C   UNL     1      36.627  44.847  17.018 -0.33 -0.00    +0.002 A  ATOM      4  C   UNL     1      36.536  43.664  16.264 -0.39 -0.00    +0.011 A  ATOM      5  C   UNL     1      35.458  45.330  17.625 -0.35 -0.01    +0.011 A  ATOM      6  C   UNL     1      35.315  43.001  16.100 -0.43 -0.00    +0.006 A  ATOM      7  C   UNL     1      34.236  44.669  17.464 -0.32 -0.00    +0.006 A  BRANCH   3   8ATOM      8  C   UNL     1      37.927  45.513  17.201 -0.31 -0.03    +0.099 A  ATOM      9  C   UNL     1      38.441  46.558  16.423 -0.32 -0.04    +0.118 A  ATOM     10  N   UNL     1      39.626  47.166  16.739 -0.30 +0.06    -0.242 NA ATOM     11  C   UNL     1      40.295  46.701  17.806 -0.42 -0.01    +0.093 A  ATOM     12  N   UNL     1      38.622  45.043  18.282 -0.24 +0.03    -0.244 NA ATOM     13  C   UNL     1      41.508  47.282  18.152 -0.46 -0.00    +0.076 A  ATOM     14  C   UNL     1      39.793  45.630  18.580 -0.38 -0.01    +0.090 A  ATOM     15  C   UNL     1      42.226  46.820  19.250 -0.42 +0.01    +0.117 A  ATOM     16  C   UNL     1      40.523  45.184  19.674 -0.39 +0.00    +0.034 A  ATOM     17  C   UNL     1      41.740  45.773  20.017 -0.36 +0.01    +0.048 A  BRANCH   9  18ATOM     18  C   UNL     1      37.807  47.086  15.209 -0.35 -0.06    +0.113 A  ATOM     19  N   UNL     1      36.975  47.193  13.252 -0.33 +0.12    -0.275 N  ATOM     20  C   UNL     1      36.910  48.474  13.705 -0.46 -0.06    +0.109 A  ATOM     21  N   UNL     1      37.519  46.337  14.130 -0.29 +0.07    -0.171 NA ATOM     22  C   UNL     1      37.451  48.445  14.968 -0.49 -0.04    +0.052 A  ATOM     23  C   UNL     1      36.516  46.701  11.975 -0.62 -0.07    +0.173 C  ENDBRANCH   9  18BRANCH  15  24ATOM     24  O   UNL     1      43.418  47.372  19.608 -0.27 -0.14    -0.508 OA ATOM     25  H   UNL     1      43.322  48.338  19.652 -0.40 -0.06    +0.293 HD ENDBRANCH  15  24ENDBRANCH   3   8ENDBRANCH   1   2BRANCH   1  26ATOM     26  N   UNL     1      32.166  42.442  17.783 -0.12 +0.08    -0.299 NA ATOM     27  C   UNL     1      32.616  41.173  18.367 -0.41 -0.01    +0.087 C  ATOM     28  C   UNL     1      30.707  42.464  17.681 -0.25 -0.02    +0.087 C  ATOM     29  C   UNL     1      32.145  39.947  17.591 -0.42 -0.01    +0.041 C  ATOM     30  C   UNL     1      30.103  41.276  16.925 -0.35 -0.01    +0.041 C  ATOM     31  C   UNL     1      30.613  39.908  17.408 -0.33 -0.00    +0.095 C  BRANCH  31  32ATOM     32  N   UNL     1      29.931  39.260  18.531 -0.18 -0.05    -0.291 N  ATOM     33  C   UNL     1      28.574  39.410  18.729 -0.11 +0.04    +0.295 A  ATOM     34  C   UNL     1      30.386  38.499  19.590 -0.35 +0.01    +0.072 A  ATOM     35  N   UNL     1      28.109  38.735  19.738 -0.17 -0.01    -0.195 NA ATOM     36  C   UNL     1      31.639  38.067  20.053 -0.49 +0.01    +0.029 A  ATOM     37  C   UNL     1      29.218  38.158  20.290 -0.26 +0.01    +0.092 A  ATOM     38  C   UNL     1      31.687  37.252  21.192 -0.48 +0.00    +0.002 A  ATOM     39  C   UNL     1      29.287  37.337  21.429 -0.30 -0.00    +0.031 A  ATOM     40  C   UNL     1      30.530  36.882  21.868 -0.45 +0.00    +0.002 A  BRANCH  33  41ATOM     41  O   UNL     1      27.784  40.156  17.981 -0.04 -0.04    -0.480 OA ATOM     42  H   UNL     1      27.362  40.718  18.657 +0.16 -0.01    +0.296 HD ENDBRANCH  33  41ENDBRANCH  31  32ENDBRANCH   1  26TORSDOF 7TERENDMDL