REMARK SMILES CO[C@@H]1CCCN(c2cc(Nc3cc(C)[nH]n3)nc(C)c2CCNC(=O)c2noc(N)n2)C1
REMARK SMILES IDX 22 1 21 2 8 3 9 4 10 5 19 6 18 7 20 8 7 9 3 10 4 11 33 12
REMARK SMILES IDX 5 13 6 14 2 15 1 16 11 17 12 19 13 20 17 21 14 22 16 23
REMARK SMILES IDX 15 24 23 26 24 27 25 28 26 30 27 31 28 32 32 33 29 34 30 35
REMARK SMILES IDX 31 36
REMARK H PARENT 11 18 16 25 24 29 31 37 31 38
ROOT
ATOM      1  C   UNL     1       0.898   0.794  -1.046  1.00  0.00     0.061 C 
ENDROOT
BRANCH   1   2
ATOM      2  C   UNL     1      -0.461   0.578  -0.419  1.00  0.00    -0.001 A 
ATOM      3  C   UNL     1      -0.743  -0.612   0.274  1.00  0.00     0.046 A 
ATOM      4  C   UNL     1      -2.006  -0.770   0.856  1.00  0.00     0.073 A 
ATOM      5  C   UNL     1      -2.952   0.247   0.771  1.00  0.00     0.133 A 
ATOM      6  C   UNL     1      -1.464   1.553  -0.466  1.00  0.00     0.045 A 
ATOM      7  N   UNL     1      -2.683   1.385   0.105  1.00  0.00    -0.236 NA
ATOM      8  C   UNL     1      -1.271   2.869  -1.163  1.00  0.00     0.067 C 
BRANCH   3   9
ATOM      9  N   UNL     1       0.249  -1.616   0.356  1.00  0.00    -0.369 N 
ATOM     10  C   UNL     1       1.147  -3.729  -0.569  1.00  0.00     0.137 C 
ATOM     11  C   UNL     1       1.609  -4.108   0.845  1.00  0.00     0.036 C 
ATOM     12  C   UNL     1      -0.072  -2.785  -0.489  1.00  0.00     0.148 C 
ATOM     13  C   UNL     1       1.846  -2.872   1.708  1.00  0.00     0.024 C 
ATOM     14  C   UNL     1       0.604  -1.981   1.739  1.00  0.00     0.117 C 
BRANCH  10  15
ATOM     15  O   UNL     1       0.834  -4.951  -1.250  1.00  0.00    -0.380 OA
ATOM     16  C   UNL     1       0.797  -4.811  -2.663  1.00  0.00     0.195 C 
ENDBRANCH  10  15
ENDBRANCH   3   9
BRANCH   5  17
ATOM     17  N   UNL     1      -4.216   0.022   1.355  1.00  0.00    -0.323 N 
ATOM     18  H   UNL     1      -4.139  -0.501   2.217  1.00  0.00     0.170 HD
BRANCH  17  19
ATOM     19  C   UNL     1      -5.344   0.758   1.286  1.00  0.00     0.153 A 
ATOM     20  C   UNL     1      -5.685   1.698   0.287  1.00  0.00     0.071 A 
ATOM     21  N   UNL     1      -6.324   0.637   2.187  1.00  0.00    -0.158 NA
ATOM     22  C   UNL     1      -6.930   2.174   0.634  1.00  0.00     0.034 A 
ATOM     23  N   UNL     1      -7.258   1.509   1.780  1.00  0.00    -0.281 N 
ATOM     24  C   UNL     1      -7.820   3.174   0.009  1.00  0.00     0.066 C 
ATOM     25  H   UNL     1      -8.104   1.596   2.334  1.00  0.00     0.190 HD
ENDBRANCH  17  19
ENDBRANCH   5  17
ENDBRANCH   1   2
BRANCH   1  26
ATOM     26  C   UNL     1       1.930   1.271  -0.025  1.00  0.00     0.121 C 
BRANCH  26  27
ATOM     27  N   UNL     1       3.225   1.500  -0.634  1.00  0.00    -0.349 N 
ATOM     28  C   UNL     1       4.381   1.574   0.130  1.00  0.00     0.292 C 
ATOM     29  H   UNL     1       3.282   1.889  -1.570  1.00  0.00     0.163 HD
ATOM     30  O   UNL     1       4.401   1.314   1.331  1.00  0.00    -0.266 OA
BRANCH  28  31
ATOM     31  C   UNL     1       5.573   2.004  -0.622  1.00  0.00     0.262 A 
ATOM     32  N   UNL     1       5.526   2.294  -1.939  1.00  0.00    -0.049 NA
ATOM     33  N   UNL     1       6.825   2.153  -0.059  1.00  0.00    -0.167 NA
ATOM     34  O   UNL     1       6.843   2.654  -2.233  1.00  0.00    -0.315 OA
ATOM     35  C   UNL     1       7.545   2.551  -1.070  1.00  0.00     0.319 A 
BRANCH  35  36
ATOM     36  N   UNL     1       8.850   2.840  -1.100  1.00  0.00    -0.351 N 
ATOM     37  H   UNL     1       9.392   2.473  -0.325  1.00  0.00     0.161 HD
ATOM     38  H   UNL     1       9.319   2.765  -1.995  1.00  0.00     0.161 HD
ENDBRANCH  35  36
ENDBRANCH  28  31
ENDBRANCH  26  27
ENDBRANCH   1  26
TORSDOF 9
