MODEL        1USER    Run = 1USERUSER    Estimated Free Energy of Binding    = -10.50 kcal/mol  [=(1)+(2)+(3)-(4)]USERUSER    (1) Final Intermolecular Energy     = -13.48 kcal/molUSER        vdW + Hbond + desolv Energy     = -12.97 kcal/molUSER        Electrostatic Energy            =  -0.52 kcal/molUSER        Moving Ligand-Fixed Receptor    = -13.48 kcal/molUSER        Moving Ligand-Moving Receptor   =  +0.00 kcal/molUSER    (2) Final Total Internal Energy     =  -2.84 kcal/molUSER    (3) Torsional Free Energy           =  +2.98 kcal/molUSER    (4) Unbound System's Energy         =  -2.84 kcal/molUSERUSERREMARK SMILES C[C@H](O)NC[C@H]1C(=O)N[C@H](c2c(F)cccc2F)N1C(=O)CN1CCC(c2ccc(O)c3c2CCC3)CC1REMARK SMILES IDX 6 1 7 2 8 3 9 4 10 5 19 6 5 8 4 9 2 11 1 12 3 13 20 15 21 16REMARK SMILES IDX 22 17 23 18 24 19 38 20 25 21 37 22 26 23 27 24 28 25 33 26REMARK SMILES IDX 29 27 32 28 34 29 30 30 36 31 35 32 31 33 11 35 12 36 17 37REMARK SMILES IDX 14 38 16 39 15 40 13 41 18 42REMARK H PARENT 9 7 4 10 3 14 31 34USER                              x       y       z     vdW  Elec       q    TypeUSER                           _______ _______ _______ _____ _____    ______ ____ROOTATOM      1  C   UNL     1      40.647  48.120  17.121 -0.37 -0.03    +0.190 C  ATOM      2  C   UNL     1      41.183  48.657  15.797 -0.38 -0.02    +0.246 C  ATOM      3  O   UNL     1      41.888  49.638  15.619 -0.88 -0.02    -0.273 OA ATOM      4  N   UNL     1      40.770  47.832  14.776 -0.24 +0.03    -0.330 N  ATOM      5  C   UNL     1      39.850  46.847  15.219 -0.37 -0.04    +0.219 C  ATOM      6  N   UNL     1      39.862  46.964  16.661 -0.26 +0.06    -0.303 N  ATOM      7  H   UNL     1      40.981  48.054  13.814 +0.15 -0.01    +0.166 HD ENDROOTBRANCH   1   8ATOM      8  C   UNL     1      41.823  47.736  18.044 -0.48 -0.01    +0.118 C  BRANCH   8   9ATOM      9  N   UNL     1      41.360  47.014  19.245 -0.22 -0.01    -0.290 NA ATOM     10  H   UNL     1      40.875  46.172  18.932 +0.07 -0.00    +0.125 HD BRANCH   9  11ATOM     11  C   UNL     1      42.472  46.620  20.088 -0.36 +0.04    +0.179 C  ATOM     12  C   UNL     1      42.174  46.963  21.542 -0.28 +0.01    +0.056 C  BRANCH  11  13ATOM     13  O   UNL     1      43.608  47.350  19.686 -0.34 -0.13    -0.379 OA ATOM     14  H   UNL     1      43.376  48.266  19.923 -0.45 -0.04    +0.212 HD ENDBRANCH  11  13ENDBRANCH   9  11ENDBRANCH   8   9ENDBRANCH   1   8BRANCH   6  15ATOM     15  C   UNL     1      39.152  46.200  17.565 -0.32 -0.05    +0.239 C  ATOM     16  O   UNL     1      39.040  46.566  18.738 -0.19 +0.04    -0.273 OA BRANCH  15  17ATOM     17  C   UNL     1      38.528  44.880  17.068 -0.16 -0.04    +0.185 C  BRANCH  17  18ATOM     18  N   UNL     1      37.160  45.088  16.555 -0.15 +0.11    -0.294 NA ATOM     19  C   UNL     1      36.693  43.905  15.817 -0.38 -0.03    +0.085 C  ATOM     20  C   UNL     1      36.214  45.498  17.593 -0.34 -0.04    +0.085 C  ATOM     21  C   UNL     1      35.164  43.778  15.748 -0.37 -0.01    +0.024 C  ATOM     22  C   UNL     1      34.901  45.976  16.962 -0.38 -0.02    +0.024 C  ATOM     23  C   UNL     1      34.504  45.163  15.714 -0.37 -0.02    +0.022 C  BRANCH  23  24ATOM     24  C   UNL     1      32.998  45.123  15.537 -0.32 +0.03    -0.041 A  ATOM     25  C   UNL     1      32.354  45.874  14.537 -0.38 -0.01    +0.008 A  ATOM     26  C   UNL     1      32.188  44.315  16.340 -0.30 +0.02    -0.038 A  ATOM     27  C   UNL     1      30.958  45.843  14.382 -0.51 -0.03    +0.047 A  ATOM     28  C   UNL     1      30.791  44.285  16.185 -0.32 +0.00    -0.003 A  ATOM     29  C   UNL     1      32.604  43.424  17.476 -0.35 -0.01    +0.036 C  ATOM     30  C   UNL     1      30.177  45.055  15.217 -0.30 -0.07    +0.119 A  ATOM     31  C   UNL     1      30.166  43.385  17.207 -0.27 -0.01    +0.040 C  ATOM     32  C   UNL     1      31.365  42.539  17.644 -0.34 -0.00    +0.010 C  BRANCH  30  33ATOM     33  O   UNL     1      28.828  45.080  15.035 -0.04 +0.38    -0.508 OA ATOM     34  H   UNL     1      28.639  44.849  14.111 -0.21 -0.61    +0.293 HD ENDBRANCH  30  33ENDBRANCH  23  24ENDBRANCH  17  18ENDBRANCH  15  17ENDBRANCH   6  15BRANCH   5  35ATOM     35  C   UNL     1      38.504  47.053  14.580 -0.41 -0.02    +0.066 A  ATOM     36  C   UNL     1      37.787  48.248  14.688 -0.43 -0.08    +0.133 A  ATOM     37  C   UNL     1      37.934  46.034  13.813 -0.32 -0.04    +0.133 A  ATOM     38  C   UNL     1      36.545  48.416  14.074 -0.30 -0.03    +0.040 A  ATOM     39  C   UNL     1      36.695  46.183  13.191 -0.51 -0.02    +0.040 A  ATOM     40  C   UNL     1      35.995  47.380  13.323 -0.55 -0.00    +0.006 A  ATOM     41  F   UNL     1      38.285  49.273  15.392 -0.14 +0.16    -0.206 F  ATOM     42  F   UNL     1      38.582  44.869  13.671 +0.06 +0.05    -0.206 F  ENDBRANCH   5  35TORSDOF 10TERENDMDL