MODEL        6USER    Run = 6USERUSER    Estimated Free Energy of Binding    = -12.53 kcal/mol  [=(1)+(2)+(3)-(4)]USERUSER    (1) Final Intermolecular Energy     = -15.51 kcal/molUSER        vdW + Hbond + desolv Energy     = -15.34 kcal/molUSER        Electrostatic Energy            =  -0.17 kcal/molUSER        Moving Ligand-Fixed Receptor    = -15.51 kcal/molUSER        Moving Ligand-Moving Receptor   =  +0.00 kcal/molUSER    (2) Final Total Internal Energy     =  -1.95 kcal/molUSER    (3) Torsional Free Energy           =  +2.98 kcal/molUSER    (4) Unbound System's Energy         =  -1.95 kcal/molUSERUSERREMARK SMILES Oc1cnc(-c2ccc(CN3CCC(n4c(O)nc5ccccc54)CC3)cc2)c(-c2cnn(CCN3CCOCC3)c2)c1REMARK SMILES IDX 6 1 7 2 8 3 9 4 27 5 28 6 5 7 2 8 3 9 43 10 4 11 29 12 1 13REMARK SMILES IDX 30 15 31 16 42 17 32 18 33 19 34 20 35 21 36 22 37 23 41 24REMARK SMILES IDX 38 25 40 26 39 27 10 28 11 29 12 30 26 31 13 32 25 33 14 34REMARK SMILES IDX 15 35 16 36 24 37 18 38 23 39 19 40 22 41 20 42 21 43 17 44REMARK H PARENT 1 14 17 45USER                              x       y       z     vdW  Elec       q    TypeUSER                           _______ _______ _______ _____ _____    ______ ____ROOTATOM      1  C   UNL     1      39.526  43.842  23.901 -0.20 +0.00    +0.001 A  ATOM      2  C   UNL     1      40.438  43.032  23.210 -0.26 +0.00    +0.011 A  ATOM      3  C   UNL     1      41.420  43.590  22.388 -0.30 +0.00    +0.006 A  ATOM      4  C   UNL     1      41.530  44.981  22.254 -0.22 -0.00    -0.034 A  ATOM      5  C   UNL     1      40.635  45.798  22.955 -0.21 +0.00    +0.006 A  ATOM      6  C   UNL     1      39.648  45.235  23.770 -0.20 +0.00    +0.011 A  ENDROOTBRANCH   1   7ATOM      7  C   UNL     1      38.491  43.235  24.753 -0.20 +0.00    +0.078 A  ATOM      8  C   UNL     1      36.691  42.222  26.573 -0.34 -0.02    +0.134 A  ATOM      9  C   UNL     1      37.875  42.818  26.958 -0.22 -0.02    +0.157 A  ATOM     10  C   UNL     1      36.405  42.124  25.216 -0.36 -0.00    +0.059 A  ATOM     11  N   UNL     1      38.776  43.318  26.084 -0.08 +0.01    -0.252 NA ATOM     12  C   UNL     1      37.313  42.632  24.271 -0.38 +0.00    +0.015 A  BRANCH   8  13ATOM     13  O   UNL     1      35.850  41.736  27.526 -0.20 +0.18    -0.506 OA ATOM     14  H   UNL     1      36.214  41.932  28.405 -0.30 -0.17    +0.293 HD ENDBRANCH   8  13BRANCH  12  15ATOM     15  C   UNL     1      37.025  42.457  22.855 -0.44 +0.00    +0.022 A  ATOM     16  C   UNL     1      36.789  41.292  22.090 -0.45 +0.01    +0.144 A  ATOM     17  C   UNL     1      36.884  43.488  21.946 -0.32 +0.01    +0.117 A  ATOM     18  N   UNL     1      36.506  41.563  20.811 -0.39 +0.00    -0.181 NA ATOM     19  N   UNL     1      36.564  42.904  20.752 -0.25 +0.00    -0.271 N  BRANCH  19  20ATOM     20  C   UNL     1      36.199  43.587  19.524 -0.34 -0.02    +0.159 C  BRANCH  20  21ATOM     21  C   UNL     1      34.802  44.201  19.657 -0.37 -0.02    +0.108 C  BRANCH  21  22ATOM     22  N   UNL     1      33.736  43.216  19.924 -0.67 -0.02    -0.297 NA ATOM     23  C   UNL     1      32.378  43.788  19.775 -0.43 -0.00    +0.113 C  ATOM     24  C   UNL     1      33.901  42.046  19.018 -0.37 -0.01    +0.113 C  ATOM     25  C   UNL     1      31.810  43.713  18.342 -0.24 -0.02    +0.175 C  ATOM     26  C   UNL     1      32.569  41.455  18.529 -0.33 -0.02    +0.175 C  ATOM     27  O   UNL     1      31.846  42.408  17.741 -0.11 +0.09    -0.379 OA ENDBRANCH  21  22ENDBRANCH  20  21ENDBRANCH  19  20ENDBRANCH  12  15ENDBRANCH   1   7BRANCH   4  28ATOM     28  C   UNL     1      42.590  45.583  21.358 -0.25 +0.03    +0.120 C  BRANCH  28  29ATOM     29  N   UNL     1      42.104  45.871  20.001 -0.19 -0.06    -0.299 NA ATOM     30  C   UNL     1      42.819  47.001  19.385 -0.50 +0.02    +0.087 C  ATOM     31  C   UNL     1      40.651  46.028  19.970 -0.34 +0.00    +0.087 C  ATOM     32  C   UNL     1      41.978  47.802  18.384 -0.50 -0.00    +0.041 C  ATOM     33  C   UNL     1      40.164  46.018  18.521 -0.49 -0.00    +0.041 C  ATOM     34  C   UNL     1      41.048  46.876  17.598 -0.50 -0.01    +0.095 C  BRANCH  34  35ATOM     35  N   UNL     1      40.284  47.598  16.588 -0.30 +0.06    -0.291 N  ATOM     36  C   UNL     1      40.616  48.822  16.075 -0.33 -0.06    +0.295 A  ATOM     37  C   UNL     1      39.105  47.215  15.978 -0.41 -0.02    +0.072 A  ATOM     38  N   UNL     1      39.776  49.251  15.173 -0.34 +0.10    -0.195 NA ATOM     39  C   UNL     1      38.274  46.092  16.094 -0.36 -0.01    +0.029 A  ATOM     40  C   UNL     1      38.827  48.261  15.095 -0.45 -0.04    +0.092 A  ATOM     41  C   UNL     1      37.141  46.042  15.275 -0.38 -0.00    +0.002 A  ATOM     42  C   UNL     1      37.686  48.188  14.281 -0.52 -0.02    +0.031 A  ATOM     43  C   UNL     1      36.851  47.069  14.378 -0.46 -0.00    +0.002 A  BRANCH  36  44ATOM     44  O   UNL     1      41.660  49.530  16.446 -0.86 -0.06    -0.480 OA ATOM     45  H   UNL     1      41.298  50.434  16.428 +0.00 -0.06    +0.296 HD ENDBRANCH  36  44ENDBRANCH  34  35ENDBRANCH  28  29ENDBRANCH   4  28TORSDOF 10TERENDMDL