MODEL        6USER    Run = 6USERUSER    Estimated Free Energy of Binding    = -10.12 kcal/mol  [=(1)+(2)+(3)-(4)]USERUSER    (1) Final Intermolecular Energy     = -12.80 kcal/molUSER        vdW + Hbond + desolv Energy     = -12.75 kcal/molUSER        Electrostatic Energy            =  -0.06 kcal/molUSER        Moving Ligand-Fixed Receptor    = -12.80 kcal/molUSER        Moving Ligand-Moving Receptor   =  +0.00 kcal/molUSER    (2) Final Total Internal Energy     =  -1.64 kcal/molUSER    (3) Torsional Free Energy           =  +2.68 kcal/molUSER    (4) Unbound System's Energy         =  -1.64 kcal/molUSERUSERREMARK SMILES CO[C@@H]1CCCN(c2cc(Nc3cc(C)[nH]n3)nc(C)c2CCNC(=O)c2noc(N)n2)C1REMARK SMILES IDX 22 1 21 2 8 3 9 4 10 5 19 6 18 7 20 8 7 9 3 10 4 11 33 12REMARK SMILES IDX 5 13 6 14 2 15 1 16 11 17 12 19 13 20 17 21 14 22 16 23REMARK SMILES IDX 15 24 23 26 24 27 25 28 26 30 27 31 28 32 32 33 29 34 30 35REMARK SMILES IDX 31 36REMARK H PARENT 11 18 16 25 24 29 31 37 31 38USER                              x       y       z     vdW  Elec       q    TypeUSER                           _______ _______ _______ _____ _____    ______ ____ROOTATOM      1  C   UNL     1      34.439  44.227  15.742 -0.31 -0.03    +0.061 C  ENDROOTBRANCH   1   2ATOM      2  C   UNL     1      35.626  44.432  16.656 -0.32 +0.00    -0.001 A  ATOM      3  C   UNL     1      36.566  45.442  16.385 -0.32 -0.02    +0.046 A  ATOM      4  C   UNL     1      37.642  45.614  17.262 -0.32 -0.02    +0.073 A  ATOM      5  C   UNL     1      37.760  44.816  18.396 -0.28 -0.02    +0.133 A  ATOM      6  C   UNL     1      35.813  43.667  17.813 -0.29 -0.01    +0.045 A  ATOM      7  N   UNL     1      36.862  43.847  18.654 -0.17 +0.04    -0.236 NA ATOM      8  C   UNL     1      34.866  42.573  18.213 -0.41 -0.02    +0.067 C  BRANCH   3   9ATOM      9  N   UNL     1      36.404  46.246  15.233 -0.11 +0.24    -0.369 N  ATOM     10  C   UNL     1      36.106  46.320  12.777 -0.56 -0.07    +0.137 C  ATOM     11  C   UNL     1      36.889  47.640  12.760 -0.68 -0.01    +0.036 C  ATOM     12  C   UNL     1      36.543  45.465  13.986 -0.38 -0.07    +0.148 C  ATOM     13  C   UNL     1      36.787  48.371  14.096 -0.53 -0.02    +0.024 C  ATOM     14  C   UNL     1      37.229  47.467  15.247 -0.42 -0.08    +0.117 C  BRANCH  10  15ATOM     15  O   UNL     1      36.369  45.660  11.532 -0.31 +0.15    -0.380 OA ATOM     16  C   UNL     1      36.919  44.361  11.692 -0.40 -0.06    +0.195 C  ENDBRANCH  10  15ENDBRANCH   3   9BRANCH   5  17ATOM     17  N   UNL     1      38.879  45.018  19.231 -0.19 +0.02    -0.323 N  ATOM     18  H   UNL     1      39.008  44.246  19.872 +0.10 -0.00    +0.170 HD BRANCH  17  19ATOM     19  C   UNL     1      40.015  45.707  19.003 -0.34 -0.01    +0.153 A  ATOM     20  C   UNL     1      40.998  46.063  19.954 -0.33 +0.00    +0.071 A  ATOM     21  N   UNL     1      40.362  46.113  17.777 -0.35 +0.01    -0.158 NA ATOM     22  C   UNL     1      41.971  46.737  19.249 -0.47 +0.00    +0.034 A  ATOM     23  N   UNL     1      41.533  46.741  17.956 -0.31 +0.02    -0.281 N  ATOM     24  C   UNL     1      43.241  47.368  19.664 -0.45 +0.02    +0.066 C  ATOM     25  H   UNL     1      41.985  47.149  17.143 -0.39 -0.05    +0.190 HD ENDBRANCH  17  19ENDBRANCH   5  17ENDBRANCH   1   2BRANCH   1  26ATOM     26  C   UNL     1      33.213  45.010  16.211 -0.30 -0.08    +0.121 C  BRANCH  26  27ATOM     27  N   UNL     1      32.505  45.618  15.102 -0.15 +0.30    -0.349 N  ATOM     28  C   UNL     1      31.126  45.765  15.118 -0.32 -0.17    +0.292 C  ATOM     29  H   UNL     1      32.952  45.686  14.193 +0.09 -0.13    +0.163 HD ATOM     30  O   UNL     1      30.443  45.524  16.111 -0.67 +0.05    -0.266 OA BRANCH  28  31ATOM     31  C   UNL     1      30.555  46.221  13.838 -0.37 -0.16    +0.262 A  ATOM     32  N   UNL     1      31.329  46.601  12.800 -0.71 +0.03    -0.049 NA ATOM     33  N   UNL     1      29.200  46.295  13.583 -0.26 +0.13    -0.167 NA ATOM     34  O   UNL     1      30.398  46.940  11.816 -1.05 +0.13    -0.315 OA ATOM     35  C   UNL     1      29.165  46.725  12.354 -0.27 -0.21    +0.319 A  BRANCH  35  36ATOM     36  N   UNL     1      28.097  46.990  11.594 -0.28 +0.21    -0.351 N  ATOM     37  H   UNL     1      27.534  46.184  11.344 +0.00 -0.10    +0.161 HD ATOM     38  H   UNL     1      27.550  47.808  11.836 +0.09 -0.06    +0.161 HD ENDBRANCH  35  36ENDBRANCH  28  31ENDBRANCH  26  27ENDBRANCH   1  26TORSDOF 9TERENDMDL