MODEL        8USER    Run = 8USERUSER    Estimated Free Energy of Binding    = -10.52 kcal/mol  [=(1)+(2)+(3)-(4)]USERUSER    (1) Final Intermolecular Energy     = -13.21 kcal/molUSER        vdW + Hbond + desolv Energy     = -13.01 kcal/molUSER        Electrostatic Energy            =  -0.20 kcal/molUSER        Moving Ligand-Fixed Receptor    = -13.21 kcal/molUSER        Moving Ligand-Moving Receptor   =  +0.00 kcal/molUSER    (2) Final Total Internal Energy     =  -1.73 kcal/molUSER    (3) Torsional Free Energy           =  +2.68 kcal/molUSER    (4) Unbound System's Energy         =  -1.73 kcal/molUSERUSERREMARK SMILES Cc1cc(Nc2cc(N3CCC[C@@H](OC(F)F)C3)c(CCNC(=O)C3CC3)c(C)n2)n[nH]1REMARK SMILES IDX 6 1 7 2 8 3 19 4 28 5 29 6 30 7 5 8 4 10 2 11 3 12 32 13REMARK SMILES IDX 31 14 1 15 9 17 10 18 18 19 11 20 13 21 12 22 14 23 15 24REMARK SMILES IDX 16 25 17 26 20 27 21 28 22 29 23 30 24 32 25 33 26 34 27 35REMARK H PARENT 5 9 32 16 22 31USER                              x       y       z     vdW  Elec       q    TypeUSER                           _______ _______ _______ _____ _____    ______ ____ROOTATOM      1  C   UNL     1      40.846  49.047  15.981 -0.49 -0.02    +0.133 A  ATOM      2  C   UNL     1      39.803  48.239  15.538 -0.49 -0.02    +0.073 A  ATOM      3  C   UNL     1      39.512  47.036  16.193 -0.44 -0.01    +0.046 A  ATOM      4  C   UNL     1      40.302  46.661  17.294 -0.50 +0.00    -0.001 A  ATOM      5  C   UNL     1      41.324  47.533  17.689 -0.47 -0.00    +0.045 A  ATOM      6  C   UNL     1      42.208  47.250  18.871 -0.55 +0.00    +0.067 C  ATOM      7  N   UNL     1      41.595  48.691  17.039 -0.80 -0.01    -0.236 NA ENDROOTBRANCH   1   8ATOM      8  N   UNL     1      41.094  50.247  15.273 -0.40 +0.10    -0.323 N  ATOM      9  H   UNL     1      40.292  50.854  15.356 -0.36 -0.11    +0.170 HD BRANCH   8  10ATOM     10  C   UNL     1      41.887  50.408  14.189 -0.50 -0.04    +0.153 A  ATOM     11  C   UNL     1      43.502  51.269  12.916 -0.35 -0.02    +0.034 A  ATOM     12  C   UNL     1      42.886  51.414  14.139 -0.15 -0.02    +0.071 A  ATOM     13  N   UNL     1      42.869  50.214  12.324 -0.43 +0.11    -0.281 N  ATOM     14  N   UNL     1      41.923  49.657  13.086 -0.35 +0.03    -0.158 NA ATOM     15  C   UNL     1      44.598  52.009  12.256 -0.40 -0.03    +0.066 C  ATOM     16  H   UNL     1      43.037  49.811  11.408 -0.38 -0.12    +0.190 HD ENDBRANCH   8  10ENDBRANCH   1   8BRANCH   3  17ATOM     17  N   UNL     1      38.456  46.197  15.771 -0.12 +0.12    -0.369 N  ATOM     18  C   UNL     1      37.178  46.447  16.447 -0.35 -0.06    +0.117 C  ATOM     19  C   UNL     1      38.352  46.152  14.288 -0.37 -0.04    +0.148 C  ATOM     20  C   UNL     1      36.273  45.229  16.242 -0.38 -0.01    +0.024 C  ATOM     21  C   UNL     1      37.016  45.512  13.822 -0.40 -0.06    +0.144 C  ATOM     22  C   UNL     1      36.484  44.545  14.884 -0.41 -0.01    +0.036 C  BRANCH  21  23ATOM     23  O   UNL     1      36.004  46.506  13.617 -0.30 +0.19    -0.318 OA BRANCH  23  24ATOM     24  C   UNL     1      36.161  47.243  12.416 -0.32 -0.25    +0.484 C  ATOM     25  F   UNL     1      36.774  48.407  12.733 -0.24 +0.06    -0.179 F  ATOM     26  F   UNL     1      36.974  46.588  11.556 -0.26 +0.06    -0.179 F  ENDBRANCH  23  24ENDBRANCH  21  23ENDBRANCH   3  17BRANCH   4  27ATOM     27  C   UNL     1      40.000  45.395  18.063 -0.45 -0.00    +0.061 C  BRANCH  27  28ATOM     28  C   UNL     1      39.200  45.688  19.335 -0.36 -0.01    +0.120 C  BRANCH  28  29ATOM     29  N   UNL     1      37.926  44.993  19.350 -0.14 +0.03    -0.356 N  ATOM     30  C   UNL     1      37.452  44.376  20.483 -0.28 -0.00    +0.223 C  ATOM     31  H   UNL     1      37.427  44.890  18.480 +0.10 -0.03    +0.163 HD ATOM     32  O   UNL     1      38.038  44.378  21.557 -0.25 -0.01    -0.275 OA BRANCH  30  33ATOM     33  C   UNL     1      36.152  43.658  20.360 -0.43 -0.00    +0.078 C  ATOM     34  C   UNL     1      35.752  42.888  19.123 -0.44 -0.00    +0.014 C  ATOM     35  C   UNL     1      36.066  42.150  20.393 -0.53 -0.00    +0.014 C  ENDBRANCH  30  33ENDBRANCH  28  29ENDBRANCH  27  28ENDBRANCH   4  27TORSDOF 9TERENDMDL