MODEL        6USER    Run = 6USERUSER    Estimated Free Energy of Binding    =  -6.84 kcal/mol  [=(1)+(2)+(3)-(4)]USERUSER    (1) Final Intermolecular Energy     = -11.32 kcal/molUSER        vdW + Hbond + desolv Energy     = -12.08 kcal/molUSER        Electrostatic Energy            =  -0.14 kcal/molUSER        Moving Ligand-Fixed Receptor    = -12.22 kcal/molUSER        Moving Ligand-Moving Receptor   =  +0.90 kcal/molUSER    (2) Final Total Internal Energy     =  -2.96 kcal/molUSER    (3) Torsional Free Energy           =  +4.47 kcal/molUSER    (4) Unbound System's Energy         =  -2.96 kcal/molUSERUSERREMARK SMILES COc1ccc(O)c(C(=O)c2ccc(NC[C@@H]3CCCNC[C@@H]3NC(=O)c3ccncc3)cc2)c1FREMARK SMILES IDX 16 1 15 2 14 4 11 5 12 6 34 7 13 8 33 9 9 10 10 11 8 12 3 13REMARK SMILES IDX 4 14 35 15 5 16 6 17 36 18 2 19 1 20 7 21 17 23 18 24 23 26REMARK SMILES IDX 22 27 21 28 20 30 19 31 24 33 25 34 26 36 27 37 28 38 32 39REMARK SMILES IDX 29 40 31 41 30 42REMARK H PARENT 15 3 7 22 21 29 24 35REMARK Flexibility Score:   99.900USER                              x       y       z     vdW  Elec       q    TypeUSER                           _______ _______ _______ _____ _____    ______ ____ROOTATOM      1  C   UNL     1      40.430  46.278  15.610 -0.37 -0.01    +0.118 C  ENDROOTBRANCH   1   2ATOM      2  N   UNL     1      41.035  46.918  16.781 -0.14 +0.04    -0.385 N  ATOM      3  H   UNL     1      41.905  47.399  16.572 -0.41 -0.04    +0.160 HD BRANCH   2   4ATOM      4  C   UNL     1      41.003  46.345  18.050 -0.48 -0.00    +0.034 A  ATOM      5  C   UNL     1      40.937  45.020  20.550 -0.35 +0.00    +0.023 A  ATOM      6  C   UNL     1      41.775  46.120  20.353 -0.38 +0.00    +0.014 A  ATOM      7  C   UNL     1      40.173  44.544  19.484 -0.38 +0.00    +0.014 A  ATOM      8  C   UNL     1      41.811  46.767  19.112 -0.49 +0.00    +0.026 A  ATOM      9  C   UNL     1      40.216  45.202  18.249 -0.42 -0.00    +0.026 A  BRANCH   5  10ATOM     10  C   UNL     1      40.956  44.344  21.869 -0.21 +0.01    +0.199 C  ATOM     11  O   UNL     1      41.267  43.153  21.928 -0.25 -0.01    -0.288 OA BRANCH  10  12ATOM     12  C   UNL     1      40.565  45.013  23.130 -0.14 +0.01    +0.104 A  ATOM     13  C   UNL     1      38.992  46.308  24.470 -0.19 +0.01    +0.155 A  ATOM     14  C   UNL     1      39.872  46.251  25.553 -0.13 +0.00    +0.053 A  ATOM     15  C   UNL     1      39.353  45.692  23.262 -0.19 +0.01    +0.179 A  ATOM     16  C   UNL     1      41.103  45.603  25.421 -0.08 +0.00    +0.051 A  ATOM     17  C   UNL     1      41.450  45.002  24.214 -0.06 +0.01    +0.130 A  ATOM     18  F   UNL     1      38.517  45.790  22.216 -0.12 -0.02    -0.202 F  BRANCH  13  19ATOM     19  O   UNL     1      37.771  46.928  24.474 -0.46 -0.13    -0.494 OA ATOM     20  C   UNL     1      37.662  48.151  25.192 -0.30 +0.03    +0.278 C  ENDBRANCH  13  19BRANCH  17  21ATOM     21  O   UNL     1      42.687  44.418  24.160 +0.02 -0.03    -0.507 OA ATOM     22  H   UNL     1      42.635  43.659  23.535 +0.10 +0.01    +0.293 HD ENDBRANCH  17  21ENDBRANCH  10  12ENDBRANCH   5  10ENDBRANCH   2   4ENDBRANCH   1   2BRANCH   1  23ATOM     23  C   UNL     1      38.945  46.679  15.431 -0.48 -0.01    +0.032 C  BRANCH  23  24ATOM     24  C   UNL     1      38.350  45.974  14.196 -0.47 -0.00    +0.009 CG0ATOM     25  G   UNL     1      36.874  46.192  13.865 +0.00 +0.00    +0.000 G0 ENDBRANCH  23  24BRANCH  23  26ATOM     26  C   UNL     1      38.798  48.219  15.450 -0.50 -0.05    +0.101 C  BRANCH  26  27ATOM     27  C   UNL     1      37.410  48.665  14.934 -0.51 -0.09    +0.106 C  BRANCH  27  28ATOM     28  N   UNL     1      37.240  48.609  13.476 -0.60 +0.13    -0.315 NA ATOM     29  H   UNL     1      36.691  49.426  13.201 +0.03 -0.05    +0.122 HD BRANCH  28  30ATOM     30  C   UNL     1      36.522  47.414  13.030 -0.64 -0.04    +0.081 C  BRANCH  30  31ATOM     31  C   UNL     1      36.874  46.193  13.869 -0.51 -0.01    +0.016 CG0ATOM     32  G   UNL     1      38.355  45.982  14.186 +0.00 +0.00    +0.000 G0 ENDBRANCH  30  31ENDBRANCH  28  30ENDBRANCH  27  28ENDBRANCH  26  27BRANCH  26  33ATOM     33  N   UNL     1      39.844  48.905  14.695 -0.25 +0.14    -0.348 N  ATOM     34  C   UNL     1      40.958  49.456  15.279 -0.51 -0.06    +0.251 C  ATOM     35  H   UNL     1      39.632  49.052  13.716 -0.04 -0.06    +0.164 HD ATOM     36  O   UNL     1      41.165  49.423  16.487 -0.92 +0.02    -0.269 OA BRANCH  34  37ATOM     37  C   UNL     1      41.924  50.135  14.375 -0.65 -0.01    +0.042 A  ATOM     38  C   UNL     1      42.827  51.038  14.939 -0.02 -0.00    +0.034 A  ATOM     39  C   UNL     1      41.975  49.880  13.004 -0.26 -0.01    +0.034 A  ATOM     40  C   UNL     1      43.729  51.667  14.102 +0.44 -0.03    +0.112 A  ATOM     41  C   UNL     1      42.917  50.561  12.254 -0.48 -0.05    +0.112 A  ATOM     42  N   UNL     1      43.789  51.451  12.771 -0.29 +0.13    -0.265 NA ENDBRANCH  34  37ENDBRANCH  26  33ENDBRANCH  23  26ENDBRANCH   1  23TORSDOF 9TERENDMDL