REMARK SMILES COc1ccc(O)c(C(=O)c2ccc(/C=C/[C@@H]3CCCNC[C@H]3NC(=O)c3ccncc3)cc2)c1F
REMARK SMILES IDX 16 1 15 2 14 3 11 4 12 5 34 6 13 7 33 8 9 9 10 10 8 11 3 12
REMARK SMILES IDX 4 13 35 14 5 15 6 16 36 17 2 18 1 19 7 20 17 22 18 23 23 25
REMARK SMILES IDX 22 26 21 27 20 29 19 30 24 32 25 33 26 35 27 36 28 37 32 38
REMARK SMILES IDX 29 39 31 40 30 41
REMARK H PARENT 7 21 21 28 24 34
REMARK Flexibility Score:   99.900
ROOT
ATOM      1  C   UNL     1      -1.335  -1.516   0.855  1.00  0.00    -0.021 C 
ENDROOT
BRANCH   1   2
ATOM      2  C   UNL     1      -0.842  -0.682  -0.074  1.00  0.00     0.004 C 
BRANCH   2   3
ATOM      3  C   UNL     1       0.343   0.158   0.140  1.00  0.00    -0.026 A 
ATOM      4  C   UNL     1       2.606   1.786   0.470  1.00  0.00     0.023 A 
ATOM      5  C   UNL     1       2.401   1.113  -0.738  1.00  0.00     0.013 A 
ATOM      6  C   UNL     1       1.665   1.680   1.498  1.00  0.00     0.013 A 
ATOM      7  C   UNL     1       1.269   0.306  -0.900  1.00  0.00     0.009 A 
ATOM      8  C   UNL     1       0.544   0.863   1.335  1.00  0.00     0.009 A 
BRANCH   4   9
ATOM      9  C   UNL     1       3.773   2.672   0.667  1.00  0.00     0.199 C 
ATOM     10  O   UNL     1       3.598   3.781   1.174  1.00  0.00    -0.288 OA
BRANCH   9  11
ATOM     11  C   UNL     1       5.141   2.308   0.234  1.00  0.00     0.104 A 
ATOM     12  C   UNL     1       6.877   0.648  -0.190  1.00  0.00     0.155 A 
ATOM     13  C   UNL     1       7.744   1.664  -0.595  1.00  0.00     0.053 A 
ATOM     14  C   UNL     1       5.579   0.982   0.225  1.00  0.00     0.179 A 
ATOM     15  C   UNL     1       7.325   2.997  -0.562  1.00  0.00     0.051 A 
ATOM     16  C   UNL     1       6.039   3.315  -0.138  1.00  0.00     0.130 A 
ATOM     17  F   UNL     1       4.767   0.000   0.649  1.00  0.00    -0.202 F 
BRANCH  12  18
ATOM     18  O   UNL     1       7.179  -0.687  -0.160  1.00  0.00    -0.494 OA
ATOM     19  C   UNL     1       8.511  -1.062  -0.487  1.00  0.00     0.278 C 
ENDBRANCH  12  18
BRANCH  16  20
ATOM     20  O   UNL     1       5.721   4.647  -0.108  1.00  0.00    -0.507 OA
ATOM     21  H   UNL     1       4.884   4.745   0.402  1.00  0.00     0.293 HD
ENDBRANCH  16  20
ENDBRANCH   9  11
ENDBRANCH   4   9
ENDBRANCH   2   3
ENDBRANCH   1   2
BRANCH   1  22
ATOM     22  C   UNL     1      -2.555  -2.420   0.695  1.00  0.00     0.035 C 
BRANCH  22  23
ATOM     23  C   UNL     1      -2.041  -3.773   0.165  1.00  0.00     0.011 CG0
ATOM     24  G   UNL     1      -3.060  -4.786  -0.345  1.00  0.00     0.000 G0
ENDBRANCH  22  23
BRANCH  22  25
ATOM     25  C   UNL     1      -3.757  -1.834  -0.107  1.00  0.00     0.103 C 
BRANCH  25  26
ATOM     26  C   UNL     1      -5.098  -2.494   0.326  1.00  0.00     0.106 C 
BRANCH  26  27
ATOM     27  N   UNL     1      -5.342  -3.877  -0.067  1.00  0.00    -0.315 NA
ATOM     28  H   UNL     1      -5.415  -3.931  -1.084  1.00  0.00     0.122 HD
BRANCH  27  29
ATOM     29  C   UNL     1      -4.371  -4.842   0.425  1.00  0.00     0.081 C 
BRANCH  29  30
ATOM     30  C   UNL     1      -3.060  -4.786  -0.345  1.00  0.00     0.016 CG0
ATOM     31  G   UNL     1      -2.041  -3.773   0.165  1.00  0.00     0.000 G0
ENDBRANCH  29  30
ENDBRANCH  27  29
ENDBRANCH  26  27
ENDBRANCH  25  26
BRANCH  25  32
ATOM     32  N   UNL     1      -3.870  -0.381   0.086  1.00  0.00    -0.347 N 
ATOM     33  C   UNL     1      -4.516   0.425  -0.825  1.00  0.00     0.251 C 
ATOM     34  H   UNL     1      -3.631  -0.008   0.995  1.00  0.00     0.164 HD
ATOM     35  O   UNL     1      -5.035   0.007  -1.852  1.00  0.00    -0.269 OA
BRANCH  33  36
ATOM     36  C   UNL     1      -4.589   1.868  -0.484  1.00  0.00     0.042 A 
ATOM     37  C   UNL     1      -3.569   2.508   0.220  1.00  0.00     0.034 A 
ATOM     38  C   UNL     1      -5.696   2.596  -0.916  1.00  0.00     0.034 A 
ATOM     39  C   UNL     1      -3.719   3.856   0.486  1.00  0.00     0.112 A 
ATOM     40  C   UNL     1      -5.752   3.939  -0.596  1.00  0.00     0.112 A 
ATOM     41  N   UNL     1      -4.792   4.582   0.104  1.00  0.00    -0.265 NA
ENDBRANCH  33  36
ENDBRANCH  25  32
ENDBRANCH  22  25
ENDBRANCH   1  22
TORSDOF 9
