MODEL        1USER    Run = 1USERUSER    Estimated Free Energy of Binding    =  -6.81 kcal/mol  [=(1)+(2)+(3)-(4)]USERUSER    (1) Final Intermolecular Energy     = -11.28 kcal/molUSER        vdW + Hbond + desolv Energy     = -11.50 kcal/molUSER        Electrostatic Energy            =  -0.05 kcal/molUSER        Moving Ligand-Fixed Receptor    = -11.54 kcal/molUSER        Moving Ligand-Moving Receptor   =  +0.26 kcal/molUSER    (2) Final Total Internal Energy     =  -2.94 kcal/molUSER    (3) Torsional Free Energy           =  +4.47 kcal/molUSER    (4) Unbound System's Energy         =  -2.94 kcal/molUSERUSERREMARK SMILES COc1ccc(O)c(C(=O)c2ccc(CO[C@@H]3CCCNC[C@@H]3NC(=O)c3ccncc3)cc2)c1FREMARK SMILES IDX 16 1 15 2 14 3 11 4 12 5 34 6 13 7 33 8 9 9 10 10 8 11 3 12REMARK SMILES IDX 4 13 35 14 5 15 6 16 36 17 2 18 1 19 7 20 17 22 18 23 23 25REMARK SMILES IDX 22 26 21 27 20 29 19 30 24 32 25 33 26 35 27 36 28 37 32 38REMARK SMILES IDX 29 39 31 40 30 41REMARK H PARENT 7 21 21 28 24 34REMARK Flexibility Score:   99.900USER                              x       y       z     vdW  Elec       q    TypeUSER                           _______ _______ _______ _____ _____    ______ ____ROOTATOM      1  O   UNL     1      36.420  45.352  15.817 -0.12 +0.19    -0.371 OA ENDROOTBRANCH   1   2ATOM      2  C   UNL     1      35.272  45.006  16.589 -0.24 -0.11    +0.196 C  BRANCH   2   3ATOM      3  C   UNL     1      35.737  44.288  17.829 -0.30 +0.01    -0.022 A  ATOM      4  C   UNL     1      36.635  42.950  20.131 -0.38 -0.00    +0.023 A  ATOM      5  C   UNL     1      37.190  44.183  19.778 -0.37 -0.00    +0.012 A  ATOM      6  C   UNL     1      35.609  42.402  19.354 -0.40 -0.00    +0.012 A  ATOM      7  C   UNL     1      36.746  44.842  18.630 -0.33 -0.00    +0.007 A  ATOM      8  C   UNL     1      35.167  43.064  18.206 -0.35 -0.00    +0.007 A  BRANCH   4   9ATOM      9  C   UNL     1      37.050  42.230  21.359 -0.37 +0.01    +0.199 C  ATOM     10  O   UNL     1      37.050  40.996  21.359 -0.44 -0.00    -0.288 OA BRANCH   9  11ATOM     11  C   UNL     1      37.407  42.915  22.619 -0.34 +0.01    +0.104 A  ATOM     12  C   UNL     1      38.710  44.552  23.872 -0.17 +0.01    +0.155 A  ATOM     13  C   UNL     1      38.034  44.192  25.040 -0.23 +0.00    +0.053 A  ATOM     14  C   UNL     1      38.393  43.901  22.671 -0.21 +0.01    +0.179 A  ATOM     15  C   UNL     1      37.069  43.183  25.007 -0.33 +0.00    +0.051 A  ATOM     16  C   UNL     1      36.770  42.540  23.808 -0.31 +0.01    +0.130 A  ATOM     17  F   UNL     1      39.075  44.230  21.561 -0.05 -0.01    -0.202 F  BRANCH  12  18ATOM     18  O   UNL     1      39.682  45.511  23.784 -0.01 -0.03    -0.494 OA ATOM     19  C   UNL     1      39.286  46.805  23.345 -0.18 +0.03    +0.278 C  ENDBRANCH  12  18BRANCH  16  20ATOM     20  O   UNL     1      35.834  41.542  23.870 -0.04 +0.01    -0.507 OA ATOM     21  H   UNL     1      36.158  40.791  23.320 +0.16 -0.02    +0.293 HD ENDBRANCH  16  20ENDBRANCH   9  11ENDBRANCH   4   9ENDBRANCH   2   3ENDBRANCH   1   2BRANCH   1  22ATOM     22  C   UNL     1      36.538  46.770  15.568 -0.35 -0.11    +0.142 C  BRANCH  22  23ATOM     23  C   UNL     1      35.523  47.052  14.451 -0.14 -0.03    +0.035 CG0ATOM     24  G   UNL     1      35.565  46.216  13.176 +0.00 +0.00    +0.000 G0 ENDBRANCH  22  23BRANCH  22  25ATOM     25  C   UNL     1      38.012  47.113  15.246 -0.40 -0.06    +0.125 C  BRANCH  25  26ATOM     26  C   UNL     1      38.384  46.669  13.809 -0.41 -0.03    +0.108 C  BRANCH  26  27ATOM     27  N   UNL     1      37.713  47.361  12.712 -0.84 +0.06    -0.315 NA ATOM     28  H   UNL     1      38.408  47.581  11.997 +0.07 +0.02    +0.122 HD BRANCH  27  29ATOM     29  C   UNL     1      36.591  46.635  12.134 -0.69 -0.03    +0.081 C  BRANCH  29  30ATOM     30  C   UNL     1      35.565  46.215  13.175 -0.54 -0.01    +0.018 CG0ATOM     31  G   UNL     1      35.523  47.048  14.451 +0.00 +0.00    +0.000 G0 ENDBRANCH  29  30ENDBRANCH  27  29ENDBRANCH  26  27ENDBRANCH  25  26BRANCH  25  32ATOM     32  N   UNL     1      38.916  46.603  16.288 -0.17 +0.10    -0.345 N  ATOM     33  C   UNL     1      39.891  47.403  16.844 -0.36 -0.06    +0.251 C  ATOM     34  H   UNL     1      38.498  45.921  16.909 +0.11 -0.05    +0.164 HD ATOM     35  O   UNL     1      40.149  48.534  16.453 -0.41 +0.08    -0.269 OA BRANCH  33  36ATOM     36  C   UNL     1      40.622  46.835  18.010 -0.47 -0.00    +0.042 A  ATOM     37  C   UNL     1      41.780  47.480  18.443 -0.48 -0.00    +0.034 A  ATOM     38  C   UNL     1      40.202  45.670  18.650 -0.44 -0.00    +0.034 A  ATOM     39  C   UNL     1      42.464  46.938  19.515 -0.42 +0.02    +0.112 A  ATOM     40  C   UNL     1      40.958  45.207  19.713 -0.34 +0.01    +0.112 A  ATOM     41  N   UNL     1      42.075  45.818  20.161 -0.21 -0.06    -0.265 NA ENDBRANCH  33  36ENDBRANCH  25  32ENDBRANCH  22  25ENDBRANCH   1  22TORSDOF 9TERENDMDL