MODEL        6USER    Run = 6USERUSER    Estimated Free Energy of Binding    = -12.60 kcal/mol  [=(1)+(2)+(3)-(4)]USERUSER    (1) Final Intermolecular Energy     = -14.99 kcal/molUSER        vdW + Hbond + desolv Energy     = -14.88 kcal/molUSER        Electrostatic Energy            =  -0.11 kcal/molUSER        Moving Ligand-Fixed Receptor    = -14.99 kcal/molUSER        Moving Ligand-Moving Receptor   =  +0.00 kcal/molUSER    (2) Final Total Internal Energy     =  -2.43 kcal/molUSER    (3) Torsional Free Energy           =  +2.39 kcal/molUSER    (4) Unbound System's Energy         =  -2.43 kcal/molUSERUSERREMARK SMILES N#Cc1cnc(-c2ccc(CNCc3ccc(-c4csnn4)cc3)cc2)c(-c2ccccc2)c1REMARK SMILES IDX 11 1 10 2 7 3 8 4 26 5 9 6 25 7 6 8 3 9 4 10 34 11 5 12REMARK SMILES IDX 27 13 2 14 1 15 28 16 29 17 33 18 30 19 32 20 31 21 12 22REMARK SMILES IDX 13 24 14 25 15 26 24 27 16 28 23 29 17 30 18 31 19 32 22 33REMARK SMILES IDX 20 34 21 35REMARK H PARENT 12 23USER                              x       y       z     vdW  Elec       q    TypeUSER                           _______ _______ _______ _____ _____    ______ ____ROOTATOM      1  C   UNL     1      36.437  43.456  20.371 -0.40 -0.00    +0.117 C  ENDROOTBRANCH   1   2ATOM      2  C   UNL     1      35.545  43.944  19.254 -0.36 +0.01    -0.034 A  ATOM      3  C   UNL     1      33.900  44.860  17.127 -0.32 -0.00    +0.001 A  ATOM      4  C   UNL     1      34.040  45.602  18.313 -0.46 -0.01    +0.011 A  ATOM      5  C   UNL     1      34.590  43.640  17.038 -0.33 -0.00    +0.011 A  ATOM      6  C   UNL     1      34.855  45.157  19.360 -0.18 -0.00    +0.006 A  ATOM      7  C   UNL     1      35.407  43.192  18.081 -0.35 -0.00    +0.006 A  BRANCH   3   8ATOM      8  C   UNL     1      33.035  45.354  16.037 -0.24 -0.06    +0.078 A  ATOM      9  C   UNL     1      31.182  46.179  14.156 -0.51 -0.05    +0.071 A  ATOM     10  C   UNL     1      30.817  45.713  15.403 -0.36 -0.06    +0.131 A  ATOM     11  C   UNL     1      32.542  46.241  13.855 -0.15 -0.03    +0.032 A  ATOM     12  N   UNL     1      31.705  45.310  16.341 -0.66 +0.10    -0.254 NA ATOM     13  C   UNL     1      33.507  45.831  14.796 -0.14 -0.01    +0.009 A  BRANCH   9  14ATOM     14  C   UNL     1      30.191  46.593  13.215 -0.57 -0.06    +0.101 C  ATOM     15  N   UNL     1      29.387  46.927  12.450 -0.69 +0.10    -0.192 NA ENDBRANCH   9  14BRANCH  13  16ATOM     16  C   UNL     1      34.933  45.957  14.448 -0.35 +0.01    -0.016 A  ATOM     17  C   UNL     1      35.414  47.103  13.791 -0.29 -0.01    +0.009 A  ATOM     18  C   UNL     1      35.853  44.947  14.776 -0.32 -0.00    +0.009 A  ATOM     19  C   UNL     1      36.766  47.230  13.463 -0.57 -0.00    +0.001 A  ATOM     20  C   UNL     1      37.205  45.073  14.447 -0.39 -0.00    +0.001 A  ATOM     21  C   UNL     1      37.660  46.214  13.791 -0.45 -0.00    +0.000 A  ENDBRANCH  13  16ENDBRANCH   3   8ENDBRANCH   1   2BRANCH   1  22ATOM     22  N   UNL     1      37.511  44.416  20.625 -0.19 +0.00    -0.309 NA ATOM     23  H   UNL     1      37.682  44.442  21.629 +0.06 +0.01    +0.123 HD BRANCH  22  24ATOM     24  C   UNL     1      38.751  44.052  19.941 -0.21 -0.00    +0.117 C  BRANCH  24  25ATOM     25  C   UNL     1      39.252  45.120  18.996 -0.39 +0.00    -0.034 A  ATOM     26  C   UNL     1      40.445  45.805  19.256 -0.44 -0.00    +0.006 A  ATOM     27  C   UNL     1      38.519  45.459  17.852 -0.39 -0.00    +0.006 A  ATOM     28  C   UNL     1      40.902  46.800  18.384 -0.49 -0.00    +0.011 A  ATOM     29  C   UNL     1      38.974  46.454  16.982 -0.42 -0.00    +0.011 A  ATOM     30  C   UNL     1      40.174  47.133  17.232 -0.50 -0.00    +0.003 A  BRANCH  30  31ATOM     31  C   UNL     1      40.623  48.166  16.302 -0.48 -0.02    +0.105 A  ATOM     32  C   UNL     1      40.299  48.208  14.956 -0.46 -0.03    +0.118 A  ATOM     33  N   UNL     1      41.416  49.227  16.734 -1.04 -0.00    -0.138 NA ATOM     34  S   UNL     1      41.043  49.604  14.290 -0.81 +0.01    -0.020 S  ATOM     35  N   UNL     1      41.714  50.058  15.751 -1.03 +0.00    -0.091 NA ENDBRANCH  30  31ENDBRANCH  24  25ENDBRANCH  22  24ENDBRANCH   1  22TORSDOF 8TERENDMDL