MODEL        6USER    Run = 6USERUSER    Estimated Free Energy of Binding    =  -7.20 kcal/mol  [=(1)+(2)+(3)-(4)]USERUSER    (1) Final Intermolecular Energy     = -11.67 kcal/molUSER        vdW + Hbond + desolv Energy     = -11.91 kcal/molUSER        Electrostatic Energy            =  -0.14 kcal/molUSER        Moving Ligand-Fixed Receptor    = -12.05 kcal/molUSER        Moving Ligand-Moving Receptor   =  +0.38 kcal/molUSER    (2) Final Total Internal Energy     =  -2.34 kcal/molUSER    (3) Torsional Free Energy           =  +4.47 kcal/molUSER    (4) Unbound System's Energy         =  -2.34 kcal/molUSERUSERREMARK SMILES COc1ccc(O)c(C(=O)c2ccc(/C=C/[C@@H]3CCCNC[C@H]3NC(=O)c3ccncc3)cc2)c1FREMARK SMILES IDX 16 1 15 2 14 3 11 4 12 5 34 6 13 7 33 8 9 9 10 10 8 11 3 12REMARK SMILES IDX 4 13 35 14 5 15 6 16 36 17 2 18 1 19 7 20 17 22 18 23 23 25REMARK SMILES IDX 22 26 21 27 20 29 19 30 24 32 25 33 26 35 27 36 28 37 32 38REMARK SMILES IDX 29 39 31 40 30 41REMARK H PARENT 7 21 21 28 24 34REMARK Flexibility Score:   99.900USER                              x       y       z     vdW  Elec       q    TypeUSER                           _______ _______ _______ _____ _____    ______ ____ROOTATOM      1  C   UNL     1      38.239  42.340  25.536 -0.31 +0.00    -0.021 C  ENDROOTBRANCH   1   2ATOM      2  C   UNL     1      38.710  42.747  24.346 -0.27 +0.00    +0.004 C  BRANCH   2   3ATOM      3  C   UNL     1      37.877  42.858  23.142 -0.35 -0.00    -0.026 A  ATOM      4  C   UNL     1      36.227  43.029  20.878 -0.43 +0.00    +0.023 A  ATOM      5  C   UNL     1      36.179  41.893  21.692 -0.53 +0.00    +0.013 A  ATOM      6  C   UNL     1      37.067  44.094  21.213 -0.39 +0.00    +0.013 A  ATOM      7  C   UNL     1      37.000  41.815  22.823 -0.50 +0.00    +0.009 A  ATOM      8  C   UNL     1      37.893  44.004  22.335 -0.35 +0.00    +0.009 A  BRANCH   4   9ATOM      9  C   UNL     1      35.352  43.162  19.693 -0.34 -0.02    +0.199 C  ATOM     10  O   UNL     1      34.588  42.237  19.412 -0.29 +0.01    -0.288 OA BRANCH   9  11ATOM     11  C   UNL     1      35.387  44.338  18.796 -0.29 -0.03    +0.104 A  ATOM     12  C   UNL     1      36.586  45.858  17.311 -0.25 -0.07    +0.155 A  ATOM     13  C   UNL     1      35.408  46.576  17.102 -0.29 -0.05    +0.053 A  ATOM     14  C   UNL     1      36.564  44.742  18.162 -0.22 -0.05    +0.179 A  ATOM     15  C   UNL     1      34.231  46.198  17.754 -0.40 -0.05    +0.051 A  ATOM     16  C   UNL     1      34.226  45.096  18.604 -0.33 -0.05    +0.130 A  ATOM     17  F   UNL     1      37.712  44.082  18.386 -0.07 +0.03    -0.202 F  BRANCH  12  18ATOM     18  O   UNL     1      37.800  46.143  16.746 -0.09 +0.19    -0.494 OA ATOM     19  C   UNL     1      38.856  46.514  17.622 -0.25 -0.07    +0.278 C  ENDBRANCH  12  18BRANCH  16  20ATOM     20  O   UNL     1      33.039  44.813  19.225 -0.14 +0.13    -0.507 OA ATOM     21  H   UNL     1      33.053  43.862  19.481 +0.19 -0.03    +0.293 HD ENDBRANCH  16  20ENDBRANCH   9  11ENDBRANCH   4   9ENDBRANCH   2   3ENDBRANCH   1   2BRANCH   1  22ATOM     22  C   UNL     1      37.771  43.243  26.674 -0.31 -0.00    +0.035 C  BRANCH  22  23ATOM     23  C   UNL     1      37.853  42.408  27.968 -0.40 -0.00    +0.011 CG0ATOM     24  G   UNL     1      36.969  41.172  28.090 +0.00 +0.00    +0.000 G0 ENDBRANCH  22  23BRANCH  22  25ATOM     25  C   UNL     1      36.409  43.974  26.470 -0.38 -0.01    +0.103 C  BRANCH  25  26ATOM     26  C   UNL     1      35.311  43.391  27.407 -0.53 -0.02    +0.106 C  BRANCH  26  27ATOM     27  N   UNL     1      34.844  42.032  27.156 -0.32 +0.09    -0.315 NA ATOM     28  H   UNL     1      34.241  42.029  26.333 +0.00 -0.02    +0.122 HD BRANCH  27  29ATOM     29  C   UNL     1      35.892  41.031  27.023 -0.58 -0.03    +0.081 C  BRANCH  29  30ATOM     30  C   UNL     1      36.968  41.176  28.088 -0.47 -0.01    +0.016 CG0ATOM     31  G   UNL     1      37.852  42.412  27.966 +0.00 +0.00    +0.000 G0 ENDBRANCH  29  30ENDBRANCH  27  29ENDBRANCH  26  27ENDBRANCH  25  26BRANCH  25  32ATOM     32  N   UNL     1      36.531  45.414  26.737 -0.09 +0.08    -0.347 N  ATOM     33  C   UNL     1      37.096  46.277  25.824 -0.20 -0.01    +0.251 C  ATOM     34  H   UNL     1      36.019  45.791  27.524 -0.26 -0.06    +0.164 HD ATOM     35  O   UNL     1      37.538  45.922  24.739 -0.72 -0.05    -0.269 OA BRANCH  33  36ATOM     36  C   UNL     1      37.118  47.711  26.208 -0.36 -0.00    +0.042 A  ATOM     37  C   UNL     1      38.008  48.201  27.164 -0.25 -0.00    +0.034 A  ATOM     38  C   UNL     1      36.245  48.584  25.562 -0.46 -0.00    +0.034 A  ATOM     39  C   UNL     1      37.963  49.552  27.452 -0.19 +0.01    +0.112 A  ATOM     40  C   UNL     1      36.277  49.917  25.924 -0.38 -0.00    +0.112 A  ATOM     41  N   UNL     1      37.110  50.417  26.862 -0.11 -0.04    -0.265 NA ENDBRANCH  33  36ENDBRANCH  25  32ENDBRANCH  22  25ENDBRANCH   1  22TORSDOF 9TERENDMDL