MODEL        5USER    Run = 5USERUSER    Estimated Free Energy of Binding    = -12.97 kcal/mol  [=(1)+(2)+(3)-(4)]USERUSER    (1) Final Intermolecular Energy     = -14.76 kcal/molUSER        vdW + Hbond + desolv Energy     = -14.69 kcal/molUSER        Electrostatic Energy            =  -0.07 kcal/molUSER        Moving Ligand-Fixed Receptor    = -14.76 kcal/molUSER        Moving Ligand-Moving Receptor   =  +0.00 kcal/molUSER    (2) Final Total Internal Energy     =  -1.83 kcal/molUSER    (3) Torsional Free Energy           =  +1.79 kcal/molUSER    (4) Unbound System's Energy         =  -1.83 kcal/molUSERUSERREMARK SMILES Oc1nc2ccccc2n1C1CCN(Cc2ccc(-c3nc4ccccc4nc3-c3ccccc3)cc2)CC1REMARK SMILES IDX 11 1 12 2 13 3 14 4 38 5 39 6 10 7 2 8 3 9 4 10 9 11 5 12REMARK SMILES IDX 8 13 6 14 7 15 1 16 15 18 16 19 17 20 37 21 18 22 36 23REMARK SMILES IDX 19 24 20 25 21 26 29 27 22 28 28 29 23 30 27 31 24 32 26 33REMARK SMILES IDX 25 34 30 35 31 36 35 37 32 38 34 39 33 40REMARK H PARENT 1 17USER                              x       y       z     vdW  Elec       q    TypeUSER                           _______ _______ _______ _____ _____    ______ ____ROOTATOM      1  C   UNL     1      38.955  47.440  15.489 -0.47 -0.03    +0.095 C  ATOM      2  C   UNL     1      37.809  46.914  16.370 -0.41 -0.02    +0.041 C  ATOM      3  C   UNL     1      36.440  47.333  15.834 -0.30 -0.09    +0.087 C  ATOM      4  N   UNL     1      36.303  47.189  14.382 -0.21 +0.22    -0.299 NA ATOM      5  C   UNL     1      37.333  47.928  13.634 -0.56 -0.04    +0.087 C  ATOM      6  C   UNL     1      38.470  48.497  14.491 -0.56 -0.02    +0.041 C  ENDROOTBRANCH   1   7ATOM      7  N   UNL     1      40.102  47.878  16.268 -0.30 +0.07    -0.291 N  ATOM      8  C   UNL     1      40.814  49.032  16.089 -0.33 -0.05    +0.295 A  ATOM      9  N   UNL     1      41.792  49.175  16.939 -0.86 -0.04    -0.195 NA ATOM     10  C   UNL     1      41.717  48.058  17.735 -0.35 -0.00    +0.092 A  ATOM     11  C   UNL     1      40.665  47.225  17.346 -0.47 -0.01    +0.072 A  ATOM     12  C   UNL     1      42.520  47.691  18.826 -0.50 +0.00    +0.031 A  ATOM     13  C   UNL     1      40.372  46.025  18.009 -0.46 -0.00    +0.029 A  ATOM     14  C   UNL     1      42.243  46.495  19.499 -0.45 +0.00    +0.002 A  ATOM     15  C   UNL     1      41.186  45.678  19.095 -0.46 +0.00    +0.002 A  BRANCH   8  16ATOM     16  O   UNL     1      40.559  49.936  15.165 -0.23 +0.21    -0.480 OA ATOM     17  H   UNL     1      39.800  50.403  15.559 -0.20 -0.21    +0.296 HD ENDBRANCH   8  16ENDBRANCH   1   7BRANCH   4  18ATOM     18  C   UNL     1      36.201  45.792  13.924 -0.42 -0.06    +0.120 C  BRANCH  18  19ATOM     19  C   UNL     1      35.503  44.876  14.906 -0.24 +0.02    -0.034 A  ATOM     20  C   UNL     1      34.211  45.165  15.360 -0.31 -0.00    +0.006 A  ATOM     21  C   UNL     1      36.146  43.729  15.389 -0.38 -0.00    +0.006 A  ATOM     22  C   UNL     1      33.571  44.311  16.265 -0.32 -0.01    +0.011 A  ATOM     23  C   UNL     1      35.503  42.878  16.291 -0.45 -0.00    +0.011 A  ATOM     24  C   UNL     1      34.197  43.145  16.733 -0.37 -0.00    +0.002 A  BRANCH  24  25ATOM     25  C   UNL     1      33.498  42.249  17.670 -0.32 -0.03    +0.097 A  ATOM     26  N   UNL     1      32.407  41.633  17.131 -0.08 +0.11    -0.244 NA ATOM     27  C   UNL     1      33.868  42.033  19.007 -0.31 -0.01    +0.097 A  ATOM     28  C   UNL     1      31.680  40.840  17.938 -0.32 -0.02    +0.089 A  ATOM     29  N   UNL     1      33.118  41.236  19.822 -0.07 -0.06    -0.244 NA ATOM     30  C   UNL     1      30.553  40.201  17.435 -0.34 -0.00    +0.030 A  ATOM     31  C   UNL     1      32.036  40.643  19.289 -0.29 +0.01    +0.089 A  ATOM     32  C   UNL     1      29.769  39.372  18.239 -0.34 +0.00    +0.002 A  ATOM     33  C   UNL     1      31.249  39.817  20.082 -0.28 +0.00    +0.030 A  ATOM     34  C   UNL     1      30.119  39.179  19.569 -0.31 +0.00    +0.002 A  BRANCH  27  35ATOM     35  C   UNL     1      35.065  42.595  19.661 -0.44 -0.00    +0.002 A  ATOM     36  C   UNL     1      35.488  43.903  19.363 -0.38 -0.00    +0.010 A  ATOM     37  C   UNL     1      35.802  41.871  20.615 -0.43 -0.00    +0.010 A  ATOM     38  C   UNL     1      36.618  44.456  19.973 -0.31 -0.00    +0.001 A  ATOM     39  C   UNL     1      36.934  42.421  21.223 -0.46 +0.00    +0.001 A  ATOM     40  C   UNL     1      37.343  43.712  20.901 -0.39 +0.00    +0.000 A  ENDBRANCH  27  35ENDBRANCH  24  25ENDBRANCH  18  19ENDBRANCH   4  18TORSDOF 6TERENDMDL