MODEL        6USER    Run = 6USERUSER    Estimated Free Energy of Binding    =  -6.48 kcal/mol  [=(1)+(2)+(3)-(4)]USERUSER    (1) Final Intermolecular Energy     = -10.66 kcal/molUSER        vdW + Hbond + desolv Energy     = -10.85 kcal/molUSER        Electrostatic Energy            =  -0.30 kcal/molUSER        Moving Ligand-Fixed Receptor    = -11.16 kcal/molUSER        Moving Ligand-Moving Receptor   =  +0.50 kcal/molUSER    (2) Final Total Internal Energy     =  -2.80 kcal/molUSER    (3) Torsional Free Energy           =  +4.18 kcal/molUSER    (4) Unbound System's Energy         =  -2.80 kcal/molUSERUSERREMARK SMILES COc1ccc(O)c(C(=O)c2ccc(C(=O)N[C@@H]3CCCNC[C@H]3NC(=O)c3ccncc3)cc2)c1FREMARK SMILES IDX 15 1 16 2 17 3 14 5 11 6 12 7 35 8 13 9 34 10 9 11 10 12REMARK SMILES IDX 8 13 3 14 4 15 36 16 5 17 6 18 37 19 2 20 1 21 7 22 18 24REMARK SMILES IDX 19 25 24 27 23 28 22 29 21 31 20 32 25 34 26 35 27 37 28 38REMARK SMILES IDX 29 39 33 40 30 41 32 42 31 43REMARK H PARENT 17 4 7 23 22 30 25 36REMARK Flexibility Score:   88.900USER                              x       y       z     vdW  Elec       q    TypeUSER                           _______ _______ _______ _____ _____    ______ ____ROOTATOM      1  C   UNL     1      38.455  45.054  17.564 -0.26 -0.05    +0.251 C  ATOM      2  O   UNL     1      37.924  44.037  17.133 -0.21 +0.06    -0.269 OA ATOM      3  N   UNL     1      38.366  46.280  16.936 -0.17 +0.11    -0.347 N  ATOM      4  H   UNL     1      38.994  47.013  17.236 +0.09 -0.05    +0.164 HD ENDROOTBRANCH   1   5ATOM      5  C   UNL     1      39.308  44.998  18.784 -0.39 -0.00    +0.039 A  ATOM      6  C   UNL     1      41.025  44.922  20.999 -0.32 +0.00    +0.023 A  ATOM      7  C   UNL     1      41.458  44.437  19.761 -0.23 +0.00    +0.013 A  ATOM      8  C   UNL     1      39.733  45.444  21.131 -0.33 +0.00    +0.013 A  ATOM      9  C   UNL     1      40.597  44.464  18.660 -0.40 +0.00    +0.014 A  ATOM     10  C   UNL     1      38.870  45.472  20.027 -0.32 -0.00    +0.014 A  BRANCH   6  11ATOM     11  C   UNL     1      41.998  44.946  22.113 -0.19 +0.03    +0.199 C  ATOM     12  O   UNL     1      42.210  43.895  22.720 -0.14 -0.02    -0.288 OA BRANCH  11  13ATOM     13  C   UNL     1      42.771  46.144  22.515 -0.18 +0.02    +0.104 A  ATOM     14  C   UNL     1      42.907  48.427  23.368 -0.30 +0.04    +0.155 A  ATOM     15  C   UNL     1      44.300  48.381  23.273 -0.24 +0.01    +0.053 A  ATOM     16  C   UNL     1      42.154  47.303  22.989 -0.18 +0.03    +0.179 A  ATOM     17  C   UNL     1      44.932  47.218  22.826 -0.23 +0.02    +0.051 A  ATOM     18  C   UNL     1      44.172  46.107  22.465 -0.17 +0.06    +0.130 A  ATOM     19  F   UNL     1      40.818  47.351  23.122 -0.06 -0.02    -0.202 F  BRANCH  14  20ATOM     20  O   UNL     1      42.179  49.502  23.805 -0.72 -0.19    -0.494 OA ATOM     21  C   UNL     1      41.908  49.579  25.201 -0.12 +0.06    +0.278 C  ENDBRANCH  14  20BRANCH  18  22ATOM     22  O   UNL     1      44.878  45.001  22.069 -0.12 -0.41    -0.507 OA ATOM     23  H   UNL     1      44.325  44.210  22.272 +0.11 +0.12    +0.293 HD ENDBRANCH  18  22ENDBRANCH  11  13ENDBRANCH   6  11ENDBRANCH   1   5BRANCH   3  24ATOM     24  C   UNL     1      37.791  46.396  15.590 -0.37 -0.05    +0.106 C  BRANCH  24  25ATOM     25  C   UNL     1      38.706  47.256  14.708 -0.52 -0.01    +0.028 CG0ATOM     26  G   UNL     1      38.048  47.863  13.458 +0.00 +0.00    +0.000 G0 ENDBRANCH  24  25BRANCH  24  27ATOM     27  C   UNL     1      36.325  46.910  15.669 -0.34 -0.11    +0.118 C  BRANCH  27  28ATOM     28  C   UNL     1      35.531  46.824  14.344 -0.31 -0.10    +0.108 C  BRANCH  28  29ATOM     29  N   UNL     1      36.188  46.161  13.213 -0.27 +0.16    -0.315 NA ATOM     30  H   UNL     1      36.527  45.245  13.498 +0.08 -0.05    +0.122 HD BRANCH  29  31ATOM     31  C   UNL     1      37.262  46.905  12.564 -0.62 -0.02    +0.081 C  BRANCH  31  32ATOM     32  C   UNL     1      38.044  47.862  13.459 -0.53 -0.00    +0.017 CG0ATOM     33  G   UNL     1      38.704  47.261  14.711 +0.00 +0.00    +0.000 G0 ENDBRANCH  31  32ENDBRANCH  29  31ENDBRANCH  28  29ENDBRANCH  27  28BRANCH  27  34ATOM     34  N   UNL     1      35.610  46.231  16.757 -0.15 +0.30    -0.346 N  ATOM     35  C   UNL     1      35.221  44.915  16.653 -0.20 -0.14    +0.251 C  ATOM     36  H   UNL     1      35.656  46.653  17.671 +0.09 -0.13    +0.164 HD ATOM     37  O   UNL     1      35.355  44.246  15.636 -0.23 +0.12    -0.269 OA BRANCH  35  38ATOM     38  C   UNL     1      34.639  44.301  17.872 -0.28 -0.02    +0.042 A  ATOM     39  C   UNL     1      33.490  44.875  18.417 -0.38 -0.01    +0.034 A  ATOM     40  C   UNL     1      35.222  43.196  18.494 -0.33 -0.01    +0.034 A  ATOM     41  C   UNL     1      32.956  44.302  19.554 -0.35 -0.02    +0.112 A  ATOM     42  C   UNL     1      34.610  42.698  19.630 -0.34 -0.00    +0.112 A  ATOM     43  N   UNL     1      33.487  43.224  20.169 -0.75 -0.04    -0.265 NA ENDBRANCH  35  38ENDBRANCH  27  34ENDBRANCH  24  27ENDBRANCH   3  24TORSDOF 8TERENDMDL