MODEL        9USER    Run = 9USERUSER    Estimated Free Energy of Binding    =  -6.80 kcal/mol  [=(1)+(2)+(3)-(4)]USERUSER    (1) Final Intermolecular Energy     = -11.27 kcal/molUSER        vdW + Hbond + desolv Energy     = -12.14 kcal/molUSER        Electrostatic Energy            =  -0.18 kcal/molUSER        Moving Ligand-Fixed Receptor    = -12.32 kcal/molUSER        Moving Ligand-Moving Receptor   =  +1.05 kcal/molUSER    (2) Final Total Internal Energy     =  -3.57 kcal/molUSER    (3) Torsional Free Energy           =  +4.47 kcal/molUSER    (4) Unbound System's Energy         =  -3.57 kcal/molUSERUSERREMARK SMILES COc1ccc(O)c(C(=O)c2ccc(CN[C@@H]3CCCNC[C@H]3NC(=O)c3ccncc3)cc2)c1FREMARK SMILES IDX 16 1 15 3 14 4 11 5 12 6 34 7 13 8 33 9 9 10 10 11 8 12 3 13REMARK SMILES IDX 4 14 35 15 5 16 6 17 36 18 2 19 1 20 7 21 17 23 18 24 23 26REMARK SMILES IDX 22 27 21 28 20 30 19 31 24 33 25 34 26 36 27 37 28 38 32 39REMARK SMILES IDX 29 40 31 41 30 42REMARK H PARENT 16 2 7 22 21 29 24 35REMARK Flexibility Score:   99.900USER                              x       y       z     vdW  Elec       q    TypeUSER                           _______ _______ _______ _____ _____    ______ ____ROOTATOM      1  N   UNL     1      38.646  45.510  15.688 -0.13 +0.08    -0.308 NA ATOM      2  H   UNL     1      38.696  44.822  16.443 +0.08 -0.03    +0.123 HD ENDROOTBRANCH   1   3ATOM      3  C   UNL     1      37.242  45.693  15.313 -0.35 -0.05    +0.117 C  BRANCH   3   4ATOM      4  C   UNL     1      36.281  44.885  16.151 -0.32 +0.02    -0.034 A  ATOM      5  C   UNL     1      34.477  43.397  17.714 -0.31 -0.01    +0.023 A  ATOM      6  C   UNL     1      34.455  44.795  17.759 -0.33 -0.01    +0.012 A  ATOM      7  C   UNL     1      35.418  42.745  16.908 -0.43 -0.00    +0.012 A  ATOM      8  C   UNL     1      35.347  45.531  16.975 -0.34 -0.00    +0.006 A  ATOM      9  C   UNL     1      36.309  43.484  16.127 -0.42 -0.00    +0.006 A  BRANCH   5  10ATOM     10  C   UNL     1      33.580  42.571  18.557 -0.30 -0.03    +0.199 C  ATOM     11  O   UNL     1      33.854  42.417  19.749 -0.56 -0.02    -0.288 OA BRANCH  10  12ATOM     12  C   UNL     1      32.328  41.964  18.057 -0.29 -0.02    +0.104 A  ATOM     13  C   UNL     1      30.478  41.869  16.472 -0.24 -0.06    +0.155 A  ATOM     14  C   UNL     1      29.946  40.778  17.161 -0.30 -0.01    +0.053 A  ATOM     15  C   UNL     1      31.672  42.450  16.925 -0.19 -0.07    +0.179 A  ATOM     16  C   UNL     1      30.613  40.261  18.276 -0.29 -0.00    +0.051 A  ATOM     17  C   UNL     1      31.803  40.841  18.708 -0.29 -0.01    +0.130 A  ATOM     18  F   UNL     1      32.194  43.474  16.231 -0.05 +0.09    -0.202 F  BRANCH  13  19ATOM     19  O   UNL     1      29.928  42.447  15.358 -0.08 +0.31    -0.494 OA ATOM     20  C   UNL     1      29.325  43.724  15.517 -0.08 -0.20    +0.278 C  ENDBRANCH  13  19BRANCH  17  21ATOM     21  O   UNL     1      32.411  40.252  19.785 -0.66 -0.18    -0.507 OA ATOM     22  H   UNL     1      33.094  40.877  20.122 +0.20 +0.12    +0.293 HD ENDBRANCH  17  21ENDBRANCH  10  12ENDBRANCH   5  10ENDBRANCH   3   4ENDBRANCH   1   3BRANCH   1  23ATOM     23  C   UNL     1      39.311  46.759  16.150 -0.46 -0.02    +0.077 C  BRANCH  23  24ATOM     24  C   UNL     1      40.167  47.275  14.986 -0.54 -0.00    +0.022 CG0ATOM     25  G   UNL     1      40.287  48.795  14.889 +0.00 +0.00    +0.000 G0 ENDBRANCH  23  24BRANCH  23  26ATOM     26  C   UNL     1      40.131  46.474  17.448 -0.46 -0.02    +0.113 C  BRANCH  26  27ATOM     27  C   UNL     1      40.879  47.736  17.945 -0.39 -0.01    +0.107 C  BRANCH  27  28ATOM     28  N   UNL     1      41.661  48.512  16.988 -0.68 -0.01    -0.315 NA ATOM     29  H   UNL     1      42.204  47.871  16.404 -0.41 -0.01    +0.122 HD BRANCH  28  30ATOM     30  C   UNL     1      40.943  49.429  16.116 -0.58 -0.01    +0.081 C  BRANCH  30  31ATOM     31  C   UNL     1      40.287  48.800  14.889 -0.65 -0.01    +0.017 CG0ATOM     32  G   UNL     1      40.158  47.282  14.997 +0.00 +0.00    +0.000 G0 ENDBRANCH  30  31ENDBRANCH  28  30ENDBRANCH  27  28ENDBRANCH  26  27BRANCH  26  33ATOM     33  N   UNL     1      39.226  45.987  18.507 -0.20 +0.04    -0.346 N  ATOM     34  C   UNL     1      39.085  44.643  18.772 -0.27 -0.02    +0.251 C  ATOM     35  H   UNL     1      38.779  46.678  19.092 +0.08 -0.02    +0.164 HD ATOM     36  O   UNL     1      39.615  43.766  18.100 -0.07 +0.01    -0.269 OA BRANCH  34  37ATOM     37  C   UNL     1      38.217  44.273  19.920 -0.32 -0.00    +0.042 A  ATOM     38  C   UNL     1      38.552  44.767  21.181 -0.34 +0.00    +0.034 A  ATOM     39  C   UNL     1      37.075  43.486  19.767 -0.30 -0.00    +0.034 A  ATOM     40  C   UNL     1      37.745  44.426  22.249 -0.30 +0.01    +0.112 A  ATOM     41  C   UNL     1      36.331  43.204  20.900 -0.36 +0.00    +0.112 A  ATOM     42  N   UNL     1      36.647  43.647  22.135 -0.21 -0.03    -0.265 NA ENDBRANCH  34  37ENDBRANCH  26  33ENDBRANCH  23  26ENDBRANCH   1  23TORSDOF 9TERENDMDL