MODEL        2USER    Run = 2USERUSER    Estimated Free Energy of Binding    =  -7.18 kcal/mol  [=(1)+(2)+(3)-(4)]USERUSER    (1) Final Intermolecular Energy     = -11.66 kcal/molUSER        vdW + Hbond + desolv Energy     = -12.47 kcal/molUSER        Electrostatic Energy            =  -0.06 kcal/molUSER        Moving Ligand-Fixed Receptor    = -12.53 kcal/molUSER        Moving Ligand-Moving Receptor   =  +0.87 kcal/molUSER    (2) Final Total Internal Energy     =  -2.94 kcal/molUSER    (3) Torsional Free Energy           =  +4.47 kcal/molUSER    (4) Unbound System's Energy         =  -2.94 kcal/molUSERUSERREMARK SMILES COc1ccc(O)c(C(=O)c2ccc(C(=O)O[C@@H]3CCCNC[C@H]3NC(=O)c3ccncc3)cc2)c1FREMARK SMILES IDX 17 1 15 2 16 3 14 4 11 5 12 6 35 7 13 8 34 9 9 10 10 11 8 12REMARK SMILES IDX 3 13 4 14 36 15 5 16 6 17 37 18 2 19 1 20 7 21 18 23 24 25REMARK SMILES IDX 23 26 22 27 21 29 20 30 19 31 25 33 26 34 27 36 28 37 29 38REMARK SMILES IDX 33 39 30 40 32 41 31 42REMARK H PARENT 7 22 22 28 25 35REMARK Flexibility Score:   99.900USER                              x       y       z     vdW  Elec       q    TypeUSER                           _______ _______ _______ _____ _____    ______ ____ROOTATOM      1  O   UNL     1      36.523  45.079  16.437 -0.06 +0.20    -0.457 OA ENDROOTBRANCH   1   2ATOM      2  C   UNL     1      35.481  44.893  17.287 -0.14 -0.15    +0.338 C  ATOM      3  O   UNL     1      34.302  45.128  17.064 -0.20 +0.15    -0.246 OA BRANCH   2   4ATOM      4  C   UNL     1      35.972  44.301  18.556 -0.30 -0.01    +0.060 A  ATOM      5  C   UNL     1      36.826  43.168  20.978 -0.41 +0.00    +0.023 A  ATOM      6  C   UNL     1      37.732  43.867  20.171 -0.33 -0.00    +0.013 A  ATOM      7  C   UNL     1      35.490  43.043  20.570 -0.39 +0.00    +0.013 A  ATOM      8  C   UNL     1      37.307  44.432  18.963 -0.35 -0.00    +0.016 A  ATOM      9  C   UNL     1      35.062  43.616  19.369 -0.39 -0.00    +0.016 A  BRANCH   5  10ATOM     10  C   UNL     1      37.233  42.525  22.258 -0.37 +0.01    +0.199 C  ATOM     11  O   UNL     1      37.667  41.378  22.278 -0.37 -0.03    -0.288 OA BRANCH  10  12ATOM     12  C   UNL     1      37.118  43.250  23.529 -0.30 +0.01    +0.104 A  ATOM     13  C   UNL     1      37.512  45.279  24.798 -0.19 +0.02    +0.155 A  ATOM     14  C   UNL     1      36.978  44.656  25.932 -0.32 -0.00    +0.053 A  ATOM     15  C   UNL     1      37.583  44.561  23.598 -0.21 +0.02    +0.179 A  ATOM     16  C   UNL     1      36.495  43.342  25.859 -0.35 -0.00    +0.051 A  ATOM     17  C   UNL     1      36.558  42.645  24.654 -0.29 +0.00    +0.130 A  ATOM     18  F   UNL     1      38.063  45.159  22.496 -0.11 -0.02    -0.202 F  BRANCH  13  19ATOM     19  O   UNL     1      37.964  46.571  24.740 -0.53 -0.08    -0.494 OA ATOM     20  C   UNL     1      37.461  47.483  25.708 -0.26 +0.01    +0.278 C  ENDBRANCH  13  19BRANCH  17  21ATOM     21  O   UNL     1      36.070  41.373  24.570 -0.12 +0.09    -0.507 OA ATOM     22  H   UNL     1      36.590  40.857  23.933 +0.13 -0.04    +0.293 HD ENDBRANCH  17  21ENDBRANCH  10  12ENDBRANCH   5  10ENDBRANCH   2   4ENDBRANCH   1   2BRANCH   1  23ATOM     23  C   UNL     1      36.395  46.162  15.478 -0.29 -0.13    +0.200 CG0ATOM     24  G   UNL     1      35.471  45.669  14.365 +0.00 +0.00    +0.000 G0 BRANCH  23  25ATOM     25  C   UNL     1      37.819  46.523  15.009 -0.37 -0.06    +0.137 C  BRANCH  25  26ATOM     26  C   UNL     1      37.943  47.907  14.341 -0.51 -0.05    +0.109 C  BRANCH  26  27ATOM     27  N   UNL     1      37.594  47.923  12.918 -0.79 +0.06    -0.315 NA ATOM     28  H   UNL     1      38.458  47.994  12.380 +0.11 +0.03    +0.122 HD BRANCH  27  29ATOM     29  C   UNL     1      36.834  46.769  12.431 -0.66 -0.03    +0.081 C  BRANCH  29  30ATOM     30  C   UNL     1      35.467  46.482  13.066 -0.59 -0.01    +0.019 C  BRANCH  30  31ATOM     31  C   UNL     1      35.472  45.668  14.365 -0.39 -0.03    +0.049 CG0ATOM     32  G   UNL     1      36.408  46.159  15.469 +0.00 +0.00    +0.000 G0 ENDBRANCH  30  31ENDBRANCH  29  30ENDBRANCH  27  29ENDBRANCH  26  27ENDBRANCH  25  26BRANCH  25  33ATOM     33  N   UNL     1      38.740  46.428  16.150 -0.16 +0.11    -0.344 N  ATOM     34  C   UNL     1      40.016  46.935  16.107 -0.36 -0.05    +0.251 C  ATOM     35  H   UNL     1      38.310  46.262  17.050 +0.10 -0.05    +0.164 HD ATOM     36  O   UNL     1      40.511  47.459  15.119 -0.34 +0.03    -0.269 OA BRANCH  34  37ATOM     37  C   UNL     1      40.796  46.828  17.363 -0.46 -0.00    +0.042 A  ATOM     38  C   UNL     1      41.765  47.792  17.631 -0.36 -0.00    +0.034 A  ATOM     39  C   UNL     1      40.603  45.768  18.248 -0.45 -0.00    +0.034 A  ATOM     40  C   UNL     1      42.492  47.669  18.800 -0.43 +0.00    +0.112 A  ATOM     41  C   UNL     1      41.387  45.733  19.386 -0.36 +0.01    +0.112 A  ATOM     42  N   UNL     1      42.321  46.663  19.684 -0.29 -0.05    -0.265 NA ENDBRANCH  34  37ENDBRANCH  25  33ENDBRANCH  23  25ENDBRANCH   1  23TORSDOF 9TERENDMDL