MODEL        2USER    Run = 2USERUSER    Estimated Free Energy of Binding    = -12.85 kcal/mol  [=(1)+(2)+(3)-(4)]USERUSER    (1) Final Intermolecular Energy     = -14.64 kcal/molUSER        vdW + Hbond + desolv Energy     = -14.59 kcal/molUSER        Electrostatic Energy            =  -0.04 kcal/molUSER        Moving Ligand-Fixed Receptor    = -14.64 kcal/molUSER        Moving Ligand-Moving Receptor   =  +0.00 kcal/molUSER    (2) Final Total Internal Energy     =  -0.82 kcal/molUSER    (3) Torsional Free Energy           =  +1.79 kcal/molUSER    (4) Unbound System's Energy         =  -0.82 kcal/molUSERUSERREMARK SMILES Cn1ccc2ccc3c4[nH]c5c(CCCN[C@H]6CC[C@H](O)CC6)cccc5c4c4c(c3c21)C(=O)NC4=OREMARK SMILES IDX 15 1 14 2 13 3 12 4 2 5 3 6 32 7 4 8 31 9 5 10 30 11 8 12REMARK SMILES IDX 6 13 29 14 33 15 7 16 9 17 28 18 36 19 35 20 10 21 27 22REMARK SMILES IDX 11 23 26 24 25 25 24 26 1 27 34 28 37 29 16 32 17 34 23 35REMARK SMILES IDX 18 36 22 37 19 38 20 39 21 40REMARK H PARENT 35 30 10 31 16 33 21 41USER                              x       y       z     vdW  Elec       q    TypeUSER                           _______ _______ _______ _____ _____    ______ ____ROOTATOM      1  C   UNL     1      38.100  45.511  25.102 -0.28 +0.01    +0.081 C  ENDROOTBRANCH   1   2ATOM      2  C   UNL     1      38.315  45.437  23.588 -0.33 +0.00    +0.020 C  BRANCH   2   3ATOM      3  C   UNL     1      38.557  44.009  23.086 -0.32 +0.00    +0.039 C  BRANCH   3   4ATOM      4  C   UNL     1      37.702  43.617  21.905 -0.36 -0.00    -0.024 A  ATOM      5  N   UNL     1      39.251  48.080  14.631 -0.24 +0.12    -0.350 N  ATOM      6  C   UNL     1      40.314  48.870  14.259 -0.35 -0.02    +0.086 A  ATOM      7  C   UNL     1      39.525  47.426  15.827 -0.46 -0.02    +0.057 A  ATOM      8  C   UNL     1      41.191  48.911  15.308 -0.56 -0.00    +0.028 A  ATOM      9  C   UNL     1      38.860  46.386  16.580 -0.40 -0.01    +0.022 A  ATOM     10  C   UNL     1      40.670  48.073  16.327 -0.57 -0.00    +0.000 A  ATOM     11  C   UNL     1      37.866  45.493  16.151 -0.32 -0.02    +0.063 A  ATOM     12  C   UNL     1      39.284  46.243  17.938 -0.43 -0.00    +0.009 A  ATOM     13  C   UNL     1      41.107  47.816  17.637 -0.50 -0.00    +0.011 A  ATOM     14  C   UNL     1      37.210  44.618  17.025 -0.30 -0.02    +0.063 A  ATOM     15  C   UNL     1      37.393  45.122  14.806 -0.25 -0.09    +0.259 C  ATOM     16  C   UNL     1      40.384  46.947  18.449 -0.34 -0.00    +0.012 A  ATOM     17  C   UNL     1      38.588  45.344  18.806 -0.35 -0.01    +0.055 A  ATOM     18  C   UNL     1      37.528  44.532  18.382 -0.34 -0.00    +0.022 A  ATOM     19  C   UNL     1      36.257  43.830  16.244 -0.27 -0.09    +0.259 C  ATOM     20  N   UNL     1      36.343  44.279  14.968 -0.20 +0.11    -0.288 N  ATOM     21  N   UNL     1      38.767  45.071  20.144 -0.16 +0.01    -0.354 N  ATOM     22  C   UNL     1      37.067  43.786  19.520 -0.34 -0.00    +0.008 A  ATOM     23  C   UNL     1      37.862  44.147  20.608 -0.34 -0.00    +0.050 A  ATOM     24  C   UNL     1      36.048  42.835  19.734 -0.41 -0.00    +0.011 A  ATOM     25  C   UNL     1      35.862  42.287  21.007 -0.48 +0.00    +0.001 A  ATOM     26  C   UNL     1      36.674  42.672  22.068 -0.44 +0.00    +0.006 A  ATOM     27  C   UNL     1      37.977  48.196  13.952 -0.47 -0.06    +0.149 C  ATOM     28  O   UNL     1      37.901  45.409  13.741 -0.29 +0.08    -0.269 OA ATOM     29  O   UNL     1      35.564  42.910  16.626 -0.31 +0.10    -0.269 OA ATOM     30  H   UNL     1      35.931  43.774  14.199 +0.14 -0.06    +0.173 HD ATOM     31  H   UNL     1      39.462  45.510  20.728 +0.08 +0.00    +0.167 HD ENDBRANCH   3   4ENDBRANCH   2   3ENDBRANCH   1   2BRANCH   1  32ATOM     32  N   UNL     1      36.734  45.086  25.416 -0.36 -0.01    -0.314 NA ATOM     33  H   UNL     1      36.117  45.895  25.457 -0.54 -0.01    +0.122 HD BRANCH  32  34ATOM     34  C   UNL     1      36.649  44.325  26.670 -0.40 -0.01    +0.053 C  ATOM     35  C   UNL     1      35.421  43.391  26.727 -0.53 -0.00    +0.021 C  ATOM     36  C   UNL     1      37.973  43.549  26.818 -0.31 -0.00    +0.021 C  ATOM     37  C   UNL     1      35.747  41.972  26.265 -0.53 -0.01    +0.033 C  ATOM     38  C   UNL     1      37.808  42.346  27.737 -0.42 -0.01    +0.033 C  ATOM     39  C   UNL     1      36.822  41.331  27.152 -0.49 -0.03    +0.114 C  BRANCH  39  40ATOM     40  O   UNL     1      36.203  40.648  28.241 -0.39 +0.18    -0.393 OA ATOM     41  H   UNL     1      36.165  41.266  28.992 -0.44 -0.16    +0.210 HD ENDBRANCH  39  40ENDBRANCH  32  34ENDBRANCH   1  32TORSDOF 6TERENDMDL