MODEL        3USER    Run = 3USERUSER    Estimated Free Energy of Binding    = -12.21 kcal/mol  [=(1)+(2)+(3)-(4)]USERUSER    (1) Final Intermolecular Energy     = -14.00 kcal/molUSER        vdW + Hbond + desolv Energy     = -13.73 kcal/molUSER        Electrostatic Energy            =  -0.27 kcal/molUSER        Moving Ligand-Fixed Receptor    = -14.00 kcal/molUSER        Moving Ligand-Moving Receptor   =  +0.00 kcal/molUSER    (2) Final Total Internal Energy     =  -1.82 kcal/molUSER    (3) Torsional Free Energy           =  +1.79 kcal/molUSER    (4) Unbound System's Energy         =  -1.82 kcal/molUSERUSERREMARK SMILES Oc1nc2ccccc2n1C1CCN(Cc2ccc(-c3cc4ccccc4nc3-c3ccccc3)cc2)CC1REMARK SMILES IDX 11 1 12 2 13 3 14 4 38 5 39 6 10 7 2 8 3 9 4 10 9 11 5 12REMARK SMILES IDX 8 13 6 14 7 15 1 16 15 18 16 19 17 20 37 21 18 22 36 23REMARK SMILES IDX 19 24 20 25 21 26 29 27 22 28 28 29 23 30 27 31 24 32 26 33REMARK SMILES IDX 25 34 30 35 31 36 35 37 32 38 34 39 33 40REMARK H PARENT 1 17USER                              x       y       z     vdW  Elec       q    TypeUSER                           _______ _______ _______ _____ _____    ______ ____ROOTATOM      1  C   UNL     1      28.239  42.087  16.177 -0.25 -0.04    +0.095 C  ATOM      2  C   UNL     1      29.305  41.054  15.785 -0.42 -0.01    +0.041 C  ATOM      3  C   UNL     1      30.545  41.053  16.674 -0.34 -0.02    +0.087 C  ATOM      4  N   UNL     1      31.078  42.387  16.960 -0.12 +0.10    -0.299 NA ATOM      5  C   UNL     1      30.063  43.223  17.606 -0.21 -0.01    +0.087 C  ATOM      6  C   UNL     1      28.773  43.383  16.804 -0.27 -0.01    +0.041 C  ENDROOTBRANCH   1   7ATOM      7  N   UNL     1      27.078  41.519  16.861 -0.07 +0.04    -0.291 N  ATOM      8  C   UNL     1      26.325  40.492  16.344 -0.16 +0.01    +0.295 A  ATOM      9  N   UNL     1      25.318  40.150  17.096 -0.25 -0.00    -0.195 NA ATOM     10  C   UNL     1      25.405  40.988  18.175 -0.17 -0.01    +0.092 A  ATOM     11  C   UNL     1      26.502  41.855  18.069 -0.19 -0.01    +0.072 A  ATOM     12  C   UNL     1      24.561  41.055  19.296 -0.22 -0.01    +0.031 A  ATOM     13  C   UNL     1      26.784  42.788  19.075 -0.25 -0.00    +0.029 A  ATOM     14  C   UNL     1      24.836  41.988  20.298 -0.47 -0.00    +0.002 A  ATOM     15  C   UNL     1      25.932  42.839  20.186 -0.42 -0.00    +0.002 A  BRANCH   8  16ATOM     16  O   UNL     1      26.562  39.881  15.201 -0.63 -0.11    -0.480 OA ATOM     17  H   UNL     1      26.604  40.639  14.590 +0.17 -0.12    +0.296 HD ENDBRANCH   8  16ENDBRANCH   1   7BRANCH   4  18ATOM     18  C   UNL     1      31.695  43.007  15.775 -0.30 -0.06    +0.120 C  BRANCH  18  19ATOM     19  C   UNL     1      33.057  43.603  16.055 -0.31 +0.02    -0.034 A  ATOM     20  C   UNL     1      33.214  44.981  16.252 -0.33 -0.00    +0.006 A  ATOM     21  C   UNL     1      34.189  42.779  16.121 -0.33 -0.00    +0.006 A  ATOM     22  C   UNL     1      34.477  45.522  16.507 -0.31 -0.01    +0.009 A  ATOM     23  C   UNL     1      35.452  43.324  16.367 -0.41 -0.00    +0.009 A  ATOM     24  C   UNL     1      35.615  44.703  16.559 -0.31 +0.01    -0.016 A  BRANCH  24  25ATOM     25  C   UNL     1      36.944  45.273  16.828 -0.34 -0.00    +0.009 A  ATOM     26  C   UNL     1      37.540  45.057  18.080 -0.35 -0.00    +0.021 A  ATOM     27  C   UNL     1      37.687  46.003  15.887 -0.32 -0.03    +0.079 A  ATOM     28  C   UNL     1      38.823  45.543  18.359 -0.41 -0.00    +0.001 A  ATOM     29  N   UNL     1      38.943  46.470  16.141 -0.23 +0.07    -0.247 NA ATOM     30  C   UNL     1      39.440  45.335  19.605 -0.39 -0.00    +0.010 A  ATOM     31  C   UNL     1      39.493  46.249  17.345 -0.40 -0.01    +0.071 A  ATOM     32  C   UNL     1      40.721  45.827  19.849 -0.41 +0.00    +0.001 A  ATOM     33  C   UNL     1      40.769  46.728  17.612 -0.49 -0.00    +0.029 A  ATOM     34  C   UNL     1      41.388  46.525  18.849 -0.50 +0.00    +0.002 A  BRANCH  27  35ATOM     35  C   UNL     1      37.200  46.345  14.537 -0.41 -0.00    +0.001 A  ATOM     36  C   UNL     1      36.917  47.681  14.199 -0.52 -0.01    +0.010 A  ATOM     37  C   UNL     1      36.982  45.360  13.558 -0.46 -0.00    +0.010 A  ATOM     38  C   UNL     1      36.457  48.021  12.924 -0.62 -0.00    +0.001 A  ATOM     39  C   UNL     1      36.522  45.698  12.283 -0.61 -0.00    +0.001 A  ATOM     40  C   UNL     1      36.264  47.030  11.965 -0.69 -0.00    +0.000 A  ENDBRANCH  27  35ENDBRANCH  24  25ENDBRANCH  18  19ENDBRANCH   4  18TORSDOF 6TERENDMDL