MODEL        2USER    Run = 2USERUSER    Estimated Free Energy of Binding    =  -9.79 kcal/mol  [=(1)+(2)+(3)-(4)]USERUSER    (1) Final Intermolecular Energy     = -10.98 kcal/molUSER        vdW + Hbond + desolv Energy     = -10.92 kcal/molUSER        Electrostatic Energy            =  -0.07 kcal/molUSER        Moving Ligand-Fixed Receptor    = -10.98 kcal/molUSER        Moving Ligand-Moving Receptor   =  +0.00 kcal/molUSER    (2) Final Total Internal Energy     =  -0.68 kcal/molUSER    (3) Torsional Free Energy           =  +1.19 kcal/molUSER    (4) Unbound System's Energy         =  -0.68 kcal/molUSERUSERREMARK SMILES O=c1[nH]c2cc(Cl)ccc2nc1-c1ccc(CCN2CCOCC2)cc1REMARK SMILES IDX 13 1 14 2 15 3 16 4 25 5 26 6 12 7 2 8 3 9 4 10 11 11 5 12REMARK SMILES IDX 10 13 6 14 9 15 8 16 1 17 7 19 17 20 18 21 19 22 20 23 24 24REMARK SMILES IDX 21 25 23 26 22 27REMARK H PARENT 3 18USER                              x       y       z     vdW  Elec       q    TypeUSER                           _______ _______ _______ _____ _____    ______ ____ROOTATOM      1  C   UNL     1      41.236  47.013  18.382 -0.52 -0.00    +0.006 A  ATOM      2  C   UNL     1      40.686  46.256  19.426 -0.39 +0.00    +0.011 A  ATOM      3  C   UNL     1      41.401  46.050  20.608 -0.34 +0.00    +0.004 A  ATOM      4  C   UNL     1      42.677  46.601  20.769 -0.35 -0.01    -0.047 A  ATOM      5  C   UNL     1      43.217  47.373  19.733 -0.43 +0.00    +0.004 A  ATOM      6  C   UNL     1      42.502  47.582  18.550 -0.49 +0.00    +0.011 A  ENDROOTBRANCH   1   7ATOM      7  C   UNL     1      40.424  47.223  17.149 -0.41 -0.02    +0.136 A  ATOM      8  C   UNL     1      40.595  48.516  16.327 -0.32 -0.05    +0.274 A  ATOM      9  N   UNL     1      39.769  48.646  15.237 -0.29 +0.12    -0.319 N  ATOM     10  C   UNL     1      38.872  47.644  14.865 -0.45 -0.03    +0.069 A  ATOM     11  N   UNL     1      39.588  46.285  16.784 -0.26 +0.05    -0.240 NA ATOM     12  C   UNL     1      38.072  47.811  13.735 -0.47 -0.02    +0.049 A  ATOM     13  C   UNL     1      38.801  46.478  15.639 -0.36 -0.03    +0.088 A  ATOM     14  C   UNL     1      37.188  46.794  13.377 -0.50 -0.02    +0.043 A  ATOM     15  C   UNL     1      37.909  45.472  15.263 -0.34 -0.01    +0.032 A  ATOM     16  C   UNL     1      37.101  45.626  14.133 -0.41 -0.01    +0.023 A  ATOM     17  O   UNL     1      41.424  49.370  16.606 -1.07 -0.00    -0.267 OA ATOM     18  H   UNL     1      39.872  49.488  14.689 -0.10 -0.10    +0.170 HD ATOM     19  Cl  UNL     1      36.192  46.983  11.985 -0.93 +0.04    -0.084 Cl ENDBRANCH   1   7BRANCH   4  20ATOM     20  C   UNL     1      43.452  46.388  22.050 -0.30 +0.02    +0.051 C  BRANCH  20  21ATOM     21  C   UNL     1      44.164  47.657  22.557 -0.30 +0.03    +0.089 C  BRANCH  21  22ATOM     22  N   UNL     1      43.263  48.638  23.186 -0.70 -0.08    -0.298 NA ATOM     23  C   UNL     1      43.808  49.232  24.425 -0.20 +0.03    +0.113 C  ATOM     24  C   UNL     1      41.932  48.045  23.432 -0.30 +0.02    +0.113 C  ATOM     25  C   UNL     1      43.175  48.673  25.710 -0.21 +0.02    +0.175 C  ATOM     26  C   UNL     1      41.137  48.852  24.469 -0.29 +0.03    +0.175 C  ATOM     27  O   UNL     1      41.754  48.848  25.765 -0.17 -0.05    -0.379 OA ENDBRANCH  21  22ENDBRANCH  20  21ENDBRANCH   4  20TORSDOF 4TERENDMDL