MODEL        7USER    Run = 7USERUSER    Estimated Free Energy of Binding    =  -7.98 kcal/mol  [=(1)+(2)+(3)-(4)]USERUSER    (1) Final Intermolecular Energy     =  -9.17 kcal/molUSER        vdW + Hbond + desolv Energy     =  -9.07 kcal/molUSER        Electrostatic Energy            =  -0.10 kcal/molUSER        Moving Ligand-Fixed Receptor    =  -9.17 kcal/molUSER        Moving Ligand-Moving Receptor   =  +0.00 kcal/molUSER    (2) Final Total Internal Energy     =  -2.38 kcal/molUSER    (3) Torsional Free Energy           =  +1.19 kcal/molUSER    (4) Unbound System's Energy         =  -2.38 kcal/molUSERUSERREMARK SMILES C[C@@H](O)[C@H]1CCc2cc(F)cc(-c3ccnc(NC(N)=O)c3)c2O1REMARK SMILES IDX 4 1 5 2 6 3 7 4 8 5 9 6 10 7 11 8 12 9 23 10 24 11 2 12 1 13REMARK SMILES IDX 3 14 13 16 14 17 22 18 15 19 17 20 16 21 18 22 19 23 20 24REMARK SMILES IDX 21 26REMARK H PARENT 3 15 18 25 20 27 20 28USER                              x       y       z     vdW  Elec       q    TypeUSER                           _______ _______ _______ _____ _____    ______ ____ROOTATOM      1  C   UNL     1      38.804  48.564  15.495 -0.41 -0.11    +0.202 C  ATOM      2  C   UNL     1      37.544  48.823  14.677 -0.54 -0.04    +0.053 C  ATOM      3  C   UNL     1      37.113  47.561  13.952 -0.57 -0.02    +0.043 C  ATOM      4  C   UNL     1      37.174  46.376  14.872 -0.40 +0.00    -0.002 A  ATOM      5  C   UNL     1      36.527  45.190  14.504 -0.37 -0.02    +0.046 A  ATOM      6  C   UNL     1      36.589  44.082  15.334 -0.29 -0.04    +0.124 A  ATOM      7  F   UNL     1      35.960  42.955  14.974 -0.07 +0.07    -0.207 F  ATOM      8  C   UNL     1      37.290  44.120  16.533 -0.30 -0.01    +0.051 A  ATOM      9  C   UNL     1      37.956  45.292  16.932 -0.35 -0.01    +0.027 A  ATOM     10  C   UNL     1      37.898  46.417  16.077 -0.30 -0.06    +0.131 A  ATOM     11  O   UNL     1      38.572  47.544  16.487 -0.13 +0.23    -0.487 OA ENDROOTBRANCH   1  12ATOM     12  C   UNL     1      40.080  48.201  14.700 -0.47 -0.04    +0.152 C  ATOM     13  C   UNL     1      41.053  49.361  14.547 -0.68 -0.01    +0.042 C  BRANCH  12  14ATOM     14  O   UNL     1      40.769  47.151  15.391 -0.23 +0.03    -0.390 OA ATOM     15  H   UNL     1      40.733  47.382  16.340 +0.13 -0.03    +0.211 HD ENDBRANCH  12  14ENDBRANCH   1  12BRANCH   9  16ATOM     16  C   UNL     1      38.701  45.303  18.206 -0.39 +0.00    -0.009 A  ATOM     17  C   UNL     1      38.172  44.720  19.360 -0.35 -0.00    +0.029 A  ATOM     18  C   UNL     1      39.972  45.890  18.293 -0.42 -0.00    +0.056 A  ATOM     19  C   UNL     1      38.916  44.757  20.526 -0.29 +0.00    +0.114 A  ATOM     20  C   UNL     1      40.653  45.875  19.503 -0.34 +0.00    +0.134 A  ATOM     21  N   UNL     1      40.138  45.321  20.620 -0.22 -0.01    -0.239 NA BRANCH  20  22ATOM     22  N   UNL     1      41.917  46.434  19.694 -0.26 -0.04    -0.293 N  ATOM     23  C   UNL     1      42.544  47.380  18.945 -0.38 +0.02    +0.317 C  ATOM     24  N   UNL     1      43.763  47.718  19.457 -0.05 -0.08    -0.351 N  ATOM     25  H   UNL     1      42.447  45.965  20.411 +0.10 +0.05    +0.173 HD ATOM     26  O   UNL     1      42.149  47.914  17.919 -0.57 +0.01    -0.249 OA ATOM     27  H   UNL     1      44.186  48.498  18.969 -0.48 -0.01    +0.161 HD ATOM     28  H   UNL     1      43.839  47.769  20.463 -0.46 +0.03    +0.161 HD ENDBRANCH  20  22ENDBRANCH   9  16TORSDOF 4TERENDMDL