REMARK SMILES C[C@@H](O)[C@H]1CCc2cc(F)cc(-c3ccnc(NC(N)=O)c3)c2O1
REMARK SMILES IDX 4 1 5 2 6 3 7 4 8 5 9 6 10 7 11 8 12 9 23 10 24 11 2 12 1 13
REMARK SMILES IDX 3 14 13 16 14 17 22 18 15 19 17 20 16 21 18 22 19 23 20 24
REMARK SMILES IDX 21 26
REMARK H PARENT 3 15 18 25 20 27 20 28
ROOT
ATOM      1  C   UNL     1      -2.334   0.477   1.520  1.00  0.00     0.202 C 
ATOM      2  C   UNL     1      -3.340  -0.653   1.710  1.00  0.00     0.053 C 
ATOM      3  C   UNL     1      -3.372  -1.546   0.483  1.00  0.00     0.043 C 
ATOM      4  C   UNL     1      -1.978  -1.859   0.020  1.00  0.00    -0.002 A 
ATOM      5  C   UNL     1      -1.778  -2.906  -0.887  1.00  0.00     0.046 A 
ATOM      6  C   UNL     1      -0.499  -3.197  -1.337  1.00  0.00     0.124 A 
ATOM      7  F   UNL     1      -0.319  -4.206  -2.200  1.00  0.00    -0.207 F 
ATOM      8  C   UNL     1       0.598  -2.461  -0.907  1.00  0.00     0.051 A 
ATOM      9  C   UNL     1       0.434  -1.399  -0.001  1.00  0.00     0.027 A 
ATOM     10  C   UNL     1      -0.874  -1.101   0.448  1.00  0.00     0.131 A 
ATOM     11  O   UNL     1      -1.005  -0.047   1.322  1.00  0.00    -0.487 OA
ENDROOT
BRANCH   1  12
ATOM     12  C   UNL     1      -2.640   1.492   0.394  1.00  0.00     0.152 C 
ATOM     13  C   UNL     1      -4.014   2.135   0.510  1.00  0.00     0.042 C 
BRANCH  12  14
ATOM     14  O   UNL     1      -1.667   2.544   0.447  1.00  0.00    -0.390 OA
ATOM     15  H   UNL     1      -0.794   2.105   0.457  1.00  0.00     0.211 HD
ENDBRANCH  12  14
ENDBRANCH   1  12
BRANCH   9  16
ATOM     16  C   UNL     1       1.615  -0.627   0.432  1.00  0.00    -0.009 A 
ATOM     17  C   UNL     1       1.954  -0.518   1.783  1.00  0.00     0.029 A 
ATOM     18  C   UNL     1       2.441   0.013  -0.504  1.00  0.00     0.056 A 
ATOM     19  C   UNL     1       3.073   0.216   2.132  1.00  0.00     0.114 A 
ATOM     20  C   UNL     1       3.551   0.723  -0.066  1.00  0.00     0.134 A 
ATOM     21  N   UNL     1       3.873   0.836   1.240  1.00  0.00    -0.239 NA
BRANCH  20  22
ATOM     22  N   UNL     1       4.431   1.396  -0.913  1.00  0.00    -0.293 N 
ATOM     23  C   UNL     1       4.460   1.396  -2.273  1.00  0.00     0.317 C 
ATOM     24  N   UNL     1       5.441   2.206  -2.767  1.00  0.00    -0.351 N 
ATOM     25  H   UNL     1       5.199   1.823  -0.420  1.00  0.00     0.173 HD
ATOM     26  O   UNL     1       3.745   0.773  -3.043  1.00  0.00    -0.249 OA
ATOM     27  H   UNL     1       5.398   2.297  -3.775  1.00  0.00     0.161 HD
ATOM     28  H   UNL     1       5.605   3.076  -2.280  1.00  0.00     0.161 HD
ENDBRANCH  20  22
ENDBRANCH   9  16
TORSDOF 4
