MODEL        10USER    Run = 10USERUSER    Estimated Free Energy of Binding    =  -8.93 kcal/mol  [=(1)+(2)+(3)-(4)]USERUSER    (1) Final Intermolecular Energy     = -11.01 kcal/molUSER        vdW + Hbond + desolv Energy     = -10.68 kcal/molUSER        Electrostatic Energy            =  -0.33 kcal/molUSER        Moving Ligand-Fixed Receptor    = -11.01 kcal/molUSER        Moving Ligand-Moving Receptor   =  +0.00 kcal/molUSER    (2) Final Total Internal Energy     =  -1.08 kcal/molUSER    (3) Torsional Free Energy           =  +2.09 kcal/molUSER    (4) Unbound System's Energy         =  -1.08 kcal/molUSERUSERREMARK SMILES COc1ccc(O)c(C(=O)c2ccc(C(=O)N[C@H]3CCN(C)[C@@H](O)C3)cc2F)c1FREMARK SMILES IDX 11 1 12 2 13 3 14 4 26 5 27 6 28 7 9 8 10 9 8 10 3 11 4 12REMARK SMILES IDX 29 13 5 14 6 15 30 16 2 17 1 18 7 19 15 21 17 22 16 23 18 25REMARK SMILES IDX 19 26 25 27 20 28 23 29 21 30 22 31 24 32REMARK H PARENT 7 20 17 24 24 33USER                              x       y       z     vdW  Elec       q    TypeUSER                           _______ _______ _______ _____ _____    ______ ____ROOTATOM      1  C   UNL     1      33.453  42.802  17.798 -0.31 -0.02    +0.059 A  ATOM      2  C   UNL     1      34.593  42.667  16.997 -0.41 -0.01    +0.016 A  ATOM      3  C   UNL     1      35.801  43.242  17.401 -0.34 -0.00    +0.015 A  ATOM      4  C   UNL     1      35.867  43.972  18.597 -0.31 -0.01    +0.042 A  ATOM      5  C   UNL     1      34.724  44.110  19.391 -0.36 -0.01    +0.053 A  ATOM      6  C   UNL     1      33.524  43.537  18.982 -0.29 -0.02    +0.135 A  ATOM      7  F   UNL     1      32.432  43.727  19.736 -0.15 +0.00    -0.206 F  ENDROOTBRANCH   1   8ATOM      8  C   UNL     1      32.183  42.211  17.333 -0.24 -0.07    +0.202 C  ATOM      9  O   UNL     1      31.560  42.788  16.440 -0.19 +0.12    -0.288 OA BRANCH   8  10ATOM     10  C   UNL     1      31.604  40.978  17.908 -0.30 -0.02    +0.104 A  ATOM     11  C   UNL     1      31.482  39.296  19.671 -0.30 +0.03    +0.155 A  ATOM     12  C   UNL     1      30.466  38.642  18.972 -0.37 +0.01    +0.053 A  ATOM     13  C   UNL     1      32.047  40.458  19.126 -0.24 +0.01    +0.179 A  ATOM     14  C   UNL     1      30.040  39.133  17.734 -0.30 +0.01    +0.051 A  ATOM     15  C   UNL     1      30.616  40.283  17.201 -0.28 -0.01    +0.130 A  ATOM     16  F   UNL     1      33.055  41.057  19.784 +0.03 -0.05    -0.202 F  BRANCH  11  17ATOM     17  O   UNL     1      32.000  38.899  20.874 -1.01 -0.18    -0.494 OA ATOM     18  C   UNL     1      31.267  37.928  21.611 -0.37 +0.02    +0.278 C  ENDBRANCH  11  17BRANCH  15  19ATOM     19  O   UNL     1      30.164  40.676  15.970 -0.19 +0.14    -0.507 OA ATOM     20  H   UNL     1      30.938  40.991  15.451 -0.41 -0.19    +0.293 HD ENDBRANCH  15  19ENDBRANCH   8  10ENDBRANCH   1   8BRANCH   4  21ATOM     21  C   UNL     1      37.132  44.600  19.069 -0.23 -0.04    +0.251 C  ATOM     22  N   UNL     1      37.886  45.254  18.116 -0.16 +0.07    -0.349 N  ATOM     23  O   UNL     1      37.431  44.542  20.255 -0.27 +0.01    -0.269 OA ATOM     24  H   UNL     1      37.441  45.484  17.237 +0.11 -0.05    +0.164 HD BRANCH  22  25ATOM     25  C   UNL     1      39.084  46.011  18.483 -0.38 -0.01    +0.087 C  ATOM     26  C   UNL     1      40.239  45.079  18.897 -0.47 -0.00    +0.040 C  ATOM     27  C   UNL     1      39.526  46.912  17.335 -0.46 -0.02    +0.073 C  ATOM     28  C   UNL     1      41.623  45.647  18.565 -0.40 +0.01    +0.089 C  ATOM     29  C   UNL     1      40.737  47.764  17.739 -0.33 -0.02    +0.186 C  ATOM     30  N   UNL     1      41.616  47.097  18.691 -0.33 +0.00    -0.281 NA ATOM     31  C   UNL     1      42.944  47.683  18.791 -0.48 +0.01    +0.108 C  BRANCH  29  32ATOM     32  O   UNL     1      41.420  48.124  16.549 -0.56 +0.03    -0.378 OA ATOM     33  H   UNL     1      42.156  47.499  16.469 -0.37 -0.06    +0.212 HD ENDBRANCH  29  32ENDBRANCH  22  25ENDBRANCH   4  21TORSDOF 7TERENDMDL