MODEL        8USER    Run = 8USERUSER    Estimated Free Energy of Binding    =  -8.91 kcal/mol  [=(1)+(2)+(3)-(4)]USERUSER    (1) Final Intermolecular Energy     = -11.30 kcal/molUSER        vdW + Hbond + desolv Energy     = -11.27 kcal/molUSER        Electrostatic Energy            =  -0.03 kcal/molUSER        Moving Ligand-Fixed Receptor    = -11.30 kcal/molUSER        Moving Ligand-Moving Receptor   =  +0.00 kcal/molUSER    (2) Final Total Internal Energy     =  -2.02 kcal/molUSER    (3) Torsional Free Energy           =  +2.39 kcal/molUSER    (4) Unbound System's Energy         =  -2.02 kcal/molUSERUSERREMARK SMILES CCCNCc1ccc(NC(=O)Cc2nn(-c3ccnc(F)c3)cc2C)c(F)c1REMARK SMILES IDX 6 1 7 2 8 3 9 4 27 5 28 6 29 7 5 8 4 9 3 11 2 12 1 13 10 14REMARK SMILES IDX 11 15 12 17 13 18 14 19 15 20 25 21 16 22 24 23 26 24 17 25REMARK SMILES IDX 18 26 23 27 19 28 21 29 20 30 22 31REMARK H PARENT 4 10 10 16USER                              x       y       z     vdW  Elec       q    TypeUSER                           _______ _______ _______ _____ _____    ______ ____ROOTATOM      1  C   UNL     1      37.785  48.005  14.560 -0.51 +0.02    -0.031 A  ATOM      2  C   UNL     1      39.156  48.305  14.618 -0.53 -0.00    +0.007 A  ATOM      3  C   UNL     1      39.970  47.764  15.623 -0.51 -0.01    +0.029 A  ATOM      4  C   UNL     1      39.426  46.916  16.588 -0.41 -0.02    +0.077 A  ATOM      5  C   UNL     1      38.061  46.617  16.521 -0.29 -0.06    +0.147 A  ATOM      6  F   UNL     1      37.519  45.793  17.435 -0.09 +0.07    -0.205 F  ATOM      7  C   UNL     1      37.245  47.141  15.523 -0.39 -0.03    +0.046 A  ENDROOTBRANCH   1   8ATOM      8  C   UNL     1      36.919  48.566  13.454 -0.49 -0.05    +0.116 C  BRANCH   8   9ATOM      9  N   UNL     1      37.021  47.748  12.237 -0.98 +0.08    -0.313 NA ATOM     10  H   UNL     1      37.989  47.407  12.175 +0.07 -0.00    +0.123 HD BRANCH   9  11ATOM     11  C   UNL     1      36.111  46.600  12.269 -0.67 -0.04    +0.081 C  BRANCH  11  12ATOM     12  C   UNL     1      36.797  45.305  12.715 -0.59 -0.00    +0.012 C  ATOM     13  C   UNL     1      36.949  44.265  11.620 -0.57 -0.00    +0.005 C  ENDBRANCH  11  12ENDBRANCH   9  11ENDBRANCH   8   9ENDBRANCH   1   8BRANCH   4  14ATOM     14  N   UNL     1      40.159  46.325  17.636 -0.24 +0.04    -0.323 N  ATOM     15  C   UNL     1      41.239  46.854  18.319 -0.42 -0.01    +0.230 C  ATOM     16  H   UNL     1      39.819  45.415  17.938 +0.11 -0.02    +0.170 HD ATOM     17  O   UNL     1      41.747  47.957  18.136 -0.50 +0.01    -0.274 OA BRANCH  15  18ATOM     18  C   UNL     1      41.786  45.913  19.377 -0.37 +0.02    +0.158 C  BRANCH  18  19ATOM     19  C   UNL     1      40.701  45.509  20.310 -0.34 +0.00    +0.075 A  ATOM     20  N   UNL     1      39.678  44.775  19.859 -0.27 +0.00    -0.172 NA ATOM     21  C   UNL     1      40.568  45.807  21.687 -0.28 -0.00    -0.009 A  ATOM     22  N   UNL     1      38.859  44.610  20.926 -0.21 -0.00    -0.240 N  ATOM     23  C   UNL     1      39.386  45.201  22.051 -0.25 +0.01    +0.118 A  ATOM     24  C   UNL     1      41.472  46.616  22.546 -0.26 +0.01    +0.048 C  BRANCH  22  25ATOM     25  C   UNL     1      37.627  43.917  20.791 -0.33 -0.00    +0.071 A  ATOM     26  C   UNL     1      36.652  44.331  19.880 -0.34 -0.00    +0.048 A  ATOM     27  C   UNL     1      37.391  42.785  21.575 -0.33 +0.00    +0.088 A  ATOM     28  C   UNL     1      35.484  43.586  19.795 -0.33 -0.01    +0.116 A  ATOM     29  C   UNL     1      36.194  42.115  21.410 -0.35 +0.01    +0.214 A  ATOM     30  N   UNL     1      35.234  42.488  20.537 -0.36 -0.01    -0.228 NA ATOM     31  F   UNL     1      35.964  41.024  22.155 -0.24 -0.00    -0.185 F  ENDBRANCH  22  25ENDBRANCH  18  19ENDBRANCH  15  18ENDBRANCH   4  14TORSDOF 8TERENDMDL