REMARK SMILES COc1ccc(O)c(C(=O)c2ccc(C(=O)N[C@H]3CCN(C)[C@@H](O)C3)cc2F)c1F
REMARK SMILES IDX 11 1 12 2 13 3 14 4 26 5 27 6 28 7 9 8 10 9 8 10 3 11 4 12
REMARK SMILES IDX 29 13 5 14 6 15 30 16 2 17 1 18 7 19 15 21 17 22 16 23 18 25
REMARK SMILES IDX 19 26 25 27 20 28 23 29 21 30 22 31 24 32
REMARK H PARENT 7 20 17 24 24 33
ROOT
ATOM      1  C   UNL     1      -2.464  -1.254  -0.386  1.00  0.00     0.059 A 
ATOM      2  C   UNL     1      -1.411  -1.883   0.289  1.00  0.00     0.016 A 
ATOM      3  C   UNL     1      -0.134  -1.314   0.274  1.00  0.00     0.015 A 
ATOM      4  C   UNL     1       0.098  -0.126  -0.435  1.00  0.00     0.042 A 
ATOM      5  C   UNL     1      -0.956   0.495  -1.114  1.00  0.00     0.053 A 
ATOM      6  C   UNL     1      -2.224  -0.077  -1.096  1.00  0.00     0.135 A 
ATOM      7  F   UNL     1      -3.204   0.512  -1.796  1.00  0.00    -0.206 F 
ENDROOT
BRANCH   1   8
ATOM      8  C   UNL     1      -3.795  -1.892  -0.378  1.00  0.00     0.202 C 
ATOM      9  O   UNL     1      -3.860  -3.113  -0.531  1.00  0.00    -0.288 OA
BRANCH   8  10
ATOM     10  C   UNL     1      -5.056  -1.135  -0.229  1.00  0.00     0.104 A 
ATOM     11  C   UNL     1      -6.318   0.762   0.643  1.00  0.00     0.155 A 
ATOM     12  C   UNL     1      -7.468   0.281   0.014  1.00  0.00     0.053 A 
ATOM     13  C   UNL     1      -5.121   0.042   0.520  1.00  0.00     0.179 A 
ATOM     14  C   UNL     1      -7.423  -0.915  -0.709  1.00  0.00     0.051 A 
ATOM     15  C   UNL     1      -6.229  -1.623  -0.816  1.00  0.00     0.130 A 
ATOM     16  F   UNL     1      -4.029   0.488   1.165  1.00  0.00    -0.202 F 
BRANCH  11  17
ATOM     17  O   UNL     1      -6.244   1.902   1.397  1.00  0.00    -0.494 OA
ATOM     18  C   UNL     1      -7.421   2.695   1.498  1.00  0.00     0.278 C 
ENDBRANCH  11  17
BRANCH  15  19
ATOM     19  O   UNL     1      -6.280  -2.801  -1.512  1.00  0.00    -0.507 OA
ATOM     20  H   UNL     1      -5.441  -3.287  -1.346  1.00  0.00     0.293 HD
ENDBRANCH  15  19
ENDBRANCH   8  10
ENDBRANCH   1   8
BRANCH   4  21
ATOM     21  C   UNL     1       1.439   0.518  -0.478  1.00  0.00     0.251 C 
ATOM     22  N   UNL     1       2.528  -0.321  -0.349  1.00  0.00    -0.349 N 
ATOM     23  O   UNL     1       1.526   1.727  -0.653  1.00  0.00    -0.269 OA
ATOM     24  H   UNL     1       2.378  -1.313  -0.481  1.00  0.00     0.164 HD
BRANCH  22  25
ATOM     25  C   UNL     1       3.895   0.180  -0.497  1.00  0.00     0.087 C 
ATOM     26  C   UNL     1       4.279   1.129   0.654  1.00  0.00     0.040 C 
ATOM     27  C   UNL     1       4.888  -0.975  -0.576  1.00  0.00     0.073 C 
ATOM     28  C   UNL     1       5.771   1.084   1.002  1.00  0.00     0.089 C 
ATOM     29  C   UNL     1       6.315  -0.459  -0.806  1.00  0.00     0.186 C 
ATOM     30  N   UNL     1       6.561   0.841  -0.196  1.00  0.00    -0.281 NA
ATOM     31  C   UNL     1       7.969   1.175  -0.048  1.00  0.00     0.108 C 
BRANCH  29  32
ATOM     32  O   UNL     1       7.208  -1.450  -0.323  1.00  0.00    -0.378 OA
ATOM     33  H   UNL     1       7.213  -1.351   0.641  1.00  0.00     0.212 HD
ENDBRANCH  29  32
ENDBRANCH  22  25
ENDBRANCH   4  21
TORSDOF 7
