REMARK SMILES O=c1[nH]c2cc(Cl)ccc2nc1-c1ccc(CCF)cc1
REMARK SMILES IDX 13 1 14 2 15 3 16 4 20 5 21 6 12 7 2 8 3 9 4 10 11 11 5 12
REMARK SMILES IDX 10 13 6 14 9 15 8 16 1 17 7 19 17 20 18 21 19 22
REMARK H PARENT 3 18
ROOT
ATOM      1  C   UNL     1       0.696  -0.231  -0.300  1.00  0.00     0.006 A 
ATOM      2  C   UNL     1       1.578  -1.315  -0.314  1.00  0.00     0.011 A 
ATOM      3  C   UNL     1       2.955  -1.107  -0.183  1.00  0.00     0.004 A 
ATOM      4  C   UNL     1       3.471   0.186  -0.027  1.00  0.00    -0.045 A 
ATOM      5  C   UNL     1       2.584   1.268   0.003  1.00  0.00     0.004 A 
ATOM      6  C   UNL     1       1.208   1.062  -0.127  1.00  0.00     0.011 A 
ENDROOT
BRANCH   1   7
ATOM      7  C   UNL     1      -0.782  -0.401  -0.418  1.00  0.00     0.136 A 
ATOM      8  C   UNL     1      -1.357  -1.559  -1.258  1.00  0.00     0.274 A 
ATOM      9  N   UNL     1      -2.727  -1.665  -1.274  1.00  0.00    -0.319 N 
ATOM     10  C   UNL     1      -3.546  -0.750  -0.612  1.00  0.00     0.069 A 
ATOM     11  N   UNL     1      -1.560   0.455   0.189  1.00  0.00    -0.240 NA
ATOM     12  C   UNL     1      -4.933  -0.885  -0.676  1.00  0.00     0.049 A 
ATOM     13  C   UNL     1      -2.951   0.298   0.102  1.00  0.00     0.088 A 
ATOM     14  C   UNL     1      -5.734   0.044  -0.014  1.00  0.00     0.043 A 
ATOM     15  C   UNL     1      -3.771   1.218   0.759  1.00  0.00     0.032 A 
ATOM     16  C   UNL     1      -5.162   1.094   0.703  1.00  0.00     0.023 A 
ATOM     17  O   UNL     1      -0.649  -2.331  -1.888  1.00  0.00    -0.267 OA
ATOM     18  H   UNL     1      -3.117  -2.419  -1.822  1.00  0.00     0.170 HD
ATOM     19  Cl  UNL     1      -7.447  -0.107  -0.082  1.00  0.00    -0.084 Cl
ENDBRANCH   1   7
BRANCH   4  20
ATOM     20  C   UNL     1       4.959   0.409   0.114  1.00  0.00     0.069 C 
BRANCH  20  21
ATOM     21  C   UNL     1       5.359   0.850   1.515  1.00  0.00     0.219 C 
ATOM     22  F   UNL     1       4.993   2.147   1.708  1.00  0.00    -0.251 F 
ENDBRANCH  20  21
ENDBRANCH   4  20
TORSDOF 3
