REMARK SMILES O=c1[nH]c2cc(Cl)ccc2nc1-c1ccc(CCN2CCOCC2)cc1
REMARK SMILES IDX 13 1 14 2 15 3 16 4 25 5 26 6 12 7 2 8 3 9 4 10 11 11 5 12
REMARK SMILES IDX 10 13 6 14 9 15 8 16 1 17 7 19 17 20 18 21 19 22 20 23 24 24
REMARK SMILES IDX 21 25 23 26 22 27
REMARK H PARENT 3 18
ROOT
ATOM      1  C   UNL     1       1.516  -0.581   0.011  1.00  0.00     0.006 A 
ATOM      2  C   UNL     1       1.246  -0.834  -1.342  1.00  0.00     0.011 A 
ATOM      3  C   UNL     1      -0.032  -1.222  -1.751  1.00  0.00     0.004 A 
ATOM      4  C   UNL     1      -1.064  -1.359  -0.816  1.00  0.00    -0.047 A 
ATOM      5  C   UNL     1      -0.797  -1.087   0.532  1.00  0.00     0.004 A 
ATOM      6  C   UNL     1       0.481  -0.697   0.943  1.00  0.00     0.011 A 
ENDROOT
BRANCH   1   7
ATOM      7  C   UNL     1       2.891  -0.148   0.394  1.00  0.00     0.136 A 
ATOM      8  C   UNL     1       3.450  -0.508   1.785  1.00  0.00     0.274 A 
ATOM      9  N   UNL     1       4.704  -0.024   2.070  1.00  0.00    -0.319 N 
ATOM     10  C   UNL     1       5.447   0.699   1.137  1.00  0.00     0.069 A 
ATOM     11  N   UNL     1       3.601   0.520  -0.477  1.00  0.00    -0.240 NA
ATOM     12  C   UNL     1       6.726   1.148   1.463  1.00  0.00     0.049 A 
ATOM     13  C   UNL     1       4.888   0.953  -0.123  1.00  0.00     0.088 A 
ATOM     14  C   UNL     1       7.455   1.862   0.513  1.00  0.00     0.043 A 
ATOM     15  C   UNL     1       5.634   1.670  -1.060  1.00  0.00     0.032 A 
ATOM     16  C   UNL     1       6.917   2.126  -0.746  1.00  0.00     0.023 A 
ATOM     17  O   UNL     1       2.834  -1.197   2.585  1.00  0.00    -0.267 OA
ATOM     18  H   UNL     1       5.082  -0.254   2.978  1.00  0.00     0.170 HD
ATOM     19  Cl  UNL     1       9.036   2.424   0.899  1.00  0.00    -0.084 Cl
ENDBRANCH   1   7
BRANCH   4  20
ATOM     20  C   UNL     1      -2.451  -1.770  -1.255  1.00  0.00     0.051 C 
BRANCH  20  21
ATOM     21  C   UNL     1      -3.400  -0.579  -1.492  1.00  0.00     0.089 C 
BRANCH  21  22
ATOM     22  N   UNL     1      -3.842   0.089  -0.257  1.00  0.00    -0.298 NA
ATOM     23  C   UNL     1      -4.842  -0.685   0.509  1.00  0.00     0.113 C 
ATOM     24  C   UNL     1      -4.344   1.449  -0.547  1.00  0.00     0.113 C 
ATOM     25  C   UNL     1      -6.276  -0.146   0.376  1.00  0.00     0.175 C 
ATOM     26  C   UNL     1      -5.213   1.986   0.599  1.00  0.00     0.175 C 
ATOM     27  O   UNL     1      -6.410   1.218   0.793  1.00  0.00    -0.379 OA
ENDBRANCH  21  22
ENDBRANCH  20  21
ENDBRANCH   4  20
TORSDOF 4
