MODEL        3USER    Run = 3USERUSER    Estimated Free Energy of Binding    =  -8.35 kcal/mol  [=(1)+(2)+(3)-(4)]USERUSER    (1) Final Intermolecular Energy     =  -9.24 kcal/molUSER        vdW + Hbond + desolv Energy     =  -9.00 kcal/molUSER        Electrostatic Energy            =  -0.24 kcal/molUSER        Moving Ligand-Fixed Receptor    =  -9.24 kcal/molUSER        Moving Ligand-Moving Receptor   =  +0.00 kcal/molUSER    (2) Final Total Internal Energy     =  -0.34 kcal/molUSER    (3) Torsional Free Energy           =  +0.89 kcal/molUSER    (4) Unbound System's Energy         =  -0.34 kcal/molUSERUSERREMARK SMILES O=c1[nH]c2cc(Cl)ccc2nc1-c1ccc(CCF)cc1REMARK SMILES IDX 13 1 14 2 15 3 16 4 20 5 21 6 12 7 2 8 3 9 4 10 11 11 5 12REMARK SMILES IDX 10 13 6 14 9 15 8 16 1 17 7 19 17 20 18 21 19 22REMARK H PARENT 3 18USER                              x       y       z     vdW  Elec       q    TypeUSER                           _______ _______ _______ _____ _____    ______ ____ROOTATOM      1  C   UNL     1      41.198  46.982  18.347 -0.52 -0.00    +0.006 A  ATOM      2  C   UNL     1      42.418  47.629  18.564 -0.50 +0.00    +0.011 A  ATOM      3  C   UNL     1      43.158  47.370  19.722 -0.44 +0.00    +0.004 A  ATOM      4  C   UNL     1      42.697  46.454  20.676 -0.32 -0.01    -0.045 A  ATOM      5  C   UNL     1      41.483  45.795  20.448 -0.37 +0.00    +0.004 A  ATOM      6  C   UNL     1      40.742  46.052  19.291 -0.43 +0.00    +0.011 A  ENDROOTBRANCH   1   7ATOM      7  C   UNL     1      40.379  47.210  17.120 -0.41 -0.02    +0.136 A  ATOM      8  C   UNL     1      40.616  48.468  16.262 -0.33 -0.05    +0.274 A  ATOM      9  N   UNL     1      39.848  48.573  15.127 -0.29 +0.11    -0.319 N  ATOM     10  C   UNL     1      38.879  47.624  14.802 -0.45 -0.02    +0.069 A  ATOM     11  N   UNL     1      39.462  46.334  16.810 -0.26 +0.05    -0.240 NA ATOM     12  C   UNL     1      38.106  47.786  13.651 -0.46 -0.02    +0.049 A  ATOM     13  C   UNL     1      38.696  46.525  15.650 -0.36 -0.03    +0.088 A  ATOM     14  C   UNL     1      37.138  46.830  13.348 -0.51 -0.02    +0.043 A  ATOM     15  C   UNL     1      37.721  45.578  15.328 -0.34 -0.01    +0.032 A  ATOM     16  C   UNL     1      36.941  45.728  14.178 -0.40 -0.01    +0.023 A  ATOM     17  O   UNL     1      41.423  49.334  16.570 -1.08 -0.00    -0.267 OA ATOM     18  H   UNL     1      39.992  49.394  14.556 -0.04 -0.09    +0.170 HD ATOM     19  Cl  UNL     1      36.176  47.013  11.932 -0.90 +0.04    -0.084 Cl ENDBRANCH   1   7BRANCH   4  20ATOM     20  C   UNL     1      43.498  46.175  21.927 -0.28 +0.03    +0.069 C  BRANCH  20  21ATOM     21  C   UNL     1      44.324  47.372  22.377 -0.25 +0.09    +0.219 C  ATOM     22  F   UNL     1      45.519  47.374  21.725 -0.06 -0.28    -0.251 F  ENDBRANCH  20  21ENDBRANCH   4  20TORSDOF 3TERENDMDL