REMARK SMILES CCCNCc1ccc(NC(=O)Cc2nn(-c3ccnc(F)c3)cc2C)c(F)c1
REMARK SMILES IDX 6 1 7 2 8 3 9 4 27 5 28 6 29 7 5 8 4 9 3 11 2 12 1 13 10 14
REMARK SMILES IDX 11 15 12 17 13 18 14 19 15 20 25 21 16 22 24 23 26 24 17 25
REMARK SMILES IDX 18 26 23 27 19 28 21 29 20 30 22 31
REMARK H PARENT 4 10 10 16
ROOT
ATOM      1  C   UNL     1      -3.353  -0.512  -0.352  1.00  0.00    -0.031 A 
ATOM      2  C   UNL     1      -2.708  -1.541  -1.058  1.00  0.00     0.007 A 
ATOM      3  C   UNL     1      -1.416  -1.956  -0.707  1.00  0.00     0.029 A 
ATOM      4  C   UNL     1      -0.746  -1.347   0.355  1.00  0.00     0.077 A 
ATOM      5  C   UNL     1      -1.396  -0.326   1.057  1.00  0.00     0.147 A 
ATOM      6  F   UNL     1      -0.773   0.266   2.091  1.00  0.00    -0.205 F 
ATOM      7  C   UNL     1      -2.682   0.087   0.723  1.00  0.00     0.046 A 
ENDROOT
BRANCH   1   8
ATOM      8  C   UNL     1      -4.759  -0.092  -0.715  1.00  0.00     0.116 C 
BRANCH   8   9
ATOM      9  N   UNL     1      -4.850   1.366  -0.877  1.00  0.00    -0.313 NA
ATOM     10  H   UNL     1      -4.232   1.628  -1.656  1.00  0.00     0.123 HD
BRANCH   9  11
ATOM     11  C   UNL     1      -6.215   1.801  -1.181  1.00  0.00     0.081 C 
BRANCH  11  12
ATOM     12  C   UNL     1      -6.939   2.392   0.034  1.00  0.00     0.012 C 
ATOM     13  C   UNL     1      -7.196   1.401   1.155  1.00  0.00     0.005 C 
ENDBRANCH  11  12
ENDBRANCH   9  11
ENDBRANCH   8   9
ENDBRANCH   1   8
BRANCH   4  14
ATOM     14  N   UNL     1       0.552  -1.691   0.783  1.00  0.00    -0.323 N 
ATOM     15  C   UNL     1       1.375  -2.683   0.282  1.00  0.00     0.230 C 
ATOM     16  H   UNL     1       0.927  -1.108   1.527  1.00  0.00     0.170 HD
ATOM     17  O   UNL     1       1.118  -3.441  -0.649  1.00  0.00    -0.274 OA
BRANCH  15  18
ATOM     18  C   UNL     1       2.702  -2.773   1.013  1.00  0.00     0.158 C 
BRANCH  18  19
ATOM     19  C   UNL     1       3.686  -1.843   0.399  1.00  0.00     0.075 A 
ATOM     20  N   UNL     1       3.885  -0.636   0.940  1.00  0.00    -0.172 NA
ATOM     21  C   UNL     1       4.490  -2.045  -0.748  1.00  0.00    -0.009 A 
ATOM     22  N   UNL     1       4.797  -0.032   0.139  1.00  0.00    -0.240 N 
ATOM     23  C   UNL     1       5.200  -0.871  -0.873  1.00  0.00     0.118 A 
ATOM     24  C   UNL     1       4.541  -3.233  -1.640  1.00  0.00     0.048 C 
BRANCH  22  25
ATOM     25  C   UNL     1       5.203   1.305   0.389  1.00  0.00     0.071 A 
ATOM     26  C   UNL     1       6.138   1.949  -0.425  1.00  0.00     0.048 A 
ATOM     27  C   UNL     1       4.643   1.999   1.465  1.00  0.00     0.088 A 
ATOM     28  C   UNL     1       6.465   3.264  -0.124  1.00  0.00     0.116 A 
ATOM     29  C   UNL     1       5.039   3.306   1.676  1.00  0.00     0.214 A 
ATOM     30  N   UNL     1       5.937   3.956   0.906  1.00  0.00    -0.228 NA
ATOM     31  F   UNL     1       4.500   3.979   2.703  1.00  0.00    -0.185 F 
ENDBRANCH  22  25
ENDBRANCH  18  19
ENDBRANCH  15  18
ENDBRANCH   4  14
TORSDOF 8
