MODEL        3USER    Run = 3USERUSER    Estimated Free Energy of Binding    =  -8.22 kcal/mol  [=(1)+(2)+(3)-(4)]USERUSER    (1) Final Intermolecular Energy     =  -9.71 kcal/molUSER        vdW + Hbond + desolv Energy     =  -9.23 kcal/molUSER        Electrostatic Energy            =  -0.48 kcal/molUSER        Moving Ligand-Fixed Receptor    =  -9.71 kcal/molUSER        Moving Ligand-Moving Receptor   =  +0.00 kcal/molUSER    (2) Final Total Internal Energy     =  -0.37 kcal/molUSER    (3) Torsional Free Energy           =  +1.49 kcal/molUSER    (4) Unbound System's Energy         =  -0.37 kcal/molUSERUSERREMARK SMILES O=C1Nc2ccc(O)cc2/C1=C/Nc1cc(F)c(O)c(Cl)c1REMARK SMILES IDX 12 1 11 2 2 3 3 4 4 5 10 6 5 7 9 8 6 9 7 10 1 11 8 13 13 15REMARK SMILES IDX 14 17 15 18 22 19 16 20 20 21 18 22 17 23 21 24 19 25REMARK H PARENT 3 12 8 14 13 16 19 26USER                              x       y       z     vdW  Elec       q    TypeUSER                           _______ _______ _______ _____ _____    ______ ____ROOTATOM      1  C   UNL     1      36.958  44.713  15.017 -0.36 -0.04    +0.097 C  ENDROOTBRANCH   1   2ATOM      2  C   UNL     1      36.186  44.111  15.932 -0.39 -0.02    +0.065 C  ATOM      3  C   UNL     1      36.079  42.620  16.084 -0.29 -0.09    +0.257 C  ATOM      4  N   UNL     1      35.189  42.432  17.129 -0.23 +0.12    -0.321 N  ATOM      5  C   UNL     1      34.738  43.650  17.634 -0.28 -0.02    +0.049 A  ATOM      6  C   UNL     1      35.318  44.719  16.938 -0.30 -0.01    +0.016 A  ATOM      7  C   UNL     1      33.849  43.838  18.673 -0.34 -0.01    +0.030 A  ATOM      8  C   UNL     1      35.015  46.028  17.268 -0.34 -0.05    +0.057 A  ATOM      9  C   UNL     1      33.538  45.156  19.013 -0.36 -0.02    +0.048 A  ATOM     10  C   UNL     1      34.116  46.229  18.316 -0.44 -0.08    +0.116 A  ATOM     11  O   UNL     1      36.655  41.773  15.426 +0.01 +0.10    -0.269 OA ATOM     12  H   UNL     1      34.920  41.518  17.461 -0.28 -0.08    +0.170 HD BRANCH  10  13ATOM     13  O   UNL     1      33.761  47.487  18.708 -0.84 +0.40    -0.508 OA ATOM     14  H   UNL     1      33.571  48.026  17.923 -0.34 -0.60    +0.293 HD ENDBRANCH  10  13ENDBRANCH   1   2BRANCH   1  15ATOM     15  N   UNL     1      37.307  46.041  14.987 -0.11 +0.16    -0.361 N  ATOM     16  H   UNL     1      36.629  46.641  14.504 +0.13 -0.10    +0.166 HD BRANCH  15  17ATOM     17  C   UNL     1      38.436  46.692  15.510 -0.39 -0.02    +0.043 A  ATOM     18  C   UNL     1      38.917  46.288  16.765 -0.37 -0.02    +0.069 A  ATOM     19  C   UNL     1      39.115  47.724  14.849 -0.47 -0.02    +0.050 A  ATOM     20  C   UNL     1      40.034  46.896  17.335 -0.36 -0.03    +0.168 A  ATOM     21  C   UNL     1      40.236  48.330  15.427 -0.50 -0.02    +0.087 A  ATOM     22  C   UNL     1      40.701  47.918  16.673 -0.40 -0.03    +0.170 A  ATOM     23  F   UNL     1      40.457  46.476  18.536 -0.14 +0.01    -0.203 F  ATOM     24  Cl  UNL     1      41.040  49.599  14.575 -0.87 +0.02    -0.080 Cl BRANCH  22  25ATOM     25  O   UNL     1      41.793  48.492  17.264 -0.61 -0.03    -0.504 OA ATOM     26  H   UNL     1      42.529  47.855  17.208 -0.35 -0.03    +0.293 HD ENDBRANCH  22  25ENDBRANCH  15  17ENDBRANCH   1  15TORSDOF 5TERENDMDL