REMARK SMILES O=C1Nc2ccc(O)cc2/C1=C/Nc1cc(F)c(O)c(Cl)c1
REMARK SMILES IDX 12 1 11 2 2 3 3 4 4 5 10 6 5 7 9 8 6 9 7 10 1 11 8 13 13 15
REMARK SMILES IDX 14 17 15 18 22 19 16 20 20 21 18 22 17 23 21 24 19 25
REMARK H PARENT 3 12 8 14 13 16 19 26
ROOT
ATOM      1  C   UNL     1       0.029  -0.154  -0.139  1.00  0.00     0.097 C 
ENDROOT
BRANCH   1   2
ATOM      2  C   UNL     1      -1.210  -0.660  -0.198  1.00  0.00     0.065 C 
ATOM      3  C   UNL     1      -1.524  -2.122  -0.048  1.00  0.00     0.257 C 
ATOM      4  N   UNL     1      -2.901  -2.205  -0.173  1.00  0.00    -0.321 N 
ATOM      5  C   UNL     1      -3.466  -0.948  -0.384  1.00  0.00     0.049 A 
ATOM      6  C   UNL     1      -2.475   0.042  -0.408  1.00  0.00     0.016 A 
ATOM      7  C   UNL     1      -4.805  -0.659  -0.550  1.00  0.00     0.030 A 
ATOM      8  C   UNL     1      -2.804   1.371  -0.605  1.00  0.00     0.057 A 
ATOM      9  C   UNL     1      -5.147   0.680  -0.749  1.00  0.00     0.048 A 
ATOM     10  C   UNL     1      -4.156   1.674  -0.775  1.00  0.00     0.116 A 
ATOM     11  O   UNL     1      -0.731  -3.026   0.141  1.00  0.00    -0.269 OA
ATOM     12  H   UNL     1      -3.405  -3.077  -0.115  1.00  0.00     0.170 HD
BRANCH  10  13
ATOM     13  O   UNL     1      -4.570   2.959  -0.974  1.00  0.00    -0.508 OA
ATOM     14  H   UNL     1      -3.798   3.548  -0.971  1.00  0.00     0.293 HD
ENDBRANCH  10  13
ENDBRANCH   1   2
BRANCH   1  15
ATOM     15  N   UNL     1       1.192  -0.857   0.062  1.00  0.00    -0.361 N 
ATOM     16  H   UNL     1       1.057  -1.867   0.173  1.00  0.00     0.166 HD
BRANCH  15  17
ATOM     17  C   UNL     1       2.520  -0.405   0.137  1.00  0.00     0.043 A 
ATOM     18  C   UNL     1       3.535  -1.350   0.353  1.00  0.00     0.069 A 
ATOM     19  C   UNL     1       2.892   0.940   0.007  1.00  0.00     0.050 A 
ATOM     20  C   UNL     1       4.871  -0.961   0.436  1.00  0.00     0.168 A 
ATOM     21  C   UNL     1       4.235   1.323   0.092  1.00  0.00     0.087 A 
ATOM     22  C   UNL     1       5.231   0.373   0.306  1.00  0.00     0.170 A 
ATOM     23  F   UNL     1       5.806  -1.899   0.643  1.00  0.00    -0.203 F 
ATOM     24  Cl  UNL     1       4.646   2.992  -0.074  1.00  0.00    -0.080 Cl
BRANCH  22  25
ATOM     25  O   UNL     1       6.552   0.718   0.394  1.00  0.00    -0.504 OA
ATOM     26  H   UNL     1       6.614   1.684   0.281  1.00  0.00     0.293 HD
ENDBRANCH  22  25
ENDBRANCH  15  17
ENDBRANCH   1  15
TORSDOF 5
