MODEL        8USER    Run = 8USERUSER    Estimated Free Energy of Binding    =  -6.09 kcal/mol  [=(1)+(2)+(3)-(4)]USERUSER    (1) Final Intermolecular Energy     = -10.57 kcal/molUSER        vdW + Hbond + desolv Energy     = -11.08 kcal/molUSER        Electrostatic Energy            =  -0.15 kcal/molUSER        Moving Ligand-Fixed Receptor    = -11.23 kcal/molUSER        Moving Ligand-Moving Receptor   =  +0.66 kcal/molUSER    (2) Final Total Internal Energy     =  -3.25 kcal/molUSER    (3) Torsional Free Energy           =  +4.47 kcal/molUSER    (4) Unbound System's Energy         =  -3.25 kcal/molUSERUSERREMARK SMILES COc1ccc(O)c(C(=O)c2ccc(CO[C@@H]3CCCNC[C@@H]3NC(=O)c3ccncc3)cc2)c1FREMARK SMILES IDX 16 1 15 2 14 3 11 4 12 5 34 6 13 7 33 8 9 9 10 10 8 11 3 12REMARK SMILES IDX 4 13 35 14 5 15 6 16 36 17 2 18 1 19 7 20 17 22 18 23 23 25REMARK SMILES IDX 22 26 21 27 20 29 19 30 24 32 25 33 26 35 27 36 28 37 32 38REMARK SMILES IDX 29 39 31 40 30 41REMARK H PARENT 7 21 21 28 24 34REMARK Flexibility Score:   99.900USER                              x       y       z     vdW  Elec       q    TypeUSER                           _______ _______ _______ _____ _____    ______ ____ROOTATOM      1  O   UNL     1      38.594  46.888  16.665 -0.21 +0.14    -0.371 OA ENDROOTBRANCH   1   2ATOM      2  C   UNL     1      39.965  46.849  17.054 -0.40 -0.04    +0.196 C  BRANCH   2   3ATOM      3  C   UNL     1      40.061  46.124  18.371 -0.45 +0.00    -0.022 A  ATOM      4  C   UNL     1      40.213  44.789  20.839 -0.33 +0.00    +0.023 A  ATOM      5  C   UNL     1      38.998  44.849  20.151 -0.37 -0.00    +0.012 A  ATOM      6  C   UNL     1      41.358  45.367  20.279 -0.37 +0.00    +0.012 A  ATOM      7  C   UNL     1      38.924  45.519  18.928 -0.40 -0.00    +0.007 A  ATOM      8  C   UNL     1      41.281  46.035  19.055 -0.47 +0.00    +0.007 A  BRANCH   4   9ATOM      9  C   UNL     1      40.348  44.061  22.124 -0.20 +0.01    +0.199 C  ATOM     10  O   UNL     1      40.699  42.878  22.107 -0.22 -0.01    -0.288 OA BRANCH   9  11ATOM     11  C   UNL     1      40.023  44.661  23.434 -0.14 +0.00    +0.104 A  ATOM     12  C   UNL     1      38.560  45.955  24.894 -0.19 +0.01    +0.155 A  ATOM     13  C   UNL     1      39.451  45.765  25.953 -0.15 +0.00    +0.053 A  ATOM     14  C   UNL     1      38.860  45.405  23.639 -0.19 +0.01    +0.179 A  ATOM     15  C   UNL     1      40.635  45.050  25.751 -0.09 +0.00    +0.051 A  ATOM     16  C   UNL     1      40.923  44.516  24.497 -0.07 +0.00    +0.130 A  ATOM     17  F   UNL     1      38.014  45.625  22.620 -0.11 -0.02    -0.202 F  BRANCH  12  18ATOM     18  O   UNL     1      37.381  46.647  24.966 -0.64 -0.12    -0.494 OA ATOM     19  C   UNL     1      36.964  47.096  26.250 -0.23 -0.03    +0.278 C  ENDBRANCH  12  18BRANCH  16  20ATOM     20  O   UNL     1      42.118  43.857  24.378 -0.00 -0.01    -0.507 OA ATOM     21  H   UNL     1      41.978  43.087  23.779 +0.10 -0.01    +0.293 HD ENDBRANCH  16  20ENDBRANCH   9  11ENDBRANCH   4   9ENDBRANCH   2   3ENDBRANCH   1   2BRANCH   1  22ATOM     22  C   UNL     1      38.386  46.595  15.266 -0.37 -0.05    +0.142 C  BRANCH  22  23ATOM     23  C   UNL     1      37.640  47.821  14.720 -0.55 -0.02    +0.035 CG0ATOM     24  G   UNL     1      37.280  47.875  13.239 +0.00 +0.00    +0.000 G0 ENDBRANCH  22  23BRANCH  22  25ATOM     25  C   UNL     1      37.652  45.240  15.131 -0.33 -0.04    +0.125 C  BRANCH  25  26ATOM     26  C   UNL     1      36.940  45.128  13.760 -0.43 -0.04    +0.108 C  BRANCH  26  27ATOM     27  N   UNL     1      35.748  45.953  13.568 -0.23 +0.18    -0.315 NA ATOM     28  H   UNL     1      35.339  46.145  14.484 +0.08 -0.10    +0.122 HD BRANCH  27  29ATOM     29  C   UNL     1      35.980  47.191  12.838 -0.63 -0.05    +0.081 C  BRANCH  29  30ATOM     30  C   UNL     1      37.276  47.877  13.243 -0.60 -0.01    +0.018 CG0ATOM     31  G   UNL     1      37.634  47.817  14.723 +0.00 +0.00    +0.000 G0 ENDBRANCH  29  30ENDBRANCH  27  29ENDBRANCH  26  27ENDBRANCH  25  26BRANCH  25  32ATOM     32  N   UNL     1      36.778  44.991  16.286 -0.11 +0.14    -0.345 N  ATOM     33  C   UNL     1      36.188  43.760  16.487 -0.27 -0.09    +0.251 C  ATOM     34  H   UNL     1      37.036  45.497  17.125 +0.11 -0.06    +0.164 HD ATOM     35  O   UNL     1      36.253  42.836  15.687 -0.39 +0.09    -0.269 OA BRANCH  33  36ATOM     36  C   UNL     1      35.474  43.576  17.779 -0.30 -0.01    +0.042 A  ATOM     37  C   UNL     1      34.087  43.431  17.755 -0.30 -0.01    +0.034 A  ATOM     38  C   UNL     1      36.145  43.580  19.002 -0.33 -0.01    +0.034 A  ATOM     39  C   UNL     1      33.428  43.278  18.960 -0.31 -0.01    +0.112 A  ATOM     40  C   UNL     1      35.392  43.422  20.153 -0.34 -0.00    +0.112 A  ATOM     41  N   UNL     1      34.052  43.266  20.157 -0.65 -0.02    -0.265 NA ENDBRANCH  33  36ENDBRANCH  25  32ENDBRANCH  22  25ENDBRANCH   1  22TORSDOF 9TERENDMDL