MODEL        2USER    Run = 2USERUSER    Estimated Free Energy of Binding    =  -7.23 kcal/mol  [=(1)+(2)+(3)-(4)]USERUSER    (1) Final Intermolecular Energy     = -11.70 kcal/molUSER        vdW + Hbond + desolv Energy     = -11.98 kcal/molUSER        Electrostatic Energy            =  +0.07 kcal/molUSER        Moving Ligand-Fixed Receptor    = -11.91 kcal/molUSER        Moving Ligand-Moving Receptor   =  +0.20 kcal/molUSER    (2) Final Total Internal Energy     =  -2.05 kcal/molUSER    (3) Torsional Free Energy           =  +4.47 kcal/molUSER    (4) Unbound System's Energy         =  -2.05 kcal/molUSERUSERREMARK SMILES COc1ccc(O)c(C(=O)c2ccc(/C=C/[C@@H]3CCCNC[C@H]3NC(=O)c3ccncc3)cc2)c1FREMARK SMILES IDX 16 1 15 2 14 3 11 4 12 5 34 6 13 7 33 8 9 9 10 10 8 11 3 12REMARK SMILES IDX 4 13 35 14 5 15 6 16 36 17 2 18 1 19 7 20 17 22 18 23 23 25REMARK SMILES IDX 22 26 21 27 20 29 19 30 24 32 25 33 26 35 27 36 28 37 32 38REMARK SMILES IDX 29 39 31 40 30 41REMARK H PARENT 7 21 21 28 24 34REMARK Flexibility Score:   99.900USER                              x       y       z     vdW  Elec       q    TypeUSER                           _______ _______ _______ _____ _____    ______ ____ROOTATOM      1  C   UNL     1      35.171  44.154  19.057 -0.42 +0.00    -0.021 C  ENDROOTBRANCH   1   2ATOM      2  C   UNL     1      36.128  43.291  19.434 -0.45 -0.00    +0.004 C  BRANCH   2   3ATOM      3  C   UNL     1      36.714  43.269  20.780 -0.41 -0.00    -0.026 A  ATOM      4  C   UNL     1      37.853  43.149  23.342 -0.33 +0.00    +0.023 A  ATOM      5  C   UNL     1      37.216  42.025  22.809 -0.47 +0.00    +0.013 A  ATOM      6  C   UNL     1      37.958  44.319  22.585 -0.34 +0.00    +0.013 A  ATOM      7  C   UNL     1      36.653  42.088  21.529 -0.52 +0.00    +0.009 A  ATOM      8  C   UNL     1      37.383  44.380  21.313 -0.37 +0.00    +0.009 A  BRANCH   4   9ATOM      9  C   UNL     1      38.487  43.111  24.678 -0.19 +0.01    +0.199 C  ATOM     10  O   UNL     1      39.619  43.580  24.812 -0.09 -0.01    -0.288 OA BRANCH   9  11ATOM     11  C   UNL     1      37.844  42.487  25.856 -0.25 -0.01    +0.104 A  ATOM     12  C   UNL     1      35.907  42.134  27.296 -0.41 -0.05    +0.155 A  ATOM     13  C   UNL     1      36.665  41.281  28.099 -0.30 -0.02    +0.053 A  ATOM     14  C   UNL     1      36.508  42.734  26.178 -0.28 -0.02    +0.179 A  ATOM     15  C   UNL     1      38.011  41.051  27.802 -0.39 -0.01    +0.051 A  ATOM     16  C   UNL     1      38.597  41.660  26.697 -0.27 -0.01    +0.130 A  ATOM     17  F   UNL     1      35.779  43.582  25.435 -0.08 -0.01    -0.202 F  BRANCH  12  18ATOM     18  O   UNL     1      34.590  42.451  27.497 -0.22 +0.12    -0.494 OA ATOM     19  C   UNL     1      34.308  43.681  28.152 -0.41 -0.05    +0.278 C  ENDBRANCH  12  18BRANCH  16  20ATOM     20  O   UNL     1      39.927  41.404  26.496 -0.04 +0.04    -0.507 OA ATOM     21  H   UNL     1      40.332  42.209  26.097 +0.10 -0.02    +0.293 HD ENDBRANCH  16  20ENDBRANCH   9  11ENDBRANCH   4   9ENDBRANCH   2   3ENDBRANCH   1   2BRANCH   1  22ATOM     22  C   UNL     1      35.353  45.343  18.116 -0.40 -0.02    +0.035 C  BRANCH  22  23ATOM     23  C   UNL     1      33.967  45.999  17.955 -0.52 -0.01    +0.011 CG0ATOM     24  G   UNL     1      32.853  45.188  17.301 +0.00 +0.00    +0.000 G0 ENDBRANCH  22  23BRANCH  22  25ATOM     25  C   UNL     1      36.088  45.062  16.770 -0.32 -0.05    +0.103 C  BRANCH  25  26ATOM     26  C   UNL     1      35.246  45.548  15.556 -0.33 -0.08    +0.106 C  BRANCH  26  27ATOM     27  N   UNL     1      34.065  44.777  15.185 -0.03 +0.20    -0.315 NA ATOM     28  H   UNL     1      34.226  43.791  15.397 +0.07 -0.06    +0.122 HD BRANCH  27  29ATOM     29  C   UNL     1      32.817  45.228  15.780 -0.34 -0.06    +0.081 C  BRANCH  29  30ATOM     30  C   UNL     1      32.854  45.188  17.300 -0.35 -0.01    +0.016 CG0ATOM     31  G   UNL     1      33.968  45.999  17.952 +0.00 +0.00    +0.000 G0 ENDBRANCH  29  30ENDBRANCH  27  29ENDBRANCH  26  27ENDBRANCH  25  26BRANCH  25  32ATOM     32  N   UNL     1      37.397  45.731  16.727 -0.13 +0.14    -0.347 N  ATOM     33  C   UNL     1      37.524  47.056  16.373 -0.22 -0.15    +0.251 C  ATOM     34  H   UNL     1      38.183  45.253  17.147 +0.11 -0.04    +0.164 HD ATOM     35  O   UNL     1      36.577  47.770  16.068 -0.27 +0.31    -0.269 OA BRANCH  33  36ATOM     36  C   UNL     1      38.899  47.613  16.410 -0.40 -0.02    +0.042 A  ATOM     37  C   UNL     1      39.305  48.623  15.538 -0.50 -0.02    +0.034 A  ATOM     38  C   UNL     1      39.785  47.127  17.370 -0.42 -0.01    +0.034 A  ATOM     39  C   UNL     1      40.603  49.086  15.650 -0.53 -0.03    +0.112 A  ATOM     40  C   UNL     1      41.062  47.655  17.397 -0.43 -0.01    +0.112 A  ATOM     41  N   UNL     1      41.492  48.617  16.552 -0.81 -0.00    -0.265 NA ENDBRANCH  33  36ENDBRANCH  25  32ENDBRANCH  22  25ENDBRANCH   1  22TORSDOF 9TERENDMDL