REMARK SMILES Oc1nc2ccccc2n1C1CCN(Cc2ccc(-c3cc4ccccc4nc3-c3ccccc3)cc2)CC1
REMARK SMILES IDX 11 1 12 2 13 3 14 4 38 5 39 6 10 7 2 8 3 9 4 10 9 11 5 12
REMARK SMILES IDX 8 13 6 14 7 15 1 16 15 18 16 19 17 20 37 21 18 22 36 23
REMARK SMILES IDX 19 24 20 25 21 26 29 27 22 28 28 29 23 30 27 31 24 32 26 33
REMARK SMILES IDX 25 34 30 35 31 36 35 37 32 38 34 39 33 40
REMARK H PARENT 1 17
ROOT
ATOM      1  C   UNL     1       4.514  -1.044  -1.066  1.00  0.00     0.095 C 
ATOM      2  C   UNL     1       4.327   0.194  -1.955  1.00  0.00     0.041 C 
ATOM      3  C   UNL     1       3.505   1.312  -1.322  1.00  0.00     0.087 C 
ATOM      4  N   UNL     1       2.279   0.856  -0.663  1.00  0.00    -0.299 NA
ATOM      5  C   UNL     1       2.587  -0.123   0.383  1.00  0.00     0.087 C 
ATOM      6  C   UNL     1       3.354  -1.349  -0.106  1.00  0.00     0.041 C 
ENDROOT
BRANCH   1   7
ATOM      7  N   UNL     1       5.841  -1.153  -0.463  1.00  0.00    -0.291 N 
ATOM      8  C   UNL     1       6.757  -2.113  -0.822  1.00  0.00     0.295 A 
ATOM      9  N   UNL     1       7.869  -2.056  -0.146  1.00  0.00    -0.195 NA
ATOM     10  C   UNL     1       7.690  -0.999   0.705  1.00  0.00     0.092 A 
ATOM     11  C   UNL     1       6.434  -0.400   0.530  1.00  0.00     0.072 A 
ATOM     12  C   UNL     1       8.582  -0.494   1.666  1.00  0.00     0.031 A 
ATOM     13  C   UNL     1       6.051   0.710   1.293  1.00  0.00     0.029 A 
ATOM     14  C   UNL     1       8.201   0.609   2.433  1.00  0.00     0.002 A 
ATOM     15  C   UNL     1       6.955   1.200   2.245  1.00  0.00     0.002 A 
BRANCH   8  16
ATOM     16  O   UNL     1       6.571  -3.024  -1.755  1.00  0.00    -0.480 OA
ATOM     17  H   UNL     1       7.419  -3.503  -1.720  1.00  0.00     0.296 HD
ENDBRANCH   8  16
ENDBRANCH   1   7
BRANCH   4  18
ATOM     18  C   UNL     1       1.265   0.399  -1.628  1.00  0.00     0.120 C 
BRANCH  18  19
ATOM     19  C   UNL     1      -0.114   0.255  -1.021  1.00  0.00    -0.034 A 
ATOM     20  C   UNL     1      -0.710  -1.004  -0.878  1.00  0.00     0.006 A 
ATOM     21  C   UNL     1      -0.818   1.388  -0.591  1.00  0.00     0.006 A 
ATOM     22  C   UNL     1      -1.985  -1.126  -0.318  1.00  0.00     0.009 A 
ATOM     23  C   UNL     1      -2.096   1.264  -0.040  1.00  0.00     0.009 A 
ATOM     24  C   UNL     1      -2.700   0.007   0.100  1.00  0.00    -0.016 A 
BRANCH  24  25
ATOM     25  C   UNL     1      -4.041  -0.122   0.689  1.00  0.00     0.009 A 
ATOM     26  C   UNL     1      -4.174  -0.669   1.974  1.00  0.00     0.021 A 
ATOM     27  C   UNL     1      -5.219   0.306   0.055  1.00  0.00     0.079 A 
ATOM     28  C   UNL     1      -5.428  -0.766   2.589  1.00  0.00     0.001 A 
ATOM     29  N   UNL     1      -6.445   0.230   0.648  1.00  0.00    -0.247 NA
ATOM     30  C   UNL     1      -5.583  -1.308   3.877  1.00  0.00     0.010 A 
ATOM     31  C   UNL     1      -6.546  -0.295   1.879  1.00  0.00     0.071 A 
ATOM     32  C   UNL     1      -6.845  -1.385   4.463  1.00  0.00     0.001 A 
ATOM     33  C   UNL     1      -7.793  -0.381   2.485  1.00  0.00     0.029 A 
ATOM     34  C   UNL     1      -7.954  -0.919   3.765  1.00  0.00     0.002 A 
BRANCH  27  35
ATOM     35  C   UNL     1      -5.263   0.876  -1.305  1.00  0.00     0.001 A 
ATOM     36  C   UNL     1      -5.805   2.155  -1.524  1.00  0.00     0.010 A 
ATOM     37  C   UNL     1      -4.792   0.163  -2.421  1.00  0.00     0.010 A 
ATOM     38  C   UNL     1      -5.851   2.710  -2.806  1.00  0.00     0.001 A 
ATOM     39  C   UNL     1      -4.838   0.716  -3.704  1.00  0.00     0.001 A 
ATOM     40  C   UNL     1      -5.364   1.992  -3.895  1.00  0.00     0.000 A 
ENDBRANCH  27  35
ENDBRANCH  24  25
ENDBRANCH  18  19
ENDBRANCH   4  18
TORSDOF 6
