MODEL        2USER    Run = 2USERUSER    Estimated Free Energy of Binding    =  -6.58 kcal/mol  [=(1)+(2)+(3)-(4)]USERUSER    (1) Final Intermolecular Energy     = -10.76 kcal/molUSER        vdW + Hbond + desolv Energy     = -11.01 kcal/molUSER        Electrostatic Energy            =  -0.35 kcal/molUSER        Moving Ligand-Fixed Receptor    = -11.36 kcal/molUSER        Moving Ligand-Moving Receptor   =  +0.60 kcal/molUSER    (2) Final Total Internal Energy     =  -2.72 kcal/molUSER    (3) Torsional Free Energy           =  +4.18 kcal/molUSER    (4) Unbound System's Energy         =  -2.72 kcal/molUSERUSERREMARK SMILES COc1ccc(O)c(C(=O)c2ccc(C(=O)N[C@@H]3CCCNC[C@H]3NC(=O)c3ccncc3)cc2)c1FREMARK SMILES IDX 15 1 16 2 17 3 14 5 11 6 12 7 35 8 13 9 34 10 9 11 10 12REMARK SMILES IDX 8 13 3 14 4 15 36 16 5 17 6 18 37 19 2 20 1 21 7 22 18 24REMARK SMILES IDX 19 25 24 27 23 28 22 29 21 31 20 32 25 34 26 35 27 37 28 38REMARK SMILES IDX 29 39 33 40 30 41 32 42 31 43REMARK H PARENT 17 4 7 23 22 30 25 36REMARK Flexibility Score:   88.900USER                              x       y       z     vdW  Elec       q    TypeUSER                           _______ _______ _______ _____ _____    ______ ____ROOTATOM      1  C   UNL     1      39.956  43.905  25.965 -0.08 -0.00    +0.251 C  ATOM      2  O   UNL     1      40.469  43.028  26.651 -0.10 +0.01    -0.269 OA ATOM      3  N   UNL     1      38.663  44.350  26.148 -0.04 +0.01    -0.347 N  ATOM      4  H   UNL     1      38.249  44.918  25.421 +0.08 +0.00    +0.164 HD ENDROOTBRANCH   1   5ATOM      5  C   UNL     1      40.702  44.497  24.820 -0.10 +0.00    +0.039 A  ATOM      6  C   UNL     1      42.023  45.539  22.577 -0.20 +0.00    +0.023 A  ATOM      7  C   UNL     1      41.576  44.214  22.574 -0.23 +0.00    +0.013 A  ATOM      8  C   UNL     1      41.811  46.343  23.702 -0.16 +0.00    +0.013 A  ATOM      9  C   UNL     1      40.928  43.691  23.696 -0.19 +0.00    +0.014 A  ATOM     10  C   UNL     1      41.161  45.820  24.828 -0.10 +0.00    +0.014 A  BRANCH   6  11ATOM     11  C   UNL     1      42.631  46.069  21.337 -0.25 +0.05    +0.199 C  ATOM     12  O   UNL     1      43.856  46.200  21.302 -0.31 -0.20    -0.288 OA BRANCH  11  13ATOM     13  C   UNL     1      41.864  46.407  20.115 -0.33 +0.01    +0.104 A  ATOM     14  C   UNL     1      39.839  46.318  18.756 -0.27 -0.01    +0.155 A  ATOM     15  C   UNL     1      40.461  47.095  17.775 -0.45 -0.01    +0.053 A  ATOM     16  C   UNL     1      40.549  45.983  19.922 -0.23 +0.01    +0.179 A  ATOM     17  C   UNL     1      41.769  47.548  17.969 -0.45 -0.00    +0.051 A  ATOM     18  C   UNL     1      42.455  47.218  19.135 -0.44 +0.01    +0.130 A  ATOM     19  F   UNL     1      39.923  45.268  20.870 -0.08 -0.01    -0.202 F  BRANCH  14  20ATOM     20  O   UNL     1      38.561  45.831  18.686 -0.14 +0.07    -0.494 OA ATOM     21  C   UNL     1      38.393  44.521  18.151 -0.22 -0.04    +0.278 C  ENDBRANCH  14  20BRANCH  18  22ATOM     22  O   UNL     1      43.720  47.732  19.252 -0.21 -0.10    -0.507 OA ATOM     23  H   UNL     1      43.823  48.053  20.180 -0.38 -0.02    +0.293 HD ENDBRANCH  18  22ENDBRANCH  11  13ENDBRANCH   6  11ENDBRANCH   1   5BRANCH   3  24ATOM     24  C   UNL     1      37.746  43.649  27.056 -0.29 -0.01    +0.106 C  BRANCH  24  25ATOM     25  C   UNL     1      37.624  42.179  26.636 -0.41 -0.00    +0.028 CG0ATOM     26  G   UNL     1      36.325  41.801  25.904 +0.00 +0.00    +0.000 G0 ENDBRANCH  24  25BRANCH  24  27ATOM     27  C   UNL     1      36.386  44.398  27.137 -0.38 -0.02    +0.118 C  BRANCH  27  28ATOM     28  C   UNL     1      35.369  43.798  28.137 -0.50 -0.03    +0.108 C  BRANCH  28  29ATOM     29  N   UNL     1      35.139  42.352  28.070 -0.28 +0.13    -0.315 NA ATOM     30  H   UNL     1      35.852  41.862  28.605 -0.49 -0.08    +0.122 HD BRANCH  29  31ATOM     31  C   UNL     1      35.044  41.776  26.733 -0.56 -0.02    +0.081 C  BRANCH  31  32ATOM     32  C   UNL     1      36.327  41.796  25.906 -0.49 -0.00    +0.017 CG0ATOM     33  G   UNL     1      37.623  42.178  26.642 +0.00 +0.00    +0.000 G0 ENDBRANCH  31  32ENDBRANCH  29  31ENDBRANCH  28  29ENDBRANCH  27  28BRANCH  27  34ATOM     34  N   UNL     1      36.609  45.825  27.405 -0.17 +0.09    -0.346 N  ATOM     35  C   UNL     1      36.887  46.713  26.392 -0.16 -0.03    +0.251 C  ATOM     36  H   UNL     1      36.285  46.182  28.290 +0.02 -0.04    +0.164 HD ATOM     37  O   UNL     1      37.056  46.382  25.226 -0.86 -0.05    -0.269 OA BRANCH  35  38ATOM     38  C   UNL     1      36.946  48.147  26.771 -0.35 -0.00    +0.042 A  ATOM     39  C   UNL     1      36.142  49.049  26.073 -0.45 -0.00    +0.034 A  ATOM     40  C   UNL     1      37.796  48.612  27.775 -0.19 -0.00    +0.034 A  ATOM     41  C   UNL     1      36.205  50.382  26.428 -0.31 +0.01    +0.112 A  ATOM     42  C   UNL     1      37.786  49.966  28.053 -0.17 +0.01    +0.112 A  ATOM     43  N   UNL     1      37.005  50.860  27.405 -0.11 -0.06    -0.265 NA ENDBRANCH  35  38ENDBRANCH  27  34ENDBRANCH  24  27ENDBRANCH   3  24TORSDOF 8TERENDMDL