MODEL        2USER    Run = 2USERUSER    Estimated Free Energy of Binding    = -11.53 kcal/mol  [=(1)+(2)+(3)-(4)]USERUSER    (1) Final Intermolecular Energy     = -13.92 kcal/molUSER        vdW + Hbond + desolv Energy     = -13.81 kcal/molUSER        Electrostatic Energy            =  -0.11 kcal/molUSER        Moving Ligand-Fixed Receptor    = -13.92 kcal/molUSER        Moving Ligand-Moving Receptor   =  +0.00 kcal/molUSER    (2) Final Total Internal Energy     =  -2.41 kcal/molUSER    (3) Torsional Free Energy           =  +2.39 kcal/molUSER    (4) Unbound System's Energy         =  -2.41 kcal/molUSERUSERREMARK SMILES N#Cc1cnc(-c2ccc(CNCc3ccc(-c4csnn4)cc3)cc2)c(-c2ccccc2)c1REMARK SMILES IDX 11 1 10 2 7 3 8 4 26 5 9 6 25 7 6 8 3 9 4 10 34 11 5 12REMARK SMILES IDX 27 13 2 14 1 15 28 16 29 17 33 18 30 19 32 20 31 21 12 22REMARK SMILES IDX 13 24 14 25 15 26 24 27 16 28 23 29 17 30 18 31 19 32 22 33REMARK SMILES IDX 20 34 21 35REMARK H PARENT 12 23USER                              x       y       z     vdW  Elec       q    TypeUSER                           _______ _______ _______ _____ _____    ______ ____ROOTATOM      1  C   UNL     1      37.335  43.243  20.706 -0.34 -0.00    +0.117 C  ENDROOTBRANCH   1   2ATOM      2  C   UNL     1      37.943  44.251  19.761 -0.33 +0.00    -0.034 A  ATOM      3  C   UNL     1      39.075  46.125  17.952 -0.42 -0.00    +0.001 A  ATOM      4  C   UNL     1      39.856  45.505  18.944 -0.43 -0.00    +0.011 A  ATOM      5  C   UNL     1      37.711  45.799  17.899 -0.33 -0.00    +0.011 A  ATOM      6  C   UNL     1      39.302  44.576  19.832 -0.36 -0.00    +0.006 A  ATOM      7  C   UNL     1      37.154  44.869  18.784 -0.32 -0.00    +0.006 A  BRANCH   3   8ATOM      8  C   UNL     1      39.685  47.100  17.026 -0.42 -0.02    +0.078 A  ATOM      9  C   UNL     1      41.007  49.007  15.519 -0.57 -0.01    +0.071 A  ATOM     10  C   UNL     1      41.425  48.638  16.782 -0.29 -0.00    +0.131 A  ATOM     11  C   UNL     1      39.880  48.375  14.994 -0.54 -0.01    +0.032 A  ATOM     12  N   UNL     1      40.799  47.705  17.535 -0.35 +0.03    -0.254 NA ATOM     13  C   UNL     1      39.191  47.398  15.738 -0.48 -0.00    +0.009 A  BRANCH   9  14ATOM     14  C   UNL     1      41.718  49.998  14.778 -0.67 -0.02    +0.101 C  ATOM     15  N   UNL     1      42.297  50.804  14.176 -0.49 +0.05    -0.192 NA ENDBRANCH   9  14BRANCH  13  16ATOM     16  C   UNL     1      38.033  46.726  15.123 -0.40 +0.01    -0.016 A  ATOM     17  C   UNL     1      36.742  47.271  15.238 -0.40 -0.01    +0.009 A  ATOM     18  C   UNL     1      38.187  45.536  14.394 -0.39 -0.00    +0.009 A  ATOM     19  C   UNL     1      35.641  46.641  14.652 -0.37 -0.00    +0.001 A  ATOM     20  C   UNL     1      37.086  44.904  13.810 -0.40 -0.00    +0.001 A  ATOM     21  C   UNL     1      35.814  45.457  13.939 -0.34 -0.00    +0.000 A  ENDBRANCH  13  16ENDBRANCH   3   8ENDBRANCH   1   2BRANCH   1  22ATOM     22  N   UNL     1      35.883  43.190  20.534 -0.23 +0.00    -0.309 NA ATOM     23  H   UNL     1      35.543  44.143  20.414 +0.06 -0.01    +0.123 HD BRANCH  22  24ATOM     24  C   UNL     1      35.494  42.396  19.368 -0.39 -0.01    +0.117 C  BRANCH  24  25ATOM     25  C   UNL     1      34.583  43.134  18.416 -0.33 +0.01    -0.034 A  ATOM     26  C   UNL     1      34.542  42.797  17.057 -0.40 -0.00    +0.006 A  ATOM     27  C   UNL     1      33.777  44.184  18.871 -0.39 -0.00    +0.006 A  ATOM     28  C   UNL     1      33.704  43.490  16.175 -0.33 -0.01    +0.011 A  ATOM     29  C   UNL     1      32.940  44.876  17.991 -0.32 -0.00    +0.011 A  ATOM     30  C   UNL     1      32.887  44.534  16.632 -0.32 -0.00    +0.003 A  BRANCH  30  31ATOM     31  C   UNL     1      32.001  45.276  15.739 -0.30 -0.07    +0.105 A  ATOM     32  C   UNL     1      32.359  45.747  14.487 -0.23 -0.10    +0.118 A  ATOM     33  N   UNL     1      30.682  45.546  16.097 -0.76 +0.03    -0.138 NA ATOM     34  S   UNL     1      30.988  46.536  13.821 -0.76 +0.01    -0.020 S  ATOM     35  N   UNL     1      30.039  46.219  15.159 -0.47 +0.03    -0.091 NA ENDBRANCH  30  31ENDBRANCH  24  25ENDBRANCH  22  24ENDBRANCH   1  22TORSDOF 8TERENDMDL