MODEL        7USER    Run = 7USERUSER    Estimated Free Energy of Binding    = -11.42 kcal/mol  [=(1)+(2)+(3)-(4)]USERUSER    (1) Final Intermolecular Energy     = -13.20 kcal/molUSER        vdW + Hbond + desolv Energy     = -13.12 kcal/molUSER        Electrostatic Energy            =  -0.08 kcal/molUSER        Moving Ligand-Fixed Receptor    = -13.20 kcal/molUSER        Moving Ligand-Moving Receptor   =  +0.00 kcal/molUSER    (2) Final Total Internal Energy     =  -1.79 kcal/molUSER    (3) Torsional Free Energy           =  +1.79 kcal/molUSER    (4) Unbound System's Energy         =  -1.79 kcal/molUSERUSERREMARK SMILES Oc1nc2ccccc2n1C1CCN(Cc2ccc(-c3nc4ccccc4nc3-c3ccccc3)cc2)CC1REMARK SMILES IDX 11 1 12 2 13 3 14 4 38 5 39 6 10 7 2 8 3 9 4 10 9 11 5 12REMARK SMILES IDX 8 13 6 14 7 15 1 16 15 18 16 19 17 20 37 21 18 22 36 23REMARK SMILES IDX 19 24 20 25 21 26 29 27 22 28 28 29 23 30 27 31 24 32 26 33REMARK SMILES IDX 25 34 30 35 31 36 35 37 32 38 34 39 33 40REMARK H PARENT 1 17USER                              x       y       z     vdW  Elec       q    TypeUSER                           _______ _______ _______ _____ _____    ______ ____ROOTATOM      1  C   UNL     1      36.711  44.651  27.148 -0.38 -0.02    +0.095 C  ATOM      2  C   UNL     1      37.933  44.186  27.959 -0.31 -0.01    +0.041 C  ATOM      3  C   UNL     1      38.579  42.941  27.351 -0.29 -0.01    +0.087 C  ATOM      4  N   UNL     1      38.711  42.994  25.892 -0.08 +0.01    -0.299 NA ATOM      5  C   UNL     1      37.426  43.221  25.210 -0.32 -0.00    +0.087 C  ATOM      6  C   UNL     1      36.261  43.592  26.134 -0.43 -0.00    +0.041 C  ENDROOTBRANCH   1   7ATOM      7  N   UNL     1      35.626  45.124  27.994 -0.19 +0.09    -0.291 N  ATOM      8  C   UNL     1      34.591  44.377  28.482 -0.38 -0.07    +0.295 A  ATOM      9  N   UNL     1      33.764  45.060  29.224 -0.63 +0.03    -0.195 NA ATOM     10  C   UNL     1      34.288  46.330  29.237 -0.35 -0.02    +0.092 A  ATOM     11  C   UNL     1      35.459  46.405  28.480 -0.16 -0.02    +0.072 A  ATOM     12  C   UNL     1      33.812  47.479  29.888 -0.34 -0.00    +0.031 A  ATOM     13  C   UNL     1      36.191  47.593  28.344 -0.32 -0.01    +0.029 A  ATOM     14  C   UNL     1      34.529  48.675  29.762 -0.32 -0.00    +0.002 A  ATOM     15  C   UNL     1      35.699  48.727  29.003 -0.31 -0.00    +0.002 A  BRANCH   8  16ATOM     16  O   UNL     1      34.420  43.091  28.256 -0.27 +0.13    -0.480 OA ATOM     17  H   UNL     1      35.037  42.699  28.901 -0.28 -0.19    +0.296 HD ENDBRANCH   8  16ENDBRANCH   1   7BRANCH   4  18ATOM     18  C   UNL     1      39.749  43.926  25.417 -0.13 +0.00    +0.120 C  BRANCH  18  19ATOM     19  C   UNL     1      39.600  44.317  23.962 -0.17 -0.00    -0.034 A  ATOM     20  C   UNL     1      40.197  43.554  22.952 -0.25 +0.00    +0.006 A  ATOM     21  C   UNL     1      38.876  45.461  23.604 -0.28 +0.00    +0.006 A  ATOM     22  C   UNL     1      40.052  43.919  21.609 -0.24 +0.00    +0.011 A  ATOM     23  C   UNL     1      38.732  45.822  22.262 -0.29 +0.00    +0.011 A  ATOM     24  C   UNL     1      39.304  45.049  21.239 -0.34 +0.00    +0.002 A  BRANCH  24  25ATOM     25  C   UNL     1      39.148  45.405  19.819 -0.32 -0.00    +0.097 A  ATOM     26  N   UNL     1      40.146  46.204  19.340 -0.25 +0.01    -0.244 NA ATOM     27  C   UNL     1      38.081  45.004  18.999 -0.30 -0.01    +0.097 A  ATOM     28  C   UNL     1      40.049  46.620  18.065 -0.40 -0.01    +0.089 A  ATOM     29  N   UNL     1      37.985  45.441  17.710 -0.22 +0.06    -0.244 NA ATOM     30  C   UNL     1      41.035  47.444  17.537 -0.50 -0.00    +0.030 A  ATOM     31  C   UNL     1      38.963  46.239  17.248 -0.36 -0.02    +0.089 A  ATOM     32  C   UNL     1      40.972  47.902  16.220 -0.48 -0.00    +0.002 A  ATOM     33  C   UNL     1      38.908  46.699  15.938 -0.41 -0.01    +0.030 A  ATOM     34  C   UNL     1      39.903  47.527  15.417 -0.52 -0.00    +0.002 A  BRANCH  27  35ATOM     35  C   UNL     1      36.996  44.090  19.400 -0.37 -0.00    +0.002 A  ATOM     36  C   UNL     1      37.255  43.026  20.284 -0.27 -0.00    +0.010 A  ATOM     37  C   UNL     1      35.675  44.257  18.950 -0.36 -0.00    +0.010 A  ATOM     38  C   UNL     1      36.241  42.149  20.681 -0.49 -0.00    +0.001 A  ATOM     39  C   UNL     1      34.660  43.380  19.342 -0.41 -0.00    +0.001 A  ATOM     40  C   UNL     1      34.944  42.325  20.205 -0.37 +0.00    +0.000 A  ENDBRANCH  27  35ENDBRANCH  24  25ENDBRANCH  18  19ENDBRANCH   4  18TORSDOF 6TERENDMDL