MODEL        6USER    Run = 6USERUSER    Estimated Free Energy of Binding    =  -6.86 kcal/mol  [=(1)+(2)+(3)-(4)]USERUSER    (1) Final Intermolecular Energy     = -11.34 kcal/molUSER        vdW + Hbond + desolv Energy     = -12.00 kcal/molUSER        Electrostatic Energy            =  -0.04 kcal/molUSER        Moving Ligand-Fixed Receptor    = -12.04 kcal/molUSER        Moving Ligand-Moving Receptor   =  +0.70 kcal/molUSER    (2) Final Total Internal Energy     =  -3.29 kcal/molUSER    (3) Torsional Free Energy           =  +4.47 kcal/molUSER    (4) Unbound System's Energy         =  -3.29 kcal/molUSERUSERREMARK SMILES COc1ccc(O)c(C(=O)c2ccc(C(=O)O[C@@H]3CCCNC[C@H]3NC(=O)c3ccncc3)cc2)c1FREMARK SMILES IDX 17 1 15 2 16 3 14 4 11 5 12 6 35 7 13 8 34 9 9 10 10 11 8 12REMARK SMILES IDX 3 13 4 14 36 15 5 16 6 17 37 18 2 19 1 20 7 21 18 23 24 25REMARK SMILES IDX 23 26 22 27 21 29 20 30 19 31 25 33 26 34 27 36 28 37 29 38REMARK SMILES IDX 33 39 30 40 32 41 31 42REMARK H PARENT 7 22 22 28 25 35REMARK Flexibility Score:   99.900USER                              x       y       z     vdW  Elec       q    TypeUSER                           _______ _______ _______ _____ _____    ______ ____ROOTATOM      1  O   UNL     1      37.109  46.209  27.898 -0.15 +0.10    -0.457 OA ENDROOTBRANCH   1   2ATOM      2  C   UNL     1      36.903  47.425  27.330 -0.21 -0.06    +0.338 C  ATOM      3  O   UNL     1      35.990  48.201  27.570 -0.28 +0.04    -0.246 OA BRANCH   2   4ATOM      4  C   UNL     1      38.001  47.721  26.376 -0.29 -0.00    +0.060 A  ATOM      5  C   UNL     1      40.130  48.259  24.627 -0.31 +0.00    +0.023 A  ATOM      6  C   UNL     1      38.832  48.682  24.308 -0.35 +0.00    +0.013 A  ATOM      7  C   UNL     1      40.356  47.570  25.827 -0.20 +0.00    +0.013 A  ATOM      8  C   UNL     1      37.771  48.413  25.180 -0.42 +0.00    +0.016 A  ATOM      9  C   UNL     1      39.298  47.310  26.704 -0.21 +0.00    +0.016 A  BRANCH   5  10ATOM     10  C   UNL     1      41.288  48.495  23.722 -0.25 +0.03    +0.199 C  ATOM     11  O   UNL     1      41.827  49.595  23.660 -0.75 -0.10    -0.288 OA BRANCH  10  12ATOM     12  C   UNL     1      41.810  47.413  22.878 -0.19 +0.01    +0.104 A  ATOM     13  C   UNL     1      41.418  45.323  21.714 -0.20 +0.02    +0.155 A  ATOM     14  C   UNL     1      42.763  45.304  21.325 -0.13 +0.02    +0.053 A  ATOM     15  C   UNL     1      40.953  46.384  22.500 -0.13 +0.02    +0.179 A  ATOM     16  C   UNL     1      43.622  46.348  21.693 -0.26 +0.02    +0.051 A  ATOM     17  C   UNL     1      43.142  47.405  22.462 -0.26 +0.03    +0.130 A  ATOM     18  F   UNL     1      39.657  46.429  22.851 -0.09 -0.02    -0.202 F  BRANCH  13  19ATOM     19  O   UNL     1      40.479  44.387  21.370 -0.05 -0.03    -0.494 OA ATOM     20  C   UNL     1      39.825  44.547  20.117 -0.23 +0.00    +0.278 C  ENDBRANCH  13  19BRANCH  17  21ATOM     21  O   UNL     1      43.967  48.437  22.806 -0.39 -0.12    -0.507 OA ATOM     22  H   UNL     1      43.628  49.271  22.443 -0.37 +0.09    +0.293 HD ENDBRANCH  17  21ENDBRANCH  10  12ENDBRANCH   5  10ENDBRANCH   2   4ENDBRANCH   1   2BRANCH   1  23ATOM     23  C   UNL     1      36.518  45.067  27.222 -0.27 -0.04    +0.200 CG0ATOM     24  G   UNL     1      35.522  44.436  28.194 +0.00 +0.00    +0.000 G0 BRANCH  23  25ATOM     25  C   UNL     1      37.677  44.138  26.806 -0.26 -0.01    +0.137 C  BRANCH  25  26ATOM     26  C   UNL     1      38.015  43.037  27.831 -0.33 -0.02    +0.109 C  BRANCH  26  27ATOM     27  N   UNL     1      37.143  41.861  27.762 -0.22 +0.09    -0.315 NA ATOM     28  H   UNL     1      36.991  41.522  28.713 -0.46 -0.06    +0.122 HD BRANCH  27  29ATOM     29  C   UNL     1      35.839  42.066  27.125 -0.55 -0.02    +0.081 C  BRANCH  29  30ATOM     30  C   UNL     1      34.891  43.107  27.735 -0.66 -0.00    +0.019 C  BRANCH  30  31ATOM     31  C   UNL     1      35.525  44.427  28.190 -0.55 -0.01    +0.049 CG0ATOM     32  G   UNL     1      36.518  45.072  27.223 +0.00 +0.00    +0.000 G0 ENDBRANCH  30  31ENDBRANCH  29  30ENDBRANCH  27  29ENDBRANCH  26  27ENDBRANCH  25  26BRANCH  25  33ATOM     33  N   UNL     1      37.367  43.538  25.502 -0.10 +0.01    -0.344 N  ATOM     34  C   UNL     1      37.377  44.266  24.338 -0.23 +0.02    +0.251 C  ATOM     35  H   UNL     1      37.454  42.532  25.449 +0.11 -0.01    +0.164 HD ATOM     36  O   UNL     1      37.592  45.470  24.286 -0.54 -0.05    -0.269 OA BRANCH  34  37ATOM     37  C   UNL     1      37.118  43.502  23.095 -0.33 +0.00    +0.042 A  ATOM     38  C   UNL     1      37.062  42.112  23.165 -0.45 +0.00    +0.034 A  ATOM     39  C   UNL     1      36.972  44.145  21.866 -0.33 +0.00    +0.034 A  ATOM     40  C   UNL     1      36.832  41.415  21.993 -0.49 +0.00    +0.112 A  ATOM     41  C   UNL     1      36.753  43.356  20.752 -0.34 -0.00    +0.112 A  ATOM     42  N   UNL     1      36.673  42.007  20.790 -0.28 +0.00    -0.265 NA ENDBRANCH  34  37ENDBRANCH  25  33ENDBRANCH  23  25ENDBRANCH   1  23TORSDOF 9TERENDMDL