MODEL        10USER    Run = 10USERUSER    Estimated Free Energy of Binding    = -11.91 kcal/mol  [=(1)+(2)+(3)-(4)]USERUSER    (1) Final Intermolecular Energy     = -13.70 kcal/molUSER        vdW + Hbond + desolv Energy     = -13.60 kcal/molUSER        Electrostatic Energy            =  -0.10 kcal/molUSER        Moving Ligand-Fixed Receptor    = -13.70 kcal/molUSER        Moving Ligand-Moving Receptor   =  +0.00 kcal/molUSER    (2) Final Total Internal Energy     =  -2.03 kcal/molUSER    (3) Torsional Free Energy           =  +1.79 kcal/molUSER    (4) Unbound System's Energy         =  -2.03 kcal/molUSERUSERREMARK SMILES Oc1nc2ccccc2n1C1CCN(Cc2ccc(-c3cc4ccccc4nc3-c3ccccc3)cc2)CC1REMARK SMILES IDX 11 1 12 2 13 3 14 4 38 5 39 6 10 7 2 8 3 9 4 10 9 11 5 12REMARK SMILES IDX 8 13 6 14 7 15 1 16 15 18 16 19 17 20 37 21 18 22 36 23REMARK SMILES IDX 19 24 20 25 21 26 29 27 22 28 28 29 23 30 27 31 24 32 26 33REMARK SMILES IDX 25 34 30 35 31 36 35 37 32 38 34 39 33 40REMARK H PARENT 1 17USER                              x       y       z     vdW  Elec       q    TypeUSER                           _______ _______ _______ _____ _____    ______ ____ROOTATOM      1  C   UNL     1      40.300  45.438  19.763 -0.41 +0.00    +0.095 C  ATOM      2  C   UNL     1      39.915  46.032  21.126 -0.02 +0.00    +0.041 C  ATOM      3  C   UNL     1      40.948  45.818  22.227 -0.25 +0.01    +0.087 C  ATOM      4  N   UNL     1      41.479  44.455  22.296 -0.09 -0.02    -0.299 NA ATOM      5  C   UNL     1      42.095  44.075  21.022 -0.25 +0.01    +0.087 C  ATOM      6  C   UNL     1      41.162  44.167  19.817 -0.30 +0.00    +0.041 C  ENDROOTBRANCH   1   7ATOM      7  N   UNL     1      40.745  46.428  18.784 -0.27 +0.01    -0.291 N  ATOM      8  C   UNL     1      41.872  47.197  18.946 -0.25 +0.01    +0.295 A  ATOM      9  N   UNL     1      42.078  48.038  17.972 -0.53 +0.00    -0.195 NA ATOM     10  C   UNL     1      41.038  47.814  17.111 -0.45 -0.01    +0.092 A  ATOM     11  C   UNL     1      40.185  46.804  17.580 -0.44 -0.01    +0.072 A  ATOM     12  C   UNL     1      40.766  48.454  15.890 -0.56 -0.01    +0.031 A  ATOM     13  C   UNL     1      39.063  46.408  16.843 -0.41 -0.01    +0.029 A  ATOM     14  C   UNL     1      39.644  48.065  15.155 -0.55 -0.00    +0.002 A  ATOM     15  C   UNL     1      38.809  47.056  15.626 -0.45 -0.00    +0.002 A  BRANCH   8  16ATOM     16  O   UNL     1      42.695  47.126  19.972 -0.22 -0.09    -0.480 OA ATOM     17  H   UNL     1      43.017  48.045  20.017 -0.27 -0.01    +0.296 HD ENDBRANCH   8  16ENDBRANCH   1   7BRANCH   4  18ATOM     18  C   UNL     1      40.479  43.492  22.786 -0.24 +0.00    +0.120 C  BRANCH  18  19ATOM     19  C   UNL     1      39.578  44.061  23.861 -0.18 -0.00    -0.034 A  ATOM     20  C   UNL     1      38.206  44.225  23.639 -0.29 +0.00    +0.006 A  ATOM     21  C   UNL     1      40.111  44.435  25.102 -0.12 +0.00    +0.006 A  ATOM     22  C   UNL     1      37.383  44.754  24.638 -0.32 +0.00    +0.009 A  ATOM     23  C   UNL     1      39.288  44.972  26.096 -0.16 +0.00    +0.009 A  ATOM     24  C   UNL     1      37.914  45.144  25.877 -0.27 +0.00    -0.016 A  BRANCH  24  25ATOM     25  C   UNL     1      37.049  45.701  26.927 -0.34 -0.00    +0.009 A  ATOM     26  C   UNL     1      37.050  47.086  27.152 -0.33 -0.00    +0.021 A  ATOM     27  C   UNL     1      36.178  44.929  27.714 -0.36 -0.02    +0.079 A  ATOM     28  C   UNL     1      36.206  47.660  28.110 -0.34 -0.00    +0.001 A  ATOM     29  N   UNL     1      35.341  45.477  28.641 -0.31 +0.07    -0.247 NA ATOM     30  C   UNL     1      36.189  49.045  28.349 -0.29 -0.00    +0.010 A  ATOM     31  C   UNL     1      35.358  46.805  28.835 -0.35 -0.02    +0.071 A  ATOM     32  C   UNL     1      35.332  49.586  29.306 -0.24 -0.00    +0.001 A  ATOM     33  C   UNL     1      34.512  47.368  29.783 -0.37 -0.00    +0.029 A  ATOM     34  C   UNL     1      34.491  48.744  30.026 -0.30 -0.00    +0.002 A  BRANCH  27  35ATOM     35  C   UNL     1      36.072  43.460  27.628 -0.47 -0.00    +0.001 A  ATOM     36  C   UNL     1      34.816  42.843  27.492 -0.58 -0.00    +0.010 A  ATOM     37  C   UNL     1      37.205  42.632  27.701 -0.37 -0.00    +0.010 A  ATOM     38  C   UNL     1      34.699  41.453  27.407 -0.59 -0.00    +0.001 A  ATOM     39  C   UNL     1      37.091  41.242  27.617 -0.52 -0.00    +0.001 A  ATOM     40  C   UNL     1      35.837  40.653  27.465 -0.56 -0.00    +0.000 A  ENDBRANCH  27  35ENDBRANCH  24  25ENDBRANCH  18  19ENDBRANCH   4  18TORSDOF 6TERENDMDL