MODEL        8USER    Run = 8USERUSER    Estimated Free Energy of Binding    = -12.50 kcal/mol  [=(1)+(2)+(3)-(4)]USERUSER    (1) Final Intermolecular Energy     = -14.29 kcal/molUSER        vdW + Hbond + desolv Energy     = -14.00 kcal/molUSER        Electrostatic Energy            =  -0.29 kcal/molUSER        Moving Ligand-Fixed Receptor    = -14.29 kcal/molUSER        Moving Ligand-Moving Receptor   =  +0.00 kcal/molUSER    (2) Final Total Internal Energy     =  -1.73 kcal/molUSER    (3) Torsional Free Energy           =  +1.79 kcal/molUSER    (4) Unbound System's Energy         =  -1.73 kcal/molUSERUSERREMARK SMILES Cn1ccc2ccc3c4[nH]c5c(CCCN[C@H]6CC[C@H](O)CC6)cccc5c4c4c(c3c21)C(=O)NC4=OREMARK SMILES IDX 15 1 14 2 13 3 12 4 2 5 3 6 32 7 4 8 31 9 5 10 30 11 8 12REMARK SMILES IDX 6 13 29 14 33 15 7 16 9 17 28 18 36 19 35 20 10 21 27 22REMARK SMILES IDX 11 23 26 24 25 25 24 26 1 27 34 28 37 29 16 32 17 34 23 35REMARK SMILES IDX 18 36 22 37 19 38 20 39 21 40REMARK H PARENT 35 30 10 31 16 33 21 41USER                              x       y       z     vdW  Elec       q    TypeUSER                           _______ _______ _______ _____ _____    ______ ____ROOTATOM      1  C   UNL     1      35.758  42.770  20.776 -0.43 +0.00    +0.081 C  ENDROOTBRANCH   1   2ATOM      2  C   UNL     1      36.531  43.089  22.060 -0.40 +0.00    +0.020 C  BRANCH   2   3ATOM      3  C   UNL     1      37.822  42.276  22.201 -0.42 +0.00    +0.039 C  BRANCH   3   4ATOM      4  C   UNL     1      39.083  43.099  22.099 -0.16 -0.00    -0.024 A  ATOM      5  N   UNL     1      39.717  47.940  14.931 -0.24 +0.10    -0.350 N  ATOM      6  C   UNL     1      38.772  48.329  14.011 -0.37 -0.03    +0.086 A  ATOM      7  C   UNL     1      39.114  47.310  16.013 -0.43 -0.02    +0.057 A  ATOM      8  C   UNL     1      37.579  47.766  14.374 -0.50 -0.01    +0.028 A  ATOM      9  C   UNL     1      39.585  46.854  17.301 -0.45 -0.00    +0.022 A  ATOM     10  C   UNL     1      37.797  47.060  15.585 -0.42 -0.00    +0.000 A  ATOM     11  C   UNL     1      40.766  47.201  17.976 -0.45 -0.01    +0.063 A  ATOM     12  C   UNL     1      38.724  45.938  17.982 -0.39 -0.00    +0.009 A  ATOM     13  C   UNL     1      36.955  46.235  16.348 -0.37 -0.01    +0.011 A  ATOM     14  C   UNL     1      41.166  46.580  19.165 -0.40 +0.00    +0.063 A  ATOM     15  C   UNL     1      41.730  48.295  17.768 -0.13 -0.00    +0.259 C  ATOM     16  C   UNL     1      37.437  45.639  17.509 -0.35 -0.00    +0.012 A  ATOM     17  C   UNL     1      39.165  45.317  19.193 -0.37 -0.00    +0.055 A  ATOM     18  C   UNL     1      40.396  45.601  19.799 -0.39 +0.00    +0.022 A  ATOM     19  C   UNL     1      42.422  47.193  19.595 -0.32 +0.03    +0.259 C  ATOM     20  N   UNL     1      42.746  48.107  18.648 -0.34 -0.00    -0.288 N  ATOM     21  N   UNL     1      38.553  44.378  19.994 -0.14 +0.01    -0.354 N  ATOM     22  C   UNL     1      40.505  44.782  20.973 -0.33 +0.00    +0.008 A  ATOM     23  C   UNL     1      39.336  44.026  21.067 -0.22 +0.00    +0.050 A  ATOM     24  C   UNL     1      41.486  44.606  21.971 -0.26 +0.00    +0.011 A  ATOM     25  C   UNL     1      41.268  43.697  23.010 -0.24 +0.00    +0.001 A  ATOM     26  C   UNL     1      40.090  42.960  23.070 -0.26 +0.00    +0.006 A  ATOM     27  C   UNL     1      41.126  47.982  14.597 -0.23 -0.01    +0.149 C  ATOM     28  O   UNL     1      41.606  49.257  17.039 -0.94 -0.03    -0.269 OA ATOM     29  O   UNL     1      43.037  46.987  20.620 -0.33 -0.08    -0.269 OA ATOM     30  H   UNL     1      43.463  48.800  18.802 -0.47 -0.02    +0.173 HD ATOM     31  H   UNL     1      37.648  43.974  19.810 +0.11 -0.01    +0.167 HD ENDBRANCH   3   4ENDBRANCH   2   3ENDBRANCH   1   2BRANCH   1  32ATOM     32  N   UNL     1      35.694  43.971  19.941 -0.20 +0.03    -0.314 NA ATOM     33  H   UNL     1      36.128  44.756  20.425 +0.05 -0.01    +0.122 HD BRANCH  32  34ATOM     34  C   UNL     1      34.321  44.320  19.549 -0.40 -0.01    +0.053 C  ATOM     35  C   UNL     1      34.226  45.685  18.835 -0.45 -0.01    +0.021 C  ATOM     36  C   UNL     1      33.799  43.168  18.667 -0.41 -0.00    +0.021 C  ATOM     37  C   UNL     1      34.283  45.551  17.314 -0.41 -0.02    +0.033 C  ATOM     38  C   UNL     1      32.654  43.631  17.776 -0.35 -0.01    +0.033 C  ATOM     39  C   UNL     1      33.120  44.703  16.786 -0.30 -0.06    +0.114 C  BRANCH  39  40ATOM     40  O   UNL     1      32.003  45.543  16.497 -0.56 +0.19    -0.393 OA ATOM     41  H   UNL     1      32.350  46.393  16.177 -0.36 -0.30    +0.210 HD ENDBRANCH  39  40ENDBRANCH  32  34ENDBRANCH   1  32TORSDOF 6TERENDMDL