MODEL        6USER    Run = 6USERUSER    Estimated Free Energy of Binding    =  -6.20 kcal/mol  [=(1)+(2)+(3)-(4)]USERUSER    (1) Final Intermolecular Energy     = -10.67 kcal/molUSER        vdW + Hbond + desolv Energy     = -11.05 kcal/molUSER        Electrostatic Energy            =  -0.23 kcal/molUSER        Moving Ligand-Fixed Receptor    = -11.28 kcal/molUSER        Moving Ligand-Moving Receptor   =  +0.61 kcal/molUSER    (2) Final Total Internal Energy     =  -2.00 kcal/molUSER    (3) Torsional Free Energy           =  +4.47 kcal/molUSER    (4) Unbound System's Energy         =  -2.00 kcal/molUSERUSERREMARK SMILES COc1ccc(O)c(C(=O)c2ccc(CN[C@@H]3CCCNC[C@H]3NC(=O)c3ccncc3)cc2)c1FREMARK SMILES IDX 16 1 15 3 14 4 11 5 12 6 34 7 13 8 33 9 9 10 10 11 8 12 3 13REMARK SMILES IDX 4 14 35 15 5 16 6 17 36 18 2 19 1 20 7 21 17 23 18 24 23 26REMARK SMILES IDX 22 27 21 28 20 30 19 31 24 33 25 34 26 36 27 37 28 38 32 39REMARK SMILES IDX 29 40 31 41 30 42REMARK H PARENT 16 2 7 22 21 29 24 35REMARK Flexibility Score:   99.900USER                              x       y       z     vdW  Elec       q    TypeUSER                           _______ _______ _______ _____ _____    ______ ____ROOTATOM      1  N   UNL     1      41.365  48.089  23.845 -0.17 -0.04    -0.308 NA ATOM      2  H   UNL     1      41.498  49.020  23.446 +0.03 +0.03    +0.123 HD ENDROOTBRANCH   1   3ATOM      3  C   UNL     1      40.116  47.529  23.322 +0.05 +0.01    +0.117 C  BRANCH   3   4ATOM      4  C   UNL     1      39.219  46.951  24.389 -0.28 -0.00    -0.034 A  ATOM      5  C   UNL     1      37.545  45.895  26.387 -0.31 -0.00    +0.023 A  ATOM      6  C   UNL     1      38.278  47.061  26.632 -0.27 -0.00    +0.012 A  ATOM      7  C   UNL     1      37.670  45.244  25.154 -0.30 +0.00    +0.012 A  ATOM      8  C   UNL     1      39.102  47.588  25.634 -0.27 +0.00    +0.006 A  ATOM      9  C   UNL     1      38.496  45.773  24.160 -0.29 +0.00    +0.006 A  BRANCH   5  10ATOM     10  C   UNL     1      36.690  45.274  27.427 -0.30 -0.04    +0.199 C  ATOM     11  O   UNL     1      36.192  45.990  28.297 -0.31 +0.07    -0.288 OA BRANCH  10  12ATOM     12  C   UNL     1      36.347  43.835  27.443 -0.37 -0.02    +0.104 A  ATOM     13  C   UNL     1      36.960  41.485  27.229 -0.39 -0.04    +0.155 A  ATOM     14  C   UNL     1      35.635  41.120  27.475 -0.60 -0.02    +0.053 A  ATOM     15  C   UNL     1      37.305  42.845  27.222 -0.24 -0.03    +0.179 A  ATOM     16  C   UNL     1      34.673  42.102  27.732 -0.48 -0.02    +0.051 A  ATOM     17  C   UNL     1      35.033  43.447  27.732 -0.49 -0.03    +0.130 A  ATOM     18  F   UNL     1      38.590  43.182  27.023 -0.03 +0.01    -0.202 F  BRANCH  13  19ATOM     19  O   UNL     1      37.989  40.615  26.987 -0.18 +0.05    -0.494 OA ATOM     20  C   UNL     1      39.137  40.716  27.820 -0.20 +0.01    +0.278 C  ENDBRANCH  13  19BRANCH  17  21ATOM     21  O   UNL     1      34.040  44.342  28.029 -0.28 +0.08    -0.507 OA ATOM     22  H   UNL     1      34.406  45.249  27.904 -0.16 -0.12    +0.293 HD ENDBRANCH  17  21ENDBRANCH  10  12ENDBRANCH   5  10ENDBRANCH   3   4ENDBRANCH   1   3BRANCH   1  23ATOM     23  C   UNL     1      42.567  47.269  23.531 -0.24 +0.01    +0.077 C  BRANCH  23  24ATOM     24  C   UNL     1      43.683  47.716  24.485 -0.21 +0.00    +0.022 CG0ATOM     25  G   UNL     1      44.999  46.951  24.353 +0.00 +0.00    +0.000 G0 ENDBRANCH  23  24BRANCH  23  26ATOM     26  C   UNL     1      42.938  47.427  22.023 -0.32 +0.02    +0.113 C  BRANCH  26  27ATOM     27  C   UNL     1      44.251  46.685  21.672 -0.26 +0.08    +0.107 C  BRANCH  27  28ATOM     28  N   UNL     1      45.524  47.356  21.916 -0.71 -0.31    -0.315 NA ATOM     29  H   UNL     1      45.516  48.265  21.448 -0.31 +0.07    +0.122 HD BRANCH  28  30ATOM     30  C   UNL     1      45.925  47.556  23.301 -0.19 +0.03    +0.081 C  BRANCH  30  31ATOM     31  C   UNL     1      45.000  46.951  24.353 -0.12 +0.00    +0.017 CG0ATOM     32  G   UNL     1      43.684  47.715  24.497 +0.00 +0.00    +0.000 G0 ENDBRANCH  30  31ENDBRANCH  28  30ENDBRANCH  27  28ENDBRANCH  26  27BRANCH  26  33ATOM     33  N   UNL     1      41.838  46.907  21.188 -0.06 -0.04    -0.346 N  ATOM     34  C   UNL     1      41.950  46.828  19.816 -0.26 +0.03    +0.251 C  ATOM     35  H   UNL     1      41.031  46.527  21.662 +0.08 +0.02    +0.164 HD ATOM     36  O   UNL     1      42.911  47.264  19.195 -0.46 -0.04    -0.269 OA BRANCH  34  37ATOM     37  C   UNL     1      40.817  46.204  19.086 -0.43 +0.00    +0.042 A  ATOM     38  C   UNL     1      40.072  45.225  19.745 -0.39 +0.00    +0.034 A  ATOM     39  C   UNL     1      40.462  46.587  17.793 -0.48 -0.00    +0.034 A  ATOM     40  C   UNL     1      39.017  44.644  19.068 -0.31 -0.01    +0.112 A  ATOM     41  C   UNL     1      39.386  45.946  17.203 -0.35 -0.02    +0.112 A  ATOM     42  N   UNL     1      38.665  44.979  17.807 -0.21 +0.04    -0.265 NA ENDBRANCH  34  37ENDBRANCH  26  33ENDBRANCH  23  26ENDBRANCH   1  23TORSDOF 9TERENDMDL