MODEL        6USER    Run = 6USERUSER    Estimated Free Energy of Binding    =  -9.03 kcal/mol  [=(1)+(2)+(3)-(4)]USERUSER    (1) Final Intermolecular Energy     = -10.22 kcal/molUSER        vdW + Hbond + desolv Energy     =  -9.97 kcal/molUSER        Electrostatic Energy            =  -0.25 kcal/molUSER        Moving Ligand-Fixed Receptor    = -10.22 kcal/molUSER        Moving Ligand-Moving Receptor   =  +0.00 kcal/molUSER    (2) Final Total Internal Energy     =  -0.69 kcal/molUSER    (3) Torsional Free Energy           =  +1.19 kcal/molUSER    (4) Unbound System's Energy         =  -0.69 kcal/molUSERUSERREMARK SMILES CCNC(=O)Nc1cccc(-c2cncc(N3CCOCC3)c2)c1REMARK SMILES IDX 7 1 8 2 9 3 10 4 11 5 24 6 6 7 3 8 4 9 5 11 2 13 1 14 12 15REMARK SMILES IDX 13 16 23 17 14 18 16 19 15 20 17 21 18 22 22 23 19 24 21 25REMARK SMILES IDX 20 26REMARK H PARENT 3 10 6 12USER                              x       y       z     vdW  Elec       q    TypeUSER                           _______ _______ _______ _____ _____    ______ ____ROOTATOM      1  C   UNL     1      33.975  42.984  17.461 -0.33 -0.01    +0.043 A  ATOM      2  C   UNL     1      33.762  43.621  18.688 -0.34 -0.01    +0.026 A  ATOM      3  C   UNL     1      34.410  44.819  18.987 -0.41 -0.00    +0.003 A  ATOM      4  C   UNL     1      35.283  45.388  18.061 -0.37 -0.00    +0.009 A  ATOM      5  C   UNL     1      35.525  44.770  16.824 -0.30 +0.01    -0.015 A  ATOM      6  C   UNL     1      34.857  43.562  16.542 -0.35 -0.01    +0.035 A  ENDROOTBRANCH   1   7ATOM      7  N   UNL     1      33.290  41.772  17.239 -0.18 +0.14    -0.308 N  ATOM      8  N   UNL     1      32.057  39.896  17.565 -0.21 +0.08    -0.338 N  ATOM      9  C   UNL     1      32.722  40.941  18.180 -0.24 -0.06    +0.319 C  ATOM     10  H   UNL     1      31.694  40.084  16.642 -0.30 -0.08    +0.165 HD ATOM     11  O   UNL     1      32.783  41.058  19.395 -0.55 -0.03    -0.249 OA ATOM     12  H   UNL     1      33.336  41.394  16.306 -0.43 -0.16    +0.171 HD BRANCH   8  13ATOM     13  C   UNL     1      31.342  38.909  18.351 -0.43 +0.01    +0.114 C  ATOM     14  C   UNL     1      32.221  37.727  18.718 -0.58 +0.00    +0.027 C  ENDBRANCH   8  13ENDBRANCH   1   7BRANCH   5  15ATOM     15  C   UNL     1      36.453  45.369  15.853 -0.35 -0.00    +0.002 A  ATOM     16  C   UNL     1      36.308  45.177  14.482 -0.30 -0.05    +0.119 A  ATOM     17  C   UNL     1      37.538  46.167  16.262 -0.35 -0.02    +0.037 A  ATOM     18  N   UNL     1      37.135  45.691  13.547 -0.26 +0.10    -0.262 NA ATOM     19  C   UNL     1      38.435  46.742  15.348 -0.38 -0.02    +0.056 A  ATOM     20  C   UNL     1      38.162  46.448  14.008 -0.33 -0.04    +0.136 A  BRANCH  19  21ATOM     21  N   UNL     1      39.500  47.529  15.749 -0.20 +0.11    -0.366 N  ATOM     22  C   UNL     1      40.189  48.433  14.812 -0.51 -0.04    +0.145 C  ATOM     23  C   UNL     1      39.942  47.605  17.150 -0.38 -0.04    +0.145 C  ATOM     24  C   UNL     1      40.747  49.654  15.565 -0.56 -0.05    +0.181 C  ATOM     25  C   UNL     1      41.414  48.047  17.213 -0.40 -0.01    +0.181 C  ATOM     26  O   UNL     1      41.669  49.325  16.612 -0.93 -0.06    -0.378 OA ENDBRANCH  19  21ENDBRANCH   5  15TORSDOF 4TERENDMDL