REMARK SMILES CCNC(=O)Nc1cccc(-c2cncc(N3CCOCC3)c2)c1
REMARK SMILES IDX 7 1 8 2 9 3 10 4 11 5 24 6 6 7 3 8 4 9 5 11 2 13 1 14 12 15
REMARK SMILES IDX 13 16 23 17 14 18 16 19 15 20 17 21 18 22 22 23 19 24 21 25
REMARK SMILES IDX 20 26
REMARK H PARENT 3 10 6 12
ROOT
ATOM      1  C   UNL     1       2.840   0.495   1.409  1.00  0.00     0.043 A 
ATOM      2  C   UNL     1       2.669   0.743   2.775  1.00  0.00     0.026 A 
ATOM      3  C   UNL     1       1.420   1.103   3.279  1.00  0.00     0.003 A 
ATOM      4  C   UNL     1       0.330   1.223   2.418  1.00  0.00     0.009 A 
ATOM      5  C   UNL     1       0.470   0.988   1.041  1.00  0.00    -0.015 A 
ATOM      6  C   UNL     1       1.741   0.623   0.554  1.00  0.00     0.035 A 
ENDROOT
BRANCH   1   7
ATOM      7  N   UNL     1       4.136   0.146   0.977  1.00  0.00    -0.308 N 
ATOM      8  N   UNL     1       5.895  -0.427  -0.336  1.00  0.00    -0.338 N 
ATOM      9  C   UNL     1       4.522  -0.270  -0.279  1.00  0.00     0.319 C 
ATOM     10  H   UNL     1       6.434   0.155   0.288  1.00  0.00     0.165 HD
ATOM     11  O   UNL     1       3.793  -0.498  -1.233  1.00  0.00    -0.249 OA
ATOM     12  H   UNL     1       4.840   0.055   1.693  1.00  0.00     0.171 HD
BRANCH   8  13
ATOM     13  C   UNL     1       6.543  -0.820  -1.572  1.00  0.00     0.114 C 
ATOM     14  C   UNL     1       6.711   0.350  -2.525  1.00  0.00     0.027 C 
ENDBRANCH   8  13
ENDBRANCH   1   7
BRANCH   5  15
ATOM     15  C   UNL     1      -0.680   1.124   0.134  1.00  0.00     0.002 A 
ATOM     16  C   UNL     1      -0.626   1.916  -1.009  1.00  0.00     0.119 A 
ATOM     17  C   UNL     1      -1.897   0.460   0.378  1.00  0.00     0.037 A 
ATOM     18  N   UNL     1      -1.652   2.087  -1.869  1.00  0.00    -0.262 NA
ATOM     19  C   UNL     1      -3.005   0.582  -0.475  1.00  0.00     0.056 A 
ATOM     20  C   UNL     1      -2.797   1.421  -1.575  1.00  0.00     0.136 A 
BRANCH  19  21
ATOM     21  N   UNL     1      -4.200  -0.073  -0.238  1.00  0.00    -0.366 N 
ATOM     22  C   UNL     1      -5.183  -0.300  -1.311  1.00  0.00     0.145 C 
ATOM     23  C   UNL     1      -4.521  -0.684   1.061  1.00  0.00     0.145 C 
ATOM     24  C   UNL     1      -5.975  -1.592  -1.041  1.00  0.00     0.181 C 
ATOM     25  C   UNL     1      -6.046  -0.806   1.221  1.00  0.00     0.181 C 
ATOM     26  O   UNL     1      -6.682  -1.596   0.206  1.00  0.00    -0.378 OA
ENDBRANCH  19  21
ENDBRANCH   5  15
TORSDOF 4
