
     RDKit          3D

 34 35  0  0  0  0  0  0  0  0999 V2000
   -2.2837   -2.3840    1.6295 C   0  0  0  0  0  0  0  0  0  0  0  0
   -1.5349   -1.7622    0.5930 O   0  0  0  0  0  0  0  0  0  0  0  0
   -1.9073   -0.5003    0.2073 C   0  0  0  0  0  0  0  0  0  0  0  0
   -3.0302    0.1715    0.7026 C   0  0  0  0  0  0  0  0  0  0  0  0
   -3.3395    1.4489    0.2455 C   0  0  0  0  0  0  0  0  0  0  0  0
   -4.4471    2.0531    0.7667 O   0  0  0  0  0  0  0  0  0  0  0  0
   -2.5523    2.0799   -0.7075 C   0  0  0  0  0  0  0  0  0  0  0  0
   -1.4347    1.4110   -1.2037 C   0  0  0  0  0  0  0  0  0  0  0  0
   -0.6560    2.0132   -2.1553 O   0  0  0  0  0  0  0  0  0  0  0  0
   -1.0885    0.1221   -0.7588 C   0  0  0  0  0  0  0  0  0  0  0  0
    0.1533   -0.5632   -1.3007 C   0  0  0  0  0  0  0  0  0  0  0  0
    1.4426   -0.0627   -0.6735 C   0  0  0  0  0  0  0  0  0  0  0  0
    2.2554    0.7616   -1.3601 C   0  0  0  0  0  0  0  0  0  0  0  0
    3.4933    1.4001   -0.8850 C   0  0  0  0  0  0  0  0  0  0  0  0
    3.7622    2.5375   -1.2639 O   0  0  0  0  0  0  0  0  0  0  0  0
    4.3709    0.6819   -0.1315 O   0  0  0  0  0  0  0  0  0  0  0  0
    4.2238   -0.5884    0.4530 C   0  0  0  0  0  0  0  0  0  0  0  0
    3.0856   -1.1619    0.8592 C   0  0  0  0  0  0  0  0  0  0  0  0
    3.0831   -2.4089    1.4585 O   0  0  0  0  0  0  0  0  0  0  0  0
    1.7329   -0.5246    0.7288 C   0  0  0  0  0  0  0  0  0  0  0  0
   -3.3157   -2.5677    1.3134 H   0  0  0  0  0  0  0  0  0  0  0  0
   -1.8226   -3.3543    1.8377 H   0  0  0  0  0  0  0  0  0  0  0  0
   -2.2487   -1.7949    2.5519 H   0  0  0  0  0  0  0  0  0  0  0  0
   -3.6873   -0.2728    1.4421 H   0  0  0  0  0  0  0  0  0  0  0  0
   -4.5458    2.9333    0.3682 H   0  0  0  0  0  0  0  0  0  0  0  0
   -2.8057    3.0718   -1.0629 H   0  0  0  0  0  0  0  0  0  0  0  0
   -0.9573    2.9269   -2.2879 H   0  0  0  0  0  0  0  0  0  0  0  0
    0.1742   -0.4259   -2.3908 H   0  0  0  0  0  0  0  0  0  0  0  0
    0.0931   -1.6519   -1.1805 H   0  0  0  0  0  0  0  0  0  0  0  0
    1.9595    1.1119   -2.3456 H   0  0  0  0  0  0  0  0  0  0  0  0
    5.2098   -1.0156    0.5841 H   0  0  0  0  0  0  0  0  0  0  0  0
    3.9940   -2.7483    1.4923 H   0  0  0  0  0  0  0  0  0  0  0  0
    1.6436    0.3171    1.4270 H   0  0  0  0  0  0  0  0  0  0  0  0
    0.9800   -1.2540    1.0469 H   0  0  0  0  0  0  0  0  0  0  0  0
  1  2  1  0
  2  3  1  0
  3  4  2  0
  4  5  1  0
  5  6  1  0
  5  7  2  0
  7  8  1  0
  8  9  1  0
  8 10  2  0
 10 11  1  0
 11 12  1  0
 12 13  2  0
 13 14  1  0
 14 15  2  0
 14 16  1  0
 16 17  1  0
 17 18  2  0
 18 19  1  0
 18 20  1  0
 10  3  1  0
 20 12  1  0
  1 21  1  0
  1 22  1  0
  1 23  1  0
  4 24  1  0
  6 25  1  0
  7 26  1  0
  9 27  1  0
 11 28  1  0
 11 29  1  0
 13 30  1  0
 17 31  1  0
 19 32  1  0
 20 33  1  0
 20 34  1  0
M  END
$$$$
