
     RDKit          3D

 56 57  0  0  0  0  0  0  0  0999 V2000
    7.7200   -2.2198   -2.3044 C   0  0  0  0  0  0  0  0  0  0  0  0
    6.4854   -2.2168   -3.0163 O   0  0  0  0  0  0  0  0  0  0  0  0
    5.4137   -1.6224   -2.4097 C   0  0  0  0  0  0  0  0  0  0  0  0
    5.3507   -1.0085   -1.2164 C   0  0  0  0  0  0  0  0  0  0  0  0
    4.1222   -0.4225   -0.7163 C   0  0  0  0  0  0  0  0  0  0  0  0
    3.9630    0.2583    0.4392 C   0  0  0  0  0  0  0  0  0  0  0  0
    5.0491    0.6060    1.4135 C   0  0  0  0  0  0  0  0  0  0  0  0
    5.0243   -0.2323    2.4875 F   0  0  0  0  0  0  0  0  0  0  0  0
    2.6165    0.7711    0.7825 C   0  0  0  0  0  0  0  0  0  0  0  0
    2.1205    0.7229    2.0828 C   0  0  0  0  0  0  0  0  0  0  0  0
    0.8502    1.2332    2.3415 C   0  0  0  0  0  0  0  0  0  0  0  0
    0.0920    1.7753    1.3016 C   0  0  0  0  0  0  0  0  0  0  0  0
   -1.2825    2.3306    1.5564 C   0  0  0  0  0  0  0  0  0  0  0  0
   -2.4446    1.7850    0.6908 C   0  0  0  0  0  0  0  0  0  0  0  0
   -2.9199    0.4366    1.0469 N   0  0  0  0  0  0  0  0  0  0  0  0
   -1.9245   -0.5985    0.7030 C   0  0  0  0  0  0  0  0  0  0  0  0
   -2.5181   -1.9789    0.3921 C   0  0  2  0  0  0  0  0  0  0  0  0
   -1.4181   -3.0070    0.1265 C   0  0  0  0  0  0  0  0  0  0  0  0
   -3.4729   -1.8847   -0.8027 C   0  0  0  0  0  0  0  0  0  0  0  0
   -4.2714   -0.5768   -0.8135 C   0  0  0  0  0  0  0  0  0  0  0  0
   -4.2928    0.1000    0.5672 C   0  0  2  0  0  0  0  0  0  0  0  0
   -5.3631    1.2178    0.6272 C   0  0  0  0  0  0  0  0  0  0  0  0
   -5.2762    2.0873   -0.5059 O   0  0  0  0  0  0  0  0  0  0  0  0
   -6.3198    3.0998   -0.3929 N   0  0  0  0  0  0  0  0  0  0  0  0
    0.6772    1.8031    0.0413 C   0  0  0  0  0  0  0  0  0  0  0  0
    1.9057    1.3115   -0.2389 N   0  0  0  0  0  0  0  0  0  0  0  0
    8.4705   -2.7035   -2.9414 H   0  0  0  0  0  0  0  0  0  0  0  0
    7.6304   -2.8004   -1.3782 H   0  0  0  0  0  0  0  0  0  0  0  0
    8.0652   -1.1965   -2.0929 H   0  0  0  0  0  0  0  0  0  0  0  0
    4.5503   -1.7113   -3.0664 H   0  0  0  0  0  0  0  0  0  0  0  0
    6.2343   -0.9491   -0.5883 H   0  0  0  0  0  0  0  0  0  0  0  0
    3.2443   -0.5773   -1.3489 H   0  0  0  0  0  0  0  0  0  0  0  0
    6.0507    0.5454    0.9792 H   0  0  0  0  0  0  0  0  0  0  0  0
    4.9372    1.6309    1.7847 H   0  0  0  0  0  0  0  0  0  0  0  0
    2.6937    0.2811    2.8929 H   0  0  0  0  0  0  0  0  0  0  0  0
    0.4529    1.1899    3.3532 H   0  0  0  0  0  0  0  0  0  0  0  0
   -1.5468    2.2131    2.6179 H   0  0  0  0  0  0  0  0  0  0  0  0
   -1.2177    3.4170    1.3895 H   0  0  0  0  0  0  0  0  0  0  0  0
   -3.2470    2.5024    0.8747 H   0  0  0  0  0  0  0  0  0  0  0  0
   -2.2121    1.8528   -0.3760 H   0  0  0  0  0  0  0  0  0  0  0  0
   -1.3377   -0.2969   -0.1620 H   0  0  0  0  0  0  0  0  0  0  0  0
   -1.2457   -0.7021    1.5445 H   0  0  0  0  0  0  0  0  0  0  0  0
   -3.0817   -2.3246    1.2692 H   0  0  0  0  0  0  0  0  0  0  0  0
   -0.7905   -2.7144   -0.7246 H   0  0  0  0  0  0  0  0  0  0  0  0
   -0.7687   -3.1133    1.0013 H   0  0  0  0  0  0  0  0  0  0  0  0
   -1.8511   -3.9882   -0.0924 H   0  0  0  0  0  0  0  0  0  0  0  0
   -2.9241   -1.9652   -1.7519 H   0  0  0  0  0  0  0  0  0  0  0  0
   -4.1592   -2.7414   -0.7748 H   0  0  0  0  0  0  0  0  0  0  0  0
   -5.2931   -0.7889   -1.1539 H   0  0  0  0  0  0  0  0  0  0  0  0
   -3.8336    0.1034   -1.5563 H   0  0  0  0  0  0  0  0  0  0  0  0
   -4.6586   -0.6442    1.2905 H   0  0  0  0  0  0  0  0  0  0  0  0
   -5.2670    1.7936    1.5549 H   0  0  0  0  0  0  0  0  0  0  0  0
   -6.3534    0.7514    0.6292 H   0  0  0  0  0  0  0  0  0  0  0  0
   -6.8103    2.9793   -1.2779 H   0  0  0  0  0  0  0  0  0  0  0  0
   -5.7789    3.9576   -0.4923 H   0  0  0  0  0  0  0  0  0  0  0  0
    0.1612    2.2292   -0.8153 H   0  0  0  0  0  0  0  0  0  0  0  0
  1  2  1  0
  2  3  1  0
  3  4  2  3
  4  5  1  0
  5  6  2  3
  6  7  1  0
  7  8  1  0
  6  9  1  0
  9 10  2  0
 10 11  1  0
 11 12  2  0
 12 13  1  0
 13 14  1  0
 14 15  1  0
 15 16  1  0
 16 17  1  0
 17 18  1  0
 17 19  1  0
 19 20  1  0
 20 21  1  0
 21 22  1  0
 22 23  1  0
 23 24  1  0
 12 25  1  0
 25 26  2  0
 26  9  1  0
 21 15  1  0
  1 27  1  0
  1 28  1  0
  1 29  1  0
  3 30  1  0
  4 31  1  0
  5 32  1  0
  7 33  1  0
  7 34  1  0
 10 35  1  0
 11 36  1  0
 13 37  1  0
 13 38  1  0
 14 39  1  0
 14 40  1  0
 16 41  1  0
 16 42  1  0
 17 43  1  1
 18 44  1  0
 18 45  1  0
 18 46  1  0
 19 47  1  0
 19 48  1  0
 20 49  1  0
 20 50  1  0
 21 51  1  1
 22 52  1  0
 22 53  1  0
 24 54  1  0
 24 55  1  0
 25 56  1  0
M  END
$$$$
