
     RDKit          3D

 42 44  0  0  0  0  0  0  0  0999 V2000
    5.2129    0.9396    1.1749 O   0  0  0  0  0  0  0  0  0  0  0  0
    4.0232    0.6441    0.4229 C   0  0  0  0  0  0  0  0  0  0  0  0
    4.0563   -0.8429   -0.0061 C   0  0  0  0  0  0  0  0  0  0  0  0
    2.7683   -1.3619   -0.4823 N   0  0  0  0  0  0  0  0  0  0  0  0
    1.9538   -1.8969    0.6243 C   0  0  0  0  0  0  0  0  0  0  0  0
    0.4519   -1.8825    0.2887 C   0  0  0  0  0  0  0  0  0  0  0  0
   -0.0788   -0.5819    0.5857 O   0  0  0  0  0  0  0  0  0  0  0  0
   -0.6946    0.0062   -0.5011 C   0  0  0  0  0  0  0  0  0  0  0  0
   -2.1450   -0.2345   -0.6282 C   0  0  0  0  0  0  0  0  0  0  0  0
   -2.5969   -0.8969   -1.7841 C   0  0  0  0  0  0  0  0  0  0  0  0
   -3.9507   -1.1608   -1.9715 C   0  0  0  0  0  0  0  0  0  0  0  0
   -4.8718   -0.7656   -1.0061 C   0  0  0  0  0  0  0  0  0  0  0  0
   -4.4481   -0.1020    0.1577 C   0  0  0  0  0  0  0  0  0  0  0  0
   -5.3565    0.3067    1.1382 C   0  0  0  0  0  0  0  0  0  0  0  0
   -5.0246    0.9524    2.2785 N   0  0  0  0  0  0  0  0  0  0  0  0
   -3.7155    1.2066    2.4593 C   0  0  0  0  0  0  0  0  0  0  0  0
   -2.7282    0.8490    1.5542 C   0  0  0  0  0  0  0  0  0  0  0  0
   -3.0780    0.1735    0.3660 C   0  0  0  0  0  0  0  0  0  0  0  0
   -0.0419    0.8573   -1.3122 C   0  0  0  0  0  0  0  0  0  0  0  0
    1.3051    1.0844   -1.2127 N   0  0  0  0  0  0  0  0  0  0  0  0
    1.6257    2.2476   -0.7671 C   0  0  0  0  0  0  0  0  0  0  0  0
    2.9111    2.6182   -0.5517 O   0  0  0  0  0  0  0  0  0  0  0  0
    3.9212    1.6078   -0.7794 C   0  0  0  0  0  0  0  0  0  0  0  0
    5.9809    0.7442    0.6110 H   0  0  0  0  0  0  0  0  0  0  0  0
    3.1924    0.8063    1.1181 H   0  0  0  0  0  0  0  0  0  0  0  0
    4.4511   -1.4654    0.8075 H   0  0  0  0  0  0  0  0  0  0  0  0
    4.7858   -0.9515   -0.8185 H   0  0  0  0  0  0  0  0  0  0  0  0
    2.2365   -0.5908   -0.9146 H   0  0  0  0  0  0  0  0  0  0  0  0
    2.2723   -2.9290    0.8059 H   0  0  0  0  0  0  0  0  0  0  0  0
    2.1114   -1.3186    1.5425 H   0  0  0  0  0  0  0  0  0  0  0  0
   -0.0668   -2.5900    0.9454 H   0  0  0  0  0  0  0  0  0  0  0  0
    0.2693   -2.2008   -0.7465 H   0  0  0  0  0  0  0  0  0  0  0  0
   -1.8876   -1.2211   -2.5439 H   0  0  0  0  0  0  0  0  0  0  0  0
   -4.2866   -1.6768   -2.8676 H   0  0  0  0  0  0  0  0  0  0  0  0
   -5.9269   -0.9791   -1.1656 H   0  0  0  0  0  0  0  0  0  0  0  0
   -6.4220    0.1192    1.0289 H   0  0  0  0  0  0  0  0  0  0  0  0
   -3.4652    1.7232    3.3815 H   0  0  0  0  0  0  0  0  0  0  0  0
   -1.6961    1.0943    1.7838 H   0  0  0  0  0  0  0  0  0  0  0  0
   -0.5638    1.3596   -2.1250 H   0  0  0  0  0  0  0  0  0  0  0  0
    0.9351    3.0645   -0.4983 H   0  0  0  0  0  0  0  0  0  0  0  0
    3.7183    1.0937   -1.7261 H   0  0  0  0  0  0  0  0  0  0  0  0
    4.8630    2.1506   -0.9168 H   0  0  0  0  0  0  0  0  0  0  0  0
  1  2  1  0
  2  3  1  0
  3  4  1  0
  4  5  1  0
  5  6  1  0
  6  7  1  0
  7  8  1  0
  8  9  1  0
  9 10  2  0
 10 11  1  0
 11 12  2  0
 12 13  1  0
 13 14  2  0
 14 15  1  0
 15 16  2  0
 16 17  1  0
 17 18  2  0
  8 19  2  3
 19 20  1  0
 20 21  2  3
 21 22  1  0
 22 23  1  0
 23  2  1  0
 18  9  1  0
 18 13  1  0
  1 24  1  0
  2 25  1  0
  3 26  1  0
  3 27  1  0
  4 28  1  0
  5 29  1  0
  5 30  1  0
  6 31  1  0
  6 32  1  0
 10 33  1  0
 11 34  1  0
 12 35  1  0
 14 36  1  0
 16 37  1  0
 17 38  1  0
 19 39  1  0
 21 40  1  0
 23 41  1  0
 23 42  1  0
M  END
$$$$
