
     RDKit          3D

 46 47  0  0  0  0  0  0  0  0999 V2000
   -5.4175    1.6084    0.2585 C   0  0  0  0  0  0  0  0  0  0  0  0
   -4.6050    0.2994    0.1569 C   0  0  0  0  0  0  0  0  0  0  0  0
   -4.8205   -0.2622   -1.2667 C   0  0  0  0  0  0  0  0  0  0  0  0
   -5.1827   -0.7353    1.1468 C   0  0  0  0  0  0  0  0  0  0  0  0
   -3.1308    0.5777    0.5014 C   0  0  0  0  0  0  0  0  0  0  0  0
   -2.7862    1.0897    1.7677 C   0  0  0  0  0  0  0  0  0  0  0  0
   -1.4595    1.3609    2.1103 C   0  0  0  0  0  0  0  0  0  0  0  0
   -0.4405    1.1217    1.1941 C   0  0  0  0  0  0  0  0  0  0  0  0
   -0.7443    0.6032   -0.0663 C   0  0  0  0  0  0  0  0  0  0  0  0
    0.3113    0.3447   -1.0532 C   0  0  0  0  0  0  0  0  0  0  0  0
    1.3369   -0.5115   -0.8740 C   0  0  0  0  0  0  0  0  0  0  0  0
    2.2600   -0.6402   -2.0572 C   0  0  0  0  0  0  0  0  0  0  0  0
    2.2234    0.0865   -3.0462 O   0  0  0  0  0  0  0  0  0  0  0  0
    1.5066   -1.3348    0.2277 N   0  0  0  0  0  0  0  0  0  0  0  0
    2.6009   -1.9716    0.7574 C   0  0  0  0  0  0  0  0  0  0  0  0
    3.9203   -1.7331    0.7350 C   0  0  0  0  0  0  0  0  0  0  0  0
    4.6180   -0.5830    0.1515 C   0  0  0  0  0  0  0  0  0  0  0  0
    4.2308    0.7314    0.4387 C   0  0  0  0  0  0  0  0  0  0  0  0
    4.9243    1.8100   -0.1135 C   0  0  0  0  0  0  0  0  0  0  0  0
    6.0202    1.5829   -0.9437 C   0  0  0  0  0  0  0  0  0  0  0  0
    6.4275    0.2785   -1.2172 C   0  0  0  0  0  0  0  0  0  0  0  0
    5.7336   -0.8009   -0.6660 C   0  0  0  0  0  0  0  0  0  0  0  0
   -2.0814    0.3452   -0.4066 C   0  0  0  0  0  0  0  0  0  0  0  0
   -5.4128    2.0217    1.2730 H   0  0  0  0  0  0  0  0  0  0  0  0
   -6.4664    1.4449   -0.0157 H   0  0  0  0  0  0  0  0  0  0  0  0
   -5.0133    2.3764   -0.4117 H   0  0  0  0  0  0  0  0  0  0  0  0
   -5.8840   -0.4446   -1.4627 H   0  0  0  0  0  0  0  0  0  0  0  0
   -4.2993   -1.2164   -1.4073 H   0  0  0  0  0  0  0  0  0  0  0  0
   -4.4676    0.4367   -2.0341 H   0  0  0  0  0  0  0  0  0  0  0  0
   -6.2235   -0.9781    0.9023 H   0  0  0  0  0  0  0  0  0  0  0  0
   -5.1736   -0.3711    2.1799 H   0  0  0  0  0  0  0  0  0  0  0  0
   -4.6077   -1.6686    1.1219 H   0  0  0  0  0  0  0  0  0  0  0  0
   -3.5560    1.2929    2.5095 H   0  0  0  0  0  0  0  0  0  0  0  0
   -1.2247    1.7656    3.0914 H   0  0  0  0  0  0  0  0  0  0  0  0
    0.5878    1.3478    1.4661 H   0  0  0  0  0  0  0  0  0  0  0  0
    0.2097    0.9082   -1.9794 H   0  0  0  0  0  0  0  0  0  0  0  0
    2.9654   -1.4840   -2.0061 H   0  0  0  0  0  0  0  0  0  0  0  0
    0.6613   -1.4237    0.7911 H   0  0  0  0  0  0  0  0  0  0  0  0
    2.2737   -2.8317    1.3434 H   0  0  0  0  0  0  0  0  0  0  0  0
    4.5773   -2.4368    1.2440 H   0  0  0  0  0  0  0  0  0  0  0  0
    3.3823    0.9248    1.0902 H   0  0  0  0  0  0  0  0  0  0  0  0
    4.6070    2.8267    0.1022 H   0  0  0  0  0  0  0  0  0  0  0  0
    6.5562    2.4227   -1.3781 H   0  0  0  0  0  0  0  0  0  0  0  0
    7.2833    0.1014   -1.8632 H   0  0  0  0  0  0  0  0  0  0  0  0
    6.0636   -1.8120   -0.8918 H   0  0  0  0  0  0  0  0  0  0  0  0
   -2.2840   -0.0470   -1.4002 H   0  0  0  0  0  0  0  0  0  0  0  0
  1  2  1  0
  2  3  1  0
  2  4  1  0
  2  5  1  0
  5  6  2  0
  6  7  1  0
  7  8  2  0
  8  9  1  0
  9 10  1  0
 10 11  2  3
 11 12  1  0
 12 13  2  0
 11 14  1  0
 14 15  1  0
 15 16  2  3
 16 17  1  0
 17 18  2  0
 18 19  1  0
 19 20  2  0
 20 21  1  0
 21 22  2  0
  9 23  2  0
 23  5  1  0
 22 17  1  0
  1 24  1  0
  1 25  1  0
  1 26  1  0
  3 27  1  0
  3 28  1  0
  3 29  1  0
  4 30  1  0
  4 31  1  0
  4 32  1  0
  6 33  1  0
  7 34  1  0
  8 35  1  0
 10 36  1  0
 12 37  1  0
 14 38  1  0
 15 39  1  0
 16 40  1  0
 18 41  1  0
 19 42  1  0
 20 43  1  0
 21 44  1  0
 22 45  1  0
 23 46  1  0
M  END
$$$$
