
     RDKit          3D

 46 47  0  0  0  0  0  0  0  0999 V2000
    6.1590    1.2504   -2.1104 C   0  0  0  0  0  0  0  0  0  0  0  0
    5.2822    0.5906   -1.0946 C   0  0  0  0  0  0  0  0  0  0  0  0
    5.4143   -0.6893   -0.7113 C   0  0  0  0  0  0  0  0  0  0  0  0
    4.5734   -1.4384    0.2964 C   0  0  0  0  0  0  0  0  0  0  0  0
    3.4277   -0.6865    0.9908 C   0  0  0  0  0  0  0  0  0  0  0  0
    2.3535   -0.4547    0.0651 O   0  0  0  0  0  0  0  0  0  0  0  0
    1.1660   -1.0404    0.4292 C   0  0  0  0  0  0  0  0  0  0  0  0
    1.0960   -2.4188    0.6616 C   0  0  0  0  0  0  0  0  0  0  0  0
   -0.1184   -3.0082    0.9900 C   0  0  0  0  0  0  0  0  0  0  0  0
   -1.2602   -2.2198    1.0763 C   0  0  0  0  0  0  0  0  0  0  0  0
   -2.4264   -2.8810    1.3767 O   0  0  0  0  0  0  0  0  0  0  0  0
   -1.2245   -0.8268    0.8466 C   0  0  0  0  0  0  0  0  0  0  0  0
   -2.4836   -0.0421    0.9751 C   0  0  0  0  0  0  0  0  0  0  0  0
   -2.6352    0.9825    1.8375 C   0  0  0  0  0  0  0  0  0  0  0  0
   -3.6435    1.8123    2.1685 N   0  0  0  0  0  0  0  0  0  0  0  0
   -4.6718    2.2159    1.3886 C   0  0  0  0  0  0  0  0  0  0  0  0
   -5.2337    2.2328    0.1627 C   0  0  0  0  0  0  0  0  0  0  0  0
   -5.0745    1.7213   -1.0669 C   0  0  0  0  0  0  0  0  0  0  0  0
   -4.3612    0.7621   -1.6702 C   0  0  0  0  0  0  0  0  0  0  0  0
   -4.4100    0.7497   -3.0725 O   0  0  0  0  0  0  0  0  0  0  0  0
   -3.6610   -0.2014   -1.0589 C   0  0  0  0  0  0  0  0  0  0  0  0
   -3.5964   -0.5023    0.2850 N   0  0  0  0  0  0  0  0  0  0  0  0
    0.0085   -0.2363    0.4715 C   0  0  0  0  0  0  0  0  0  0  0  0
    0.1044    1.2344    0.1526 C   0  0  0  0  0  0  0  0  0  0  0  0
    6.9079    0.5646   -2.5229 H   0  0  0  0  0  0  0  0  0  0  0  0
    5.5497    1.6267   -2.9402 H   0  0  0  0  0  0  0  0  0  0  0  0
    6.6855    2.0958   -1.6547 H   0  0  0  0  0  0  0  0  0  0  0  0
    4.4916    1.2142   -0.6794 H   0  0  0  0  0  0  0  0  0  0  0  0
    6.2050   -1.2876   -1.1655 H   0  0  0  0  0  0  0  0  0  0  0  0
    5.2586   -1.8032    1.0734 H   0  0  0  0  0  0  0  0  0  0  0  0
    4.1640   -2.3181   -0.2156 H   0  0  0  0  0  0  0  0  0  0  0  0
    3.1037   -1.2464    1.8782 H   0  0  0  0  0  0  0  0  0  0  0  0
    3.7693    0.2879    1.3597 H   0  0  0  0  0  0  0  0  0  0  0  0
    1.9771   -3.0436    0.5704 H   0  0  0  0  0  0  0  0  0  0  0  0
   -0.1858   -4.0756    1.1681 H   0  0  0  0  0  0  0  0  0  0  0  0
   -3.1367   -2.2097    1.2573 H   0  0  0  0  0  0  0  0  0  0  0  0
   -1.7403    1.1276    2.4509 H   0  0  0  0  0  0  0  0  0  0  0  0
   -5.3034    2.8696    2.0107 H   0  0  0  0  0  0  0  0  0  0  0  0
   -6.0760    2.9392    0.1551 H   0  0  0  0  0  0  0  0  0  0  0  0
   -5.7094    2.2454   -1.7908 H   0  0  0  0  0  0  0  0  0  0  0  0
   -3.7158    0.1404   -3.3728 H   0  0  0  0  0  0  0  0  0  0  0  0
   -3.0731   -0.9162   -1.6237 H   0  0  0  0  0  0  0  0  0  0  0  0
   -4.3556    0.0298    0.7435 H   0  0  0  0  0  0  0  0  0  0  0  0
    0.2330    1.8146    1.0725 H   0  0  0  0  0  0  0  0  0  0  0  0
   -0.7824    1.5894   -0.3859 H   0  0  0  0  0  0  0  0  0  0  0  0
    0.9482    1.4493   -0.5132 H   0  0  0  0  0  0  0  0  0  0  0  0
  1  2  1  0
  2  3  2  0
  3  4  1  0
  4  5  1  0
  5  6  1  0
  6  7  1  0
  7  8  2  0
  8  9  1  0
  9 10  2  0
 10 11  1  0
 10 12  1  0
 12 13  1  0
 13 14  2  0
 14 15  1  0
 15 16  2  0
 16 17  1  0
 17 18  2  0
 18 19  1  0
 19 20  1  0
 19 21  2  0
 21 22  1  0
 12 23  2  0
 23 24  1  0
 23  7  1  0
 22 13  1  0
  1 25  1  0
  1 26  1  0
  1 27  1  0
  2 28  1  0
  3 29  1  0
  4 30  1  0
  4 31  1  0
  5 32  1  0
  5 33  1  0
  8 34  1  0
  9 35  1  0
 11 36  1  0
 14 37  1  0
 16 38  1  0
 17 39  1  0
 18 40  1  0
 20 41  1  0
 21 42  1  0
 22 43  1  0
 24 44  1  0
 24 45  1  0
 24 46  1  0
M  END
$$$$
