
     RDKit          3D

 25 27  0  0  0  0  0  0  0  0999 V2000
   -4.5368    1.5101    0.0910 N   0  0  0  0  0  0  0  0  0  0  0  0
   -3.7057    0.4000    0.2743 C   0  0  0  0  0  0  0  0  0  0  0  0
   -2.3361    0.5136    0.0732 C   0  0  0  0  0  0  0  0  0  0  0  0
   -1.5038   -0.6008    0.2574 C   0  0  0  0  0  0  0  0  0  0  0  0
   -0.0519   -0.4443    0.0349 C   0  0  0  0  0  0  0  0  0  0  0  0
    0.5074    0.6941   -0.3285 N   0  0  0  0  0  0  0  0  0  0  0  0
    1.8772    0.5468   -0.4625 C   0  0  0  0  0  0  0  0  0  0  0  0
    2.7854    1.5578   -0.8368 C   0  0  0  0  0  0  0  0  0  0  0  0
    4.1501    1.2660   -0.9330 C   0  0  0  0  0  0  0  0  0  0  0  0
    4.6168   -0.0162   -0.6615 C   0  0  0  0  0  0  0  0  0  0  0  0
    3.7354   -1.0357   -0.2884 C   0  0  0  0  0  0  0  0  0  0  0  0
    2.3673   -0.7303   -0.1952 C   0  0  0  0  0  0  0  0  0  0  0  0
    1.0533   -1.7510    0.2325 S   0  0  0  0  0  0  0  0  0  0  0  0
   -2.1064   -1.7996    0.6434 C   0  0  0  0  0  0  0  0  0  0  0  0
   -3.4789   -1.8226    0.8214 C   0  0  0  0  0  0  0  0  0  0  0  0
   -4.2791   -0.7527    0.6446 N   0  0  0  0  0  0  0  0  0  0  0  0
   -4.4463    1.8473   -0.8623 H   0  0  0  0  0  0  0  0  0  0  0  0
   -4.2484    2.2561    0.7163 H   0  0  0  0  0  0  0  0  0  0  0  0
   -1.9107    1.4672   -0.2271 H   0  0  0  0  0  0  0  0  0  0  0  0
    2.4171    2.5567   -1.0477 H   0  0  0  0  0  0  0  0  0  0  0  0
    4.8479    2.0486   -1.2220 H   0  0  0  0  0  0  0  0  0  0  0  0
    5.6809   -0.2301   -0.7400 H   0  0  0  0  0  0  0  0  0  0  0  0
    4.1011   -2.0360   -0.0768 H   0  0  0  0  0  0  0  0  0  0  0  0
   -1.5455   -2.7119    0.8095 H   0  0  0  0  0  0  0  0  0  0  0  0
   -3.9903   -2.7331    1.1213 H   0  0  0  0  0  0  0  0  0  0  0  0
  1  2  1  0
  2  3  2  0
  3  4  1  0
  4  5  1  0
  5  6  2  0
  6  7  1  0
  7  8  2  0
  8  9  1  0
  9 10  2  0
 10 11  1  0
 11 12  2  0
 12 13  1  0
  4 14  2  0
 14 15  1  0
 15 16  2  0
 16  2  1  0
 13  5  1  0
 12  7  1  0
  1 17  1  0
  1 18  1  0
  3 19  1  0
  8 20  1  0
  9 21  1  0
 10 22  1  0
 11 23  1  0
 14 24  1  0
 15 25  1  0
M  END
$$$$
