
     RDKit          3D

 38 39  0  0  0  0  0  0  0  0999 V2000
    5.7366   -0.1870    0.3150 C   0  0  0  0  0  0  0  0  0  0  0  0
    4.2577   -0.0315    0.0010 C   0  0  0  0  0  0  0  0  0  0  0  0
    3.4692    0.4166    1.2290 C   0  0  0  0  0  0  0  0  0  0  0  0
    2.0668    0.5923    0.8904 N   0  0  0  0  0  0  0  0  0  0  0  0
    1.1300   -0.4187    0.8602 C   0  0  0  0  0  0  0  0  0  0  0  0
   -0.1112   -0.4140    0.3392 C   0  0  0  0  0  0  0  0  0  0  0  0
   -0.8625   -1.7105    0.4120 C   0  0  0  0  0  0  0  0  0  0  0  0
   -0.2959   -2.7988    0.3589 O   0  0  0  0  0  0  0  0  0  0  0  0
   -2.3357   -1.6757    0.5006 C   0  0  0  0  0  0  0  0  0  0  0  0
   -3.0920   -2.5933   -0.2305 C   0  0  0  0  0  0  0  0  0  0  0  0
   -4.4808   -2.5629   -0.1345 C   0  0  0  0  0  0  0  0  0  0  0  0
   -5.0614   -1.6209    0.7007 C   0  0  0  0  0  0  0  0  0  0  0  0
   -4.3563   -0.7337    1.4378 N   0  0  0  0  0  0  0  0  0  0  0  0
   -3.0058   -0.7894    1.3325 C   0  0  0  0  0  0  0  0  0  0  0  0
   -0.6555    0.7581   -0.3671 C   0  0  0  0  0  0  0  0  0  0  0  0
   -0.8302    0.7099   -1.7564 C   0  0  0  0  0  0  0  0  0  0  0  0
   -1.3442    1.8165   -2.4276 C   0  0  0  0  0  0  0  0  0  0  0  0
   -1.5063    1.7618   -3.7556 F   0  0  0  0  0  0  0  0  0  0  0  0
   -1.6911    2.9780   -1.7448 C   0  0  0  0  0  0  0  0  0  0  0  0
   -1.5209    3.0362   -0.3631 C   0  0  0  0  0  0  0  0  0  0  0  0
   -1.0055    1.9319    0.3139 C   0  0  0  0  0  0  0  0  0  0  0  0
   -0.8739    2.0049    1.6464 F   0  0  0  0  0  0  0  0  0  0  0  0
    5.8947   -0.9361    1.0974 H   0  0  0  0  0  0  0  0  0  0  0  0
    6.2820   -0.5082   -0.5780 H   0  0  0  0  0  0  0  0  0  0  0  0
    6.1676    0.7605    0.6537 H   0  0  0  0  0  0  0  0  0  0  0  0
    3.8657   -0.9858   -0.3707 H   0  0  0  0  0  0  0  0  0  0  0  0
    4.1337    0.6977   -0.8088 H   0  0  0  0  0  0  0  0  0  0  0  0
    3.5783   -0.3074    2.0453 H   0  0  0  0  0  0  0  0  0  0  0  0
    3.8595    1.3731    1.5944 H   0  0  0  0  0  0  0  0  0  0  0  0
    1.8504    1.4177    0.3372 H   0  0  0  0  0  0  0  0  0  0  0  0
    1.5017   -1.3269    1.3387 H   0  0  0  0  0  0  0  0  0  0  0  0
   -2.6035   -3.3267   -0.8677 H   0  0  0  0  0  0  0  0  0  0  0  0
   -5.0951   -3.2603   -0.6936 H   0  0  0  0  0  0  0  0  0  0  0  0
   -6.1410   -1.5577    0.8082 H   0  0  0  0  0  0  0  0  0  0  0  0
   -2.4778   -0.0883    1.9728 H   0  0  0  0  0  0  0  0  0  0  0  0
   -0.5636   -0.1751   -2.3281 H   0  0  0  0  0  0  0  0  0  0  0  0
   -2.0927    3.8252   -2.2922 H   0  0  0  0  0  0  0  0  0  0  0  0
   -1.7910    3.9288    0.1932 H   0  0  0  0  0  0  0  0  0  0  0  0
  1  2  1  0
  2  3  1  0
  3  4  1  0
  4  5  1  0
  5  6  2  3
  6  7  1  0
  7  8  2  0
  7  9  1  0
  9 10  2  0
 10 11  1  0
 11 12  2  0
 12 13  1  0
 13 14  2  0
  6 15  1  0
 15 16  2  0
 16 17  1  0
 17 18  1  0
 17 19  2  0
 19 20  1  0
 20 21  2  0
 21 22  1  0
 14  9  1  0
 21 15  1  0
  1 23  1  0
  1 24  1  0
  1 25  1  0
  2 26  1  0
  2 27  1  0
  3 28  1  0
  3 29  1  0
  4 30  1  0
  5 31  1  0
 10 32  1  0
 11 33  1  0
 12 34  1  0
 14 35  1  0
 16 36  1  0
 19 37  1  0
 20 38  1  0
M  END
$$$$
