
     RDKit          3D

 32 34  0  0  0  0  0  0  0  0999 V2000
   -5.2463    0.2251   -0.4151 C   0  0  0  0  0  0  0  0  0  0  0  0
   -3.9701    0.0502    0.2505 N   0  0  0  0  0  0  0  0  0  0  0  0
   -3.5107   -1.3195    0.5682 C   0  0  0  0  0  0  0  0  0  0  0  0
   -1.9759   -1.2060    0.7087 C   0  0  0  0  0  0  0  0  0  0  0  0
   -1.7386    0.0811    0.0957 N   0  0  0  0  0  0  0  0  0  0  0  0
   -2.8916    0.7550   -0.1614 C   0  0  0  0  0  0  0  0  0  0  0  0
   -2.4956    1.9070   -0.7782 C   0  0  0  0  0  0  0  0  0  0  0  0
   -1.1136    1.9133   -0.8937 N   0  0  0  0  0  0  0  0  0  0  0  0
   -0.6767    0.7919   -0.3510 C   0  0  0  0  0  0  0  0  0  0  0  0
    0.6138    0.3353   -0.2267 N   0  0  0  0  0  0  0  0  0  0  0  0
    1.6992    1.0853   -0.6340 C   0  0  0  0  0  0  0  0  0  0  0  0
    1.7072    2.2192   -1.0936 O   0  0  0  0  0  0  0  0  0  0  0  0
    3.0167    0.4189   -0.4437 C   0  0  0  0  0  0  0  0  0  0  0  0
    3.1829   -0.9559   -0.6468 C   0  0  0  0  0  0  0  0  0  0  0  0
    4.4398   -1.5248   -0.4604 C   0  0  0  0  0  0  0  0  0  0  0  0
    4.5941   -2.8414   -0.6501 F   0  0  0  0  0  0  0  0  0  0  0  0
    5.5328   -0.7559   -0.0853 C   0  0  0  0  0  0  0  0  0  0  0  0
    5.3599    0.6095    0.0947 C   0  0  0  0  0  0  0  0  0  0  0  0
    6.4084    1.3626    0.4499 F   0  0  0  0  0  0  0  0  0  0  0  0
    4.1170    1.2070   -0.0844 C   0  0  0  0  0  0  0  0  0  0  0  0
   -6.0252   -0.3384    0.1093 H   0  0  0  0  0  0  0  0  0  0  0  0
   -5.2030   -0.1305   -1.4505 H   0  0  0  0  0  0  0  0  0  0  0  0
   -5.5456    1.2788   -0.4177 H   0  0  0  0  0  0  0  0  0  0  0  0
   -3.9729   -1.6909    1.4884 H   0  0  0  0  0  0  0  0  0  0  0  0
   -3.7621   -2.0056   -0.2503 H   0  0  0  0  0  0  0  0  0  0  0  0
   -1.6554   -1.1478    1.7526 H   0  0  0  0  0  0  0  0  0  0  0  0
   -1.4378   -1.9854    0.1647 H   0  0  0  0  0  0  0  0  0  0  0  0
   -3.0955    2.7244   -1.1513 H   0  0  0  0  0  0  0  0  0  0  0  0
    0.7578   -0.5420    0.2459 H   0  0  0  0  0  0  0  0  0  0  0  0
    2.3685   -1.5907   -0.9794 H   0  0  0  0  0  0  0  0  0  0  0  0
    6.5067   -1.2104    0.0550 H   0  0  0  0  0  0  0  0  0  0  0  0
    4.0118    2.2804    0.0551 H   0  0  0  0  0  0  0  0  0  0  0  0
  1  2  1  0
  2  3  1  0
  3  4  1  0
  4  5  1  0
  5  6  1  0
  6  7  2  0
  7  8  1  0
  8  9  2  0
  9 10  1  0
 10 11  1  0
 11 12  2  0
 11 13  1  0
 13 14  2  0
 14 15  1  0
 15 16  1  0
 15 17  2  0
 17 18  1  0
 18 19  1  0
 18 20  2  0
  6  2  1  0
 20 13  1  0
  9  5  1  0
  1 21  1  0
  1 22  1  0
  1 23  1  0
  3 24  1  0
  3 25  1  0
  4 26  1  0
  4 27  1  0
  7 28  1  0
 10 29  1  0
 14 30  1  0
 17 31  1  0
 20 32  1  0
M  END
$$$$
