MODEL        4USER    Run = 4USERUSER    Estimated Free Energy of Binding    = -11.37 kcal/mol  [=(1)+(2)+(3)-(4)]USERUSER    (1) Final Intermolecular Energy     = -14.35 kcal/molUSER        vdW + Hbond + desolv Energy     = -13.95 kcal/molUSER        Electrostatic Energy            =  -0.40 kcal/molUSER        Moving Ligand-Fixed Receptor    = -14.35 kcal/molUSER        Moving Ligand-Moving Receptor   =  +0.00 kcal/molUSER    (2) Final Total Internal Energy     =  -2.55 kcal/molUSER    (3) Torsional Free Energy           =  +2.98 kcal/molUSER    (4) Unbound System's Energy         =  -2.55 kcal/molUSERUSERREMARK SMILES COc1ccc(O)c(C(=O)c2ccc(C(=O)N[C@@H]3CCN(S(=O)(=O)N4CCOCC4)C[C@H]3NC(=O)c3ccncc3)cc2)c1FREMARK SMILES IDX 11 1 12 2 13 3 14 4 42 5 43 6 9 7 10 8 8 9 3 10 4 11 44 12REMARK SMILES IDX 5 13 6 14 45 15 2 16 1 17 7 18 15 20 17 21 16 22 18 24 19 25REMARK SMILES IDX 32 26 20 27 31 28 21 29 33 30 34 31 35 33 36 34 37 35 41 36REMARK SMILES IDX 38 37 40 38 39 39 22 40 23 41 24 42 25 43 26 44 30 45 27 46REMARK SMILES IDX 29 47 28 48REMARK H PARENT 7 19 17 23 33 32USER                              x       y       z     vdW  Elec       q    TypeUSER                           _______ _______ _______ _____ _____    ______ ____ROOTATOM      1  C   UNL     1      28.161  41.559  16.506 -0.24 -0.01    +0.023 A  ATOM      2  C   UNL     1      29.423  41.094  16.892 -0.31 -0.00    +0.013 A  ATOM      3  C   UNL     1      30.511  41.971  16.921 -0.29 -0.00    +0.014 A  ATOM      4  C   UNL     1      30.346  43.314  16.562 -0.26 -0.01    +0.039 A  ATOM      5  C   UNL     1      29.092  43.770  16.140 -0.26 -0.01    +0.014 A  ATOM      6  C   UNL     1      28.004  42.893  16.107 -0.23 -0.01    +0.013 A  ENDROOTBRANCH   1   7ATOM      7  C   UNL     1      26.988  40.654  16.422 -0.23 +0.00    +0.199 C  ATOM      8  O   UNL     1      26.728  40.107  15.350 -0.68 -0.04    -0.288 OA BRANCH   7   9ATOM      9  C   UNL     1      26.144  40.324  17.591 -0.23 +0.00    +0.104 A  ATOM     10  C   UNL     1      25.327  40.800  19.837 -0.22 -0.03    +0.155 A  ATOM     11  C   UNL     1      24.562  39.632  19.801 -0.30 -0.02    +0.053 A  ATOM     12  C   UNL     1      26.111  41.136  18.725 -0.14 -0.02    +0.179 A  ATOM     13  C   UNL     1      24.558  38.830  18.654 -0.37 -0.02    +0.051 A  ATOM     14  C   UNL     1      25.330  39.186  17.552 -0.29 +0.00    +0.130 A  ATOM     15  F   UNL     1      26.812  42.280  18.752 -0.03 +0.03    -0.202 F  BRANCH  10  16ATOM     16  O   UNL     1      25.397  41.668  20.893 -0.17 +0.10    -0.494 OA ATOM     17  C   UNL     1      24.167  42.112  21.450 -0.45 -0.07    +0.278 C  ENDBRANCH  10  16BRANCH  14  18ATOM     18  O   UNL     1      25.240  38.373  16.453 -0.59 -0.18    -0.507 OA ATOM     19  H   UNL     1      24.939  38.924  15.695 -0.03 -0.05    +0.293 HD ENDBRANCH  14  18ENDBRANCH   7   9ENDBRANCH   1   7BRANCH   4  20ATOM     20  C   UNL     1      31.534  44.207  16.611 -0.19 -0.08    +0.251 C  ATOM     21  N   UNL     1      32.761  43.590  16.749 -0.09 +0.14    -0.347 N  ATOM     22  O   UNL     1      31.402  45.420  16.502 -0.79 +0.06    -0.269 OA ATOM     23  H   UNL     1      32.808  42.579  16.816 +0.04 -0.07    +0.164 HD BRANCH  21  24ATOM     24  C   UNL     1      33.991  44.369  16.892 -0.29 -0.05    +0.107 C  ATOM     25  C   UNL     1      33.980  45.543  15.906 -0.28 -0.04    +0.044 C  ATOM     26  C   UNL     1      35.262  43.478  16.760 -0.35 -0.05    +0.120 C  ATOM     27  C   UNL     1      35.387  46.059  15.652 -0.32 -0.10    +0.106 C  ATOM     28  C   UNL     1      35.826  43.605  15.328 -0.25 -0.05    +0.130 C  ATOM     29  N   UNL     1      36.235  45.013  15.024 -0.24 +0.09    -0.187 NA BRANCH  26  30ATOM     30  N   UNL     1      36.273  43.823  17.773 -0.09 +0.09    -0.346 N  ATOM     31  C   UNL     1      36.000  43.699  19.118 -0.25 -0.04    +0.251 C  ATOM     32  H   UNL     1      37.038  44.428  17.501 +0.11 -0.04    +0.164 HD ATOM     33  O   UNL     1      34.923  43.312  19.555 -0.29 +0.03    -0.269 OA BRANCH  31  34ATOM     34  C   UNL     1      37.089  44.088  20.052 -0.36 -0.00    +0.042 A  ATOM     35  C   UNL     1      36.949  43.772  21.403 -0.39 +0.00    +0.034 A  ATOM     36  C   UNL     1      38.259  44.707  19.604 -0.35 -0.00    +0.034 A  ATOM     37  C   UNL     1      37.981  44.110  22.261 -0.29 +0.01    +0.112 A  ATOM     38  C   UNL     1      39.232  45.002  20.543 -0.30 +0.00    +0.112 A  ATOM     39  N   UNL     1      39.118  44.720  21.859 -0.16 -0.01    -0.265 NA ENDBRANCH  31  34ENDBRANCH  26  30BRANCH  29  40ATOM     40  S   UNL     1      36.629  45.268  13.401 -0.43 -0.11    +0.282 S  ATOM     41  O   UNL     1      35.572  46.059  12.816 -0.45 +0.11    -0.195 OA ATOM     42  O   UNL     1      37.057  44.022  12.810 -0.33 +0.06    -0.195 OA BRANCH  40  43ATOM     43  N   UNL     1      37.993  46.242  13.603 -0.31 +0.05    -0.184 NA ATOM     44  C   UNL     1      37.741  47.718  13.497 -0.50 -0.04    +0.132 C  ATOM     45  C   UNL     1      38.801  45.892  14.816 -0.36 -0.03    +0.132 C  ATOM     46  C   UNL     1      37.810  48.390  14.871 -0.46 -0.12    +0.177 C  ATOM     47  C   UNL     1      39.765  47.031  15.155 -0.41 -0.04    +0.177 C  ATOM     48  O   UNL     1      39.098  48.257  15.491 -0.25 +0.17    -0.379 OA ENDBRANCH  40  43ENDBRANCH  29  40ENDBRANCH  21  24ENDBRANCH   4  20TORSDOF 10TERENDMDL