MODEL        2USER    Run = 2USERUSER    Estimated Free Energy of Binding    = -10.26 kcal/mol  [=(1)+(2)+(3)-(4)]USERUSER    (1) Final Intermolecular Energy     = -13.24 kcal/molUSER        vdW + Hbond + desolv Energy     = -13.00 kcal/molUSER        Electrostatic Energy            =  -0.24 kcal/molUSER        Moving Ligand-Fixed Receptor    = -13.24 kcal/molUSER        Moving Ligand-Moving Receptor   =  +0.00 kcal/molUSER    (2) Final Total Internal Energy     =  -3.04 kcal/molUSER    (3) Torsional Free Energy           =  +2.98 kcal/molUSER    (4) Unbound System's Energy         =  -3.04 kcal/molUSERUSERREMARK SMILES COc1ccc(O)c(C(=O)c2ccc(C(=O)N[C@@H]3CCN(CC(=O)N4CCOCC4)C[C@H]3NC(=O)c3cncc(F)c3)cc2)c1FREMARK SMILES IDX 11 1 12 2 13 3 14 4 43 5 44 6 9 7 10 8 8 9 3 10 4 11 45 12REMARK SMILES IDX 5 13 6 14 46 15 2 16 1 17 7 18 15 20 17 21 16 22 18 24 19 25REMARK SMILES IDX 32 26 20 27 31 28 21 29 33 30 34 31 35 33 36 34 37 35 42 36REMARK SMILES IDX 38 37 40 38 39 39 41 40 22 41 23 42 25 43 26 44 30 45 27 46REMARK SMILES IDX 29 47 28 48 24 49REMARK H PARENT 7 19 17 23 33 32USER                              x       y       z     vdW  Elec       q    TypeUSER                           _______ _______ _______ _____ _____    ______ ____ROOTATOM      1  C   UNL     1      40.715  48.606  15.414 -0.58 -0.00    +0.023 A  ATOM      2  C   UNL     1      41.356  48.257  14.219 +0.02 -0.00    +0.013 A  ATOM      3  C   UNL     1      42.199  49.177  13.584 -0.19 -0.00    +0.014 A  ATOM      4  C   UNL     1      42.408  50.443  14.147 -0.62 -0.01    +0.039 A  ATOM      5  C   UNL     1      41.804  50.768  15.369 -0.36 -0.00    +0.014 A  ATOM      6  C   UNL     1      40.960  49.851  16.001 -0.56 -0.00    +0.013 A  ENDROOTBRANCH   1   7ATOM      7  C   UNL     1      39.823  47.656  16.119 -0.43 -0.05    +0.199 C  ATOM      8  O   UNL     1      40.234  47.103  17.141 -0.34 +0.05    -0.288 OA BRANCH   7   9ATOM      9  C   UNL     1      38.472  47.299  15.633 -0.37 -0.05    +0.104 A  ATOM     10  C   UNL     1      36.731  47.334  13.923 -0.39 -0.09    +0.155 A  ATOM     11  C   UNL     1      35.900  46.581  14.756 -0.36 -0.04    +0.053 A  ATOM     12  C   UNL     1      38.011  47.690  14.374 -0.37 -0.08    +0.179 A  ATOM     13  C   UNL     1      36.338  46.212  16.031 -0.34 -0.04    +0.051 A  ATOM     14  C   UNL     1      37.608  46.582  16.469 -0.29 -0.06    +0.130 A  ATOM     15  F   UNL     1      38.788  48.438  13.572 -0.14 +0.05    -0.202 F  BRANCH  10  16ATOM     16  O   UNL     1      36.409  47.767  12.665 -0.53 +0.22    -0.494 OA ATOM     17  C   UNL     1      36.858  46.978  11.569 -0.42 -0.10    +0.278 C  ENDBRANCH  10  16BRANCH  14  18ATOM     18  O   UNL     1      37.943  46.205  17.741 -0.11 +0.15    -0.507 OA ATOM     19  H   UNL     1      38.874  46.484  17.905 +0.17 -0.07    +0.293 HD ENDBRANCH  14  18ENDBRANCH   7   9ENDBRANCH   1   7BRANCH   4  20ATOM     20  C   UNL     1      43.283  51.456  13.503 -0.15 -0.09    +0.251 C  ATOM     21  N   UNL     1      43.468  51.336  12.143 -0.28 +0.18    -0.347 N  ATOM     22  O   UNL     1      43.795  52.348  14.172 -0.13 +0.05    -0.269 OA ATOM     23  H   UNL     1      43.005  50.594  11.635 -0.22 -0.09    +0.164 HD BRANCH  21  24ATOM     24  C   UNL     1      44.306  52.270  11.382 -0.42 -0.06    +0.107 C  ATOM     25  C   UNL     1      43.973  52.172   9.891 -0.42 -0.02    +0.042 C  ATOM     26  C   UNL     1      45.823  52.039  11.618 -0.35 -0.05    +0.118 C  ATOM     27  C   UNL     1      44.831  53.131   9.070 -0.34 -0.02    +0.087 C  ATOM     28  C   UNL     1      46.636  52.986  10.703 -0.22 -0.03    +0.112 C  ATOM     29  N   UNL     1      46.250  52.851   9.289 -0.14 +0.06    -0.292 NA BRANCH  26  30ATOM     30  N   UNL     1      46.183  52.214  13.030 -0.04 +0.14    -0.346 N  ATOM     31  C   UNL     1      47.490  52.320  13.445 -0.16 -0.06    +0.253 C  ATOM     32  H   UNL     1      45.409  52.255  13.690 -0.29 -0.07    +0.164 HD ATOM     33  O   UNL     1      48.441  52.300  12.670 -0.17 +0.04    -0.269 OA BRANCH  31  34ATOM     34  C   UNL     1      47.744  52.498  14.894 -0.26 -0.01    +0.061 A  ATOM     35  C   UNL     1      48.542  51.639  15.645 -0.15 -0.01    +0.125 A  ATOM     36  C   UNL     1      47.184  53.603  15.543 -0.21 -0.00    +0.056 A  ATOM     37  N   UNL     1      48.791  51.800  16.972 -0.17 +0.03    -0.261 NA ATOM     38  C   UNL     1      47.425  53.785  16.897 -0.18 +0.00    +0.142 A  ATOM     39  C   UNL     1      48.219  52.873  17.568 -0.18 -0.01    +0.150 A  ATOM     40  F   UNL     1      46.890  54.827  17.544 -0.06 -0.02    -0.205 F  ENDBRANCH  31  34ENDBRANCH  26  30BRANCH  29  41ATOM     41  C   UNL     1      47.143  53.609   8.384 -0.13 -0.02    +0.185 C  BRANCH  41  42ATOM     42  C   UNL     1      47.960  52.778   7.370 -0.17 +0.01    +0.236 C  ATOM     43  N   UNL     1      48.723  51.733   7.902 -0.13 +0.03    -0.337 N  ATOM     44  C   UNL     1      49.631  51.031   6.990 -0.34 -0.02    +0.148 C  ATOM     45  C   UNL     1      49.105  51.650   9.317 -0.26 -0.03    +0.148 C  ATOM     46  C   UNL     1      49.984  49.633   7.498 -0.43 -0.06    +0.181 C  ATOM     47  C   UNL     1      49.494  50.223   9.721 -0.41 -0.05    +0.181 C  ATOM     48  O   UNL     1      50.486  49.683   8.842 -0.25 +0.13    -0.378 OA ATOM     49  O   UNL     1      47.935  52.985   6.156 -0.13 -0.09    -0.273 OA ENDBRANCH  41  42ENDBRANCH  29  41ENDBRANCH  21  24ENDBRANCH   4  20TORSDOF 10TERENDMDL