REMARK SMILES COc1ccc(O)c(C(=O)c2ccc(C(=O)N[C@@H]3CCN(S(=O)(=O)N4CCOCC4)C[C@H]3NC(=O)c3ccncc3)cc2)c1F
REMARK SMILES IDX 11 1 12 2 13 3 14 4 42 5 43 6 9 7 10 8 8 9 3 10 4 11 44 12
REMARK SMILES IDX 5 13 6 14 45 15 2 16 1 17 7 18 15 20 17 21 16 22 18 24 19 25
REMARK SMILES IDX 32 26 20 27 31 28 21 29 33 30 34 31 35 33 36 34 37 35 41 36
REMARK SMILES IDX 38 37 40 38 39 39 22 40 23 41 24 42 25 43 26 44 30 45 27 46
REMARK SMILES IDX 29 47 28 48
REMARK H PARENT 7 19 17 23 33 32
ROOT
ATOM      1  C   UNL     1       4.985  -0.617  -1.999  1.00  0.00     0.023 A 
ATOM      2  C   UNL     1       4.893   0.697  -1.528  1.00  0.00     0.013 A 
ATOM      3  C   UNL     1       3.673   1.181  -1.045  1.00  0.00     0.014 A 
ATOM      4  C   UNL     1       2.541   0.358  -1.033  1.00  0.00     0.039 A 
ATOM      5  C   UNL     1       2.624  -0.944  -1.539  1.00  0.00     0.014 A 
ATOM      6  C   UNL     1       3.843  -1.428  -2.025  1.00  0.00     0.013 A 
ENDROOT
BRANCH   1   7
ATOM      7  C   UNL     1       6.249  -1.159  -2.557  1.00  0.00     0.199 C 
ATOM      8  O   UNL     1       6.200  -1.909  -3.533  1.00  0.00    -0.288 OA
BRANCH   7   9
ATOM      9  C   UNL     1       7.581  -0.790  -2.033  1.00  0.00     0.104 A 
ATOM     10  C   UNL     1       9.059  -0.188  -0.191  1.00  0.00     0.155 A 
ATOM     11  C   UNL     1      10.117  -0.048  -1.092  1.00  0.00     0.053 A 
ATOM     12  C   UNL     1       7.797  -0.562  -0.673  1.00  0.00     0.179 A 
ATOM     13  C   UNL     1       9.921  -0.311  -2.452  1.00  0.00     0.051 A 
ATOM     14  C   UNL     1       8.665  -0.697  -2.913  1.00  0.00     0.130 A 
ATOM     15  F   UNL     1       6.796  -0.733   0.204  1.00  0.00    -0.202 F 
BRANCH  10  16
ATOM     16  O   UNL     1       9.135   0.026   1.160  1.00  0.00    -0.494 OA
ATOM     17  C   UNL     1      10.428   0.241   1.710  1.00  0.00     0.278 C 
ENDBRANCH  10  16
BRANCH  14  18
ATOM     18  O   UNL     1       8.564  -0.978  -4.250  1.00  0.00    -0.507 OA
ATOM     19  H   UNL     1       7.717  -1.458  -4.394  1.00  0.00     0.293 HD
ENDBRANCH  14  18
ENDBRANCH   7   9
ENDBRANCH   1   7
BRANCH   4  20
ATOM     20  C   UNL     1       1.268   0.920  -0.508  1.00  0.00     0.251 C 
ATOM     21  N   UNL     1       0.433   0.040   0.149  1.00  0.00    -0.347 N 
ATOM     22  O   UNL     1       1.016   2.112  -0.641  1.00  0.00    -0.269 OA
ATOM     23  H   UNL     1       0.705  -0.932   0.244  1.00  0.00     0.164 HD
BRANCH  21  24
ATOM     24  C   UNL     1      -0.882   0.460   0.635  1.00  0.00     0.107 C 
ATOM     25  C   UNL     1      -1.279  -0.381   1.853  1.00  0.00     0.044 C 
ATOM     26  C   UNL     1      -1.954   0.435  -0.495  1.00  0.00     0.120 C 
ATOM     27  C   UNL     1      -2.782  -0.351   2.074  1.00  0.00     0.106 C 
ATOM     28  C   UNL     1      -2.778  -0.867  -0.386  1.00  0.00     0.130 C 
ATOM     29  N   UNL     1      -3.504  -0.947   0.921  1.00  0.00    -0.187 NA
BRANCH  26  30
ATOM     30  N   UNL     1      -2.817   1.627  -0.449  1.00  0.00    -0.346 N 
ATOM     31  C   UNL     1      -3.695   1.907  -1.474  1.00  0.00     0.251 C 
ATOM     32  H   UNL     1      -2.554   2.387   0.167  1.00  0.00     0.164 HD
ATOM     33  O   UNL     1      -3.811   1.207  -2.473  1.00  0.00    -0.269 OA
BRANCH  31  34
ATOM     34  C   UNL     1      -4.508   3.143  -1.329  1.00  0.00     0.042 A 
ATOM     35  C   UNL     1      -4.976   3.769  -2.484  1.00  0.00     0.034 A 
ATOM     36  C   UNL     1      -4.855   3.655  -0.076  1.00  0.00     0.034 A 
ATOM     37  C   UNL     1      -5.758   4.901  -2.339  1.00  0.00     0.112 A 
ATOM     38  C   UNL     1      -5.643   4.792  -0.040  1.00  0.00     0.112 A 
ATOM     39  N   UNL     1      -6.098   5.427  -1.142  1.00  0.00    -0.265 NA
ENDBRANCH  31  34
ENDBRANCH  26  30
BRANCH  29  40
ATOM     40  S   UNL     1      -4.223  -2.450   1.204  1.00  0.00     0.282 S 
ATOM     41  O   UNL     1      -3.239  -3.288   1.848  1.00  0.00    -0.195 OA
ATOM     42  O   UNL     1      -4.921  -2.879   0.016  1.00  0.00    -0.195 OA
BRANCH  40  43
ATOM     43  N   UNL     1      -5.378  -1.987   2.346  1.00  0.00    -0.184 NA
ATOM     44  C   UNL     1      -6.465  -1.093   1.824  1.00  0.00     0.132 C 
ATOM     45  C   UNL     1      -5.922  -3.135   3.141  1.00  0.00     0.132 C 
ATOM     46  C   UNL     1      -7.788  -1.852   1.692  1.00  0.00     0.177 C 
ATOM     47  C   UNL     1      -7.212  -2.719   3.853  1.00  0.00     0.177 C 
ATOM     48  O   UNL     1      -8.267  -2.357   2.948  1.00  0.00    -0.379 OA
ENDBRANCH  40  43
ENDBRANCH  29  40
ENDBRANCH  21  24
ENDBRANCH   4  20
TORSDOF 10
