REMARK SMILES COc1ccc(O)c(C(=O)c2ccc(C(=O)N[C@@H]3CCN(CC(=O)N4CCOCC4)C[C@H]3NC(=O)c3cncc(F)c3)cc2)c1F
REMARK SMILES IDX 11 1 12 2 13 3 14 4 43 5 44 6 9 7 10 8 8 9 3 10 4 11 45 12
REMARK SMILES IDX 5 13 6 14 46 15 2 16 1 17 7 18 15 20 17 21 16 22 18 24 19 25
REMARK SMILES IDX 32 26 20 27 31 28 21 29 33 30 34 31 35 33 36 34 37 35 42 36
REMARK SMILES IDX 38 37 40 38 39 39 41 40 22 41 23 42 25 43 26 44 30 45 27 46
REMARK SMILES IDX 29 47 28 48 24 49
REMARK H PARENT 7 19 17 23 33 32
ROOT
ATOM      1  C   UNL     1       5.312   0.895   1.414  1.00  0.00     0.023 A 
ATOM      2  C   UNL     1       4.646   0.747   0.191  1.00  0.00     0.013 A 
ATOM      3  C   UNL     1       3.257   0.579   0.168  1.00  0.00     0.014 A 
ATOM      4  C   UNL     1       2.531   0.567   1.366  1.00  0.00     0.039 A 
ATOM      5  C   UNL     1       3.195   0.766   2.583  1.00  0.00     0.014 A 
ATOM      6  C   UNL     1       4.583   0.931   2.607  1.00  0.00     0.013 A 
ENDROOT
BRANCH   1   7
ATOM      7  C   UNL     1       6.780   1.085   1.478  1.00  0.00     0.199 C 
ATOM      8  O   UNL     1       7.238   1.909   2.271  1.00  0.00    -0.288 OA
BRANCH   7   9
ATOM      9  C   UNL     1       7.729   0.363   0.601  1.00  0.00     0.104 A 
ATOM     10  C   UNL     1       8.378  -1.595  -0.703  1.00  0.00     0.155 A 
ATOM     11  C   UNL     1       9.562  -0.954  -1.073  1.00  0.00     0.053 A 
ATOM     12  C   UNL     1       7.473  -0.929   0.137  1.00  0.00     0.179 A 
ATOM     13  C   UNL     1       9.844   0.326  -0.589  1.00  0.00     0.051 A 
ATOM     14  C   UNL     1       8.941   0.971   0.253  1.00  0.00     0.130 A 
ATOM     15  F   UNL     1       6.351  -1.570   0.508  1.00  0.00    -0.202 F 
BRANCH  10  16
ATOM     16  O   UNL     1       7.999  -2.850  -1.098  1.00  0.00    -0.494 OA
ATOM     17  C   UNL     1       8.935  -3.604  -1.859  1.00  0.00     0.278 C 
ENDBRANCH  10  16
BRANCH  14  18
ATOM     18  O   UNL     1       9.311   2.209   0.704  1.00  0.00    -0.507 OA
ATOM     19  H   UNL     1       8.703   2.459   1.438  1.00  0.00     0.293 HD
ENDBRANCH  14  18
ENDBRANCH   7   9
ENDBRANCH   1   7
BRANCH   4  20
ATOM     20  C   UNL     1       1.057   0.379   1.391  1.00  0.00     0.251 C 
ATOM     21  N   UNL     1       0.522  -0.428   0.411  1.00  0.00    -0.347 N 
ATOM     22  O   UNL     1       0.378   0.920   2.258  1.00  0.00    -0.269 OA
ATOM     23  H   UNL     1       1.129  -0.868  -0.267  1.00  0.00     0.164 HD
BRANCH  21  24
ATOM     24  C   UNL     1      -0.918  -0.700   0.322  1.00  0.00     0.107 C 
ATOM     25  C   UNL     1      -1.154  -2.011  -0.432  1.00  0.00     0.042 C 
ATOM     26  C   UNL     1      -1.704   0.462  -0.345  1.00  0.00     0.118 C 
ATOM     27  C   UNL     1      -2.645  -2.321  -0.545  1.00  0.00     0.087 C 
ATOM     28  C   UNL     1      -3.189   0.055  -0.499  1.00  0.00     0.112 C 
ATOM     29  N   UNL     1      -3.339  -1.222  -1.215  1.00  0.00    -0.292 NA
BRANCH  26  30
ATOM     30  N   UNL     1      -1.564   1.712   0.410  1.00  0.00    -0.346 N 
ATOM     31  C   UNL     1      -1.936   2.929  -0.112  1.00  0.00     0.253 C 
ATOM     32  H   UNL     1      -1.176   1.630   1.348  1.00  0.00     0.164 HD
ATOM     33  O   UNL     1      -2.430   3.054  -1.228  1.00  0.00    -0.269 OA
BRANCH  31  34
ATOM     34  C   UNL     1      -1.755   4.131   0.736  1.00  0.00     0.061 A 
ATOM     35  C   UNL     1      -0.821   4.211   1.765  1.00  0.00     0.125 A 
ATOM     36  C   UNL     1      -2.536   5.261   0.474  1.00  0.00     0.056 A 
ATOM     37  N   UNL     1      -0.639   5.313   2.541  1.00  0.00    -0.261 NA
ATOM     38  C   UNL     1      -2.367   6.395   1.254  1.00  0.00     0.142 A 
ATOM     39  C   UNL     1      -1.424   6.381   2.266  1.00  0.00     0.150 A 
ATOM     40  F   UNL     1      -3.111   7.485   1.032  1.00  0.00    -0.205 F 
ENDBRANCH  31  34
ENDBRANCH  26  30
BRANCH  29  41
ATOM     41  C   UNL     1      -4.751  -1.530  -1.535  1.00  0.00     0.185 C 
BRANCH  41  42
ATOM     42  C   UNL     1      -5.686  -1.798  -0.335  1.00  0.00     0.236 C 
ATOM     43  N   UNL     1      -7.014  -2.108  -0.646  1.00  0.00    -0.337 N 
ATOM     44  C   UNL     1      -7.960  -2.209   0.470  1.00  0.00     0.148 C 
ATOM     45  C   UNL     1      -7.636  -1.797  -1.938  1.00  0.00     0.148 C 
ATOM     46  C   UNL     1      -9.185  -3.049   0.107  1.00  0.00     0.181 C 
ATOM     47  C   UNL     1      -8.886  -2.648  -2.191  1.00  0.00     0.181 C 
ATOM     48  O   UNL     1      -9.804  -2.567  -1.095  1.00  0.00    -0.378 OA
ATOM     49  O   UNL     1      -5.301  -1.775   0.835  1.00  0.00    -0.273 OA
ENDBRANCH  41  42
ENDBRANCH  29  41
ENDBRANCH  21  24
ENDBRANCH   4  20
TORSDOF 10
