MODEL        6USER    Run = 6USERUSER    Estimated Free Energy of Binding    = -10.41 kcal/mol  [=(1)+(2)+(3)-(4)]USERUSER    (1) Final Intermolecular Energy     = -12.49 kcal/molUSER        vdW + Hbond + desolv Energy     = -12.36 kcal/molUSER        Electrostatic Energy            =  -0.14 kcal/molUSER        Moving Ligand-Fixed Receptor    = -12.49 kcal/molUSER        Moving Ligand-Moving Receptor   =  +0.00 kcal/molUSER    (2) Final Total Internal Energy     =  -1.47 kcal/molUSER    (3) Torsional Free Energy           =  +2.09 kcal/molUSER    (4) Unbound System's Energy         =  -1.47 kcal/molUSERUSERREMARK SMILES Nc1nccc(-c2ccc(C(=O)CN3CCC(Nc4nc5ccc(F)cc5[nH]4)CC3)cc2)n1REMARK SMILES IDX 11 1 12 2 10 3 7 4 8 5 32 6 9 7 31 8 6 9 2 10 3 11 33 12REMARK SMILES IDX 4 13 5 14 1 15 13 18 14 19 15 20 30 21 16 22 29 23 17 24REMARK SMILES IDX 18 25 19 27 20 28 28 29 21 30 27 31 22 32 26 33 23 34 24 35REMARK SMILES IDX 25 37REMARK H PARENT 1 16 1 17 18 26 28 36USER                              x       y       z     vdW  Elec       q    TypeUSER                           _______ _______ _______ _____ _____    ______ ____ROOTATOM      1  C   UNL     1      35.737  42.952  19.685 -0.36 -0.01    +0.176 C  ATOM      2  O   UNL     1      36.077  41.776  19.812 -0.32 +0.02    -0.293 OA ENDROOTBRANCH   1   3ATOM      3  C   UNL     1      36.759  43.937  19.206 -0.34 -0.00    +0.019 A  ATOM      4  C   UNL     1      38.640  45.827  18.206 -0.39 -0.00    +0.000 A  ATOM      5  C   UNL     1      38.838  45.175  19.437 -0.38 -0.00    +0.011 A  ATOM      6  C   UNL     1      37.479  45.495  17.485 -0.36 -0.00    +0.011 A  ATOM      7  C   UNL     1      37.914  44.243  19.932 -0.35 -0.00    +0.012 A  ATOM      8  C   UNL     1      36.552  44.569  17.975 -0.32 -0.00    +0.012 A  BRANCH   4   9ATOM      9  C   UNL     1      39.604  46.812  17.671 -0.37 -0.02    +0.076 A  ATOM     10  C   UNL     1      41.677  47.779  17.892 -0.31 -0.01    +0.220 A  ATOM     11  N   UNL     1      41.511  48.569  16.829 -0.84 -0.00    -0.222 NA ATOM     12  N   UNL     1      40.783  46.889  18.328 -0.35 +0.02    -0.213 NA ATOM     13  C   UNL     1      40.336  48.464  16.188 -0.46 -0.03    +0.117 A  ATOM     14  C   UNL     1      39.339  47.600  16.568 -0.42 -0.02    +0.049 A  BRANCH  10  15ATOM     15  N   UNL     1      42.881  47.856  18.559 -0.27 -0.01    -0.368 N  ATOM     16  H   UNL     1      42.979  48.767  18.983 -0.42 -0.02    +0.159 HD ATOM     17  H   UNL     1      43.627  47.534  17.961 -0.43 -0.00    +0.159 HD ENDBRANCH  10  15ENDBRANCH   4   9ENDBRANCH   1   3BRANCH   1  18ATOM     18  C   UNL     1      34.330  43.473  20.004 -0.27 -0.00    +0.165 C  BRANCH  18  19ATOM     19  N   UNL     1      33.248  42.885  19.193 -0.34 +0.02    -0.296 NA ATOM     20  C   UNL     1      32.052  43.723  19.115 -0.37 -0.01    +0.087 C  ATOM     21  C   UNL     1      33.695  42.326  17.914 -0.39 -0.02    +0.087 C  ATOM     22  C   UNL     1      30.962  42.999  18.331 -0.23 -0.00    +0.040 C  ATOM     23  C   UNL     1      32.912  42.816  16.696 -0.35 -0.02    +0.040 C  ATOM     24  C   UNL     1      31.395  42.711  16.887 -0.31 -0.03    +0.084 C  BRANCH  24  25ATOM     25  N   UNL     1      30.943  41.372  16.482 -0.10 +0.15    -0.353 N  ATOM     26  H   UNL     1      31.282  41.084  15.571 -0.49 -0.13    +0.163 HD BRANCH  25  27ATOM     27  C   UNL     1      30.730  40.448  17.440 -0.23 -0.03    +0.201 A  ATOM     28  N   UNL     1      29.763  39.568  17.545 -0.24 -0.04    -0.213 NA ATOM     29  N   UNL     1      31.606  40.340  18.489 -0.18 +0.01    -0.324 N  ATOM     30  C   UNL     1      30.015  38.873  18.699 -0.32 +0.02    +0.091 A  ATOM     31  C   UNL     1      31.171  39.338  19.317 -0.36 +0.01    +0.070 A  ATOM     32  C   UNL     1      29.296  37.820  19.289 -0.34 +0.01    +0.034 A  ATOM     33  C   UNL     1      31.669  38.811  20.509 -0.40 +0.02    +0.067 A  ATOM     34  C   UNL     1      29.772  37.273  20.487 -0.33 +0.00    +0.041 A  ATOM     35  C   UNL     1      30.935  37.767  21.075 -0.40 +0.01    +0.125 A  ATOM     36  H   UNL     1      32.437  40.896  18.607 +0.11 -0.01    +0.170 HD ATOM     37  F   UNL     1      31.365  37.221  22.221 -0.15 +0.00    -0.207 F  ENDBRANCH  25  27ENDBRANCH  24  25ENDBRANCH  18  19ENDBRANCH   1  18TORSDOF 7TERENDMDL