MODEL        8USER    Run = 8USERUSER    Estimated Free Energy of Binding    = -10.76 kcal/mol  [=(1)+(2)+(3)-(4)]USERUSER    (1) Final Intermolecular Energy     = -12.85 kcal/molUSER        vdW + Hbond + desolv Energy     = -12.72 kcal/molUSER        Electrostatic Energy            =  -0.13 kcal/molUSER        Moving Ligand-Fixed Receptor    = -12.85 kcal/molUSER        Moving Ligand-Moving Receptor   =  +0.00 kcal/molUSER    (2) Final Total Internal Energy     =  -1.15 kcal/molUSER    (3) Torsional Free Energy           =  +2.09 kcal/molUSER    (4) Unbound System's Energy         =  -1.15 kcal/molUSERUSERREMARK SMILES Nc1nccc(-c2ccc(S(=O)(=O)CN3CCC(Nc4nc5ccccc5o4)CC3)cc2)n1REMARK SMILES IDX 11 1 12 2 13 3 10 4 7 5 8 6 32 7 9 8 31 9 6 10 2 11 3 12REMARK SMILES IDX 33 13 4 14 5 15 1 16 14 19 15 20 16 21 30 22 17 23 29 24REMARK SMILES IDX 18 25 19 26 20 28 21 29 28 30 22 31 27 32 23 33 26 34 24 35REMARK SMILES IDX 25 36REMARK H PARENT 1 17 1 18 19 27USER                              x       y       z     vdW  Elec       q    TypeUSER                           _______ _______ _______ _____ _____    ______ ____ROOTATOM      1  S   UNL     1      41.815  44.990  21.624 -0.31 +0.03    +0.191 S  ATOM      2  O   UNL     1      42.586  45.836  22.519 -0.14 -0.04    -0.222 OA ATOM      3  O   UNL     1      42.326  43.685  21.243 -0.29 -0.03    -0.222 OA ENDROOTBRANCH   1   4ATOM      4  C   UNL     1      41.548  45.903  20.120 -0.35 +0.01    +0.068 A  ATOM      5  C   UNL     1      41.149  47.320  17.709 -0.52 -0.00    +0.000 A  ATOM      6  C   UNL     1      42.217  47.633  18.573 -0.50 +0.00    +0.012 A  ATOM      7  C   UNL     1      40.300  46.259  18.090 -0.47 -0.00    +0.012 A  ATOM      8  C   UNL     1      42.421  46.932  19.768 -0.45 +0.00    +0.021 A  ATOM      9  C   UNL     1      40.495  45.549  19.279 -0.43 +0.00    +0.021 A  BRANCH   5  10ATOM     10  C   UNL     1      40.920  48.048  16.439 -0.47 -0.01    +0.076 A  ATOM     11  C   UNL     1      41.621  49.741  15.046 -0.42 -0.03    +0.220 A  ATOM     12  N   UNL     1      40.651  49.526  14.158 -0.30 +0.08    -0.222 NA ATOM     13  N   UNL     1      41.785  49.056  16.180 -0.83 -0.03    -0.213 NA ATOM     14  C   UNL     1      39.815  48.511  14.428 -0.38 -0.04    +0.117 A  ATOM     15  C   UNL     1      39.904  47.733  15.558 -0.49 -0.01    +0.049 A  BRANCH  11  16ATOM     16  N   UNL     1      42.495  50.779  14.800 -0.33 +0.05    -0.368 N  ATOM     17  H   UNL     1      43.405  50.405  14.571 -0.34 -0.03    +0.159 HD ATOM     18  H   UNL     1      42.446  51.447  15.554 -0.29 -0.02    +0.159 HD ENDBRANCH  11  16ENDBRANCH   5  10ENDBRANCH   1   4BRANCH   1  19ATOM     19  C   UNL     1      40.132  44.772  22.281 -0.18 +0.01    +0.227 C  BRANCH  19  20ATOM     20  N   UNL     1      39.316  43.622  21.808 -0.10 -0.01    -0.289 NA ATOM     21  C   UNL     1      38.948  42.750  22.929 -0.28 +0.01    +0.087 C  ATOM     22  C   UNL     1      38.177  44.036  20.973 -0.35 +0.00    +0.087 C  ATOM     23  C   UNL     1      37.847  41.773  22.536 -0.38 +0.00    +0.040 C  ATOM     24  C   UNL     1      36.825  43.939  21.677 -0.41 +0.00    +0.040 C  ATOM     25  C   UNL     1      36.552  42.523  22.207 -0.45 +0.01    +0.086 C  BRANCH  25  26ATOM     26  N   UNL     1      35.793  41.762  21.230 -0.29 -0.01    -0.337 N  ATOM     27  H   UNL     1      35.980  40.770  21.155 +0.10 -0.01    +0.165 HD BRANCH  26  28ATOM     28  C   UNL     1      35.185  42.332  20.178 -0.21 +0.00    +0.295 A  ATOM     29  N   UNL     1      34.177  43.178  20.218 -0.69 -0.02    -0.194 NA ATOM     30  O   UNL     1      35.638  42.034  18.923 -0.23 +0.06    -0.424 OA ATOM     31  C   UNL     1      33.933  43.453  18.897 -0.30 -0.02    +0.111 A  ATOM     32  C   UNL     1      34.825  42.754  18.100 -0.27 -0.04    +0.156 A  ATOM     33  C   UNL     1      32.977  44.275  18.287 -0.33 -0.01    +0.032 A  ATOM     34  C   UNL     1      34.853  42.803  16.712 -0.39 -0.02    +0.049 A  ATOM     35  C   UNL     1      32.970  44.351  16.885 -0.31 -0.00    +0.003 A  ATOM     36  C   UNL     1      33.891  43.628  16.115 -0.33 -0.00    +0.004 A  ENDBRANCH  26  28ENDBRANCH  25  26ENDBRANCH  19  20ENDBRANCH   1  19TORSDOF 7TERENDMDL