MODEL        3USER    Run = 3USERUSER    Estimated Free Energy of Binding    =  -8.60 kcal/mol  [=(1)+(2)+(3)-(4)]USERUSER    (1) Final Intermolecular Energy     = -10.68 kcal/molUSER        vdW + Hbond + desolv Energy     = -10.57 kcal/molUSER        Electrostatic Energy            =  -0.11 kcal/molUSER        Moving Ligand-Fixed Receptor    = -10.68 kcal/molUSER        Moving Ligand-Moving Receptor   =  +0.00 kcal/molUSER    (2) Final Total Internal Energy     =  -1.16 kcal/molUSER    (3) Torsional Free Energy           =  +2.09 kcal/molUSER    (4) Unbound System's Energy         =  -1.16 kcal/molUSERUSERREMARK SMILES Cc1n[nH]cc1CC[C@H](N)CNC(=O)c1ccc2ccccc2c1REMARK SMILES IDX 8 1 7 2 6 3 2 4 3 5 4 6 5 7 1 8 9 10 10 11 11 14 12 15 13 16REMARK SMILES IDX 14 18 15 19 16 20 24 21 17 22 23 23 18 24 22 25 19 26 21 27REMARK SMILES IDX 20 28REMARK H PARENT 4 9 10 12 10 13 12 17USER                              x       y       z     vdW  Elec       q    TypeUSER                           _______ _______ _______ _____ _____    ______ ____ROOTATOM      1  C   UNL     1      39.492  48.495  15.600 -0.60 -0.01    +0.025 C  ENDROOTBRANCH   1   2ATOM      2  C   UNL     1      38.059  47.945  15.632 -0.50 -0.03    +0.041 C  BRANCH   2   3ATOM      3  C   UNL     1      37.445  47.765  14.280 -0.52 +0.00    -0.007 A  ATOM      4  C   UNL     1      37.270  46.572  13.522 -0.45 -0.02    +0.062 A  ATOM      5  N   UNL     1      36.682  46.815  12.342 -0.58 +0.07    -0.181 NA ATOM      6  N   UNL     1      36.491  48.140  12.337 -0.44 +0.11    -0.285 N  ATOM      7  C   UNL     1      36.930  48.756  13.468 -0.32 -0.05    +0.109 A  ATOM      8  C   UNL     1      37.638  45.176  13.872 -0.40 -0.02    +0.069 C  ATOM      9  H   UNL     1      36.055  48.559  11.523 -0.32 -0.12    +0.189 HD ENDBRANCH   2   3ENDBRANCH   1   2BRANCH   1  10ATOM     10  C   UNL     1      40.409  47.992  16.736 -0.53 -0.01    +0.070 C  BRANCH  10  11ATOM     11  N   UNL     1      41.679  48.724  16.766 -0.72 -0.03    -0.326 NA ATOM     12  H   UNL     1      41.740  49.320  17.591 +0.04 +0.01    +0.119 HD ATOM     13  H   UNL     1      42.459  48.066  16.824 -0.47 +0.00    +0.119 HD ENDBRANCH  10  11BRANCH  10  14ATOM     14  C   UNL     1      40.662  46.467  16.621 -0.40 -0.01    +0.134 C  BRANCH  14  15ATOM     15  N   UNL     1      39.501  45.669  16.975 -0.13 +0.06    -0.350 N  ATOM     16  C   UNL     1      39.043  45.584  18.273 -0.31 -0.03    +0.251 C  ATOM     17  H   UNL     1      38.952  45.277  16.222 +0.11 -0.03    +0.163 HD ATOM     18  O   UNL     1      39.569  46.163  19.216 -0.30 +0.02    -0.269 OA BRANCH  16  19ATOM     19  C   UNL     1      37.827  44.754  18.490 -0.35 -0.01    +0.040 A  ATOM     20  C   UNL     1      37.538  44.330  19.790 -0.36 -0.00    +0.014 A  ATOM     21  C   UNL     1      36.994  44.371  17.432 -0.32 -0.01    +0.022 A  ATOM     22  C   UNL     1      36.405  43.552  20.038 -0.40 -0.00    +0.009 A  ATOM     23  C   UNL     1      35.852  43.586  17.668 -0.31 +0.01    -0.018 A  ATOM     24  C   UNL     1      35.553  43.176  18.989 -0.37 +0.00    -0.018 A  ATOM     25  C   UNL     1      35.003  43.195  16.620 -0.40 -0.00    +0.009 A  ATOM     26  C   UNL     1      34.411  42.392  19.224 -0.41 -0.00    +0.009 A  ATOM     27  C   UNL     1      33.872  42.416  16.872 -0.38 -0.00    +0.001 A  ATOM     28  C   UNL     1      33.576  42.017  18.171 -0.41 -0.00    +0.001 A  ENDBRANCH  16  19ENDBRANCH  14  15ENDBRANCH  10  14ENDBRANCH   1  10TORSDOF 7TERENDMDL