MODEL        5USER    Run = 5USERUSER    Estimated Free Energy of Binding    =  -9.31 kcal/mol  [=(1)+(2)+(3)-(4)]USERUSER    (1) Final Intermolecular Energy     = -11.70 kcal/molUSER        vdW + Hbond + desolv Energy     = -11.57 kcal/molUSER        Electrostatic Energy            =  -0.13 kcal/molUSER        Moving Ligand-Fixed Receptor    = -11.70 kcal/molUSER        Moving Ligand-Moving Receptor   =  +0.00 kcal/molUSER    (2) Final Total Internal Energy     =  -1.49 kcal/molUSER    (3) Torsional Free Energy           =  +2.39 kcal/molUSER    (4) Unbound System's Energy         =  -1.49 kcal/molUSERUSERREMARK SMILES Nc1nccc(-c2ccc(C(=O)CCCN3CCC(N)CC3)cc2)n1REMARK SMILES IDX 13 1 11 2 12 3 10 4 7 5 8 6 24 7 9 8 23 9 6 10 2 11 3 12REMARK SMILES IDX 25 13 4 14 5 15 1 16 14 19 15 20 16 21 17 22 22 23 18 24REMARK SMILES IDX 21 25 19 26 20 27REMARK H PARENT 1 17 1 18 20 28 20 29USER                              x       y       z     vdW  Elec       q    TypeUSER                           _______ _______ _______ _____ _____    ______ ____ROOTATOM      1  C   UNL     1      35.812  42.937  20.570 -0.46 +0.00    +0.082 C  ENDROOTBRANCH   1   2ATOM      2  C   UNL     1      34.698  43.380  19.634 -0.36 -0.01    +0.162 C  ATOM      3  O   UNL     1      33.521  43.080  19.825 -0.77 -0.02    -0.294 OA BRANCH   2   4ATOM      4  C   UNL     1      35.055  44.203  18.438 -0.32 -0.01    +0.018 A  ATOM      5  C   UNL     1      35.773  45.683  16.116 -0.35 -0.00    +0.000 A  ATOM      6  C   UNL     1      36.009  44.300  16.206 -0.35 -0.00    +0.011 A  ATOM      7  C   UNL     1      35.161  46.303  17.221 -0.36 -0.01    +0.011 A  ATOM      8  C   UNL     1      35.660  43.569  17.348 -0.33 -0.00    +0.012 A  ATOM      9  C   UNL     1      34.806  45.576  18.368 -0.42 -0.01    +0.012 A  BRANCH   5  10ATOM     10  C   UNL     1      36.152  46.435  14.900 -0.34 -0.06    +0.076 A  ATOM     11  C   UNL     1      37.551  48.008  13.979 -0.36 -0.11    +0.220 A  ATOM     12  N   UNL     1      36.999  47.908  12.769 -0.96 +0.07    -0.222 NA ATOM     13  N   UNL     1      37.181  47.299  15.048 -0.27 +0.14    -0.213 NA ATOM     14  C   UNL     1      35.972  47.051  12.652 -0.54 -0.06    +0.117 A  ATOM     15  C   UNL     1      35.502  46.284  13.691 -0.44 -0.03    +0.049 A  BRANCH  11  16ATOM     16  N   UNL     1      38.614  48.875  14.124 -0.09 +0.19    -0.368 N  ATOM     17  H   UNL     1      38.879  49.243  13.223 -0.20 -0.05    +0.159 HD ATOM     18  H   UNL     1      38.412  49.538  14.858 -0.39 -0.14    +0.159 HD ENDBRANCH  11  16ENDBRANCH   5  10ENDBRANCH   2   4ENDBRANCH   1   2BRANCH   1  19ATOM     19  C   UNL     1      36.818  44.047  20.885 -0.45 +0.00    +0.024 C  BRANCH  19  20ATOM     20  C   UNL     1      38.056  43.989  19.974 -0.32 -0.00    +0.085 C  BRANCH  20  21ATOM     21  N   UNL     1      38.542  45.326  19.595 -0.18 +0.02    -0.303 NA ATOM     22  C   UNL     1      39.910  45.568  20.085 -0.37 +0.00    +0.086 C  ATOM     23  C   UNL     1      38.394  45.579  18.150 -0.39 -0.02    +0.086 C  ATOM     24  C   UNL     1      40.994  45.240  19.060 -0.48 +0.00    +0.034 C  ATOM     25  C   UNL     1      39.400  46.603  17.624 -0.48 -0.01    +0.034 C  ATOM     26  C   UNL     1      40.827  46.065  17.778 -0.51 -0.00    +0.053 C  BRANCH  26  27ATOM     27  N   UNL     1      41.780  47.180  17.729 -0.16 +0.03    -0.328 NA ATOM     28  H   UNL     1      41.821  47.553  16.781 -0.43 -0.02    +0.119 HD ATOM     29  H   UNL     1      42.716  46.837  17.943 -0.49 -0.02    +0.119 HD ENDBRANCH  26  27ENDBRANCH  20  21ENDBRANCH  19  20ENDBRANCH   1  19TORSDOF 8TERENDMDL