REMARK SMILES Nc1nccc(-c2ccc(C(=O)CCCN3CCC(N)CC3)cc2)n1
REMARK SMILES IDX 13 1 11 2 12 3 10 4 7 5 8 6 24 7 9 8 23 9 6 10 2 11 3 12
REMARK SMILES IDX 25 13 4 14 5 15 1 16 14 19 15 20 16 21 17 22 22 23 18 24
REMARK SMILES IDX 21 25 19 26 20 27
REMARK H PARENT 1 17 1 18 20 28 20 29
ROOT
ATOM      1  C   UNL     1       0.425  -0.477  -1.776  1.00  0.00     0.082 C 
ENDROOT
BRANCH   1   2
ATOM      2  C   UNL     1      -0.256  -0.762  -0.446  1.00  0.00     0.162 C 
ATOM      3  O   UNL     1       0.364  -1.168   0.535  1.00  0.00    -0.294 OA
BRANCH   2   4
ATOM      4  C   UNL     1      -1.731  -0.546  -0.338  1.00  0.00     0.018 A 
ATOM      5  C   UNL     1      -4.533  -0.157  -0.031  1.00  0.00     0.000 A 
ATOM      6  C   UNL     1      -3.716  -0.495   1.062  1.00  0.00     0.011 A 
ATOM      7  C   UNL     1      -3.905  -0.013  -1.282  1.00  0.00     0.011 A 
ATOM      8  C   UNL     1      -2.337  -0.691   0.914  1.00  0.00     0.012 A 
ATOM      9  C   UNL     1      -2.524  -0.205  -1.437  1.00  0.00     0.012 A 
BRANCH   5  10
ATOM     10  C   UNL     1      -5.987   0.043   0.149  1.00  0.00     0.076 A 
ATOM     11  C   UNL     1      -7.665   0.747   1.554  1.00  0.00     0.220 A 
ATOM     12  N   UNL     1      -8.626   0.489   0.666  1.00  0.00    -0.222 NA
ATOM     13  N   UNL     1      -6.360   0.559   1.342  1.00  0.00    -0.213 NA
ATOM     14  C   UNL     1      -8.230  -0.032  -0.506  1.00  0.00     0.117 A 
ATOM     15  C   UNL     1      -6.916  -0.279  -0.821  1.00  0.00     0.049 A 
BRANCH  11  16
ATOM     16  N   UNL     1      -8.043   1.291   2.763  1.00  0.00    -0.368 N 
ATOM     17  H   UNL     1      -7.277   1.821   3.152  1.00  0.00     0.159 HD
ATOM     18  H   UNL     1      -8.931   1.760   2.661  1.00  0.00     0.159 HD
ENDBRANCH  11  16
ENDBRANCH   5  10
ENDBRANCH   2   4
ENDBRANCH   1   2
BRANCH   1  19
ATOM     19  C   UNL     1       1.949  -0.615  -1.720  1.00  0.00     0.024 C 
BRANCH  19  20
ATOM     20  C   UNL     1       2.610   0.529  -0.933  1.00  0.00     0.085 C 
BRANCH  20  21
ATOM     21  N   UNL     1       4.080   0.491  -1.008  1.00  0.00    -0.303 NA
ATOM     22  C   UNL     1       4.686   1.716  -0.456  1.00  0.00     0.086 C 
ATOM     23  C   UNL     1       4.632  -0.742  -0.417  1.00  0.00     0.086 C 
ATOM     24  C   UNL     1       5.081   1.593   1.014  1.00  0.00     0.034 C 
ATOM     25  C   UNL     1       6.062  -0.563   0.092  1.00  0.00     0.034 C 
ATOM     26  C   UNL     1       6.090   0.458   1.235  1.00  0.00     0.053 C 
BRANCH  26  27
ATOM     27  N   UNL     1       7.453   0.976   1.399  1.00  0.00    -0.328 NA
ATOM     28  H   UNL     1       8.093   0.202   1.577  1.00  0.00     0.119 HD
ATOM     29  H   UNL     1       7.493   1.576   2.222  1.00  0.00     0.119 HD
ENDBRANCH  26  27
ENDBRANCH  20  21
ENDBRANCH  19  20
ENDBRANCH   1  19
TORSDOF 8
