REMARK SMILES Nc1nccc(-c2ccc(C(=O)CN3CCC(Nc4nc5ccc(F)cc5[nH]4)CC3)cc2)n1
REMARK SMILES IDX 11 1 12 2 10 3 7 4 8 5 32 6 9 7 31 8 6 9 2 10 3 11 33 12
REMARK SMILES IDX 4 13 5 14 1 15 13 18 14 19 15 20 30 21 16 22 29 23 17 24
REMARK SMILES IDX 18 25 19 27 20 28 28 29 21 30 27 31 22 32 26 33 23 34 24 35
REMARK SMILES IDX 25 37
REMARK H PARENT 1 16 1 17 18 26 28 36
ROOT
ATOM      1  C   UNL     1       1.659  -0.071  -0.119  1.00  0.00     0.176 C 
ATOM      2  O   UNL     1       1.200   0.341  -1.184  1.00  0.00    -0.293 OA
ENDROOT
BRANCH   1   3
ATOM      3  C   UNL     1       3.112   0.159   0.163  1.00  0.00     0.019 A 
ATOM      4  C   UNL     1       5.881   0.655   0.606  1.00  0.00     0.000 A 
ATOM      5  C   UNL     1       5.116  -0.100   1.514  1.00  0.00     0.011 A 
ATOM      6  C   UNL     1       5.222   1.143  -0.536  1.00  0.00     0.011 A 
ATOM      7  C   UNL     1       3.752  -0.347   1.299  1.00  0.00     0.012 A 
ATOM      8  C   UNL     1       3.861   0.903  -0.755  1.00  0.00     0.012 A 
BRANCH   4   9
ATOM      9  C   UNL     1       7.319   0.924   0.820  1.00  0.00     0.076 A 
ATOM     10  C   UNL     1       9.379   1.223  -0.154  1.00  0.00     0.220 A 
ATOM     11  N   UNL     1       9.993   1.418   1.014  1.00  0.00    -0.222 NA
ATOM     12  N   UNL     1       8.071   1.001  -0.301  1.00  0.00    -0.213 NA
ATOM     13  C   UNL     1       9.222   1.348   2.111  1.00  0.00     0.117 A 
ATOM     14  C   UNL     1       7.872   1.100   2.074  1.00  0.00     0.049 A 
BRANCH  10  15
ATOM     15  N   UNL     1      10.145   1.305  -1.297  1.00  0.00    -0.368 N 
ATOM     16  H   UNL     1      10.966   1.866  -1.119  1.00  0.00     0.159 HD
ATOM     17  H   UNL     1       9.565   1.560  -2.083  1.00  0.00     0.159 HD
ENDBRANCH  10  15
ENDBRANCH   4   9
ENDBRANCH   1   3
BRANCH   1  18
ATOM     18  C   UNL     1       0.833  -0.822   0.933  1.00  0.00     0.165 C 
BRANCH  18  19
ATOM     19  N   UNL     1      -0.614  -0.890   0.658  1.00  0.00    -0.296 NA
ATOM     20  C   UNL     1      -1.288   0.406   0.741  1.00  0.00     0.087 C 
ATOM     21  C   UNL     1      -0.963  -1.692  -0.518  1.00  0.00     0.087 C 
ATOM     22  C   UNL     1      -2.787   0.225   0.526  1.00  0.00     0.040 C 
ATOM     23  C   UNL     1      -1.873  -0.987  -1.524  1.00  0.00     0.040 C 
ATOM     24  C   UNL     1      -3.099  -0.346  -0.864  1.00  0.00     0.084 C 
BRANCH  24  25
ATOM     25  N   UNL     1      -4.179  -1.338  -0.772  1.00  0.00    -0.353 N 
ATOM     26  H   UNL     1      -3.913  -2.189  -0.288  1.00  0.00     0.163 HD
BRANCH  25  27
ATOM     27  C   UNL     1      -5.452  -0.899  -0.703  1.00  0.00     0.201 A 
ATOM     28  N   UNL     1      -5.924   0.311  -0.886  1.00  0.00    -0.213 NA
ATOM     29  N   UNL     1      -6.461  -1.780  -0.411  1.00  0.00    -0.324 N 
ATOM     30  C   UNL     1      -7.279   0.214  -0.701  1.00  0.00     0.091 A 
ATOM     31  C   UNL     1      -7.647  -1.093  -0.399  1.00  0.00     0.070 A 
ATOM     32  C   UNL     1      -8.269   1.207  -0.776  1.00  0.00     0.034 A 
ATOM     33  C   UNL     1      -8.966  -1.484  -0.163  1.00  0.00     0.067 A 
ATOM     34  C   UNL     1      -9.602   0.844  -0.542  1.00  0.00     0.041 A 
ATOM     35  C   UNL     1      -9.930  -0.477  -0.243  1.00  0.00     0.125 A 
ATOM     36  H   UNL     1      -6.339  -2.767  -0.255  1.00  0.00     0.170 HD
ATOM     37  F   UNL     1     -11.214  -0.793  -0.025  1.00  0.00    -0.207 F 
ENDBRANCH  25  27
ENDBRANCH  24  25
ENDBRANCH  18  19
ENDBRANCH   1  18
TORSDOF 7
