REMARK SMILES Cc1n[nH]cc1CC[C@H](N)CNC(=O)c1ccc2ccccc2c1
REMARK SMILES IDX 8 1 7 2 6 3 2 4 3 5 4 6 5 7 1 8 9 10 10 11 11 14 12 15 13 16
REMARK SMILES IDX 14 18 15 19 16 20 24 21 17 22 23 23 18 24 22 25 19 26 21 27
REMARK SMILES IDX 20 28
REMARK H PARENT 4 9 10 12 10 13 12 17
ROOT
ATOM      1  C   UNL     1      -1.921   0.028  -0.352  1.00  0.00     0.025 C 
ENDROOT
BRANCH   1   2
ATOM      2  C   UNL     1      -2.886  -1.062  -0.838  1.00  0.00     0.041 C 
BRANCH   2   3
ATOM      3  C   UNL     1      -4.285  -0.583  -1.060  1.00  0.00    -0.007 A 
ATOM      4  C   UNL     1      -5.465  -0.875  -0.317  1.00  0.00     0.062 A 
ATOM      5  N   UNL     1      -6.540  -0.261  -0.831  1.00  0.00    -0.181 NA
ATOM      6  N   UNL     1      -6.063   0.405  -1.890  1.00  0.00    -0.285 N 
ATOM      7  C   UNL     1      -4.724   0.246  -2.073  1.00  0.00     0.109 A 
ATOM      8  C   UNL     1      -5.627  -1.725   0.890  1.00  0.00     0.069 C 
ATOM      9  H   UNL     1      -6.712   0.950  -2.447  1.00  0.00     0.189 HD
ENDBRANCH   2   3
ENDBRANCH   1   2
BRANCH   1  10
ATOM     10  C   UNL     1      -1.805   0.161   1.182  1.00  0.00     0.070 C 
BRANCH  10  11
ATOM     11  N   UNL     1      -3.113   0.390   1.803  1.00  0.00    -0.326 NA
ATOM     12  H   UNL     1      -3.012   0.716   2.763  1.00  0.00     0.119 HD
ATOM     13  H   UNL     1      -3.615   1.124   1.298  1.00  0.00     0.119 HD
ENDBRANCH  10  11
BRANCH  10  14
ATOM     14  C   UNL     1      -0.811   1.285   1.575  1.00  0.00     0.134 C 
BRANCH  14  15
ATOM     15  N   UNL     1       0.565   0.973   1.230  1.00  0.00    -0.350 N 
ATOM     16  C   UNL     1       1.179   1.511   0.119  1.00  0.00     0.251 C 
ATOM     17  H   UNL     1       1.111   0.449   1.901  1.00  0.00     0.163 HD
ATOM     18  O   UNL     1       0.624   2.282  -0.655  1.00  0.00    -0.269 OA
BRANCH  16  19
ATOM     19  C   UNL     1       2.600   1.128  -0.100  1.00  0.00     0.040 A 
ATOM     20  C   UNL     1       3.442   2.043  -0.738  1.00  0.00     0.014 A 
ATOM     21  C   UNL     1       3.098  -0.122   0.289  1.00  0.00     0.022 A 
ATOM     22  C   UNL     1       4.783   1.724  -0.961  1.00  0.00     0.009 A 
ATOM     23  C   UNL     1       4.446  -0.455   0.068  1.00  0.00    -0.018 A 
ATOM     24  C   UNL     1       5.299   0.482  -0.561  1.00  0.00    -0.018 A 
ATOM     25  C   UNL     1       4.964  -1.702   0.454  1.00  0.00     0.009 A 
ATOM     26  C   UNL     1       6.645   0.148  -0.780  1.00  0.00     0.009 A 
ATOM     27  C   UNL     1       6.305  -2.018   0.228  1.00  0.00     0.001 A 
ATOM     28  C   UNL     1       7.144  -1.094  -0.386  1.00  0.00     0.001 A 
ENDBRANCH  16  19
ENDBRANCH  14  15
ENDBRANCH  10  14
ENDBRANCH   1  10
TORSDOF 7
