REMARK SMILES Nc1nccc(-c2ccc(S(=O)(=O)CN3CCC(Nc4nc5ccccc5o4)CC3)cc2)n1
REMARK SMILES IDX 11 1 12 2 13 3 10 4 7 5 8 6 32 7 9 8 31 9 6 10 2 11 3 12
REMARK SMILES IDX 33 13 4 14 5 15 1 16 14 19 15 20 16 21 30 22 17 23 29 24
REMARK SMILES IDX 18 25 19 26 20 28 21 29 28 30 22 31 27 32 23 33 26 34 24 35
REMARK SMILES IDX 25 36
REMARK H PARENT 1 17 1 18 19 27
ROOT
ATOM      1  S   UNL     1       2.245  -2.834  -1.945  1.00  0.00     0.191 S 
ATOM      2  O   UNL     1       1.878  -3.891  -1.019  1.00  0.00    -0.222 OA
ATOM      3  O   UNL     1       2.979  -3.155  -3.156  1.00  0.00    -0.222 OA
ENDROOT
BRANCH   1   4
ATOM      4  C   UNL     1       3.220  -1.647  -1.046  1.00  0.00     0.068 A 
ATOM      5  C   UNL     1       4.803   0.207   0.382  1.00  0.00     0.000 A 
ATOM      6  C   UNL     1       3.954  -0.697   1.050  1.00  0.00     0.012 A 
ATOM      7  C   UNL     1       4.842   0.134  -1.027  1.00  0.00     0.012 A 
ATOM      8  C   UNL     1       3.169  -1.619   0.348  1.00  0.00     0.021 A 
ATOM      9  C   UNL     1       4.066  -0.785  -1.740  1.00  0.00     0.021 A 
BRANCH   5  10
ATOM     10  C   UNL     1       5.644   1.187   1.108  1.00  0.00     0.076 A 
ATOM     11  C   UNL     1       7.562   2.459   1.081  1.00  0.00     0.220 A 
ATOM     12  N   UNL     1       7.341   2.970   2.292  1.00  0.00    -0.222 NA
ATOM     13  N   UNL     1       6.771   1.575   0.468  1.00  0.00    -0.213 NA
ATOM     14  C   UNL     1       6.209   2.582   2.900  1.00  0.00     0.117 A 
ATOM     15  C   UNL     1       5.318   1.690   2.352  1.00  0.00     0.049 A 
BRANCH  11  16
ATOM     16  N   UNL     1       8.718   2.835   0.429  1.00  0.00    -0.368 N 
ATOM     17  H   UNL     1       8.983   2.115  -0.228  1.00  0.00     0.159 HD
ATOM     18  H   UNL     1       9.409   3.121   1.107  1.00  0.00     0.159 HD
ENDBRANCH  11  16
ENDBRANCH   5  10
ENDBRANCH   1   4
BRANCH   1  19
ATOM     19  C   UNL     1       0.765  -1.884  -2.413  1.00  0.00     0.227 C 
BRANCH  19  20
ATOM     20  N   UNL     1      -0.014  -1.192  -1.353  1.00  0.00    -0.289 NA
ATOM     21  C   UNL     1      -0.792  -0.084  -1.918  1.00  0.00     0.087 C 
ATOM     22  C   UNL     1      -0.806  -2.119  -0.529  1.00  0.00     0.087 C 
ATOM     23  C   UNL     1      -1.844   0.417  -0.936  1.00  0.00     0.040 C 
ATOM     24  C   UNL     1      -2.305  -2.083  -0.822  1.00  0.00     0.040 C 
ATOM     25  C   UNL     1      -2.888  -0.671  -0.664  1.00  0.00     0.086 C 
BRANCH  25  26
ATOM     26  N   UNL     1      -3.421  -0.498   0.676  1.00  0.00    -0.337 N 
ATOM     27  H   UNL     1      -2.989  -1.020   1.428  1.00  0.00     0.165 HD
BRANCH  26  28
ATOM     28  C   UNL     1      -4.658  -0.034   0.911  1.00  0.00     0.295 A 
ATOM     29  N   UNL     1      -5.327  -0.120   2.041  1.00  0.00    -0.194 NA
ATOM     30  O   UNL     1      -5.317   0.606  -0.102  1.00  0.00    -0.424 OA
ATOM     31  C   UNL     1      -6.520   0.494   1.759  1.00  0.00     0.111 A 
ATOM     32  C   UNL     1      -6.519   0.940   0.448  1.00  0.00     0.156 A 
ATOM     33  C   UNL     1      -7.655   0.713   2.550  1.00  0.00     0.032 A 
ATOM     34  C   UNL     1      -7.575   1.605  -0.164  1.00  0.00     0.049 A 
ATOM     35  C   UNL     1      -8.746   1.379   1.969  1.00  0.00     0.003 A 
ATOM     36  C   UNL     1      -8.704   1.815   0.638  1.00  0.00     0.004 A 
ENDBRANCH  26  28
ENDBRANCH  25  26
ENDBRANCH  19  20
ENDBRANCH   1  19
TORSDOF 7
