MODEL        6USER    Run = 6USERUSER    Estimated Free Energy of Binding    = -12.48 kcal/mol  [=(1)+(2)+(3)-(4)]USERUSER    (1) Final Intermolecular Energy     = -14.27 kcal/molUSER        vdW + Hbond + desolv Energy     = -13.99 kcal/molUSER        Electrostatic Energy            =  -0.28 kcal/molUSER        Moving Ligand-Fixed Receptor    = -14.27 kcal/molUSER        Moving Ligand-Moving Receptor   =  +0.00 kcal/molUSER    (2) Final Total Internal Energy     =  -1.81 kcal/molUSER    (3) Torsional Free Energy           =  +1.79 kcal/molUSER    (4) Unbound System's Energy         =  -1.81 kcal/molUSERUSERREMARK SMILES Cn1ccc2ccc3c4[nH]c5c(CCCN[C@H]6CC[C@H](O)CC6)cccc5c4c4c(c3c21)C(=O)NC4=OREMARK SMILES IDX 15 1 14 2 13 3 12 4 2 5 3 6 32 7 4 8 31 9 5 10 30 11 8 12REMARK SMILES IDX 6 13 29 14 33 15 7 16 9 17 28 18 36 19 35 20 10 21 27 22REMARK SMILES IDX 11 23 26 24 25 25 24 26 1 27 34 28 37 29 16 32 17 34 23 35REMARK SMILES IDX 18 36 22 37 19 38 20 39 21 40REMARK H PARENT 35 30 10 31 16 33 21 41USER                              x       y       z     vdW  Elec       q    TypeUSER                           _______ _______ _______ _____ _____    ______ ____ROOTATOM      1  C   UNL     1      35.039  42.471  19.508 -0.43 -0.01    +0.081 C  ENDROOTBRANCH   1   2ATOM      2  C   UNL     1      36.144  41.739  20.274 -0.45 -0.00    +0.020 C  BRANCH   2   3ATOM      3  C   UNL     1      36.474  42.390  21.622 -0.52 +0.00    +0.039 C  BRANCH   3   4ATOM      4  C   UNL     1      37.827  43.058  21.669 -0.32 -0.00    -0.024 A  ATOM      5  N   UNL     1      39.685  48.041  14.818 -0.24 +0.10    -0.350 N  ATOM      6  C   UNL     1      38.881  48.574  13.837 -0.16 -0.03    +0.086 A  ATOM      7  C   UNL     1      38.914  47.450  15.813 -0.43 -0.02    +0.057 A  ATOM      8  C   UNL     1      37.601  48.146  14.068 -0.53 -0.01    +0.028 A  ATOM      9  C   UNL     1      39.207  46.895  17.115 -0.43 -0.01    +0.022 A  ATOM     10  C   UNL     1      37.622  47.376  15.259 -0.45 -0.00    +0.000 A  ATOM     11  C   UNL     1      40.353  47.072  17.906 -0.42 -0.01    +0.063 A  ATOM     12  C   UNL     1      38.185  46.065  17.674 -0.35 -0.00    +0.009 A  ATOM     13  C   UNL     1      36.622  46.632  15.906 -0.38 -0.01    +0.011 A  ATOM     14  C   UNL     1      40.565  46.366  19.096 -0.36 -0.00    +0.063 A  ATOM     15  C   UNL     1      41.453  48.050  17.835 -0.28 -0.01    +0.259 C  ATOM     16  C   UNL     1      36.922  45.941  17.076 -0.35 -0.01    +0.012 A  ATOM     17  C   UNL     1      38.437  45.353  18.888 -0.33 -0.01    +0.055 A  ATOM     18  C   UNL     1      39.631  45.465  19.613 -0.39 -0.00    +0.022 A  ATOM     19  C   UNL     1      41.838  46.807  19.662 -0.27 +0.02    +0.259 C  ATOM     20  N   UNL     1      42.353  47.709  18.792 -0.38 -0.01    -0.288 N  ATOM     21  N   UNL     1      37.647  44.467  19.588 -0.14 +0.03    -0.354 N  ATOM     22  C   UNL     1      39.533  44.598  20.753 -0.33 +0.00    +0.008 A  ATOM     23  C   UNL     1      38.281  43.985  20.708 -0.29 -0.00    +0.050 A  ATOM     24  C   UNL     1      40.390  44.269  21.824 -0.27 +0.00    +0.011 A  ATOM     25  C   UNL     1      39.972  43.356  22.797 -0.26 +0.00    +0.001 A  ATOM     26  C   UNL     1      38.716  42.765  22.718 -0.30 +0.00    +0.006 A  ATOM     27  C   UNL     1      41.113  47.925  14.612 -0.21 -0.01    +0.149 C  ATOM     28  O   UNL     1      41.511  49.045  17.143 -0.91 -0.01    -0.269 OA ATOM     29  O   UNL     1      42.328  46.492  20.727 -0.27 -0.06    -0.269 OA ATOM     30  H   UNL     1      43.129  48.304  19.039 -0.30 -0.01    +0.173 HD ATOM     31  H   UNL     1      36.722  44.181  19.306 +0.11 -0.02    +0.167 HD ENDBRANCH   3   4ENDBRANCH   2   3ENDBRANCH   1   2BRANCH   1  32ATOM     32  N   UNL     1      34.708  43.713  20.210 -0.27 +0.01    -0.314 NA ATOM     33  H   UNL     1      34.606  43.533  21.208 +0.20 +0.03    +0.122 HD BRANCH  32  34ATOM     34  C   UNL     1      33.494  44.356  19.689 -0.38 -0.01    +0.053 C  ATOM     35  C   UNL     1      33.794  45.589  18.810 -0.47 -0.01    +0.021 C  ATOM     36  C   UNL     1      32.707  43.275  18.919 -0.43 -0.00    +0.021 C  ATOM     37  C   UNL     1      33.861  45.243  17.324 -0.39 -0.02    +0.033 C  ATOM     38  C   UNL     1      31.759  43.901  17.905 -0.32 -0.01    +0.033 C  ATOM     39  C   UNL     1      32.529  44.669  16.826 -0.29 -0.05    +0.114 C  BRANCH  39  40ATOM     40  O   UNL     1      31.690  45.727  16.364 -0.62 +0.16    -0.393 OA ATOM     41  H   UNL     1      32.263  46.482  16.145 -0.36 -0.30    +0.210 HD ENDBRANCH  39  40ENDBRANCH  32  34ENDBRANCH   1  32TORSDOF 6TERENDMDL