MODEL        1USER    Run = 1USERUSER    Estimated Free Energy of Binding    = -12.83 kcal/mol  [=(1)+(2)+(3)-(4)]USERUSER    (1) Final Intermolecular Energy     = -15.22 kcal/molUSER        vdW + Hbond + desolv Energy     = -15.08 kcal/molUSER        Electrostatic Energy            =  -0.13 kcal/molUSER        Moving Ligand-Fixed Receptor    = -15.22 kcal/molUSER        Moving Ligand-Moving Receptor   =  +0.00 kcal/molUSER    (2) Final Total Internal Energy     =  -2.60 kcal/molUSER    (3) Torsional Free Energy           =  +2.39 kcal/molUSER    (4) Unbound System's Energy         =  -2.60 kcal/molUSERUSERREMARK SMILES N#Cc1cnc(-c2ccc(CNCc3ccc(-c4csnn4)cc3)cc2)c(-c2ccccc2)c1REMARK SMILES IDX 11 1 10 2 7 3 8 4 26 5 9 6 25 7 6 8 3 9 4 10 34 11 5 12REMARK SMILES IDX 27 13 2 14 1 15 28 16 29 17 33 18 30 19 32 20 31 21 12 22REMARK SMILES IDX 13 24 14 25 15 26 24 27 16 28 23 29 17 30 18 31 19 32 22 33REMARK SMILES IDX 20 34 21 35REMARK H PARENT 12 23USER                              x       y       z     vdW  Elec       q    TypeUSER                           _______ _______ _______ _____ _____    ______ ____ROOTATOM      1  C   UNL     1      36.240  43.314  20.431 -0.41 -0.00    +0.117 C  ENDROOTBRANCH   1   2ATOM      2  C   UNL     1      35.384  43.834  19.300 -0.36 +0.01    -0.034 A  ATOM      3  C   UNL     1      33.804  44.799  17.147 -0.32 -0.00    +0.001 A  ATOM      4  C   UNL     1      34.171  45.636  18.216 -0.45 -0.01    +0.011 A  ATOM      5  C   UNL     1      34.232  43.463  17.190 -0.33 -0.00    +0.011 A  ATOM      6  C   UNL     1      34.954  45.165  19.275 -0.23 -0.00    +0.006 A  ATOM      7  C   UNL     1      35.018  42.988  18.246 -0.36 -0.00    +0.006 A  BRANCH   3   8ATOM      8  C   UNL     1      32.978  45.323  16.040 -0.25 -0.06    +0.078 A  ATOM      9  C   UNL     1      31.191  46.205  14.122 -0.51 -0.05    +0.071 A  ATOM     10  C   UNL     1      30.784  45.730  15.353 -0.36 -0.06    +0.131 A  ATOM     11  C   UNL     1      32.558  46.246  13.858 -0.15 -0.03    +0.032 A  ATOM     12  N   UNL     1      31.639  45.299  16.308 -0.67 +0.10    -0.254 NA ATOM     13  C   UNL     1      33.491  45.806  14.819 -0.14 -0.01    +0.009 A  BRANCH   9  14ATOM     14  C   UNL     1      30.233  46.648  13.160 -0.56 -0.05    +0.101 C  ATOM     15  N   UNL     1      29.455  47.009  12.380 -0.75 +0.09    -0.192 NA ENDBRANCH   9  14BRANCH  13  16ATOM     16  C   UNL     1      34.928  45.911  14.511 -0.35 +0.01    -0.016 A  ATOM     17  C   UNL     1      35.829  44.924  14.945 -0.34 -0.00    +0.009 A  ATOM     18  C   UNL     1      35.434  46.986  13.762 -0.41 -0.01    +0.009 A  ATOM     19  C   UNL     1      37.192  45.014  14.652 -0.38 -0.00    +0.001 A  ATOM     20  C   UNL     1      36.797  47.079  13.470 -0.56 -0.00    +0.001 A  ATOM     21  C   UNL     1      37.675  46.094  13.915 -0.44 -0.00    +0.000 A  ENDBRANCH  13  16ENDBRANCH   3   8ENDBRANCH   1   2BRANCH   1  22ATOM     22  N   UNL     1      37.232  44.315  20.824 -0.20 -0.00    -0.309 NA ATOM     23  H   UNL     1      37.281  44.332  21.841 +0.06 +0.01    +0.123 HD BRANCH  22  24ATOM     24  C   UNL     1      38.560  44.014  20.289 -0.25 -0.00    +0.117 C  BRANCH  24  25ATOM     25  C   UNL     1      39.053  45.038  19.293 -0.37 +0.00    -0.034 A  ATOM     26  C   UNL     1      38.254  45.426  18.210 -0.38 -0.00    +0.006 A  ATOM     27  C   UNL     1      40.327  45.602  19.423 -0.43 +0.00    +0.006 A  ATOM     28  C   UNL     1      38.716  46.367  17.283 -0.40 -0.00    +0.011 A  ATOM     29  C   UNL     1      40.790  46.541  18.497 -0.48 -0.00    +0.011 A  ATOM     30  C   UNL     1      39.989  46.942  17.418 -0.48 -0.00    +0.003 A  BRANCH  30  31ATOM     31  C   UNL     1      40.501  47.927  16.470 -0.46 -0.02    +0.105 A  ATOM     32  C   UNL     1      40.104  48.027  15.146 -0.45 -0.03    +0.118 A  ATOM     33  N   UNL     1      41.441  48.879  16.859 -1.01 -0.00    -0.138 NA ATOM     34  S   UNL     1      40.969  49.334  14.446 -0.82 +0.00    -0.020 S  ATOM     35  N   UNL     1      41.776  49.683  15.866 -1.05 -0.01    -0.091 NA ENDBRANCH  30  31ENDBRANCH  24  25ENDBRANCH  22  24ENDBRANCH   1  22TORSDOF 8TERENDMDL