MODEL        9USER    Run = 9USERUSER    Estimated Free Energy of Binding    = -11.93 kcal/mol  [=(1)+(2)+(3)-(4)]USERUSER    (1) Final Intermolecular Energy     = -13.72 kcal/molUSER        vdW + Hbond + desolv Energy     = -13.63 kcal/molUSER        Electrostatic Energy            =  -0.09 kcal/molUSER        Moving Ligand-Fixed Receptor    = -13.72 kcal/molUSER        Moving Ligand-Moving Receptor   =  +0.00 kcal/molUSER    (2) Final Total Internal Energy     =  -1.92 kcal/molUSER    (3) Torsional Free Energy           =  +1.79 kcal/molUSER    (4) Unbound System's Energy         =  -1.92 kcal/molUSERUSERREMARK SMILES Oc1nc2ccccc2n1C1CCN(Cc2ccc(-c3cc4ccccc4nc3-c3ccccc3)cc2)CC1REMARK SMILES IDX 11 1 12 2 13 3 14 4 38 5 39 6 10 7 2 8 3 9 4 10 9 11 5 12REMARK SMILES IDX 8 13 6 14 7 15 1 16 15 18 16 19 17 20 37 21 18 22 36 23REMARK SMILES IDX 19 24 20 25 21 26 29 27 22 28 28 29 23 30 27 31 24 32 26 33REMARK SMILES IDX 25 34 30 35 31 36 35 37 32 38 34 39 33 40REMARK H PARENT 1 17USER                              x       y       z     vdW  Elec       q    TypeUSER                           _______ _______ _______ _____ _____    ______ ____ROOTATOM      1  C   UNL     1      36.542  46.599  15.367 -0.38 -0.07    +0.095 C  ATOM      2  C   UNL     1      35.709  46.715  16.651 -0.31 -0.04    +0.041 C  ATOM      3  C   UNL     1      35.706  45.463  17.522 -0.35 -0.04    +0.087 C  ATOM      4  N   UNL     1      35.495  44.217  16.781 -0.12 +0.12    -0.299 NA ATOM      5  C   UNL     1      36.524  44.047  15.752 -0.39 -0.03    +0.087 C  ATOM      6  C   UNL     1      36.609  45.194  14.748 -0.42 -0.02    +0.041 C  ENDROOTBRANCH   1   7ATOM      7  N   UNL     1      37.825  47.296  15.420 -0.21 +0.16    -0.291 N  ATOM      8  C   UNL     1      38.221  48.221  14.483 -0.29 -0.15    +0.295 A  ATOM      9  N   UNL     1      39.411  48.707  14.696 -0.36 +0.08    -0.195 NA ATOM     10  C   UNL     1      39.829  48.080  15.838 -0.47 -0.03    +0.092 A  ATOM     11  C   UNL     1      38.858  47.195  16.329 -0.39 -0.03    +0.072 A  ATOM     12  C   UNL     1      41.050  48.231  16.517 -0.52 -0.00    +0.031 A  ATOM     13  C   UNL     1      39.078  46.459  17.500 -0.40 -0.01    +0.029 A  ATOM     14  C   UNL     1      41.275  47.494  17.682 -0.51 -0.00    +0.002 A  ATOM     15  C   UNL     1      40.301  46.624  18.163 -0.48 -0.00    +0.002 A  BRANCH   8  16ATOM     16  O   UNL     1      37.500  48.608  13.451 -0.53 +0.18    -0.480 OA ATOM     17  H   UNL     1      37.611  49.575  13.499 -0.24 -0.15    +0.296 HD ENDBRANCH   8  16ENDBRANCH   1   7BRANCH   4  18ATOM     18  C   UNL     1      34.118  44.098  16.274 -0.30 -0.06    +0.120 C  BRANCH  18  19ATOM     19  C   UNL     1      33.312  43.030  16.982 -0.32 +0.01    -0.034 A  ATOM     20  C   UNL     1      33.845  41.755  17.205 -0.35 -0.00    +0.006 A  ATOM     21  C   UNL     1      32.011  43.306  17.427 -0.30 -0.00    +0.006 A  ATOM     22  C   UNL     1      33.091  40.775  17.859 -0.34 -0.00    +0.009 A  ATOM     23  C   UNL     1      31.257  42.322  18.072 -0.27 -0.00    +0.009 A  ATOM     24  C   UNL     1      31.783  41.042  18.293 -0.36 +0.00    -0.016 A  BRANCH  24  25ATOM     25  C   UNL     1      30.991  40.011  18.980 -0.33 +0.00    +0.009 A  ATOM     26  C   UNL     1      31.551  39.335  20.074 -0.38 +0.00    +0.021 A  ATOM     27  C   UNL     1      29.673  39.675  18.631 -0.24 +0.01    +0.079 A  ATOM     28  C   UNL     1      30.814  38.380  20.784 -0.45 +0.00    +0.001 A  ATOM     29  N   UNL     1      28.938  38.757  19.323 -0.16 -0.04    -0.247 NA ATOM     30  C   UNL     1      31.355  37.693  21.885 -0.47 +0.00    +0.010 A  ATOM     31  C   UNL     1      29.495  38.125  20.368 -0.28 +0.01    +0.071 A  ATOM     32  C   UNL     1      30.591  36.752  22.574 -0.43 +0.00    +0.001 A  ATOM     33  C   UNL     1      28.754  37.184  21.072 -0.30 -0.00    +0.029 A  ATOM     34  C   UNL     1      29.286  36.498  22.167 -0.38 -0.00    +0.002 A  BRANCH  27  35ATOM     35  C   UNL     1      28.945  40.267  17.493 -0.29 +0.00    +0.001 A  ATOM     36  C   UNL     1      29.428  40.115  16.181 -0.33 +0.00    +0.010 A  ATOM     37  C   UNL     1      27.768  41.015  17.676 -0.20 -0.00    +0.010 A  ATOM     38  C   UNL     1      28.748  40.667  15.092 -0.28 -0.00    +0.001 A  ATOM     39  C   UNL     1      27.087  41.569  16.588 -0.24 -0.00    +0.001 A  ATOM     40  C   UNL     1      27.576  41.390  15.296 -0.28 -0.00    +0.000 A  ENDBRANCH  27  35ENDBRANCH  24  25ENDBRANCH  18  19ENDBRANCH   4  18TORSDOF 6TERENDMDL