MODEL        10USER    Run = 10USERUSER    Estimated Free Energy of Binding    =  -5.99 kcal/mol  [=(1)+(2)+(3)-(4)]USERUSER    (1) Final Intermolecular Energy     = -10.46 kcal/molUSER        vdW + Hbond + desolv Energy     = -11.08 kcal/molUSER        Electrostatic Energy            =  -0.09 kcal/molUSER        Moving Ligand-Fixed Receptor    = -11.17 kcal/molUSER        Moving Ligand-Moving Receptor   =  +0.71 kcal/molUSER    (2) Final Total Internal Energy     =  -2.68 kcal/molUSER    (3) Torsional Free Energy           =  +4.47 kcal/molUSER    (4) Unbound System's Energy         =  -2.68 kcal/molUSERUSERREMARK SMILES COc1ccc(O)c(C(=O)c2ccc(C(=O)O[C@@H]3CCCNC[C@H]3NC(=O)c3ccncc3)cc2)c1FREMARK SMILES IDX 17 1 15 2 16 3 14 4 11 5 12 6 35 7 13 8 34 9 9 10 10 11 8 12REMARK SMILES IDX 3 13 4 14 36 15 5 16 6 17 37 18 2 19 1 20 7 21 18 23 24 25REMARK SMILES IDX 23 26 22 27 21 29 20 30 19 31 25 33 26 34 27 36 28 37 29 38REMARK SMILES IDX 33 39 30 40 32 41 31 42REMARK H PARENT 7 22 22 28 25 35REMARK Flexibility Score:   99.900USER                              x       y       z     vdW  Elec       q    TypeUSER                           _______ _______ _______ _____ _____    ______ ____ROOTATOM      1  O   UNL     1      39.797  44.386  20.664 -0.09 -0.01    -0.457 OA ENDROOTBRANCH   1   2ATOM      2  C   UNL     1      40.559  45.469  20.366 -0.22 +0.02    +0.338 C  ATOM      3  O   UNL     1      41.508  45.896  21.009 -0.23 -0.03    -0.246 OA BRANCH   2   4ATOM      4  C   UNL     1      40.104  46.062  19.084 -0.38 -0.00    +0.060 A  ATOM      5  C   UNL     1      39.311  47.226  16.656 -0.45 -0.01    +0.023 A  ATOM      6  C   UNL     1      38.389  46.502  17.424 -0.33 -0.00    +0.013 A  ATOM      7  C   UNL     1      40.630  47.368  17.112 -0.52 -0.00    +0.013 A  ATOM      8  C   UNL     1      38.785  45.922  18.634 -0.33 -0.00    +0.016 A  ATOM      9  C   UNL     1      41.023  46.797  18.326 -0.51 -0.00    +0.016 A  BRANCH   5  10ATOM     10  C   UNL     1      38.950  47.841  15.349 -0.42 -0.08    +0.199 C  ATOM     11  O   UNL     1      39.572  48.803  14.910 -0.37 +0.12    -0.288 OA BRANCH  10  12ATOM     12  C   UNL     1      37.835  47.310  14.556 -0.39 -0.05    +0.104 A  ATOM     13  C   UNL     1      36.610  45.383  13.736 -0.33 -0.06    +0.155 A  ATOM     14  C   UNL     1      35.769  46.243  13.018 -0.50 -0.03    +0.053 A  ATOM     15  C   UNL     1      37.649  45.931  14.499 -0.27 -0.07    +0.179 A  ATOM     16  C   UNL     1      35.946  47.631  13.088 -0.48 -0.03    +0.051 A  ATOM     17  C   UNL     1      36.975  48.162  13.864 -0.45 -0.07    +0.130 A  ATOM     18  F   UNL     1      38.441  45.118  15.217 -0.07 +0.05    -0.202 F  BRANCH  13  19ATOM     19  O   UNL     1      36.498  44.019  13.783 +0.08 +0.17    -0.494 OA ATOM     20  C   UNL     1      36.163  43.434  15.035 -0.03 -0.10    +0.278 C  ENDBRANCH  13  19BRANCH  17  21ATOM     21  O   UNL     1      37.140  49.514  13.955 -0.04 +0.35    -0.507 OA ATOM     22  H   UNL     1      37.956  49.719  14.439 -0.33 -0.28    +0.293 HD ENDBRANCH  17  21ENDBRANCH  10  12ENDBRANCH   5  10ENDBRANCH   2   4ENDBRANCH   1   2BRANCH   1  23ATOM     23  C   UNL     1      39.194  44.359  21.985 -0.23 +0.01    +0.200 CG0ATOM     24  G   UNL     1      40.276  43.900  22.962 +0.00 +0.00    +0.000 G0 BRANCH  23  25ATOM     25  C   UNL     1      37.971  43.423  21.906 -0.32 +0.01    +0.137 C  BRANCH  25  26ATOM     26  C   UNL     1      37.337  43.080  23.269 -0.37 +0.01    +0.109 C  BRANCH  26  27ATOM     27  N   UNL     1      37.312  44.194  24.219 -0.18 -0.03    -0.315 NA ATOM     28  H   UNL     1      36.634  43.975  24.949 +0.06 +0.01    +0.122 HD BRANCH  27  29ATOM     29  C   UNL     1      38.591  44.525  24.855 -0.21 +0.00    +0.081 C  BRANCH  29  30ATOM     30  C   UNL     1      39.837  43.743  24.421 -0.21 +0.00    +0.019 C  BRANCH  30  31ATOM     31  C   UNL     1      40.272  43.902  22.959 -0.25 +0.00    +0.049 CG0ATOM     32  G   UNL     1      39.195  44.363  21.978 +0.00 +0.00    +0.000 G0 ENDBRANCH  30  31ENDBRANCH  29  30ENDBRANCH  27  29ENDBRANCH  26  27ENDBRANCH  25  26BRANCH  25  33ATOM     33  N   UNL     1      36.966  44.018  21.016 -0.19 -0.00    -0.344 N  ATOM     34  C   UNL     1      36.046  43.259  20.335 -0.32 -0.01    +0.251 C  ATOM     35  H   UNL     1      36.776  45.001  21.161 +0.08 +0.01    +0.164 HD ATOM     36  O   UNL     1      36.009  42.036  20.369 -0.34 +0.01    -0.269 OA BRANCH  34  37ATOM     37  C   UNL     1      35.050  44.012  19.537 -0.37 -0.01    +0.042 A  ATOM     38  C   UNL     1      35.493  45.063  18.736 -0.32 -0.01    +0.034 A  ATOM     39  C   UNL     1      33.690  43.713  19.605 -0.40 -0.00    +0.034 A  ATOM     40  C   UNL     1      34.548  45.762  18.008 -0.36 -0.07    +0.112 A  ATOM     41  C   UNL     1      32.827  44.477  18.843 -0.29 -0.02    +0.112 A  ATOM     42  N   UNL     1      33.226  45.489  18.042 -0.22 +0.13    -0.265 NA ENDBRANCH  34  37ENDBRANCH  25  33ENDBRANCH  23  25ENDBRANCH   1  23TORSDOF 9TERENDMDL