MODEL        8USER    Run = 8USERUSER    Estimated Free Energy of Binding    =  -6.96 kcal/mol  [=(1)+(2)+(3)-(4)]USERUSER    (1) Final Intermolecular Energy     = -11.43 kcal/molUSER        vdW + Hbond + desolv Energy     = -11.91 kcal/molUSER        Electrostatic Energy            =  -0.11 kcal/molUSER        Moving Ligand-Fixed Receptor    = -12.02 kcal/molUSER        Moving Ligand-Moving Receptor   =  +0.59 kcal/molUSER    (2) Final Total Internal Energy     =  -2.40 kcal/molUSER    (3) Torsional Free Energy           =  +4.47 kcal/molUSER    (4) Unbound System's Energy         =  -2.40 kcal/molUSERUSERREMARK SMILES COc1ccc(O)c(C(=O)c2ccc(CN[C@@H]3CCCNC[C@H]3NC(=O)c3ccncc3)cc2)c1FREMARK SMILES IDX 16 1 15 3 14 4 11 5 12 6 34 7 13 8 33 9 9 10 10 11 8 12 3 13REMARK SMILES IDX 4 14 35 15 5 16 6 17 36 18 2 19 1 20 7 21 17 23 18 24 23 26REMARK SMILES IDX 22 27 21 28 20 30 19 31 24 33 25 34 26 36 27 37 28 38 32 39REMARK SMILES IDX 29 40 31 41 30 42REMARK H PARENT 16 2 7 22 21 29 24 35REMARK Flexibility Score:   99.900USER                              x       y       z     vdW  Elec       q    TypeUSER                           _______ _______ _______ _____ _____    ______ ____ROOTATOM      1  N   UNL     1      37.316  43.942  18.748 -0.12 +0.04    -0.308 NA ATOM      2  H   UNL     1      37.879  43.989  17.895 +0.07 -0.02    +0.123 HD ENDROOTBRANCH   1   3ATOM      3  C   UNL     1      38.128  44.414  19.871 -0.34 -0.01    +0.117 C  BRANCH   3   4ATOM      4  C   UNL     1      37.691  43.864  21.207 -0.36 -0.00    -0.034 A  ATOM      5  C   UNL     1      36.874  42.860  23.704 -0.37 +0.00    +0.023 A  ATOM      6  C   UNL     1      37.319  44.181  23.593 -0.33 +0.00    +0.012 A  ATOM      7  C   UNL     1      36.862  42.035  22.574 -0.50 +0.00    +0.012 A  ATOM      8  C   UNL     1      37.717  44.679  22.349 -0.35 +0.00    +0.006 A  ATOM      9  C   UNL     1      37.262  42.536  21.333 -0.40 +0.00    +0.006 A  BRANCH   5  10ATOM     10  C   UNL     1      36.481  42.273  25.008 -0.31 -0.01    +0.199 C  ATOM     11  O   UNL     1      35.717  41.306  25.022 -0.19 +0.08    -0.288 OA BRANCH  10  12ATOM     12  C   UNL     1      37.008  42.749  26.305 -0.30 -0.01    +0.104 A  ATOM     13  C   UNL     1      37.206  44.450  28.041 -0.28 -0.03    +0.155 A  ATOM     14  C   UNL     1      38.047  43.605  28.768 -0.05 -0.01    +0.053 A  ATOM     15  C   UNL     1      36.687  44.008  26.814 -0.27 -0.03    +0.179 A  ATOM     16  C   UNL     1      38.347  42.329  28.284 -0.31 -0.01    +0.051 A  ATOM     17  C   UNL     1      37.817  41.900  27.070 -0.32 -0.02    +0.130 A  ATOM     18  F   UNL     1      35.848  44.814  26.143 +0.08 +0.05    -0.202 F  BRANCH  13  19ATOM     19  O   UNL     1      36.825  45.709  28.423 -0.13 +0.10    -0.494 OA ATOM     20  C   UNL     1      37.181  46.785  27.565 -0.20 -0.05    +0.278 C  ENDBRANCH  13  19BRANCH  17  21ATOM     21  O   UNL     1      38.130  40.623  26.686 -0.14 +0.04    -0.507 OA ATOM     22  H   UNL     1      37.415  40.308  26.085 -0.29 -0.12    +0.293 HD ENDBRANCH  17  21ENDBRANCH  10  12ENDBRANCH   5  10ENDBRANCH   3   4ENDBRANCH   1   3BRANCH   1  23ATOM     23  C   UNL     1      36.074  44.733  18.532 -0.35 -0.02    +0.077 C  BRANCH  23  24ATOM     24  C   UNL     1      34.898  43.747  18.554 -0.39 -0.01    +0.022 CG0ATOM     25  G   UNL     1      34.007  43.766  17.313 +0.00 +0.00    +0.000 G0 ENDBRANCH  23  24BRANCH  23  26ATOM     26  C   UNL     1      36.184  45.540  17.200 -0.32 -0.06    +0.113 C  BRANCH  26  27ATOM     27  C   UNL     1      35.033  46.566  17.052 -0.20 -0.12    +0.107 C  BRANCH  27  28ATOM     28  N   UNL     1      33.733  46.254  17.637 -0.20 +0.32    -0.315 NA ATOM     29  H   UNL     1      33.083  47.015  17.427 -0.51 -0.23    +0.122 HD BRANCH  28  30ATOM     30  C   UNL     1      33.107  44.996  17.256 -0.33 -0.04    +0.081 C  BRANCH  30  31ATOM     31  C   UNL     1      34.007  43.765  17.313 -0.36 -0.01    +0.017 CG0ATOM     32  G   UNL     1      34.901  43.738  18.552 +0.00 +0.00    +0.000 G0 ENDBRANCH  30  31ENDBRANCH  28  30ENDBRANCH  27  28ENDBRANCH  26  27BRANCH  26  33ATOM     33  N   UNL     1      37.481  46.243  17.155 -0.16 +0.14    -0.346 N  ATOM     34  C   UNL     1      37.809  47.084  16.113 -0.28 -0.14    +0.251 C  ATOM     35  H   UNL     1      38.086  46.157  17.959 +0.08 -0.04    +0.164 HD ATOM     36  O   UNL     1      37.105  47.232  15.122 -0.27 +0.18    -0.269 OA BRANCH  34  37ATOM     37  C   UNL     1      39.102  47.807  16.219 -0.43 -0.02    +0.042 A  ATOM     38  C   UNL     1      40.008  47.393  17.195 -0.45 -0.01    +0.034 A  ATOM     39  C   UNL     1      39.443  48.853  15.360 -0.50 -0.02    +0.034 A  ATOM     40  C   UNL     1      41.212  48.064  17.293 -0.41 -0.01    +0.112 A  ATOM     41  C   UNL     1      40.675  49.458  15.539 -0.54 -0.03    +0.112 A  ATOM     42  N   UNL     1      41.559  49.094  16.491 -0.90 -0.02    -0.265 NA ENDBRANCH  34  37ENDBRANCH  26  33ENDBRANCH  23  26ENDBRANCH   1  23TORSDOF 9TERENDMDL