MODEL        8USER    Run = 8USERUSER    Estimated Free Energy of Binding    =  -7.41 kcal/mol  [=(1)+(2)+(3)-(4)]USERUSER    (1) Final Intermolecular Energy     = -11.88 kcal/molUSER        vdW + Hbond + desolv Energy     = -11.85 kcal/molUSER        Electrostatic Energy            =  -0.10 kcal/molUSER        Moving Ligand-Fixed Receptor    = -11.95 kcal/molUSER        Moving Ligand-Moving Receptor   =  +0.07 kcal/molUSER    (2) Final Total Internal Energy     =  -3.33 kcal/molUSER    (3) Torsional Free Energy           =  +4.47 kcal/molUSER    (4) Unbound System's Energy         =  -3.33 kcal/molUSERUSERREMARK SMILES COc1ccc(O)c(C(=O)c2ccc(CO[C@@H]3CCCNC[C@@H]3NC(=O)c3ccncc3)cc2)c1FREMARK SMILES IDX 16 1 15 2 14 3 11 4 12 5 34 6 13 7 33 8 9 9 10 10 8 11 3 12REMARK SMILES IDX 4 13 35 14 5 15 6 16 36 17 2 18 1 19 7 20 17 22 18 23 23 25REMARK SMILES IDX 22 26 21 27 20 29 19 30 24 32 25 33 26 35 27 36 28 37 32 38REMARK SMILES IDX 29 39 31 40 30 41REMARK H PARENT 7 21 21 28 24 34REMARK Flexibility Score:   99.900USER                              x       y       z     vdW  Elec       q    TypeUSER                           _______ _______ _______ _____ _____    ______ ____ROOTATOM      1  O   UNL     1      36.389  44.865  19.443 -0.14 +0.05    -0.371 OA ENDROOTBRANCH   1   2ATOM      2  C   UNL     1      37.358  43.829  19.592 -0.25 -0.02    +0.196 C  BRANCH   2   3ATOM      3  C   UNL     1      37.578  43.598  21.064 -0.36 -0.00    -0.022 A  ATOM      4  C   UNL     1      37.956  43.157  23.813 -0.31 +0.00    +0.023 A  ATOM      5  C   UNL     1      37.437  42.139  23.007 -0.43 +0.00    +0.012 A  ATOM      6  C   UNL     1      38.317  44.381  23.241 -0.30 +0.00    +0.012 A  ATOM      7  C   UNL     1      37.244  42.364  21.642 -0.44 +0.00    +0.007 A  ATOM      8  C   UNL     1      38.123  44.602  21.875 -0.36 +0.00    +0.007 A  BRANCH   4   9ATOM      9  C   UNL     1      38.211  42.954  25.260 -0.20 +0.00    +0.199 C  ATOM     10  O   UNL     1      39.363  43.064  25.686 -0.11 +0.00    -0.288 OA BRANCH   9  11ATOM     11  C   UNL     1      37.159  42.560  26.221 -0.29 -0.01    +0.104 A  ATOM     12  C   UNL     1      35.073  42.991  27.408 -0.45 -0.04    +0.155 A  ATOM     13  C   UNL     1      35.183  41.752  28.045 -0.42 -0.02    +0.053 A  ATOM     14  C   UNL     1      36.070  43.386  26.505 -0.30 -0.02    +0.179 A  ATOM     15  C   UNL     1      36.286  40.932  27.794 -0.52 -0.02    +0.051 A  ATOM     16  C   UNL     1      37.272  41.341  26.900 -0.35 -0.03    +0.130 A  ATOM     17  F   UNL     1      35.972  44.594  25.926 -0.07 +0.03    -0.202 F  BRANCH  12  18ATOM     18  O   UNL     1      34.051  43.884  27.585 -0.23 +0.06    -0.494 OA ATOM     19  C   UNL     1      34.062  44.662  28.775 -0.43 -0.05    +0.278 C  ENDBRANCH  12  18BRANCH  16  20ATOM     20  O   UNL     1      38.333  40.492  26.735 -0.12 +0.02    -0.507 OA ATOM     21  H   UNL     1      39.113  41.032  26.468 +0.13 -0.00    +0.293 HD ENDBRANCH  16  20ENDBRANCH   9  11ENDBRANCH   4   9ENDBRANCH   2   3ENDBRANCH   1   2BRANCH   1  22ATOM     22  C   UNL     1      35.491  44.655  18.332 -0.31 -0.04    +0.142 C  BRANCH  22  23ATOM     23  C   UNL     1      35.790  43.227  17.855 -0.36 -0.01    +0.035 CG0ATOM     24  G   UNL     1      35.299  42.781  16.482 +0.00 +0.00    +0.000 G0 ENDBRANCH  22  23BRANCH  22  25ATOM     25  C   UNL     1      35.700  45.777  17.286 -0.33 -0.08    +0.125 C  BRANCH  25  26ATOM     26  C   UNL     1      35.129  45.363  15.907 -0.31 -0.08    +0.108 C  BRANCH  26  27ATOM     27  N   UNL     1      36.029  44.638  15.012 -0.15 +0.14    -0.315 NA ATOM     28  H   UNL     1      36.944  45.089  15.042 +0.09 -0.05    +0.122 HD BRANCH  27  29ATOM     29  C   UNL     1      36.147  43.215  15.295 -0.32 -0.03    +0.081 C  BRANCH  29  30ATOM     30  C   UNL     1      35.299  42.781  16.482 -0.50 -0.01    +0.018 CG0ATOM     31  G   UNL     1      35.789  43.226  17.856 +0.00 +0.00    +0.000 G0 ENDBRANCH  29  30ENDBRANCH  27  29ENDBRANCH  26  27ENDBRANCH  25  26BRANCH  25  32ATOM     32  N   UNL     1      37.103  46.215  17.250 -0.15 +0.16    -0.345 N  ATOM     33  C   UNL     1      37.586  46.990  16.216 -0.26 -0.14    +0.251 C  ATOM     34  H   UNL     1      37.511  46.392  18.160 +0.08 -0.05    +0.164 HD ATOM     35  O   UNL     1      36.935  47.275  15.219 -0.28 +0.20    -0.269 OA BRANCH  33  36ATOM     36  C   UNL     1      38.966  47.519  16.380 -0.41 -0.02    +0.042 A  ATOM     37  C   UNL     1      39.750  47.014  17.418 -0.43 -0.01    +0.034 A  ATOM     38  C   UNL     1      39.478  48.520  15.555 -0.52 -0.01    +0.034 A  ATOM     39  C   UNL     1      41.026  47.522  17.577 -0.44 -0.01    +0.112 A  ATOM     40  C   UNL     1      40.767  48.963  15.799 -0.52 -0.02    +0.112 A  ATOM     41  N   UNL     1      41.551  48.483  16.787 -0.76 -0.00    -0.265 NA ENDBRANCH  33  36ENDBRANCH  25  32ENDBRANCH  22  25ENDBRANCH   1  22TORSDOF 9TERENDMDL