MODEL        6USER    Run = 6USERUSER    Estimated Free Energy of Binding    =  -6.80 kcal/mol  [=(1)+(2)+(3)-(4)]USERUSER    (1) Final Intermolecular Energy     = -11.28 kcal/molUSER        vdW + Hbond + desolv Energy     = -12.27 kcal/molUSER        Electrostatic Energy            =  -0.28 kcal/molUSER        Moving Ligand-Fixed Receptor    = -12.55 kcal/molUSER        Moving Ligand-Moving Receptor   =  +1.27 kcal/molUSER    (2) Final Total Internal Energy     =  -2.74 kcal/molUSER    (3) Torsional Free Energy           =  +4.47 kcal/molUSER    (4) Unbound System's Energy         =  -2.74 kcal/molUSERUSERREMARK SMILES COc1ccc(O)c(C(=O)c2ccc(/C=C/[C@@H]3CCCNC[C@H]3NC(=O)c3ccncc3)cc2)c1FREMARK SMILES IDX 16 1 15 2 14 3 11 4 12 5 34 6 13 7 33 8 9 9 10 10 8 11 3 12REMARK SMILES IDX 4 13 35 14 5 15 6 16 36 17 2 18 1 19 7 20 17 22 18 23 23 25REMARK SMILES IDX 22 26 21 27 20 29 19 30 24 32 25 33 26 35 27 36 28 37 32 38REMARK SMILES IDX 29 39 31 40 30 41REMARK H PARENT 7 21 21 28 24 34REMARK Flexibility Score:   99.900USER                              x       y       z     vdW  Elec       q    TypeUSER                           _______ _______ _______ _____ _____    ______ ____ROOTATOM      1  C   UNL     1      39.304  47.188  15.672 -0.53 +0.01    -0.021 C  ENDROOTBRANCH   1   2ATOM      2  C   UNL     1      40.174  46.288  16.155 -0.49 -0.00    +0.004 C  BRANCH   2   3ATOM      3  C   UNL     1      40.861  46.438  17.445 -0.46 +0.00    -0.026 A  ATOM      4  C   UNL     1      42.191  46.644  19.908 -0.43 +0.00    +0.023 A  ATOM      5  C   UNL     1      41.499  45.473  19.585 -0.39 +0.00    +0.013 A  ATOM      6  C   UNL     1      42.254  47.696  18.989 -0.37 +0.00    +0.013 A  ATOM      7  C   UNL     1      40.841  45.373  18.354 -0.46 -0.00    +0.009 A  ATOM      8  C   UNL     1      41.584  47.594  17.767 -0.44 -0.00    +0.009 A  BRANCH   4   9ATOM      9  C   UNL     1      42.924  46.775  21.185 -0.30 +0.06    +0.199 C  ATOM     10  O   UNL     1      44.116  46.465  21.220 -0.45 -0.24    -0.288 OA BRANCH   9  11ATOM     11  C   UNL     1      42.278  47.215  22.442 -0.22 +0.02    +0.104 A  ATOM     12  C   UNL     1      40.421  47.159  24.022 -0.18 +0.01    +0.155 A  ATOM     13  C   UNL     1      41.089  48.077  24.834 -0.26 +0.01    +0.053 A  ATOM     14  C   UNL     1      41.023  46.738  22.827 -0.13 +0.02    +0.179 A  ATOM     15  C   UNL     1      42.332  48.583  24.443 -0.33 +0.01    +0.051 A  ATOM     16  C   UNL     1      42.913  48.164  23.250 -0.30 +0.03    +0.130 A  ATOM     17  F   UNL     1      40.353  45.884  22.036 -0.06 -0.01    -0.202 F  BRANCH  12  18ATOM     18  O   UNL     1      39.195  46.610  24.289 -0.08 -0.05    -0.494 OA ATOM     19  C   UNL     1      39.151  45.217  24.569 -0.11 +0.01    +0.278 C  ENDBRANCH  12  18BRANCH  16  20ATOM     20  O   UNL     1      44.117  48.733  22.929 -0.40 -0.14    -0.507 OA ATOM     21  H   UNL     1      44.331  48.480  22.001 -0.45 +0.03    +0.293 HD ENDBRANCH  16  20ENDBRANCH   9  11ENDBRANCH   4   9ENDBRANCH   2   3ENDBRANCH   1   2BRANCH   1  22ATOM     22  C   UNL     1      38.024  46.876  14.900 -0.47 -0.01    +0.035 C  BRANCH  22  23ATOM     23  C   UNL     1      38.083  47.687  13.591 -0.57 -0.00    +0.011 CG0ATOM     24  G   UNL     1      37.440  47.095  12.342 +0.00 +0.00    +0.000 G0 ENDBRANCH  22  23BRANCH  22  25ATOM     25  C   UNL     1      36.684  47.023  15.684 -0.38 -0.08    +0.103 C  BRANCH  25  26ATOM     26  C   UNL     1      35.496  46.405  14.891 -0.34 -0.10    +0.106 C  BRANCH  26  27ATOM     27  N   UNL     1      35.781  45.777  13.606 -0.21 +0.17    -0.315 NA ATOM     28  H   UNL     1      35.040  45.110  13.384 +0.14 -0.06    +0.122 HD BRANCH  27  29ATOM     29  C   UNL     1      35.986  46.697  12.498 -0.65 -0.04    +0.081 C  BRANCH  29  30ATOM     30  C   UNL     1      37.445  47.100  12.344 -0.61 -0.00    +0.016 CG0ATOM     31  G   UNL     1      38.096  47.698  13.585 +0.00 +0.00    +0.000 G0 ENDBRANCH  29  30ENDBRANCH  27  29ENDBRANCH  26  27ENDBRANCH  25  26BRANCH  25  32ATOM     32  N   UNL     1      36.758  46.366  16.997 -0.14 +0.20    -0.347 N  ATOM     33  C   UNL     1      36.905  45.003  17.120 -0.23 -0.09    +0.251 C  ATOM     34  H   UNL     1      36.892  46.954  17.809 +0.11 -0.09    +0.164 HD ATOM     35  O   UNL     1      36.979  44.240  16.166 -0.23 +0.09    -0.269 OA BRANCH  33  36ATOM     36  C   UNL     1      37.005  44.479  18.506 -0.32 -0.01    +0.042 A  ATOM     37  C   UNL     1      38.004  44.906  19.381 -0.32 -0.00    +0.034 A  ATOM     38  C   UNL     1      36.048  43.563  18.939 -0.33 -0.01    +0.034 A  ATOM     39  C   UNL     1      38.015  44.369  20.655 -0.30 -0.00    +0.112 A  ATOM     40  C   UNL     1      36.149  43.085  20.232 -0.36 -0.00    +0.112 A  ATOM     41  N   UNL     1      37.118  43.461  21.095 -0.23 -0.00    -0.265 NA ENDBRANCH  33  36ENDBRANCH  25  32ENDBRANCH  22  25ENDBRANCH   1  22TORSDOF 9TERENDMDL