MODEL        8USER    Run = 8USERUSER    Estimated Free Energy of Binding    =  -6.76 kcal/mol  [=(1)+(2)+(3)-(4)]USERUSER    (1) Final Intermolecular Energy     = -10.94 kcal/molUSER        vdW + Hbond + desolv Energy     = -11.25 kcal/molUSER        Electrostatic Energy            =  -0.24 kcal/molUSER        Moving Ligand-Fixed Receptor    = -11.49 kcal/molUSER        Moving Ligand-Moving Receptor   =  +0.55 kcal/molUSER    (2) Final Total Internal Energy     =  -3.07 kcal/molUSER    (3) Torsional Free Energy           =  +4.18 kcal/molUSER    (4) Unbound System's Energy         =  -3.07 kcal/molUSERUSERREMARK SMILES COc1ccc(O)c(C(=O)c2ccc(C(=O)N[C@@H]3CCCNC[C@H]3NC(=O)c3ccncc3)cc2)c1FREMARK SMILES IDX 15 1 16 2 17 3 14 5 11 6 12 7 35 8 13 9 34 10 9 11 10 12REMARK SMILES IDX 8 13 3 14 4 15 36 16 5 17 6 18 37 19 2 20 1 21 7 22 18 24REMARK SMILES IDX 19 25 24 27 23 28 22 29 21 31 20 32 25 34 26 35 27 37 28 38REMARK SMILES IDX 29 39 33 40 30 41 32 42 31 43REMARK H PARENT 17 4 7 23 22 30 25 36REMARK Flexibility Score:   88.900USER                              x       y       z     vdW  Elec       q    TypeUSER                           _______ _______ _______ _____ _____    ______ ____ROOTATOM      1  C   UNL     1      38.740  45.565  17.144 -0.28 -0.05    +0.251 C  ATOM      2  O   UNL     1      38.242  44.453  17.005 -0.20 +0.06    -0.269 OA ATOM      3  N   UNL     1      38.391  46.654  16.371 -0.17 +0.13    -0.347 N  ATOM      4  H   UNL     1      38.986  47.470  16.405 +0.11 -0.06    +0.164 HD ENDROOTBRANCH   1   5ATOM      5  C   UNL     1      39.831  45.782  18.135 -0.42 -0.00    +0.039 A  ATOM      6  C   UNL     1      41.888  46.325  19.961 -0.40 +0.00    +0.023 A  ATOM      7  C   UNL     1      41.880  46.948  18.710 -0.54 +0.00    +0.013 A  ATOM      8  C   UNL     1      40.868  45.429  20.300 -0.38 +0.00    +0.013 A  ATOM      9  C   UNL     1      40.861  46.668  17.795 -0.50 -0.00    +0.014 A  ATOM     10  C   UNL     1      39.845  45.148  19.384 -0.41 -0.00    +0.014 A  BRANCH   6  11ATOM     11  C   UNL     1      42.942  46.714  20.923 -0.31 +0.06    +0.199 C  ATOM     12  O   UNL     1      43.944  47.281  20.486 -0.40 -0.15    -0.288 OA BRANCH  11  13ATOM     13  C   UNL     1      42.847  46.508  22.387 -0.21 +0.02    +0.104 A  ATOM     14  C   UNL     1      42.681  45.063  24.347 -0.04 +0.01    +0.155 A  ATOM     15  C   UNL     1      42.681  46.187  25.178 -0.05 +0.00    +0.053 A  ATOM     16  C   UNL     1      42.768  45.236  22.955 -0.10 +0.03    +0.179 A  ATOM     17  C   UNL     1      42.787  47.465  24.623 -0.16 +0.01    +0.051 A  ATOM     18  C   UNL     1      42.884  47.620  23.242 -0.24 +0.02    +0.130 A  ATOM     19  F   UNL     1      42.804  44.144  22.175 -0.07 -0.04    -0.202 F  BRANCH  14  20ATOM     20  O   UNL     1      42.598  43.764  24.774 -0.00 -0.00    -0.494 OA ATOM     21  C   UNL     1      41.357  43.093  24.576 -0.10 -0.01    +0.278 C  ENDBRANCH  14  20BRANCH  18  22ATOM     22  O   UNL     1      43.016  48.907  22.791 -0.73 -0.15    -0.507 OA ATOM     23  H   UNL     1      43.475  48.867  21.918 -0.42 -0.01    +0.293 HD ENDBRANCH  18  22ENDBRANCH  11  13ENDBRANCH   6  11ENDBRANCH   1   5BRANCH   3  24ATOM     24  C   UNL     1      37.538  46.493  15.186 -0.38 -0.05    +0.106 C  BRANCH  24  25ATOM     25  C   UNL     1      38.076  47.358  14.039 -0.55 -0.01    +0.028 CG0ATOM     26  G   UNL     1      37.791  46.836  12.621 +0.00 +0.00    +0.000 G0 ENDBRANCH  24  25BRANCH  24  27ATOM     27  C   UNL     1      36.052  46.777  15.547 -0.31 -0.11    +0.118 C  BRANCH  27  28ATOM     28  C   UNL     1      35.058  46.640  14.369 -0.26 -0.11    +0.108 C  BRANCH  28  29ATOM     29  N   UNL     1      35.514  45.896  13.191 -0.19 +0.18    -0.315 NA ATOM     30  H   UNL     1      36.006  45.054  13.482 +0.08 -0.05    +0.122 HD BRANCH  29  31ATOM     31  C   UNL     1      36.331  46.638  12.237 -0.68 -0.04    +0.081 C  BRANCH  31  32ATOM     32  C   UNL     1      37.795  46.833  12.622 -0.40 -0.00    +0.017 CG0ATOM     33  G   UNL     1      38.078  47.354  14.041 +0.00 +0.00    +0.000 G0 ENDBRANCH  31  32ENDBRANCH  29  31ENDBRANCH  28  29ENDBRANCH  27  28BRANCH  27  34ATOM     34  N   UNL     1      35.640  45.944  16.684 -0.13 +0.26    -0.346 N  ATOM     35  C   UNL     1      35.426  44.592  16.546 -0.21 -0.12    +0.251 C  ATOM     36  H   UNL     1      35.787  46.322  17.606 +0.10 -0.11    +0.164 HD ATOM     37  O   UNL     1      35.470  44.003  15.474 -0.25 +0.11    -0.269 OA BRANCH  35  38ATOM     38  C   UNL     1      35.158  43.837  17.795 -0.28 -0.01    +0.042 A  ATOM     39  C   UNL     1      35.880  44.175  18.940 -0.34 -0.01    +0.034 A  ATOM     40  C   UNL     1      34.233  42.793  17.844 -0.35 -0.01    +0.034 A  ATOM     41  C   UNL     1      35.629  43.466  20.098 -0.35 -0.01    +0.112 A  ATOM     42  C   UNL     1      34.056  42.144  19.053 -0.33 -0.01    +0.112 A  ATOM     43  N   UNL     1      34.730  42.461  20.181 -0.43 -0.02    -0.265 NA ENDBRANCH  35  38ENDBRANCH  27  34ENDBRANCH  24  27ENDBRANCH   3  24TORSDOF 8TERENDMDL