MODEL        5USER    Run = 5USERUSER    Estimated Free Energy of Binding    = -12.84 kcal/mol  [=(1)+(2)+(3)-(4)]USERUSER    (1) Final Intermolecular Energy     = -14.63 kcal/molUSER        vdW + Hbond + desolv Energy     = -14.62 kcal/molUSER        Electrostatic Energy            =  -0.02 kcal/molUSER        Moving Ligand-Fixed Receptor    = -14.63 kcal/molUSER        Moving Ligand-Moving Receptor   =  +0.00 kcal/molUSER    (2) Final Total Internal Energy     =  -2.06 kcal/molUSER    (3) Torsional Free Energy           =  +1.79 kcal/molUSER    (4) Unbound System's Energy         =  -2.06 kcal/molUSERUSERREMARK SMILES Oc1nc2ccccc2n1C1CCN(Cc2ccc(-c3nc4ccccc4nc3-c3ccccc3)cc2)CC1REMARK SMILES IDX 11 1 12 2 13 3 14 4 38 5 39 6 10 7 2 8 3 9 4 10 9 11 5 12REMARK SMILES IDX 8 13 6 14 7 15 1 16 15 18 16 19 17 20 37 21 18 22 36 23REMARK SMILES IDX 19 24 20 25 21 26 29 27 22 28 28 29 23 30 27 31 24 32 26 33REMARK SMILES IDX 25 34 30 35 31 36 35 37 32 38 34 39 33 40REMARK H PARENT 1 17USER                              x       y       z     vdW  Elec       q    TypeUSER                           _______ _______ _______ _____ _____    ______ ____ROOTATOM      1  C   UNL     1      39.383  47.286  15.876 -0.48 -0.03    +0.095 C  ATOM      2  C   UNL     1      38.028  46.949  16.521 -0.41 -0.02    +0.041 C  ATOM      3  C   UNL     1      36.868  47.633  15.799 -0.33 -0.08    +0.087 C  ATOM      4  N   UNL     1      36.960  47.570  14.337 -0.25 +0.19    -0.299 NA ATOM      5  C   UNL     1      38.217  48.134  13.819 -0.50 -0.03    +0.087 C  ATOM      6  C   UNL     1      39.271  48.451  14.886 -0.58 -0.02    +0.041 C  ENDROOTBRANCH   1   7ATOM      7  N   UNL     1      40.438  47.476  16.860 -0.31 +0.05    -0.291 N  ATOM      8  C   UNL     1      41.341  48.502  16.896 -0.20 -0.01    +0.295 A  ATOM      9  N   UNL     1      42.172  48.426  17.897 -0.52 -0.01    -0.195 NA ATOM     10  C   UNL     1      41.792  47.290  18.569 -0.46 -0.00    +0.092 A  ATOM     11  C   UNL     1      40.704  46.671  17.949 -0.46 -0.01    +0.072 A  ATOM     12  C   UNL     1      42.335  46.725  19.734 -0.43 +0.01    +0.031 A  ATOM     13  C   UNL     1      40.121  45.498  18.449 -0.44 -0.00    +0.029 A  ATOM     14  C   UNL     1      41.767  45.552  20.246 -0.36 +0.00    +0.002 A  ATOM     15  C   UNL     1      40.679  44.952  19.612 -0.41 +0.00    +0.002 A  BRANCH   8  16ATOM     16  O   UNL     1      41.387  49.493  16.029 -0.85 +0.02    -0.480 OA ATOM     17  H   UNL     1      41.359  50.267  16.620 +0.07 -0.04    +0.296 HD ENDBRANCH   8  16ENDBRANCH   1   7BRANCH   4  18ATOM     18  C   UNL     1      36.693  46.234  13.776 -0.44 -0.06    +0.120 C  BRANCH  18  19ATOM     19  C   UNL     1      35.965  45.306  14.723 -0.35 +0.02    -0.034 A  ATOM     20  C   UNL     1      34.673  45.609  15.169 -0.33 -0.01    +0.006 A  ATOM     21  C   UNL     1      36.579  44.134  15.183 -0.36 -0.00    +0.006 A  ATOM     22  C   UNL     1      34.004  44.744  16.042 -0.31 -0.01    +0.011 A  ATOM     23  C   UNL     1      35.908  43.272  16.053 -0.44 -0.00    +0.011 A  ATOM     24  C   UNL     1      34.601  43.552  16.486 -0.37 -0.00    +0.002 A  BRANCH  24  25ATOM     25  C   UNL     1      33.873  42.646  17.389 -0.31 -0.03    +0.097 A  ATOM     26  N   UNL     1      32.777  42.066  16.818 -0.07 +0.13    -0.244 NA ATOM     27  C   UNL     1      34.220  42.387  18.724 -0.34 -0.02    +0.097 A  ATOM     28  C   UNL     1      32.025  41.266  17.594 -0.29 -0.03    +0.089 A  ATOM     29  N   UNL     1      33.443  41.584  19.507 -0.26 -0.02    -0.244 NA ATOM     30  C   UNL     1      30.893  40.662  17.059 -0.30 -0.01    +0.030 A  ATOM     31  C   UNL     1      32.358  41.026  18.945 -0.32 +0.00    +0.089 A  ATOM     32  C   UNL     1      30.082  39.827  17.829 -0.35 +0.00    +0.002 A  ATOM     33  C   UNL     1      31.544  40.194  19.704 -0.28 +0.00    +0.030 A  ATOM     34  C   UNL     1      30.410  39.592  19.159 -0.30 +0.00    +0.002 A  BRANCH  27  35ATOM     35  C   UNL     1      35.417  42.908  19.409 -0.42 -0.00    +0.002 A  ATOM     36  C   UNL     1      35.927  44.178  19.080 -0.37 -0.00    +0.010 A  ATOM     37  C   UNL     1      36.071  42.185  20.422 -0.47 -0.00    +0.010 A  ATOM     38  C   UNL     1      37.059  44.693  19.719 -0.25 -0.00    +0.001 A  ATOM     39  C   UNL     1      37.205  42.696  21.059 -0.38 +0.00    +0.001 A  ATOM     40  C   UNL     1      37.700  43.949  20.706 -0.37 -0.00    +0.000 A  ENDBRANCH  27  35ENDBRANCH  24  25ENDBRANCH  18  19ENDBRANCH   4  18TORSDOF 6TERENDMDL