MODEL        4USER    Run = 4USERUSER    Estimated Free Energy of Binding    =  -6.74 kcal/mol  [=(1)+(2)+(3)-(4)]USERUSER    (1) Final Intermolecular Energy     = -11.22 kcal/molUSER        vdW + Hbond + desolv Energy     = -11.79 kcal/molUSER        Electrostatic Energy            =  -0.20 kcal/molUSER        Moving Ligand-Fixed Receptor    = -11.99 kcal/molUSER        Moving Ligand-Moving Receptor   =  +0.77 kcal/molUSER    (2) Final Total Internal Energy     =  -1.84 kcal/molUSER    (3) Torsional Free Energy           =  +4.47 kcal/molUSER    (4) Unbound System's Energy         =  -1.84 kcal/molUSERUSERREMARK SMILES COc1ccc(O)c(C(=O)c2ccc(NC[C@@H]3CCCNC[C@@H]3NC(=O)c3ccncc3)cc2)c1FREMARK SMILES IDX 16 1 15 2 14 4 11 5 12 6 34 7 13 8 33 9 9 10 10 11 8 12 3 13REMARK SMILES IDX 4 14 35 15 5 16 6 17 36 18 2 19 1 20 7 21 17 23 18 24 23 26REMARK SMILES IDX 22 27 21 28 20 30 19 31 24 33 25 34 26 36 27 37 28 38 32 39REMARK SMILES IDX 29 40 31 41 30 42REMARK H PARENT 15 3 7 22 21 29 24 35REMARK Flexibility Score:   99.900USER                              x       y       z     vdW  Elec       q    TypeUSER                           _______ _______ _______ _____ _____    ______ ____ROOTATOM      1  C   UNL     1      37.320  44.023  23.269 -0.33 +0.01    +0.118 C  ENDROOTBRANCH   1   2ATOM      2  N   UNL     1      37.508  43.425  21.944 -0.14 -0.02    -0.385 N  ATOM      3  H   UNL     1      37.558  42.411  21.965 +0.10 +0.01    +0.160 HD BRANCH   2   4ATOM      4  C   UNL     1      38.309  44.005  20.965 -0.32 +0.00    +0.034 A  ATOM      5  C   UNL     1      39.830  45.324  18.975 -0.42 -0.00    +0.023 A  ATOM      6  C   UNL     1      40.465  44.663  20.029 -0.37 +0.00    +0.014 A  ATOM      7  C   UNL     1      38.436  45.378  18.943 -0.35 -0.00    +0.014 A  ATOM      8  C   UNL     1      39.708  44.018  21.016 -0.21 +0.00    +0.026 A  ATOM      9  C   UNL     1      37.691  44.727  19.935 -0.30 -0.00    +0.026 A  BRANCH   5  10ATOM     10  C   UNL     1      40.668  46.022  17.971 -0.41 -0.01    +0.199 C  ATOM     11  O   UNL     1      41.894  45.996  18.092 -0.30 -0.00    -0.288 OA BRANCH  10  12ATOM     12  C   UNL     1      40.107  46.803  16.847 -0.41 -0.02    +0.104 A  ATOM     13  C   UNL     1      38.524  47.086  15.013 -0.33 -0.06    +0.155 A  ATOM     14  C   UNL     1      39.074  48.339  14.735 -0.49 -0.02    +0.053 A  ATOM     15  C   UNL     1      39.054  46.324  16.066 -0.29 -0.05    +0.179 A  ATOM     16  C   UNL     1      40.150  48.814  15.489 -0.55 -0.02    +0.051 A  ATOM     17  C   UNL     1      40.670  48.044  16.526 -0.45 -0.02    +0.130 A  ATOM     18  F   UNL     1      38.545  45.103  16.296 -0.05 +0.05    -0.202 F  BRANCH  13  19ATOM     19  O   UNL     1      37.484  46.508  14.334 -0.07 +0.21    -0.494 OA ATOM     20  C   UNL     1      36.705  47.352  13.495 -0.41 -0.14    +0.278 C  ENDBRANCH  13  19BRANCH  17  21ATOM     21  O   UNL     1      41.744  48.569  17.193 -0.63 -0.03    -0.507 OA ATOM     22  H   UNL     1      42.451  47.884  17.214 -0.32 -0.03    +0.293 HD ENDBRANCH  17  21ENDBRANCH  10  12ENDBRANCH   5  10ENDBRANCH   2   4ENDBRANCH   1   2BRANCH   1  23ATOM     23  C   UNL     1      38.177  43.318  24.350 -0.31 +0.00    +0.032 C  BRANCH  23  24ATOM     24  C   UNL     1      37.409  42.113  24.932 -0.41 -0.00    +0.009 CG0ATOM     25  G   UNL     1      37.147  42.068  26.437 +0.00 +0.00    +0.000 G0 ENDBRANCH  23  24BRANCH  23  26ATOM     26  C   UNL     1      38.685  44.345  25.389 -0.18 +0.00    +0.101 C  BRANCH  26  27ATOM     27  C   UNL     1      37.514  45.092  26.069 -0.30 -0.00    +0.106 C  BRANCH  27  28ATOM     28  N   UNL     1      36.247  44.350  26.122 -0.19 +0.04    -0.315 NA ATOM     29  H   UNL     1      35.533  44.989  26.478 -0.42 -0.05    +0.122 HD BRANCH  28  30ATOM     30  C   UNL     1      36.301  43.193  27.017 -0.44 -0.02    +0.081 C  BRANCH  30  31ATOM     31  C   UNL     1      37.152  42.068  26.440 -0.45 -0.00    +0.016 CG0ATOM     32  G   UNL     1      37.418  42.112  24.936 +0.00 +0.00    +0.000 G0 ENDBRANCH  30  31ENDBRANCH  28  30ENDBRANCH  27  28ENDBRANCH  26  27BRANCH  26  33ATOM     33  N   UNL     1      39.622  45.315  24.826 -0.02 -0.01    -0.348 N  ATOM     34  C   UNL     1      40.087  46.405  25.522 -0.09 +0.01    +0.251 C  ATOM     35  H   UNL     1      39.815  45.195  23.840 +0.08 +0.01    +0.164 HD ATOM     36  O   UNL     1      39.749  46.657  26.672 -0.19 -0.01    -0.269 OA BRANCH  34  37ATOM     37  C   UNL     1      41.025  47.308  24.804 -0.18 +0.00    +0.042 A  ATOM     38  C   UNL     1      42.082  46.731  24.098 -0.14 +0.00    +0.034 A  ATOM     39  C   UNL     1      40.866  48.694  24.788 -0.29 +0.01    +0.034 A  ATOM     40  C   UNL     1      42.952  47.567  23.425 -0.23 +0.02    +0.112 A  ATOM     41  C   UNL     1      41.792  49.444  24.083 -0.09 +0.03    +0.112 A  ATOM     42  N   UNL     1      42.831  48.913  23.408 -0.87 -0.08    -0.265 NA ENDBRANCH  34  37ENDBRANCH  26  33ENDBRANCH  23  26ENDBRANCH   1  23TORSDOF 9TERENDMDL