MODEL        8USER    Run = 8USERUSER    Estimated Free Energy of Binding    =  -9.29 kcal/mol  [=(1)+(2)+(3)-(4)]USERUSER    (1) Final Intermolecular Energy     = -11.08 kcal/molUSER        vdW + Hbond + desolv Energy     = -11.00 kcal/molUSER        Electrostatic Energy            =  -0.07 kcal/molUSER        Moving Ligand-Fixed Receptor    = -11.08 kcal/molUSER        Moving Ligand-Moving Receptor   =  +0.00 kcal/molUSER    (2) Final Total Internal Energy     =  -1.60 kcal/molUSER    (3) Torsional Free Energy           =  +1.79 kcal/molUSER    (4) Unbound System's Energy         =  -1.60 kcal/molUSERUSERREMARK SMILES CNc1ccc2c(n1)N=C2C(=O)Nc1ccc(O)c(CN2CCN(C)CC2)c1FREMARK SMILES IDX 14 1 15 2 16 3 17 4 19 5 28 6 29 7 13 8 11 9 12 10 10 12REMARK SMILES IDX 3 13 4 14 8 15 5 16 7 17 6 18 9 19 2 20 1 21 20 23 21 24REMARK SMILES IDX 22 25 27 26 23 27 26 28 24 29 25 30 18 31REMARK H PARENT 13 11 2 22 18 32USER                              x       y       z     vdW  Elec       q    TypeUSER                           _______ _______ _______ _____ _____    ______ ____ROOTATOM      1  C   UNL     1      37.888  44.357  20.045 -0.32 -0.00    +0.078 A  ATOM      2  C   UNL     1      36.854  43.616  19.474 -0.32 -0.00    +0.033 A  ATOM      3  C   UNL     1      36.168  42.667  20.238 -0.42 -0.00    +0.049 A  ATOM      4  C   UNL     1      36.524  42.453  21.574 -0.40 +0.01    +0.123 A  ATOM      5  C   UNL     1      37.572  43.165  22.168 -0.36 +0.00    +0.046 A  ATOM      6  C   UNL     1      38.229  44.123  21.385 -0.26 +0.00    +0.154 A  ATOM      7  F   UNL     1      39.236  44.831  21.922 -0.06 -0.01    -0.204 F  ENDROOTBRANCH   1   8ATOM      8  N   UNL     1      38.622  45.341  19.355 -0.19 +0.02    -0.318 N  ATOM      9  C   UNL     1      38.810  45.455  18.002 -0.28 -0.04    +0.275 C  ATOM     10  O   UNL     1      38.421  44.742  17.095 -0.22 +0.05    -0.267 OA ATOM     11  H   UNL     1      39.078  46.047  19.931 +0.08 -0.00    +0.170 HD BRANCH   9  12ATOM     12  C   UNL     1      39.630  46.624  17.645 -0.42 -0.03    +0.142 C  ATOM     13  C   UNL     1      41.078  49.604  15.606 -0.55 -0.03    +0.128 A  ATOM     14  C   UNL     1      40.067  48.983  14.812 -0.45 -0.02    +0.047 A  ATOM     15  N   UNL     1      41.416  49.151  16.838 -0.95 -0.00    -0.211 NA ATOM     16  C   UNL     1      39.347  47.876  15.290 -0.51 -0.01    +0.018 A  ATOM     17  C   UNL     1      40.687  48.114  17.205 -0.32 -0.03    +0.164 A  ATOM     18  C   UNL     1      39.709  47.473  16.532 -0.46 -0.01    +0.051 A  ATOM     19  N   UNL     1      40.593  47.236  18.279 -0.31 +0.02    -0.222 NA BRANCH  13  20ATOM     20  N   UNL     1      41.776  50.685  15.027 -0.35 +0.08    -0.373 N  ATOM     21  C   UNL     1      42.570  50.323  13.859 -0.62 -0.03    +0.141 C  ATOM     22  H   UNL     1      42.353  51.130  15.738 -0.35 -0.02    +0.161 HD ENDBRANCH  13  20ENDBRANCH   9  12ENDBRANCH   1   8BRANCH   5  23ATOM     23  C   UNL     1      38.022  42.912  23.588 -0.31 +0.01    +0.127 C  BRANCH  23  24ATOM     24  N   UNL     1      36.937  42.997  24.579 -0.19 -0.01    -0.296 NA ATOM     25  C   UNL     1      36.972  41.934  25.592 -0.37 -0.01    +0.100 C  ATOM     26  C   UNL     1      36.917  44.328  25.226 -0.33 +0.00    +0.100 C  ATOM     27  C   UNL     1      35.778  42.008  26.584 -0.52 -0.02    +0.099 C  ATOM     28  C   UNL     1      36.312  44.369  26.656 -0.36 -0.02    +0.099 C  ATOM     29  N   UNL     1      35.264  43.364  26.862 -0.28 +0.05    -0.304 NA ATOM     30  C   UNL     1      34.673  43.449  28.188 -0.59 -0.03    +0.105 C  ENDBRANCH  23  24ENDBRANCH   5  23BRANCH   4  31ATOM     31  O   UNL     1      35.832  41.544  22.324 -0.22 -0.02    -0.508 OA ATOM     32  H   UNL     1      35.872  41.802  23.260 +0.19 +0.02    +0.293 HD ENDBRANCH   4  31TORSDOF 6TERENDMDL