REMARK SMILES CNc1ccc2c(n1)N=C2C(=O)Nc1ccc(O)c(CN2CCN(C)CC2)c1F
REMARK SMILES IDX 14 1 15 2 16 3 17 4 19 5 28 6 29 7 13 8 11 9 12 10 10 12
REMARK SMILES IDX 3 13 4 14 8 15 5 16 7 17 6 18 9 19 2 20 1 21 20 23 21 24
REMARK SMILES IDX 22 25 27 26 23 27 26 28 24 29 25 30 18 31
REMARK H PARENT 13 11 2 22 18 32
ROOT
ATOM      1  C   UNL     1       0.026  -1.688   0.959  1.00  0.00     0.078 A 
ATOM      2  C   UNL     1      -0.472  -2.324   2.095  1.00  0.00     0.033 A 
ATOM      3  C   UNL     1      -1.775  -2.833   2.099  1.00  0.00     0.049 A 
ATOM      4  C   UNL     1      -2.584  -2.695   0.966  1.00  0.00     0.123 A 
ATOM      5  C   UNL     1      -2.120  -2.042  -0.181  1.00  0.00     0.046 A 
ATOM      6  C   UNL     1      -0.805  -1.560  -0.164  1.00  0.00     0.154 A 
ATOM      7  F   UNL     1      -0.322  -0.932  -1.249  1.00  0.00    -0.204 F 
ENDROOT
BRANCH   1   8
ATOM      8  N   UNL     1       1.327  -1.159   0.862  1.00  0.00    -0.318 N 
ATOM      9  C   UNL     1       2.283  -1.093   1.843  1.00  0.00     0.275 C 
ATOM     10  O   UNL     1       2.233  -1.441   3.009  1.00  0.00    -0.267 OA
ATOM     11  H   UNL     1       1.587  -0.769  -0.043  1.00  0.00     0.170 HD
BRANCH   9  12
ATOM     12  C   UNL     1       3.534  -0.481   1.368  1.00  0.00     0.142 C 
ATOM     13  C   UNL     1       7.089   1.100   1.405  1.00  0.00     0.128 A 
ATOM     14  C   UNL     1       6.739   0.782   2.752  1.00  0.00     0.047 A 
ATOM     15  N   UNL     1       6.253   0.870   0.362  1.00  0.00    -0.211 NA
ATOM     16  C   UNL     1       5.508   0.180   3.059  1.00  0.00     0.018 A 
ATOM     17  C   UNL     1       5.125   0.301   0.744  1.00  0.00     0.164 A 
ATOM     18  C   UNL     1       4.717  -0.046   1.982  1.00  0.00     0.051 A 
ATOM     19  N   UNL     1       3.928  -0.121   0.176  1.00  0.00    -0.222 NA
BRANCH  13  20
ATOM     20  N   UNL     1       8.329   1.739   1.196  1.00  0.00    -0.373 N 
ATOM     21  C   UNL     1       8.680   1.911  -0.209  1.00  0.00     0.141 C 
ATOM     22  H   UNL     1       9.056   1.231   1.695  1.00  0.00     0.161 HD
ENDBRANCH  13  20
ENDBRANCH   9  12
ENDBRANCH   1   8
BRANCH   5  23
ATOM     23  C   UNL     1      -2.990  -1.822  -1.397  1.00  0.00     0.127 C 
BRANCH  23  24
ATOM     24  N   UNL     1      -3.921  -0.690  -1.264  1.00  0.00    -0.296 NA
ATOM     25  C   UNL     1      -3.263   0.623  -1.257  1.00  0.00     0.100 C 
ATOM     26  C   UNL     1      -4.965  -0.740  -2.312  1.00  0.00     0.100 C 
ATOM     27  C   UNL     1      -4.262   1.796  -1.048  1.00  0.00     0.099 C 
ATOM     28  C   UNL     1      -5.589   0.628  -2.703  1.00  0.00     0.099 C 
ATOM     29  N   UNL     1      -5.619   1.581  -1.589  1.00  0.00    -0.304 NA
ATOM     30  C   UNL     1      -6.250   2.838  -1.958  1.00  0.00     0.105 C 
ENDBRANCH  23  24
ENDBRANCH   5  23
BRANCH   4  31
ATOM     31  O   UNL     1      -3.846  -3.219   0.966  1.00  0.00    -0.508 OA
ATOM     32  H   UNL     1      -4.063  -3.535   1.859  1.00  0.00     0.293 HD
ENDBRANCH   4  31
TORSDOF 6
