REMARK SMILES CNc1ccc2c(n1)N=C2C(=O)Nc1ccc(O)c(F)c1CN1CCOCC1
REMARK SMILES IDX 11 1 12 2 13 3 10 5 3 6 4 7 8 8 5 9 7 10 6 11 9 12 2 13 1 14
REMARK SMILES IDX 14 16 15 17 21 18 16 19 19 20 17 21 20 22 22 23 23 24 24 25
REMARK SMILES IDX 28 26 25 27 27 28 26 29 18 30
REMARK H PARENT 13 4 2 15 18 31
ROOT
ATOM      1  C   UNL     1       0.695   0.496   1.321  1.00  0.00     0.275 C 
ATOM      2  O   UNL     1      -0.076   1.442   1.416  1.00  0.00    -0.267 OA
ATOM      3  N   UNL     1       0.479  -0.855   1.491  1.00  0.00    -0.320 N 
ATOM      4  H   UNL     1       1.340  -1.381   1.633  1.00  0.00     0.170 HD
ENDROOT
BRANCH   1   5
ATOM      5  C   UNL     1       2.104   0.781   1.010  1.00  0.00     0.142 C 
ATOM      6  C   UNL     1       5.274   2.466  -0.482  1.00  0.00     0.128 A 
ATOM      7  C   UNL     1       4.160   3.323  -0.742  1.00  0.00     0.047 A 
ATOM      8  N   UNL     1       5.147   1.284   0.176  1.00  0.00    -0.211 NA
ATOM      9  C   UNL     1       2.869   2.982  -0.309  1.00  0.00     0.018 A 
ATOM     10  C   UNL     1       3.905   1.066   0.563  1.00  0.00     0.164 A 
ATOM     11  C   UNL     1       2.799   1.815   0.366  1.00  0.00     0.051 A 
ATOM     12  N   UNL     1       3.178   0.057   1.187  1.00  0.00    -0.222 NA
BRANCH   6  13
ATOM     13  N   UNL     1       6.511   2.840  -1.032  1.00  0.00    -0.373 N 
ATOM     14  C   UNL     1       7.623   1.971  -0.685  1.00  0.00     0.141 C 
ATOM     15  H   UNL     1       6.707   3.815  -0.844  1.00  0.00     0.161 HD
ENDBRANCH   6  13
ENDBRANCH   1   5
BRANCH   3  16
ATOM     16  C   UNL     1      -0.726  -1.502   1.836  1.00  0.00     0.049 A 
ATOM     17  C   UNL     1      -0.557  -2.643   2.644  1.00  0.00     0.030 A 
ATOM     18  C   UNL     1      -2.026  -1.119   1.439  1.00  0.00     0.029 A 
ATOM     19  C   UNL     1      -1.651  -3.346   3.143  1.00  0.00     0.051 A 
ATOM     20  C   UNL     1      -3.114  -1.817   2.001  1.00  0.00     0.171 A 
ATOM     21  C   UNL     1      -2.930  -2.914   2.837  1.00  0.00     0.151 A 
ATOM     22  F   UNL     1      -4.371  -1.428   1.735  1.00  0.00    -0.202 F 
BRANCH  18  23
ATOM     23  C   UNL     1      -2.333  -0.030   0.430  1.00  0.00     0.125 C 
BRANCH  23  24
ATOM     24  N   UNL     1      -3.281  -0.432  -0.629  1.00  0.00    -0.294 NA
ATOM     25  C   UNL     1      -2.653  -1.321  -1.628  1.00  0.00     0.113 C 
ATOM     26  C   UNL     1      -3.825   0.758  -1.312  1.00  0.00     0.113 C 
ATOM     27  C   UNL     1      -3.631  -1.665  -2.760  1.00  0.00     0.175 C 
ATOM     28  C   UNL     1      -4.774   0.360  -2.451  1.00  0.00     0.175 C 
ATOM     29  O   UNL     1      -4.112  -0.477  -3.409  1.00  0.00    -0.379 OA
ENDBRANCH  23  24
ENDBRANCH  18  23
BRANCH  21  30
ATOM     30  O   UNL     1      -4.024  -3.560   3.339  1.00  0.00    -0.505 OA
ATOM     31  H   UNL     1      -3.733  -4.242   3.962  1.00  0.00     0.293 HD
ENDBRANCH  21  30
ENDBRANCH   3  16
TORSDOF 6
