MODEL        4USER    Run = 4USERUSER    Estimated Free Energy of Binding    =  -9.38 kcal/mol  [=(1)+(2)+(3)-(4)]USERUSER    (1) Final Intermolecular Energy     = -11.17 kcal/molUSER        vdW + Hbond + desolv Energy     = -10.92 kcal/molUSER        Electrostatic Energy            =  -0.25 kcal/molUSER        Moving Ligand-Fixed Receptor    = -11.17 kcal/molUSER        Moving Ligand-Moving Receptor   =  +0.00 kcal/molUSER    (2) Final Total Internal Energy     =  -1.93 kcal/molUSER    (3) Torsional Free Energy           =  +1.79 kcal/molUSER    (4) Unbound System's Energy         =  -1.93 kcal/molUSERUSERREMARK SMILES CNc1ccc2c(n1)N=C2C(=O)Nc1ccc(O)c(F)c1CN1CCOCC1REMARK SMILES IDX 11 1 12 2 13 3 10 5 3 6 4 7 8 8 5 9 7 10 6 11 9 12 2 13 1 14REMARK SMILES IDX 14 16 15 17 21 18 16 19 19 20 17 21 20 22 22 23 23 24 24 25REMARK SMILES IDX 28 26 25 27 27 28 26 29 18 30REMARK H PARENT 13 4 2 15 18 31USER                              x       y       z     vdW  Elec       q    TypeUSER                           _______ _______ _______ _____ _____    ______ ____ROOTATOM      1  C   UNL     1      39.249  45.815  17.855 -0.30 -0.04    +0.275 C  ATOM      2  O   UNL     1      39.728  45.165  18.775 -0.28 +0.01    -0.267 OA ATOM      3  N   UNL     1      38.090  45.625  17.133 -0.17 +0.09    -0.320 N  ATOM      4  H   UNL     1      38.080  46.138  16.253 +0.12 -0.06    +0.170 HD ENDROOTBRANCH   1   5ATOM      5  C   UNL     1      40.000  46.984  17.370 -0.44 -0.03    +0.142 C  ATOM      6  C   UNL     1      41.576  49.608  14.974 -0.52 -0.02    +0.128 A  ATOM      7  C   UNL     1      40.667  48.810  14.211 -0.35 -0.01    +0.047 A  ATOM      8  N   UNL     1      41.789  49.405  16.300 -0.92 -0.04    -0.211 NA ATOM      9  C   UNL     1      39.933  47.776  14.813 -0.50 -0.00    +0.018 A  ATOM     10  C   UNL     1      41.037  48.432  16.777 -0.40 -0.02    +0.164 A  ATOM     11  C   UNL     1      40.156  47.633  16.137 -0.49 -0.01    +0.051 A  ATOM     12  N   UNL     1      40.862  47.754  17.980 -0.35 +0.02    -0.222 NA BRANCH   6  13ATOM     13  N   UNL     1      42.337  50.558  14.272 -0.36 +0.08    -0.373 N  ATOM     14  C   UNL     1      42.247  50.466  12.825 -0.57 -0.05    +0.141 C  ATOM     15  H   UNL     1      43.293  50.565  14.602 -0.24 -0.03    +0.161 HD ENDBRANCH   6  13ENDBRANCH   1   5BRANCH   3  16ATOM     16  C   UNL     1      37.140  44.592  17.278 -0.31 -0.01    +0.049 A  ATOM     17  C   UNL     1      36.978  44.139  18.602 -0.31 -0.01    +0.030 A  ATOM     18  C   UNL     1      36.386  43.996  16.243 -0.36 -0.01    +0.029 A  ATOM     19  C   UNL     1      36.018  43.184  18.928 -0.30 -0.01    +0.051 A  ATOM     20  C   UNL     1      35.388  43.071  16.610 -0.31 -0.06    +0.171 A  ATOM     21  C   UNL     1      35.208  42.670  17.930 -0.28 -0.04    +0.151 A  ATOM     22  F   UNL     1      34.577  42.552  15.675 -0.09 +0.09    -0.202 F  BRANCH  18  23ATOM     23  C   UNL     1      36.594  44.259  14.765 -0.30 -0.05    +0.125 C  BRANCH  23  24ATOM     24  N   UNL     1      37.093  45.614  14.452 -0.18 +0.12    -0.294 NA ATOM     25  C   UNL     1      36.176  46.668  14.931 -0.37 -0.09    +0.113 C  ATOM     26  C   UNL     1      37.292  45.767  12.998 -0.47 -0.04    +0.113 C  ATOM     27  C   UNL     1      36.673  48.064  14.529 -0.33 -0.14    +0.175 C  ATOM     28  C   UNL     1      37.763  47.185  12.647 -0.35 -0.03    +0.175 C  ATOM     29  O   UNL     1      36.826  48.170  13.105 -0.74 +0.15    -0.379 OA ENDBRANCH  23  24ENDBRANCH  18  23BRANCH  21  30ATOM     30  O   UNL     1      34.234  41.758  18.223 -0.15 +0.12    -0.505 OA ATOM     31  H   UNL     1      34.299  41.014  17.606 -0.33 -0.15    +0.293 HD ENDBRANCH  21  30ENDBRANCH   3  16TORSDOF 6TERENDMDL