REMARK SMILES CN1CCN(Cc2cc(-c3nnc4ccc(-c5cnn(CCN6CCOCC6)c5F)cn34)ccc2O)CC1
REMARK SMILES IDX 10 1 11 2 12 3 13 4 14 5 15 6 16 7 31 8 32 9 9 10 7 11 8 12
REMARK SMILES IDX 35 13 34 14 33 15 6 16 5 17 2 18 3 19 38 20 4 21 37 22 1 23
REMARK SMILES IDX 36 24 17 26 18 27 29 28 19 29 20 30 30 31 21 32 22 33 23 34
REMARK SMILES IDX 24 35 28 36 25 37 27 38 26 39
REMARK H PARENT 36 25
ROOT
ATOM      1  C   UNL     1      -1.473   0.338   1.905  1.00  0.00     0.168 A 
ATOM      2  N   UNL     1      -1.971   0.328   3.131  1.00  0.00    -0.129 NA
ATOM      3  N   UNL     1      -0.942   0.163   4.027  1.00  0.00    -0.130 NA
ATOM      4  C   UNL     1       0.168   0.039   3.338  1.00  0.00     0.161 A 
ATOM      5  C   UNL     1       1.518  -0.154   3.724  1.00  0.00     0.050 A 
ATOM      6  C   UNL     1       2.465  -0.297   2.777  1.00  0.00     0.014 A 
ATOM      7  C   UNL     1       2.159  -0.270   1.336  1.00  0.00     0.005 A 
ATOM      8  C   UNL     1       0.866  -0.063   0.996  1.00  0.00     0.104 A 
ATOM      9  N   UNL     1      -0.109   0.107   1.982  1.00  0.00    -0.282 N 
ENDROOT
BRANCH   1  10
ATOM     10  C   UNL     1      -2.255   0.525   0.684  1.00  0.00     0.020 A 
ATOM     11  C   UNL     1      -4.262  -0.013  -0.618  1.00  0.00     0.009 A 
ATOM     12  C   UNL     1      -3.465  -0.172   0.530  1.00  0.00     0.021 A 
ATOM     13  C   UNL     1      -3.807   0.858  -1.617  1.00  0.00     0.120 A 
ATOM     14  C   UNL     1      -2.619   1.567  -1.476  1.00  0.00     0.047 A 
ATOM     15  C   UNL     1      -1.851   1.411  -0.323  1.00  0.00     0.016 A 
BRANCH  11  16
ATOM     16  C   UNL     1      -5.526  -0.840  -0.762  1.00  0.00     0.124 C 
BRANCH  16  17
ATOM     17  N   UNL     1      -6.620  -0.119  -1.454  1.00  0.00    -0.296 NA
ATOM     18  N   UNL     1      -9.172  -0.582   0.123  1.00  0.00    -0.304 NA
ATOM     19  C   UNL     1      -8.573  -1.611  -0.745  1.00  0.00     0.099 C 
ATOM     20  C   UNL     1      -8.136   0.376   0.557  1.00  0.00     0.099 C 
ATOM     21  C   UNL     1      -7.678  -1.062  -1.883  1.00  0.00     0.100 C 
ATOM     22  C   UNL     1      -7.231   0.915  -0.578  1.00  0.00     0.100 C 
ATOM     23  C   UNL     1     -10.283   0.100  -0.539  1.00  0.00     0.105 C 
ENDBRANCH  16  17
ENDBRANCH  11  16
BRANCH  13  24
ATOM     24  O   UNL     1      -4.521   1.072  -2.763  1.00  0.00    -0.508 OA
ATOM     25  H   UNL     1      -5.416   0.698  -2.603  1.00  0.00     0.293 HD
ENDBRANCH  13  24
ENDBRANCH   1  10
BRANCH   7  26
ATOM     26  C   UNL     1       3.190  -0.445   0.355  1.00  0.00     0.058 A 
ATOM     27  C   UNL     1       3.239   0.036  -0.977  1.00  0.00     0.147 A 
ATOM     28  C   UNL     1       4.368  -1.140   0.486  1.00  0.00     0.219 A 
ATOM     29  N   UNL     1       4.349  -0.329  -1.627  1.00  0.00    -0.178 NA
ATOM     30  N   UNL     1       5.042  -1.019  -0.693  1.00  0.00    -0.238 N 
ATOM     31  F   UNL     1       4.787  -1.826   1.559  1.00  0.00    -0.185 F 
BRANCH  30  32
ATOM     32  C   UNL     1       6.312  -1.623  -1.028  1.00  0.00     0.163 C 
BRANCH  32  33
ATOM     33  C   UNL     1       7.489  -1.162  -0.152  1.00  0.00     0.108 C 
BRANCH  33  34
ATOM     34  N   UNL     1       7.710   0.293  -0.036  1.00  0.00    -0.297 NA
ATOM     35  C   UNL     1       7.927   0.962  -1.331  1.00  0.00     0.113 C 
ATOM     36  C   UNL     1       8.852   0.572   0.873  1.00  0.00     0.113 C 
ATOM     37  C   UNL     1       9.312   0.694  -1.951  1.00  0.00     0.175 C 
ATOM     38  C   UNL     1      10.026   1.330   0.225  1.00  0.00     0.175 C 
ATOM     39  O   UNL     1      10.397   0.723  -1.013  1.00  0.00    -0.379 OA
ENDBRANCH  33  34
ENDBRANCH  32  33
ENDBRANCH  30  32
ENDBRANCH   7  26
TORSDOF 8
