MODEL        5USER    Run = 5USERUSER    Estimated Free Energy of Binding    = -10.99 kcal/mol  [=(1)+(2)+(3)-(4)]USERUSER    (1) Final Intermolecular Energy     = -13.38 kcal/molUSER        vdW + Hbond + desolv Energy     = -13.11 kcal/molUSER        Electrostatic Energy            =  -0.27 kcal/molUSER        Moving Ligand-Fixed Receptor    = -13.38 kcal/molUSER        Moving Ligand-Moving Receptor   =  +0.00 kcal/molUSER    (2) Final Total Internal Energy     =  -2.04 kcal/molUSER    (3) Torsional Free Energy           =  +2.39 kcal/molUSER    (4) Unbound System's Energy         =  -2.04 kcal/molUSERUSERREMARK SMILES CN1CCN(Cc2cc(-c3nnc4ccc(-c5cnn(CCN6CCOCC6)c5F)cn34)ccc2O)CC1REMARK SMILES IDX 10 1 11 2 12 3 13 4 14 5 15 6 16 7 31 8 32 9 9 10 7 11 8 12REMARK SMILES IDX 35 13 34 14 33 15 6 16 5 17 2 18 3 19 38 20 4 21 37 22 1 23REMARK SMILES IDX 36 24 17 26 18 27 29 28 19 29 20 30 30 31 21 32 22 33 23 34REMARK SMILES IDX 24 35 28 36 25 37 27 38 26 39REMARK H PARENT 36 25USER                              x       y       z     vdW  Elec       q    TypeUSER                           _______ _______ _______ _____ _____    ______ ____ROOTATOM      1  C   UNL     1      39.572  47.795  16.339 -0.36 -0.05    +0.168 A  ATOM      2  N   UNL     1      40.246  48.801  15.804 -0.48 +0.04    -0.129 NA ATOM      3  N   UNL     1      41.441  48.938  16.468 -1.05 -0.00    -0.130 NA ATOM      4  C   UNL     1      41.469  48.039  17.424 -0.33 -0.01    +0.161 A  ATOM      5  C   UNL     1      42.435  47.721  18.411 -0.44 +0.00    +0.050 A  ATOM      6  C   UNL     1      42.169  46.757  19.314 -0.49 +0.00    +0.014 A  ATOM      7  C   UNL     1      40.899  46.011  19.329 -0.44 +0.00    +0.005 A  ATOM      8  C   UNL     1      40.005  46.319  18.362 -0.38 -0.01    +0.104 A  ATOM      9  N   UNL     1      40.294  47.305  17.415 -0.31 +0.05    -0.282 N  ENDROOTBRANCH   1  10ATOM     10  C   UNL     1      38.267  47.322  15.881 -0.42 -0.01    +0.020 A  ATOM     11  C   UNL     1      36.236  46.023  16.330 -0.36 -0.01    +0.009 A  ATOM     12  C   UNL     1      37.505  46.490  16.718 -0.35 -0.01    +0.021 A  ATOM     13  C   UNL     1      35.754  46.404  15.070 -0.28 -0.10    +0.120 A  ATOM     14  C   UNL     1      36.488  47.238  14.234 -0.43 -0.03    +0.047 A  ATOM     15  C   UNL     1      37.735  47.707  14.643 -0.49 -0.01    +0.016 A  BRANCH  11  16ATOM     16  C   UNL     1      35.485  45.074  17.245 -0.30 -0.06    +0.124 C  BRANCH  16  17ATOM     17  N   UNL     1      36.289  43.899  17.655 -0.12 +0.08    -0.296 NA ATOM     18  N   UNL     1      35.191  42.909  20.306 -0.29 -0.00    -0.304 NA ATOM     19  C   UNL     1      36.025  44.118  20.190 -0.39 -0.01    +0.099 C  ATOM     20  C   UNL     1      34.522  42.634  19.019 -0.40 -0.01    +0.099 C  ATOM     21  C   UNL     1      36.956  44.150  18.953 -0.34 -0.01    +0.100 C  ATOM     22  C   UNL     1      35.449  42.680  17.780 -0.35 -0.03    +0.100 C  ATOM     23  C   UNL     1      35.972  41.758  20.756 -0.45 -0.00    +0.105 C  ENDBRANCH  16  17ENDBRANCH  11  16BRANCH  13  24ATOM     24  O   UNL     1      34.530  45.997  14.617 -0.11 +0.48    -0.508 OA ATOM     25  H   UNL     1      33.879  46.649  14.959 -0.08 -0.53    +0.293 HD ENDBRANCH  13  24ENDBRANCH   1  10BRANCH   7  26ATOM     26  C   UNL     1      40.642  45.003  20.316 -0.34 +0.00    +0.058 A  ATOM     27  C   UNL     1      41.498  43.971  20.775 -0.23 +0.02    +0.147 A  ATOM     28  C   UNL     1      39.489  44.804  21.036 -0.20 +0.01    +0.219 A  ATOM     29  N   UNL     1      40.929  43.189  21.699 -0.19 -0.01    -0.178 NA ATOM     30  N   UNL     1      39.709  43.746  21.867 -0.14 -0.01    -0.238 N  ATOM     31  F   UNL     1      38.347  45.500  20.942 -0.08 -0.01    -0.185 F  BRANCH  30  32ATOM     32  C   UNL     1      38.757  43.152  22.780 -0.25 +0.01    +0.163 C  BRANCH  32  33ATOM     33  C   UNL     1      38.039  44.157  23.696 -0.29 +0.01    +0.108 C  BRANCH  33  34ATOM     34  N   UNL     1      38.884  45.124  24.425 -0.08 -0.02    -0.297 NA ATOM     35  C   UNL     1      38.582  45.203  25.865 -0.20 +0.00    +0.113 C  ATOM     36  C   UNL     1      38.774  46.473  23.812 -0.31 +0.01    +0.113 C  ATOM     37  C   UNL     1      37.270  45.943  26.191 -0.29 -0.01    +0.175 C  ATOM     38  C   UNL     1      38.234  47.569  24.750 -0.32 +0.02    +0.175 C  ATOM     39  O   UNL     1      37.049  47.128  25.412 -0.74 -0.04    -0.379 OA ENDBRANCH  33  34ENDBRANCH  32  33ENDBRANCH  30  32ENDBRANCH   7  26TORSDOF 8TERENDMDL