REMARK SMILES COc1ccc(O)c(C(=O)c2ccc(C(=O)N[C@@H]3CCN(CC(=O)O)C[C@H]3NC(=O)c3ccncc3)cc2)c1F
REMARK SMILES IDX 15 1 16 2 17 3 14 5 11 6 12 7 38 8 13 9 37 10 9 11 10 12
REMARK SMILES IDX 8 13 3 14 4 15 39 16 5 17 6 18 40 19 2 20 1 21 7 22 18 24
REMARK SMILES IDX 19 25 27 26 20 27 26 28 21 29 28 30 29 31 30 33 31 34 32 35
REMARK SMILES IDX 36 36 33 37 35 38 34 39 22 40 23 41 24 42 25 43
REMARK H PARENT 17 4 7 23 28 32 25 44
ROOT
ATOM      1  C   UNL     1      -0.555  -1.423   0.747  1.00  0.00     0.251 C 
ATOM      2  O   UNL     1      -1.319  -0.904   1.554  1.00  0.00    -0.269 OA
ATOM      3  N   UNL     1      -0.990  -2.069  -0.393  1.00  0.00    -0.347 N 
ATOM      4  H   UNL     1      -0.323  -2.497  -1.021  1.00  0.00     0.164 HD
ENDROOT
BRANCH   1   5
ATOM      5  C   UNL     1       0.914  -1.377   0.967  1.00  0.00     0.039 A 
ATOM      6  C   UNL     1       3.662  -1.216   1.468  1.00  0.00     0.023 A 
ATOM      7  C   UNL     1       2.763  -1.345   2.533  1.00  0.00     0.013 A 
ATOM      8  C   UNL     1       3.190  -1.191   0.150  1.00  0.00     0.013 A 
ATOM      9  C   UNL     1       1.391  -1.410   2.283  1.00  0.00     0.014 A 
ATOM     10  C   UNL     1       1.816  -1.261  -0.100  1.00  0.00     0.014 A 
BRANCH   6  11
ATOM     11  C   UNL     1       5.110  -1.166   1.772  1.00  0.00     0.199 C 
ATOM     12  O   UNL     1       5.561  -1.941   2.617  1.00  0.00    -0.288 OA
BRANCH  11  13
ATOM     13  C   UNL     1       6.054  -0.261   1.078  1.00  0.00     0.104 A 
ATOM     14  C   UNL     1       6.564   1.822  -0.087  1.00  0.00     0.155 A 
ATOM     15  C   UNL     1       7.893   1.419  -0.223  1.00  0.00     0.053 A 
ATOM     16  C   UNL     1       5.656   0.976   0.569  1.00  0.00     0.179 A 
ATOM     17  C   UNL     1       8.310   0.194   0.305  1.00  0.00     0.051 A 
ATOM     18  C   UNL     1       7.400  -0.630   0.962  1.00  0.00     0.130 A 
ATOM     19  F   UNL     1       4.388   1.393   0.723  1.00  0.00    -0.202 F 
BRANCH  14  20
ATOM     20  O   UNL     1       6.041   3.001  -0.548  1.00  0.00    -0.494 OA
ATOM     21  C   UNL     1       6.946   3.932  -1.128  1.00  0.00     0.278 C 
ENDBRANCH  14  20
BRANCH  18  22
ATOM     22  O   UNL     1       7.901  -1.798   1.473  1.00  0.00    -0.507 OA
ATOM     23  H   UNL     1       7.226  -2.173   2.086  1.00  0.00     0.293 HD
ENDBRANCH  18  22
ENDBRANCH  11  13
ENDBRANCH   6  11
ENDBRANCH   1   5
BRANCH   3  24
ATOM     24  C   UNL     1      -2.406  -2.074  -0.759  1.00  0.00     0.107 C 
ATOM     25  C   UNL     1      -2.736  -3.187  -1.747  1.00  0.00     0.042 C 
ATOM     26  C   UNL     1      -2.857  -0.691  -1.313  1.00  0.00     0.118 C 
ATOM     27  C   UNL     1      -4.254  -3.265  -1.960  1.00  0.00     0.087 C 
ATOM     28  C   UNL     1      -4.006  -0.862  -2.345  1.00  0.00     0.112 C 
ATOM     29  N   UNL     1      -4.940  -1.969  -2.069  1.00  0.00    -0.291 NA
BRANCH  26  30
ATOM     30  N   UNL     1      -3.194   0.208  -0.205  1.00  0.00    -0.346 N 
ATOM     31  C   UNL     1      -3.386   1.558  -0.411  1.00  0.00     0.251 C 
ATOM     32  H   UNL     1      -2.774  -0.046   0.691  1.00  0.00     0.164 HD
ATOM     33  O   UNL     1      -3.382   2.074  -1.523  1.00  0.00    -0.269 OA
BRANCH  31  34
ATOM     34  C   UNL     1      -3.575   2.397   0.805  1.00  0.00     0.042 A 
ATOM     35  C   UNL     1      -3.936   1.853   2.038  1.00  0.00     0.034 A 
ATOM     36  C   UNL     1      -3.418   3.778   0.685  1.00  0.00     0.034 A 
ATOM     37  C   UNL     1      -4.110   2.720   3.103  1.00  0.00     0.112 A 
ATOM     38  C   UNL     1      -3.616   4.558   1.809  1.00  0.00     0.112 A 
ATOM     39  N   UNL     1      -3.957   4.058   3.016  1.00  0.00    -0.265 NA
ENDBRANCH  31  34
ENDBRANCH  26  30
BRANCH  29  40
ATOM     40  C   UNL     1      -5.819  -1.705  -0.907  1.00  0.00     0.207 C 
BRANCH  40  41
ATOM     41  C   UNL     1      -6.698  -0.474  -1.102  1.00  0.00     0.317 C 
ATOM     42  O   UNL     1      -7.298  -0.135  -2.110  1.00  0.00    -0.251 OA
BRANCH  41  43
ATOM     43  O   UNL     1      -6.809   0.262   0.026  1.00  0.00    -0.480 OA
ATOM     44  H   UNL     1      -7.363   1.020  -0.259  1.00  0.00     0.296 HD
ENDBRANCH  41  43
ENDBRANCH  40  41
ENDBRANCH  29  40
ENDBRANCH   3  24
TORSDOF 11
