MODEL        10USER    Run = 10USERUSER    Estimated Free Energy of Binding    = -10.07 kcal/mol  [=(1)+(2)+(3)-(4)]USERUSER    (1) Final Intermolecular Energy     = -13.06 kcal/molUSER        vdW + Hbond + desolv Energy     = -13.01 kcal/molUSER        Electrostatic Energy            =  -0.05 kcal/molUSER        Moving Ligand-Fixed Receptor    = -13.06 kcal/molUSER        Moving Ligand-Moving Receptor   =  +0.00 kcal/molUSER    (2) Final Total Internal Energy     =  -2.20 kcal/molUSER    (3) Torsional Free Energy           =  +2.98 kcal/molUSER    (4) Unbound System's Energy         =  -2.20 kcal/molUSERUSERREMARK SMILES COc1ccc(O)c(C(=O)c2ccc(C(=O)N[C@@H]3CCN(CC#N)C[C@H]3NC(=O)c3ccncc3)cc2)c1FREMARK SMILES IDX 11 1 12 2 13 3 14 4 36 5 37 6 9 7 10 8 8 9 3 10 4 11 38 12REMARK SMILES IDX 5 13 6 14 39 15 2 16 1 17 7 18 15 20 17 21 16 22 18 24 19 25REMARK SMILES IDX 26 26 20 27 25 28 21 29 27 30 28 31 29 33 30 34 31 35 35 36REMARK SMILES IDX 32 37 34 38 33 39 22 40 23 41 24 42REMARK H PARENT 7 19 17 23 27 32USER                              x       y       z     vdW  Elec       q    TypeUSER                           _______ _______ _______ _____ _____    ______ ____ROOTATOM      1  C   UNL     1      37.133  42.921  24.012 -0.37 +0.00    +0.023 A  ATOM      2  C   UNL     1      36.593  42.053  23.055 -0.47 +0.00    +0.013 A  ATOM      3  C   UNL     1      36.435  42.476  21.731 -0.46 +0.00    +0.014 A  ATOM      4  C   UNL     1      36.809  43.775  21.362 -0.38 +0.00    +0.039 A  ATOM      5  C   UNL     1      37.309  44.654  22.332 -0.26 +0.00    +0.014 A  ATOM      6  C   UNL     1      37.469  44.232  23.654 -0.32 +0.00    +0.013 A  ENDROOTBRANCH   1   7ATOM      7  C   UNL     1      37.260  42.440  25.408 -0.29 -0.01    +0.199 C  ATOM      8  O   UNL     1      38.051  41.528  25.651 -0.19 +0.01    -0.288 OA BRANCH   7   9ATOM      9  C   UNL     1      36.444  42.968  26.524 -0.34 -0.01    +0.104 A  ATOM     10  C   UNL     1      35.824  44.757  28.062 -0.36 -0.04    +0.155 A  ATOM     11  C   UNL     1      34.859  43.925  28.634 -0.47 -0.02    +0.053 A  ATOM     12  C   UNL     1      36.614  44.264  27.013 -0.28 -0.03    +0.179 A  ATOM     13  C   UNL     1      34.704  42.614  28.175 -0.33 -0.02    +0.051 A  ATOM     14  C   UNL     1      35.500  42.137  27.137 -0.46 -0.04    +0.130 A  ATOM     15  F   UNL     1      37.566  45.060  26.497 -0.06 +0.02    -0.202 F  BRANCH  10  16ATOM     16  O   UNL     1      36.080  46.048  28.436 -0.19 +0.13    -0.494 OA ATOM     17  C   UNL     1      35.008  46.790  29.003 -0.27 -0.06    +0.278 C  ENDBRANCH  10  16BRANCH  14  18ATOM     18  O   UNL     1      35.303  40.833  26.770 -0.26 +0.23    -0.507 OA ATOM     19  H   UNL     1      36.117  40.522  26.310 -0.25 -0.17    +0.293 HD ENDBRANCH  14  18ENDBRANCH   7   9ENDBRANCH   1   7BRANCH   4  20ATOM     20  C   UNL     1      36.659  44.269  19.967 -0.26 -0.02    +0.251 C  ATOM     21  N   UNL     1      35.402  44.720  19.612 -0.17 +0.07    -0.347 N  ATOM     22  O   UNL     1      37.610  44.235  19.196 -0.23 +0.03    -0.269 OA ATOM     23  H   UNL     1      34.630  44.479  20.221 +0.03 -0.03    +0.164 HD BRANCH  21  24ATOM     24  C   UNL     1      35.102  45.141  18.238 -0.36 -0.04    +0.107 C  ATOM     25  C   UNL     1      33.626  45.548  18.086 -0.47 -0.02    +0.042 C  ATOM     26  C   UNL     1      35.474  44.044  17.209 -0.29 -0.04    +0.118 C  ATOM     27  C   UNL     1      32.690  44.340  18.088 -0.33 -0.02    +0.088 C  ATOM     28  C   UNL     1      34.444  42.890  17.244 -0.37 -0.04    +0.112 C  ATOM     29  N   UNL     1      33.067  43.386  17.035 -0.12 +0.11    -0.288 NA BRANCH  26  30ATOM     30  N   UNL     1      35.585  44.592  15.853 -0.11 +0.17    -0.346 N  ATOM     31  C   UNL     1      36.294  45.751  15.613 -0.24 -0.15    +0.251 C  ATOM     32  H   UNL     1      35.354  43.977  15.088 +0.11 -0.07    +0.164 HD ATOM     33  O   UNL     1      36.719  46.473  16.509 -0.26 +0.18    -0.269 OA BRANCH  31  34ATOM     34  C   UNL     1      36.524  46.119  14.192 -0.40 -0.02    +0.042 A  ATOM     35  C   UNL     1      36.536  47.444  13.753 -0.52 -0.02    +0.034 A  ATOM     36  C   UNL     1      36.699  45.086  13.270 -0.43 -0.01    +0.034 A  ATOM     37  C   UNL     1      36.751  47.675  12.406 -0.52 -0.04    +0.112 A  ATOM     38  C   UNL     1      36.907  45.424  11.946 -0.47 -0.04    +0.112 A  ATOM     39  N   UNL     1      36.942  46.696  11.496 -0.54 +0.09    -0.265 NA ENDBRANCH  31  34ENDBRANCH  26  30BRANCH  29  40ATOM     40  C   UNL     1      32.096  42.269  16.927 -0.18 -0.09    +0.205 C  BRANCH  40  41ATOM     41  C   UNL     1      32.245  41.176  17.915 -0.40 -0.02    +0.078 C  ATOM     42  N   UNL     1      32.342  40.325  18.700 -0.49 -0.00    -0.197 NA ENDBRANCH  40  41ENDBRANCH  29  40ENDBRANCH  21  24ENDBRANCH   4  20TORSDOF 10TERENDMDL