MODEL        10USER    Run = 10USERUSER    Estimated Free Energy of Binding    = -12.40 kcal/mol  [=(1)+(2)+(3)-(4)]USERUSER    (1) Final Intermolecular Energy     = -14.49 kcal/molUSER        vdW + Hbond + desolv Energy     = -14.30 kcal/molUSER        Electrostatic Energy            =  -0.19 kcal/molUSER        Moving Ligand-Fixed Receptor    = -14.49 kcal/molUSER        Moving Ligand-Moving Receptor   =  +0.00 kcal/molUSER    (2) Final Total Internal Energy     =  -2.42 kcal/molUSER    (3) Torsional Free Energy           =  +2.09 kcal/molUSER    (4) Unbound System's Energy         =  -2.42 kcal/molUSERUSERREMARK SMILES Oc1nc2ccccc2n1C1CCN(Cc2ccc(-c3nc4ccc(F)cc4nc3-c3ccnc(N4CCOCC4)c3)cc2)CC1REMARK SMILES IDX 15 1 14 2 11 3 12 4 46 5 13 6 45 7 10 8 2 9 3 10 4 11 9 12REMARK SMILES IDX 5 13 8 14 6 15 7 16 1 17 16 19 17 20 44 21 18 22 43 23 19 24REMARK SMILES IDX 20 25 21 26 30 27 22 28 29 29 23 30 28 31 24 32 27 33 25 34REMARK SMILES IDX 26 35 31 36 32 37 42 38 33 39 35 40 34 41 36 42 37 43 41 44REMARK SMILES IDX 38 45 40 46 39 47REMARK H PARENT 1 18USER                              x       y       z     vdW  Elec       q    TypeUSER                           _______ _______ _______ _____ _____    ______ ____ROOTATOM      1  C   UNL     1      33.510  44.857  15.515 -0.27 -0.08    +0.120 C  ENDROOTBRANCH   1   2ATOM      2  N   UNL     1      32.338  44.991  16.394 -0.30 +0.16    -0.299 NA ATOM      3  C   UNL     1      30.608  42.698  15.676 -0.33 -0.05    +0.095 C  ATOM      4  C   UNL     1      30.543  44.030  14.913 -0.33 -0.03    +0.041 C  ATOM      5  C   UNL     1      31.779  42.561  16.658 -0.33 -0.02    +0.041 C  ATOM      6  C   UNL     1      31.087  45.236  15.673 -0.40 -0.04    +0.087 C  ATOM      7  C   UNL     1      32.199  43.867  17.321 -0.30 -0.03    +0.087 C  BRANCH   3   8ATOM      8  N   UNL     1      29.327  42.240  16.210 -0.13 +0.11    -0.291 N  ATOM      9  C   UNL     1      29.004  40.912  16.354 -0.18 -0.04    +0.295 A  ATOM     10  N   UNL     1      27.805  40.712  16.818 -0.16 -0.00    -0.195 NA ATOM     11  C   UNL     1      27.304  41.972  17.008 -0.16 -0.02    +0.092 A  ATOM     12  C   UNL     1      28.235  42.957  16.654 -0.19 -0.02    +0.072 A  ATOM     13  C   UNL     1      26.039  42.341  17.494 -0.25 -0.00    +0.031 A  ATOM     14  C   UNL     1      27.934  44.317  16.792 -0.24 -0.00    +0.029 A  ATOM     15  C   UNL     1      25.730  43.696  17.624 -0.40 -0.00    +0.002 A  ATOM     16  C   UNL     1      26.667  44.667  17.281 -0.37 +0.00    +0.002 A  BRANCH   9  17ATOM     17  O   UNL     1      29.802  39.906  16.060 -0.16 -0.02    -0.480 OA ATOM     18  H   UNL     1      30.548  40.372  15.636 -0.16 -0.10    +0.296 HD ENDBRANCH   9  17ENDBRANCH   3   8ENDBRANCH   1   2BRANCH   1  19ATOM     19  C   UNL     1      34.821  44.997  16.261 -0.29 +0.02    -0.034 A  ATOM     20  C   UNL     1      35.144  46.199  16.903 -0.34 -0.01    +0.006 A  ATOM     21  C   UNL     1      35.729  43.936  16.330 -0.36 -0.00    +0.006 A  ATOM     22  C   UNL     1      36.356  46.344  17.587 -0.10 -0.01    +0.011 A  ATOM     23  C   UNL     1      36.942  44.087  17.009 -0.32 -0.00    +0.011 A  ATOM     24  C   UNL     1      37.290  45.297  17.634 -0.36 -0.00    +0.002 A  BRANCH  24  25ATOM     25  C   UNL     1      38.589  45.431  18.322 -0.34 -0.01    +0.097 A  ATOM     26  N   UNL     1      38.693  44.682  19.457 -0.23 +0.01    -0.244 NA ATOM     27  C   UNL     1      39.656  46.238  17.893 -0.39 -0.01    +0.097 A  ATOM     28  C   UNL     1      39.838  44.758  20.156 -0.32 +0.00    +0.090 A  ATOM     29  N   UNL     1      40.808  46.326  18.617 -0.31 +0.01    -0.244 NA ATOM     30  C   UNL     1      39.984  44.007  21.317 -0.24 +0.00    +0.033 A  ATOM     31  C   UNL     1      40.903  45.587  19.733 -0.36 +0.01    +0.092 A  ATOM     32  C   UNL     1      41.161  44.055  22.065 -0.26 +0.00    +0.041 A  ATOM     33  C   UNL     1      42.071  45.629  20.479 -0.26 +0.01    +0.069 A  ATOM     34  C   UNL     1      42.197  44.867  21.633 -0.21 +0.02    +0.125 A  ATOM     35  F   UNL     1      43.334  44.918  22.340 -0.04 -0.06    -0.207 F  BRANCH  27  36ATOM     36  C   UNL     1      39.682  47.023  16.651 -0.48 -0.00    +0.008 A  ATOM     37  C   UNL     1      40.518  48.130  16.495 -0.53 -0.01    +0.030 A  ATOM     38  C   UNL     1      38.824  46.699  15.587 -0.39 -0.02    +0.057 A  ATOM     39  C   UNL     1      40.458  48.835  15.309 -0.51 -0.03    +0.114 A  ATOM     40  C   UNL     1      38.833  47.441  14.407 -0.38 -0.04    +0.129 A  ATOM     41  N   UNL     1      39.640  48.517  14.283 -0.33 +0.08    -0.239 NA BRANCH  40  42ATOM     42  N   UNL     1      37.978  47.112  13.360 -0.22 +0.10    -0.352 N  ATOM     43  C   UNL     1      36.868  48.034  13.055 -0.54 -0.06    +0.146 C  ATOM     44  C   UNL     1      37.647  45.681  13.232 -0.32 -0.04    +0.146 C  ATOM     45  C   UNL     1      35.516  47.300  13.108 -0.37 -0.12    +0.181 C  ATOM     46  C   UNL     1      36.679  45.488  12.053 -0.50 -0.06    +0.181 C  ATOM     47  O   UNL     1      35.434  46.191  12.202 -0.36 +0.22    -0.378 OA ENDBRANCH  40  42ENDBRANCH  27  36ENDBRANCH  24  25ENDBRANCH   1  19TORSDOF 7TERENDMDL