MODEL        10USER    Run = 10USERUSER    Estimated Free Energy of Binding    =  -7.58 kcal/mol  [=(1)+(2)+(3)-(4)]USERUSER    (1) Final Intermolecular Energy     = -12.06 kcal/molUSER        vdW + Hbond + desolv Energy     = -12.29 kcal/molUSER        Electrostatic Energy            =  -0.10 kcal/molUSER        Moving Ligand-Fixed Receptor    = -12.39 kcal/molUSER        Moving Ligand-Moving Receptor   =  +0.33 kcal/molUSER    (2) Final Total Internal Energy     =  -2.44 kcal/molUSER    (3) Torsional Free Energy           =  +4.47 kcal/molUSER    (4) Unbound System's Energy         =  -2.44 kcal/molUSERUSERREMARK SMILES O=C(N[C@@H]1CC[C@@H](O)N(C(=O)c2ccncc2)CC1)c1ccc(C(=O)c2cc(O)cc(F)c2O)cc1REMARK SMILES IDX 4 1 3 2 2 3 1 4 20 6 21 7 36 8 22 9 35 10 23 11 24 12 25 13REMARK SMILES IDX 26 14 27 15 33 16 28 17 31 18 30 19 32 20 34 21 29 23 5 25REMARK SMILES IDX 6 26 19 28 18 29 9 30 7 31 8 33 10 35 11 36 12 37 13 38REMARK SMILES IDX 17 39 14 40 16 41 15 42REMARK H PARENT 3 5 34 22 29 24 8 34REMARK Flexibility Score:  124.900USER                              x       y       z     vdW  Elec       q    TypeUSER                           _______ _______ _______ _____ _____    ______ ____ROOTATOM      1  C   UNL     1      40.368  46.274  17.697 -0.49 -0.01    +0.084 C  ENDROOTBRANCH   1   2ATOM      2  N   UNL     1      39.762  46.085  19.018 -0.20 +0.02    -0.349 N  ATOM      3  C   UNL     1      40.091  45.008  19.818 -0.29 +0.00    +0.251 C  ATOM      4  O   UNL     1      40.887  44.137  19.488 -0.29 -0.02    -0.269 OA ATOM      5  H   UNL     1      39.006  46.695  19.298 +0.08 -0.02    +0.164 HD BRANCH   3   6ATOM      6  C   UNL     1      39.405  44.923  21.138 -0.32 +0.00    +0.039 A  ATOM      7  C   UNL     1      40.009  45.546  22.239 -0.28 +0.00    +0.014 A  ATOM      8  C   UNL     1      38.177  44.270  21.301 -0.36 +0.00    +0.014 A  ATOM      9  C   UNL     1      39.402  45.508  23.497 -0.24 +0.00    +0.013 A  ATOM     10  C   UNL     1      37.568  44.230  22.560 -0.35 +0.00    +0.013 A  ATOM     11  C   UNL     1      38.171  44.863  23.653 -0.29 +0.00    +0.023 A  BRANCH  11  12ATOM     12  C   UNL     1      37.498  44.784  24.970 -0.25 +0.01    +0.196 C  ATOM     13  O   UNL     1      36.934  45.786  25.409 -0.78 -0.02    -0.288 OA BRANCH  12  14ATOM     14  C   UNL     1      37.459  43.538  25.777 -0.26 -0.00    +0.071 A  ATOM     15  C   UNL     1      38.618  42.780  25.998 -0.21 -0.00    +0.062 A  ATOM     16  C   UNL     1      36.252  43.131  26.365 -0.30 -0.02    +0.162 A  ATOM     17  C   UNL     1      38.549  41.613  26.755 -0.28 -0.01    +0.119 A  ATOM     18  C   UNL     1      36.208  41.955  27.114 -0.39 -0.05    +0.169 A  ATOM     19  C   UNL     1      37.350  41.187  27.313 -0.42 -0.02    +0.089 A  ATOM     20  F   UNL     1      35.057  41.547  27.669 -0.19 +0.08    -0.203 F  BRANCH  16  21ATOM     21  O   UNL     1      35.090  43.848  26.233 -0.07 +0.06    -0.504 OA ATOM     22  H   UNL     1      35.327  44.772  25.990 -0.29 -0.09    +0.293 HD ENDBRANCH  16  21BRANCH  17  23ATOM     23  O   UNL     1      39.704  40.911  26.932 -0.09 +0.05    -0.508 OA ATOM     24  H   UNL     1      39.602  40.022  26.550 -0.27 -0.03    +0.293 HD ENDBRANCH  17  23ENDBRANCH  12  14ENDBRANCH  11  12ENDBRANCH   3   6ENDBRANCH   1   2BRANCH   1  25ATOM     25  C   UNL     1      40.756  47.757  17.520 -0.54 -0.00    +0.029 C  BRANCH  25  26ATOM     26  C   UNL     1      41.147  48.236  16.120 -0.48 -0.01    +0.057 CG0ATOM     27  G   UNL     1      39.915  48.623  15.299 +0.00 +0.00    +0.000 G0 ENDBRANCH  25  26ENDBRANCH   1  25BRANCH   1  28ATOM     28  C   UNL     1      39.493  45.619  16.618 -0.21 -0.01    +0.046 C  BRANCH  28  29ATOM     29  C   UNL     1      39.626  46.198  15.207 -0.38 -0.02    +0.124 C  BRANCH  29  30ATOM     30  N   UNL     1      38.998  47.514  15.106 -0.23 +0.11    -0.313 N  BRANCH  30  31ATOM     31  C   UNL     1      39.915  48.628  15.300 -0.46 -0.07    +0.214 CG0ATOM     32  G   UNL     1      41.146  48.237  16.120 +0.00 +0.00    +0.000 G0 BRANCH  31  33ATOM     33  O   UNL     1      40.261  49.231  14.071 -0.27 +0.14    -0.374 OA ATOM     34  H   UNL     1      39.447  49.377  13.561 -0.10 -0.11    +0.213 HD ENDBRANCH  31  33ENDBRANCH  30  31BRANCH  30  35ATOM     35  C   UNL     1      37.806  47.544  14.369 -0.37 -0.12    +0.255 C  ATOM     36  O   UNL     1      37.685  48.139  13.297 -0.83 +0.07    -0.269 OA BRANCH  35  37ATOM     37  C   UNL     1      36.598  46.872  14.863 -0.38 -0.03    +0.043 A  ATOM     38  C   UNL     1      36.390  46.726  16.232 -0.34 -0.03    +0.034 A  ATOM     39  C   UNL     1      35.712  46.317  13.944 -0.44 -0.02    +0.034 A  ATOM     40  C   UNL     1      35.242  46.071  16.630 -0.26 -0.10    +0.112 A  ATOM     41  C   UNL     1      34.599  45.672  14.448 -0.03 -0.09    +0.112 A  ATOM     42  N   UNL     1      34.337  45.554  15.769 -0.16 +0.24    -0.265 NA ENDBRANCH  35  37ENDBRANCH  30  35ENDBRANCH  29  30ENDBRANCH  28  29ENDBRANCH   1  28TORSDOF 9TERENDMDL