MODEL        8USER    Run = 8USERUSER    Estimated Free Energy of Binding    = -10.57 kcal/mol  [=(1)+(2)+(3)-(4)]USERUSER    (1) Final Intermolecular Energy     = -12.66 kcal/molUSER        vdW + Hbond + desolv Energy     = -11.89 kcal/molUSER        Electrostatic Energy            =  -0.77 kcal/molUSER        Moving Ligand-Fixed Receptor    = -12.66 kcal/molUSER        Moving Ligand-Moving Receptor   =  +0.00 kcal/molUSER    (2) Final Total Internal Energy     =  -0.58 kcal/molUSER    (3) Torsional Free Energy           =  +2.09 kcal/molUSER    (4) Unbound System's Energy         =  -0.58 kcal/molUSERUSERREMARK SMILES COc1cc(F)c(O)c(C(=O)c2ccc(C(=O)NC3CCN(C(=O)c4ccnc(F)c4)CC3)cc2)c1FREMARK SMILES IDX 12 1 13 2 14 3 15 4 34 5 35 6 10 7 11 8 9 9 3 10 4 11 36 12REMARK SMILES IDX 5 13 7 14 37 15 6 16 2 17 1 18 8 19 16 21 18 22 17 23 19 25REMARK SMILES IDX 20 26 33 27 21 28 32 29 22 30 23 31 24 32 25 33 26 34 31 35REMARK SMILES IDX 27 36 29 37 28 38 30 39REMARK H PARENT 8 20 18 24USER                              x       y       z     vdW  Elec       q    TypeUSER                           _______ _______ _______ _____ _____    ______ ____ROOTATOM      1  C   UNL     1      37.087  27.827  22.734 -0.21 -0.00    +0.023 A  ATOM      2  C   UNL     1      37.010  29.122  22.208 -0.27 -0.00    +0.013 A  ATOM      3  C   UNL     1      35.770  29.752  22.065 -0.40 -0.00    +0.014 A  ATOM      4  C   UNL     1      34.598  29.084  22.444 -0.45 -0.01    +0.039 A  ATOM      5  C   UNL     1      34.675  27.773  22.933 -0.20 -0.00    +0.014 A  ATOM      6  C   UNL     1      35.915  27.143  23.076 -0.30 -0.00    +0.013 A  ENDROOTBRANCH   1   7ATOM      7  C   UNL     1      38.421  27.189  22.839 -0.10 +0.01    +0.199 C  ATOM      8  O   UNL     1      38.611  26.107  22.281 -0.04 +0.00    -0.288 OA BRANCH   7   9ATOM      9  C   UNL     1      39.535  27.762  23.626 -0.14 +0.04    +0.107 A  ATOM     10  C   UNL     1      40.368  29.012  25.552 -0.25 +0.08    +0.158 A  ATOM     11  C   UNL     1      41.675  28.827  25.102 -0.11 +0.05    +0.092 A  ATOM     12  C   UNL     1      39.306  28.482  24.802 -0.18 +0.07    +0.180 A  ATOM     13  C   UNL     1      41.903  28.139  23.912 -0.13 +0.16    +0.169 A  ATOM     14  C   UNL     1      40.848  27.618  23.164 -0.15 +0.13    +0.165 A  ATOM     15  F   UNL     1      38.050  28.701  25.222 -0.05 -0.06    -0.202 F  ATOM     16  F   UNL     1      43.167  27.992  23.490 -0.01 -0.29    -0.203 F  BRANCH  10  17ATOM     17  O   UNL     1      40.008  29.684  26.688 -0.40 -0.24    -0.494 OA ATOM     18  C   UNL     1      40.957  29.731  27.747 -0.10 -0.01    +0.278 C  ENDBRANCH  10  17BRANCH  14  19ATOM     19  O   UNL     1      41.150  26.979  21.990 -0.55 -0.56    -0.504 OA ATOM     20  H   UNL     1      40.492  26.260  21.849 +0.06 +0.15    +0.293 HD ENDBRANCH  14  19ENDBRANCH   7   9ENDBRANCH   1   7BRANCH   4  21ATOM     21  C   UNL     1      33.254  29.711  22.307 -0.39 -0.01    +0.251 C  ATOM     22  N   UNL     1      32.287  29.289  23.198 -0.27 -0.03    -0.349 N  ATOM     23  O   UNL     1      33.044  30.528  21.417 -0.93 +0.02    -0.269 OA ATOM     24  H   UNL     1      32.457  28.431  23.708 +0.11 +0.02    +0.164 HD BRANCH  22  25ATOM     25  C   UNL     1      30.903  29.727  23.065 -0.60 +0.00    +0.085 C  ATOM     26  C   UNL     1      30.753  30.653  21.859 -0.62 -0.01    +0.046 C  ATOM     27  C   UNL     1      30.428  30.437  24.334 -0.62 +0.02    +0.046 C  ATOM     28  C   UNL     1      29.317  31.146  21.721 -0.43 -0.04    +0.122 C  ATOM     29  C   UNL     1      28.995  30.929  24.174 -0.48 +0.06    +0.122 C  ATOM     30  N   UNL     1      28.821  31.736  22.967 -0.18 -0.04    -0.338 N  ATOM     31  C   UNL     1      27.931  32.807  23.033 -0.31 +0.07    +0.254 C  ATOM     32  O   UNL     1      27.443  33.243  24.070 -0.69 -0.29    -0.269 OA BRANCH  31  33ATOM     33  C   UNL     1      27.550  33.487  21.786 -0.39 -0.02    +0.046 A  ATOM     34  C   UNL     1      27.897  34.821  21.585 -0.35 -0.01    +0.034 A  ATOM     35  C   UNL     1      26.888  32.765  20.802 -0.30 -0.08    +0.074 A  ATOM     36  C   UNL     1      27.522  35.397  20.387 -0.16 -0.07    +0.115 A  ATOM     37  C   UNL     1      26.562  33.438  19.646 -0.31 -0.23    +0.213 A  ATOM     38  N   UNL     1      26.850  34.738  19.418 -0.75 +0.15    -0.228 NA ATOM     39  F   UNL     1      25.905  32.775  18.684 -0.23 +0.21    -0.185 F  ENDBRANCH  31  33ENDBRANCH  22  25ENDBRANCH   4  21TORSDOF 7TERENDMDL