REMARK SMILES COC(=O)c1cc(F)c(O)c(C(=O)c2ccc(C(=O)NC3CCN(C(=O)c4ccncc4)CC3)cc2)c1
REMARK SMILES IDX 12 1 13 2 11 3 5 4 6 5 37 6 7 7 9 8 8 9 3 10 4 11 2 12 1 13
REMARK SMILES IDX 10 14 14 16 15 17 36 18 16 19 35 20 17 21 18 22 20 23 19 24
REMARK SMILES IDX 21 26 22 27 34 28 23 29 33 30 24 31 25 32 26 33 27 34 28 35
REMARK SMILES IDX 32 36 29 37 31 38 30 39
REMARK H PARENT 10 15 20 25
ROOT
ATOM      1  C   UNL     1       4.557   0.954  -2.187  1.00  0.00     0.196 C 
ATOM      2  O   UNL     1       4.466   1.333  -3.354  1.00  0.00    -0.288 OA
ENDROOT
BRANCH   1   3
ATOM      3  C   UNL     1       5.891   0.988  -1.535  1.00  0.00     0.068 A 
ATOM      4  C   UNL     1       7.487   0.145   0.102  1.00  0.00     0.064 A 
ATOM      5  C   UNL     1       8.424   1.089  -0.331  1.00  0.00     0.059 A 
ATOM      6  C   UNL     1       6.222   0.091  -0.507  1.00  0.00     0.032 A 
ATOM      7  C   UNL     1       8.101   1.956  -1.369  1.00  0.00     0.166 A 
ATOM      8  C   UNL     1       6.851   1.907  -1.983  1.00  0.00     0.162 A 
ATOM      9  F   UNL     1       9.022   2.841  -1.778  1.00  0.00    -0.203 F 
BRANCH   4  10
ATOM     10  C   UNL     1       7.882  -0.775   1.203  1.00  0.00     0.337 C 
ATOM     11  O   UNL     1       8.986  -0.768   1.722  1.00  0.00    -0.246 OA
BRANCH  10  12
ATOM     12  O   UNL     1       6.850  -1.590   1.534  1.00  0.00    -0.465 OA
ATOM     13  C   UNL     1       7.151  -2.509   2.586  1.00  0.00     0.282 C 
ENDBRANCH  10  12
ENDBRANCH   4  10
BRANCH   8  14
ATOM     14  O   UNL     1       6.612   2.775  -3.017  1.00  0.00    -0.504 OA
ATOM     15  H   UNL     1       5.796   2.484  -3.483  1.00  0.00     0.293 HD
ENDBRANCH   8  14
ENDBRANCH   1   3
BRANCH   1  16
ATOM     16  C   UNL     1       3.334   0.501  -1.483  1.00  0.00     0.023 A 
ATOM     17  C   UNL     1       3.085   0.843  -0.150  1.00  0.00     0.013 A 
ATOM     18  C   UNL     1       2.393  -0.248  -2.201  1.00  0.00     0.013 A 
ATOM     19  C   UNL     1       1.912   0.406   0.471  1.00  0.00     0.014 A 
ATOM     20  C   UNL     1       1.218  -0.683  -1.579  1.00  0.00     0.014 A 
ATOM     21  C   UNL     1       0.971  -0.351  -0.241  1.00  0.00     0.039 A 
BRANCH  21  22
ATOM     22  C   UNL     1      -0.258  -0.800   0.470  1.00  0.00     0.251 C 
ATOM     23  N   UNL     1      -1.382  -0.997  -0.309  1.00  0.00    -0.349 N 
ATOM     24  O   UNL     1      -0.241  -0.947   1.686  1.00  0.00    -0.269 OA
ATOM     25  H   UNL     1      -1.391  -0.598  -1.238  1.00  0.00     0.164 HD
BRANCH  23  26
ATOM     26  C   UNL     1      -2.669  -1.325   0.299  1.00  0.00     0.085 C 
ATOM     27  C   UNL     1      -3.584  -2.038  -0.706  1.00  0.00     0.046 C 
ATOM     28  C   UNL     1      -3.313  -0.068   0.903  1.00  0.00     0.046 C 
ATOM     29  C   UNL     1      -4.627  -1.099  -1.294  1.00  0.00     0.122 C 
ATOM     30  C   UNL     1      -4.822  -0.227   1.040  1.00  0.00     0.122 C 
ATOM     31  N   UNL     1      -5.457  -0.495  -0.254  1.00  0.00    -0.338 N 
ATOM     32  C   UNL     1      -6.705   0.001  -0.634  1.00  0.00     0.253 C 
ATOM     33  O   UNL     1      -7.083   0.045  -1.803  1.00  0.00    -0.269 OA
BRANCH  32  34
ATOM     34  C   UNL     1      -7.632   0.497   0.406  1.00  0.00     0.043 A 
ATOM     35  C   UNL     1      -7.965  -0.293   1.505  1.00  0.00     0.034 A 
ATOM     36  C   UNL     1      -8.229   1.743   0.230  1.00  0.00     0.034 A 
ATOM     37  C   UNL     1      -8.861   0.229   2.418  1.00  0.00     0.112 A 
ATOM     38  C   UNL     1      -9.113   2.172   1.201  1.00  0.00     0.112 A 
ATOM     39  N   UNL     1      -9.431   1.448   2.296  1.00  0.00    -0.265 NA
ENDBRANCH  32  34
ENDBRANCH  23  26
ENDBRANCH  21  22
ENDBRANCH   1  16
TORSDOF 8
