MODEL        6USER    Run = 6USERUSER    Estimated Free Energy of Binding    = -11.01 kcal/mol  [=(1)+(2)+(3)-(4)]USERUSER    (1) Final Intermolecular Energy     = -13.39 kcal/molUSER        vdW + Hbond + desolv Energy     = -13.12 kcal/molUSER        Electrostatic Energy            =  -0.27 kcal/molUSER        Moving Ligand-Fixed Receptor    = -13.39 kcal/molUSER        Moving Ligand-Moving Receptor   =  +0.00 kcal/molUSER    (2) Final Total Internal Energy     =  -2.54 kcal/molUSER    (3) Torsional Free Energy           =  +2.39 kcal/molUSER    (4) Unbound System's Energy         =  -2.54 kcal/molUSERUSERREMARK SMILES CS(=O)(=O)c1nc2c([nH]1)CN(C(=O)[C@H](Cc1ccc(F)cc1)NC(=O)c1ccncc1)C[C@@H]2OREMARK SMILES IDX 12 1 13 2 11 3 5 4 6 5 9 6 7 7 8 8 33 9 10 10 32 11 2 13REMARK SMILES IDX 1 14 3 15 4 16 34 17 14 19 15 20 16 21 17 22 22 23 18 24REMARK SMILES IDX 21 25 19 26 20 27 23 28 24 29 25 31 26 32 27 33 31 34 28 35REMARK SMILES IDX 30 36 29 37REMARK H PARENT 9 12 34 18 23 30USER                              x       y       z     vdW  Elec       q    TypeUSER                           _______ _______ _______ _____ _____    ______ ____ROOTATOM      1  C   UNL     1      35.587  44.386  15.378 -0.21 -0.11    +0.245 C  ATOM      2  O   UNL     1      35.905  43.194  15.309 -0.32 +0.10    -0.272 OA ENDROOTBRANCH   1   3ATOM      3  N   UNL     1      36.448  45.373  14.893 -0.14 +0.16    -0.332 N  ATOM      4  C   UNL     1      39.697  48.541  15.054 -0.37 -0.08    +0.225 A  ATOM      5  N   UNL     1      38.850  48.665  14.039 -0.31 +0.09    -0.220 NA ATOM      6  N   UNL     1      39.422  47.419  15.805 -0.22 +0.10    -0.331 N  ATOM      7  C   UNL     1      38.007  47.593  14.161 -0.44 -0.04    +0.095 A  ATOM      8  C   UNL     1      38.346  46.803  15.233 -0.38 -0.02    +0.061 A  ATOM      9  C   UNL     1      36.869  47.279  13.256 -0.51 -0.08    +0.184 C  ATOM     10  C   UNL     1      37.700  45.541  15.654 -0.30 -0.06    +0.175 C  ATOM     11  C   UNL     1      36.472  45.792  13.465 -0.43 -0.07    +0.158 C  ATOM     12  H   UNL     1      39.945  47.128  16.622 +0.12 -0.04    +0.169 HD BRANCH   4  13ATOM     13  S   UNL     1      41.034  49.622  15.455 -0.74 -0.05    +0.208 S  ATOM     14  C   UNL     1      41.981  49.718  13.961 -0.57 -0.03    +0.167 C  ATOM     15  O   UNL     1      41.786  48.912  16.472 -0.98 -0.04    -0.221 OA ATOM     16  O   UNL     1      40.408  50.900  15.729 -0.45 +0.13    -0.221 OA ENDBRANCH   4  13BRANCH   9  17ATOM     17  O   UNL     1      37.207  47.501  11.888 -0.97 +0.08    -0.385 OA ATOM     18  H   UNL     1      36.556  48.158  11.574 -0.20 -0.09    +0.211 HD ENDBRANCH   9  17ENDBRANCH   1   3BRANCH   1  19ATOM     19  C   UNL     1      34.223  44.820  15.983 -0.25 -0.11    +0.176 C  BRANCH  19  20ATOM     20  C   UNL     1      34.379  45.485  17.367 -0.38 -0.05    +0.070 C  BRANCH  20  21ATOM     21  C   UNL     1      34.955  44.553  18.412 -0.32 +0.01    -0.045 A  ATOM     22  C   UNL     1      36.270  44.732  18.869 -0.34 -0.00    +0.007 A  ATOM     23  C   UNL     1      34.190  43.495  18.926 -0.37 -0.00    +0.007 A  ATOM     24  C   UNL     1      36.812  43.867  19.819 -0.36 -0.00    +0.039 A  ATOM     25  C   UNL     1      34.735  42.630  19.878 -0.40 +0.00    +0.039 A  ATOM     26  C   UNL     1      36.040  42.824  20.314 -0.36 -0.00    +0.123 A  ATOM     27  F   UNL     1      36.560  41.992  21.226 -0.15 -0.00    -0.207 F  ENDBRANCH  20  21ENDBRANCH  19  20BRANCH  19  28ATOM     28  N   UNL     1      33.279  43.690  15.940 -0.12 +0.17    -0.340 N  ATOM     29  C   UNL     1      31.998  43.767  16.451 -0.21 -0.10    +0.252 C  ATOM     30  H   UNL     1      33.707  42.776  15.983 -0.03 -0.09    +0.164 HD ATOM     31  O   UNL     1      31.467  44.795  16.852 -0.66 +0.06    -0.269 OA BRANCH  29  32ATOM     32  C   UNL     1      31.257  42.484  16.529 -0.29 -0.02    +0.042 A  ATOM     33  C   UNL     1      30.162  42.221  15.705 -0.31 -0.02    +0.034 A  ATOM     34  C   UNL     1      31.658  41.539  17.472 -0.30 -0.01    +0.034 A  ATOM     35  C   UNL     1      29.524  41.003  15.852 -0.34 -0.03    +0.112 A  ATOM     36  C   UNL     1      30.956  40.351  17.538 -0.29 -0.01    +0.112 A  ATOM     37  N   UNL     1      29.901  40.061  16.744 -0.22 -0.00    -0.265 NA ENDBRANCH  29  32ENDBRANCH  19  28ENDBRANCH   1  19TORSDOF 8TERENDMDL