MODEL        8USER    Run = 8USERUSER    Estimated Free Energy of Binding    = -10.22 kcal/mol  [=(1)+(2)+(3)-(4)]USERUSER    (1) Final Intermolecular Energy     = -12.61 kcal/molUSER        vdW + Hbond + desolv Energy     = -12.43 kcal/molUSER        Electrostatic Energy            =  -0.18 kcal/molUSER        Moving Ligand-Fixed Receptor    = -12.61 kcal/molUSER        Moving Ligand-Moving Receptor   =  +0.00 kcal/molUSER    (2) Final Total Internal Energy     =  -1.43 kcal/molUSER    (3) Torsional Free Energy           =  +2.39 kcal/molUSER    (4) Unbound System's Energy         =  -1.43 kcal/molUSERUSERREMARK SMILES C[C@H]1C[C@H](NC(=O)c2ccc(C(=O)c3cc(O)cc(F)c3O)cc2)CCN1C(=O)c1ccncc1REMARK SMILES IDX 8 1 9 2 10 3 11 4 23 5 24 6 6 7 5 8 7 10 4 11 2 12 3 13REMARK SMILES IDX 27 14 26 15 25 16 1 17 28 18 29 19 30 20 31 21 35 22 32 23REMARK SMILES IDX 34 24 33 25 12 26 13 27 14 28 15 29 21 30 16 31 19 32 18 33REMARK SMILES IDX 20 34 22 35 17 37REMARK H PARENT 5 9 22 36 17 38USER                              x       y       z     vdW  Elec       q    TypeUSER                           _______ _______ _______ _____ _____    ______ ____ROOTATOM      1  C   UNL     1      36.453  43.556  20.138 -0.38 -0.00    +0.039 A  ATOM      2  C   UNL     1      36.979  44.688  20.778 -0.10 +0.00    +0.014 A  ATOM      3  C   UNL     1      37.491  44.594  22.074 -0.33 +0.00    +0.013 A  ATOM      4  C   UNL     1      37.457  43.368  22.749 -0.37 +0.00    +0.023 A  ATOM      5  C   UNL     1      36.941  42.233  22.110 -0.50 +0.00    +0.013 A  ATOM      6  C   UNL     1      36.430  42.327  20.812 -0.47 +0.00    +0.014 A  ENDROOTBRANCH   1   7ATOM      7  C   UNL     1      35.910  43.711  18.761 -0.23 -0.05    +0.251 C  ATOM      8  N   UNL     1      36.741  44.315  17.838 -0.10 +0.09    -0.349 N  ATOM      9  H   UNL     1      37.531  44.842  18.187 +0.10 -0.03    +0.164 HD ATOM     10  O   UNL     1      34.772  43.336  18.505 -0.19 +0.06    -0.269 OA BRANCH   8  11ATOM     11  C   UNL     1      36.260  44.641  16.500 -0.33 -0.04    +0.086 C  ATOM     12  C   UNL     1      35.408  46.510  14.994 -0.29 -0.08    +0.084 C  ATOM     13  C   UNL     1      35.819  46.110  16.419 -0.39 -0.04    +0.049 C  ATOM     14  N   UNL     1      36.471  46.146  14.040 -0.18 +0.18    -0.336 N  ATOM     15  C   UNL     1      36.875  44.735  14.059 -0.36 -0.04    +0.122 C  ATOM     16  C   UNL     1      37.343  44.339  15.457 -0.27 -0.01    +0.046 C  ATOM     17  C   UNL     1      34.054  45.920  14.587 -0.26 -0.03    +0.031 C  BRANCH  14  18ATOM     18  C   UNL     1      37.353  47.160  13.643 -0.39 -0.10    +0.254 C  ATOM     19  O   UNL     1      37.221  47.813  12.611 -1.05 +0.06    -0.269 OA BRANCH  18  20ATOM     20  C   UNL     1      38.532  47.456  14.488 -0.46 -0.02    +0.043 A  ATOM     21  C   UNL     1      39.571  46.534  14.610 -0.41 -0.01    +0.034 A  ATOM     22  C   UNL     1      38.624  48.703  15.100 -0.46 -0.02    +0.034 A  ATOM     23  C   UNL     1      40.653  46.892  15.391 -0.34 -0.01    +0.112 A  ATOM     24  C   UNL     1      39.751  48.963  15.856 -0.42 -0.05    +0.112 A  ATOM     25  N   UNL     1      40.759  48.080  16.025 -0.36 +0.04    -0.265 NA ENDBRANCH  18  20ENDBRANCH  14  18ENDBRANCH   8  11ENDBRANCH   1   7BRANCH   4  26ATOM     26  C   UNL     1      38.003  43.217  24.117 -0.24 +0.01    +0.196 C  ATOM     27  O   UNL     1      39.223  43.261  24.276 -0.12 -0.01    -0.288 OA BRANCH  26  28ATOM     28  C   UNL     1      37.142  43.032  25.311 -0.31 -0.00    +0.071 A  ATOM     29  C   UNL     1      36.861  41.754  25.814 -0.34 -0.01    +0.062 A  ATOM     30  C   UNL     1      36.632  44.157  25.976 -0.26 -0.01    +0.162 A  ATOM     31  C   UNL     1      36.045  41.613  26.935 -0.46 -0.04    +0.119 A  ATOM     32  C   UNL     1      35.813  43.990  27.093 -0.33 -0.04    +0.169 A  ATOM     33  C   UNL     1      35.509  42.722  27.577 -0.46 -0.03    +0.089 A  ATOM     34  F   UNL     1      35.308  45.058  27.729 +0.02 +0.08    -0.203 F  BRANCH  30  35ATOM     35  O   UNL     1      36.908  45.439  25.574 -0.41 -0.00    -0.504 OA ATOM     36  H   UNL     1      36.152  46.010  25.835 -0.43 -0.08    +0.293 HD ENDBRANCH  30  35BRANCH  31  37ATOM     37  O   UNL     1      35.796  40.348  27.376 -0.25 +0.24    -0.508 OA ATOM     38  H   UNL     1      35.992  39.715  26.664 -0.31 -0.20    +0.293 HD ENDBRANCH  31  37ENDBRANCH  26  28ENDBRANCH   4  26TORSDOF 8TERENDMDL