MODEL        10USER    Run = 10USERUSER    Estimated Free Energy of Binding    = -10.02 kcal/mol  [=(1)+(2)+(3)-(4)]USERUSER    (1) Final Intermolecular Energy     = -12.41 kcal/molUSER        vdW + Hbond + desolv Energy     = -12.21 kcal/molUSER        Electrostatic Energy            =  -0.20 kcal/molUSER        Moving Ligand-Fixed Receptor    = -12.41 kcal/molUSER        Moving Ligand-Moving Receptor   =  +0.00 kcal/molUSER    (2) Final Total Internal Energy     =  -1.10 kcal/molUSER    (3) Torsional Free Energy           =  +2.39 kcal/molUSER    (4) Unbound System's Energy         =  -1.10 kcal/molUSERUSERREMARK SMILES COC(=O)c1cc(F)c(O)c(C(=O)c2ccc(C(=O)NC3CCN(C(=O)c4ccncc4)CC3)cc2)c1REMARK SMILES IDX 12 1 13 2 11 3 5 4 6 5 37 6 7 7 9 8 8 9 3 10 4 11 2 12 1 13REMARK SMILES IDX 10 14 14 16 15 17 36 18 16 19 35 20 17 21 18 22 20 23 19 24REMARK SMILES IDX 21 26 22 27 34 28 23 29 33 30 24 31 25 32 26 33 27 34 28 35REMARK SMILES IDX 32 36 29 37 31 38 30 39REMARK H PARENT 10 15 20 25USER                              x       y       z     vdW  Elec       q    TypeUSER                           _______ _______ _______ _____ _____    ______ ____ROOTATOM      1  C   UNL     1      37.428  44.306  26.983 -0.26 -0.02    +0.196 C  ATOM      2  O   UNL     1      38.171  43.541  27.596 -0.19 +0.03    -0.288 OA ENDROOTBRANCH   1   3ATOM      3  C   UNL     1      36.372  45.025  27.742 -0.37 -0.02    +0.068 A  ATOM      4  C   UNL     1      35.463  47.061  28.725 -0.33 -0.02    +0.064 A  ATOM      5  C   UNL     1      34.354  46.341  29.180 -0.38 -0.01    +0.059 A  ATOM      6  C   UNL     1      36.469  46.401  27.999 -0.30 -0.01    +0.032 A  ATOM      7  C   UNL     1      34.248  44.984  28.898 -0.41 -0.03    +0.166 A  ATOM      8  C   UNL     1      35.238  44.322  28.174 -0.43 -0.05    +0.162 A  ATOM      9  F   UNL     1      33.167  44.319  29.330 -0.24 +0.00    -0.203 F  BRANCH   4  10ATOM     10  C   UNL     1      35.526  48.515  29.034 -0.21 -0.04    +0.337 C  ATOM     11  O   UNL     1      35.928  48.961  30.096 -0.17 +0.03    -0.246 OA BRANCH  10  12ATOM     12  O   UNL     1      35.087  49.244  27.978 -0.11 +0.02    -0.465 OA ATOM     13  C   UNL     1      36.073  49.445  26.963 -0.25 -0.00    +0.282 C  ENDBRANCH  10  12ENDBRANCH   4  10BRANCH   8  14ATOM     14  O   UNL     1      35.055  42.989  27.911 -0.22 +0.15    -0.504 OA ATOM     15  H   UNL     1      35.686  42.475  28.464 -0.30 -0.17    +0.293 HD ENDBRANCH   8  14ENDBRANCH   1   3BRANCH   1  16ATOM     16  C   UNL     1      37.631  44.489  25.527 -0.28 +0.00    +0.023 A  ATOM     17  C   UNL     1      38.231  45.641  25.009 -0.27 +0.00    +0.013 A  ATOM     18  C   UNL     1      37.250  43.452  24.667 -0.34 +0.00    +0.013 A  ATOM     19  C   UNL     1      38.417  45.767  23.629 -0.30 +0.00    +0.014 A  ATOM     20  C   UNL     1      37.438  43.577  23.286 -0.35 +0.00    +0.014 A  ATOM     21  C   UNL     1      38.029  44.735  22.764 -0.32 +0.00    +0.039 A  BRANCH  21  22ATOM     22  C   UNL     1      38.239  44.922  21.302 -0.21 +0.01    +0.251 C  ATOM     23  N   UNL     1      37.652  43.987  20.471 -0.15 +0.01    -0.349 N  ATOM     24  O   UNL     1      38.927  45.852  20.898 -0.24 -0.01    -0.269 OA ATOM     25  H   UNL     1      37.341  43.117  20.881 +0.11 +0.00    +0.164 HD BRANCH  23  26ATOM     26  C   UNL     1      37.890  44.009  19.029 -0.28 -0.01    +0.085 C  ATOM     27  C   UNL     1      39.355  44.347  18.721 -0.39 -0.00    +0.046 C  ATOM     28  C   UNL     1      36.901  44.960  18.337 -0.37 -0.01    +0.046 C  ATOM     29  C   UNL     1      39.530  45.799  18.302 -0.41 -0.01    +0.122 C  ATOM     30  C   UNL     1      37.434  45.433  16.991 -0.33 -0.04    +0.122 C  ATOM     31  N   UNL     1      38.719  46.125  17.131 -0.18 +0.09    -0.338 N  ATOM     32  C   UNL     1      39.103  47.230  16.370 -0.33 -0.09    +0.253 C  ATOM     33  O   UNL     1      40.014  47.988  16.697 -0.37 +0.07    -0.269 OA BRANCH  32  34ATOM     34  C   UNL     1      38.394  47.516  15.103 -0.45 -0.02    +0.043 A  ATOM     35  C   UNL     1      37.633  48.674  14.954 -0.50 -0.03    +0.034 A  ATOM     36  C   UNL     1      38.438  46.568  14.084 -0.41 -0.01    +0.034 A  ATOM     37  C   UNL     1      36.976  48.855  13.752 -0.36 -0.06    +0.112 A  ATOM     38  C   UNL     1      37.745  46.845  12.922 -0.37 -0.03    +0.112 A  ATOM     39  N   UNL     1      37.027  47.972  12.730 -0.94 +0.07    -0.265 NA ENDBRANCH  32  34ENDBRANCH  23  26ENDBRANCH  21  22ENDBRANCH   1  16TORSDOF 8TERENDMDL