MODEL        8USER    Run = 8USERUSER    Estimated Free Energy of Binding    =  -9.56 kcal/mol  [=(1)+(2)+(3)-(4)]USERUSER    (1) Final Intermolecular Energy     = -11.95 kcal/molUSER        vdW + Hbond + desolv Energy     = -11.72 kcal/molUSER        Electrostatic Energy            =  -0.23 kcal/molUSER        Moving Ligand-Fixed Receptor    = -11.95 kcal/molUSER        Moving Ligand-Moving Receptor   =  +0.00 kcal/molUSER    (2) Final Total Internal Energy     =  -2.93 kcal/molUSER    (3) Torsional Free Energy           =  +2.39 kcal/molUSER    (4) Unbound System's Energy         =  -2.93 kcal/molUSERUSERREMARK SMILES CS(=O)(=O)c1nc2c([nH]1)CN(C(=O)[C@@H](Cc1ccc(F)cc1)NC(=O)c1ccncc1)C[C@@H]2OREMARK SMILES IDX 12 1 13 2 11 3 5 4 6 5 9 6 7 7 8 8 33 9 10 10 32 11 2 13REMARK SMILES IDX 1 14 3 15 4 16 34 17 14 19 15 20 16 21 17 22 22 23 18 24REMARK SMILES IDX 21 25 19 26 20 27 23 28 24 29 25 31 26 32 27 33 31 34 28 35REMARK SMILES IDX 30 36 29 37REMARK H PARENT 9 12 34 18 23 30USER                              x       y       z     vdW  Elec       q    TypeUSER                           _______ _______ _______ _____ _____    ______ ____ROOTATOM      1  C   UNL     1      37.804  45.424  16.774 -0.26 -0.08    +0.245 C  ATOM      2  O   UNL     1      37.642  44.434  16.046 -0.22 +0.08    -0.272 OA ENDROOTBRANCH   1   3ATOM      3  N   UNL     1      39.078  45.859  17.123 -0.18 +0.07    -0.332 N  ATOM      4  C   UNL     1      42.462  46.640  20.053 -0.28 +0.05    +0.225 A  ATOM      5  N   UNL     1      42.301  47.579  19.130 -0.37 -0.01    -0.220 NA ATOM      6  N   UNL     1      41.595  45.588  19.855 -0.19 -0.04    -0.331 N  ATOM      7  C   UNL     1      41.279  47.117  18.341 -0.45 -0.00    +0.095 A  ATOM      8  C   UNL     1      40.839  45.885  18.758 -0.44 -0.00    +0.061 A  ATOM      9  C   UNL     1      40.696  47.832  17.173 -0.43 -0.03    +0.184 C  ATOM     10  C   UNL     1      39.779  45.059  18.144 -0.34 -0.01    +0.175 C  ATOM     11  C   UNL     1      39.892  46.813  16.321 -0.42 -0.03    +0.158 C  ATOM     12  H   UNL     1      41.541  44.767  20.446 +0.10 +0.02    +0.169 HD BRANCH   4  13ATOM     13  S   UNL     1      43.602  46.663  21.402 -0.35 +0.10    +0.208 S  ATOM     14  C   UNL     1      42.839  47.728  22.598 -0.29 +0.03    +0.167 C  ATOM     15  O   UNL     1      44.793  47.289  20.862 -0.66 -0.24    -0.221 OA ATOM     16  O   UNL     1      43.617  45.298  21.889 -0.18 -0.10    -0.221 OA ENDBRANCH   4  13BRANCH   9  17ATOM     17  O   UNL     1      41.707  48.439  16.373 -0.63 -0.02    -0.385 OA ATOM     18  H   UNL     1      42.550  48.143  16.771 -0.36 +0.02    +0.211 HD ENDBRANCH   9  17ENDBRANCH   1   3BRANCH   1  19ATOM     19  C   UNL     1      36.568  46.213  17.258 -0.26 -0.10    +0.176 C  BRANCH  19  20ATOM     20  C   UNL     1      36.326  47.390  16.301 -0.04 -0.08    +0.070 C  BRANCH  20  21ATOM     21  C   UNL     1      36.589  47.047  14.852 -0.38 +0.03    -0.045 A  ATOM     22  C   UNL     1      35.763  46.133  14.178 -0.43 -0.00    +0.007 A  ATOM     23  C   UNL     1      37.661  47.638  14.163 -0.52 -0.00    +0.007 A  ATOM     24  C   UNL     1      36.005  45.819  12.840 -0.45 -0.02    +0.039 A  ATOM     25  C   UNL     1      37.897  47.323  12.824 -0.38 -0.01    +0.039 A  ATOM     26  C   UNL     1      37.068  46.417  12.176 -0.50 -0.04    +0.123 A  ATOM     27  F   UNL     1      37.299  46.115  10.890 -0.15 +0.06    -0.207 F  ENDBRANCH  20  21ENDBRANCH  19  20BRANCH  19  28ATOM     28  N   UNL     1      35.444  45.264  17.239 -0.11 +0.18    -0.340 N  ATOM     29  C   UNL     1      34.357  45.460  18.066 -0.30 -0.14    +0.252 C  ATOM     30  H   UNL     1      35.729  44.303  17.083 +0.12 -0.06    +0.164 HD ATOM     31  O   UNL     1      34.175  46.493  18.704 -0.72 +0.17    -0.269 OA BRANCH  29  32ATOM     32  C   UNL     1      33.398  44.328  18.195 -0.32 -0.01    +0.042 A  ATOM     33  C   UNL     1      33.289  43.568  19.363 -0.40 -0.00    +0.034 A  ATOM     34  C   UNL     1      32.600  44.009  17.094 -0.28 -0.01    +0.034 A  ATOM     35  C   UNL     1      32.362  42.540  19.382 -0.28 +0.00    +0.112 A  ATOM     36  C   UNL     1      31.706  42.962  17.213 -0.23 -0.03    +0.112 A  ATOM     37  N   UNL     1      31.564  42.226  18.336 -0.14 +0.04    -0.265 NA ENDBRANCH  29  32ENDBRANCH  19  28ENDBRANCH   1  19TORSDOF 8TERENDMDL