MODEL        8USER    Run = 8USERUSER    Estimated Free Energy of Binding    =  -9.63 kcal/mol  [=(1)+(2)+(3)-(4)]USERUSER    (1) Final Intermolecular Energy     = -12.02 kcal/molUSER        vdW + Hbond + desolv Energy     = -11.79 kcal/molUSER        Electrostatic Energy            =  -0.23 kcal/molUSER        Moving Ligand-Fixed Receptor    = -12.02 kcal/molUSER        Moving Ligand-Moving Receptor   =  +0.00 kcal/molUSER    (2) Final Total Internal Energy     =  -2.13 kcal/molUSER    (3) Torsional Free Energy           =  +2.39 kcal/molUSER    (4) Unbound System's Energy         =  -2.13 kcal/molUSERUSERREMARK SMILES CSc1nc2c([nH]1)CN(C(=O)[C@H](Cc1ccc(F)cc1)NC(=O)c1ccncc1)C[C@@H]2OREMARK SMILES IDX 10 1 11 2 9 3 3 4 4 5 7 6 5 7 6 8 31 9 8 10 30 11 2 13 1 14REMARK SMILES IDX 32 15 12 17 13 18 14 19 15 20 20 21 16 22 19 23 17 24 18 25REMARK SMILES IDX 21 26 22 27 23 29 24 30 25 31 29 32 26 33 28 34 27 35REMARK H PARENT 7 12 32 16 21 28USER                              x       y       z     vdW  Elec       q    TypeUSER                           _______ _______ _______ _____ _____    ______ ____ROOTATOM      1  C   UNL     1      36.953  43.772  19.060 -0.18 -0.03    +0.245 C  ATOM      2  O   UNL     1      37.041  42.801  19.822 -0.18 +0.02    -0.272 OA ENDROOTBRANCH   1   3ATOM      3  N   UNL     1      35.700  44.217  18.648 -0.12 +0.08    -0.332 N  ATOM      4  C   UNL     1      32.062  44.344  15.945 -0.23 -0.08    +0.165 A  ATOM      5  N   UNL     1      32.449  45.520  16.387 -0.42 +0.16    -0.225 NA ATOM      6  N   UNL     1      32.844  43.320  16.409 -0.12 +0.15    -0.335 N  ATOM      7  C   UNL     1      33.538  45.237  17.164 -0.27 -0.06    +0.095 A  ATOM      8  C   UNL     1      33.795  43.888  17.211 -0.27 -0.02    +0.061 A  ATOM      9  C   UNL     1      34.334  46.231  17.927 -0.40 -0.15    +0.184 C  ATOM     10  C   UNL     1      34.844  43.205  17.998 -0.28 -0.05    +0.175 C  ATOM     11  C   UNL     1      35.046  45.478  19.080 -0.13 -0.05    +0.158 C  ATOM     12  H   UNL     1      32.714  42.344  16.195 -0.30 -0.11    +0.168 HD BRANCH   4  13ATOM     13  S   UNL     1      30.727  43.995  14.913 -0.42 +0.07    -0.092 SA ATOM     14  C   UNL     1      30.690  45.497  13.908 -0.50 -0.08    +0.094 C  ENDBRANCH   4  13BRANCH   9  15ATOM     15  O   UNL     1      33.514  47.267  18.463 -0.77 +0.39    -0.385 OA ATOM     16  H   UNL     1      32.815  47.400  17.786 -0.41 -0.35    +0.211 HD ENDBRANCH   9  15ENDBRANCH   1   3BRANCH   1  17ATOM     17  C   UNL     1      38.244  44.549  18.681 -0.30 -0.02    +0.176 C  BRANCH  17  18ATOM     18  C   UNL     1      38.820  45.283  19.908 -0.36 -0.00    +0.070 C  BRANCH  18  19ATOM     19  C   UNL     1      40.192  45.875  19.691 -0.36 -0.00    -0.045 A  ATOM     20  C   UNL     1      41.179  45.765  20.682 -0.35 +0.00    +0.007 A  ATOM     21  C   UNL     1      40.488  46.561  18.503 -0.46 -0.00    +0.007 A  ATOM     22  C   UNL     1      42.441  46.331  20.487 -0.34 +0.01    +0.039 A  ATOM     23  C   UNL     1      41.750  47.127  18.310 -0.50 -0.00    +0.039 A  ATOM     24  C   UNL     1      42.714  47.007  19.304 -0.43 +0.02    +0.123 A  ATOM     25  F   UNL     1      43.923  47.556  19.118 -0.19 -0.07    -0.207 F  ENDBRANCH  18  19ENDBRANCH  17  18BRANCH  17  26ATOM     26  N   UNL     1      38.049  45.482  17.559 -0.16 +0.09    -0.340 N  ATOM     27  C   UNL     1      37.654  45.007  16.321 -0.23 -0.08    +0.252 C  ATOM     28  H   UNL     1      38.591  46.337  17.571 +0.09 -0.04    +0.164 HD ATOM     29  O   UNL     1      37.324  43.846  16.114 -0.25 +0.08    -0.269 OA BRANCH  27  30ATOM     30  C   UNL     1      37.672  45.987  15.207 -0.35 -0.02    +0.042 A  ATOM     31  C   UNL     1      38.402  47.172  15.277 -0.42 -0.01    +0.034 A  ATOM     32  C   UNL     1      36.911  45.710  14.073 -0.40 -0.01    +0.034 A  ATOM     33  C   UNL     1      38.359  48.024  14.187 -0.44 -0.04    +0.112 A  ATOM     34  C   UNL     1      36.937  46.624  13.035 -0.49 -0.04    +0.112 A  ATOM     35  N   UNL     1      37.654  47.768  13.064 -0.85 +0.06    -0.265 NA ENDBRANCH  27  30ENDBRANCH  17  26ENDBRANCH   1  17TORSDOF 8TERENDMDL