MODEL        3USER    Run = 3USERUSER    Estimated Free Energy of Binding    =  -9.43 kcal/mol  [=(1)+(2)+(3)-(4)]USERUSER    (1) Final Intermolecular Energy     = -11.82 kcal/molUSER        vdW + Hbond + desolv Energy     = -11.69 kcal/molUSER        Electrostatic Energy            =  -0.12 kcal/molUSER        Moving Ligand-Fixed Receptor    = -11.82 kcal/molUSER        Moving Ligand-Moving Receptor   =  +0.00 kcal/molUSER    (2) Final Total Internal Energy     =  -2.38 kcal/molUSER    (3) Torsional Free Energy           =  +2.39 kcal/molUSER    (4) Unbound System's Energy         =  -2.38 kcal/molUSERUSERREMARK SMILES CSc1nc2c([nH]1)CN(C(=O)[C@@H](Cc1ccc(F)cc1)NC(=O)c1ccncc1)C[C@@H]2OREMARK SMILES IDX 10 1 11 2 9 3 3 4 4 5 7 6 5 7 6 8 31 9 8 10 30 11 2 13 1 14REMARK SMILES IDX 32 15 12 17 13 18 14 19 15 20 20 21 16 22 19 23 17 24 18 25REMARK SMILES IDX 21 26 22 27 23 29 24 30 25 31 29 32 26 33 28 34 27 35REMARK H PARENT 7 12 32 16 21 28USER                              x       y       z     vdW  Elec       q    TypeUSER                           _______ _______ _______ _____ _____    ______ ____ROOTATOM      1  C   UNL     1      36.740  44.335  18.488 -0.23 -0.05    +0.245 C  ATOM      2  O   UNL     1      37.472  44.740  19.402 -0.25 +0.03    -0.272 OA ENDROOTBRANCH   1   3ATOM      3  N   UNL     1      35.590  43.604  18.757 -0.12 +0.07    -0.332 N  ATOM      4  C   UNL     1      31.877  41.312  17.614 -0.24 -0.05    +0.165 A  ATOM      5  N   UNL     1      31.649  42.426  18.275 -0.17 +0.03    -0.225 NA ATOM      6  N   UNL     1      33.218  41.036  17.506 -0.16 +0.15    -0.335 N  ATOM      7  C   UNL     1      32.898  42.864  18.655 -0.30 -0.01    +0.095 A  ATOM      8  C   UNL     1      33.890  42.041  18.158 -0.37 -0.02    +0.061 A  ATOM      9  C   UNL     1      33.194  44.100  19.442 -0.38 -0.03    +0.184 C  ATOM     10  C   UNL     1      35.355  42.218  18.307 -0.30 -0.04    +0.175 C  ATOM     11  C   UNL     1      34.699  44.090  19.841 -0.32 -0.02    +0.158 C  ATOM     12  H   UNL     1      33.603  40.236  17.023 -0.41 -0.13    +0.168 HD BRANCH   4  13ATOM     13  S   UNL     1      30.722  40.261  16.885 -0.32 +0.02    -0.092 SA ATOM     14  C   UNL     1      30.558  39.025  18.190 -0.38 +0.02    +0.094 C  ENDBRANCH   4  13BRANCH   9  15ATOM     15  O   UNL     1      32.405  44.177  20.625 -0.55 -0.01    -0.385 OA ATOM     16  H   UNL     1      31.645  43.568  20.489 +0.12 +0.02    +0.211 HD ENDBRANCH   9  15ENDBRANCH   1   3BRANCH   1  17ATOM     17  C   UNL     1      37.095  44.687  17.027 -0.28 -0.05    +0.176 C  BRANCH  17  18ATOM     18  C   UNL     1      35.864  45.134  16.209 -0.34 -0.04    +0.070 C  BRANCH  18  19ATOM     19  C   UNL     1      36.158  45.632  14.809 -0.35 +0.03    -0.045 A  ATOM     20  C   UNL     1      36.555  44.724  13.809 -0.35 -0.00    +0.007 A  ATOM     21  C   UNL     1      36.027  46.994  14.489 -0.39 -0.01    +0.007 A  ATOM     22  C   UNL     1      36.826  45.174  12.518 -0.50 -0.01    +0.039 A  ATOM     23  C   UNL     1      36.300  47.441  13.196 -0.57 -0.02    +0.039 A  ATOM     24  C   UNL     1      36.696  46.529  12.222 -0.56 -0.05    +0.123 A  ATOM     25  F   UNL     1      36.953  46.960  10.979 -0.17 +0.08    -0.207 F  ENDBRANCH  18  19ENDBRANCH  17  18BRANCH  17  26ATOM     26  N   UNL     1      38.134  45.720  17.084 -0.16 +0.10    -0.340 N  ATOM     27  C   UNL     1      38.942  46.024  16.021 -0.27 -0.06    +0.252 C  ATOM     28  H   UNL     1      38.135  46.276  17.940 +0.08 -0.04    +0.164 HD ATOM     29  O   UNL     1      38.962  45.366  14.984 -0.17 +0.06    -0.269 OA BRANCH  27  30ATOM     30  C   UNL     1      39.829  47.207  16.180 -0.47 -0.01    +0.042 A  ATOM     31  C   UNL     1      40.666  47.366  17.288 -0.50 -0.00    +0.034 A  ATOM     32  C   UNL     1      39.789  48.195  15.193 -0.53 -0.01    +0.034 A  ATOM     33  C   UNL     1      41.450  48.503  17.342 -0.24 -0.00    +0.112 A  ATOM     34  C   UNL     1      40.614  49.293  15.340 -0.54 -0.03    +0.112 A  ATOM     35  N   UNL     1      41.444  49.467  16.392 -0.98 -0.00    -0.265 NA ENDBRANCH  27  30ENDBRANCH  17  26ENDBRANCH   1  17TORSDOF 8TERENDMDL