REMARK SMILES C[C@H]1C[C@H](NC(=O)c2ccc(C(=O)c3cc(O)cc(F)c3O)cc2)CCN1C(=O)c1ccncc1
REMARK SMILES IDX 8 1 9 2 10 3 11 4 23 5 24 6 6 7 5 8 7 10 4 11 2 12 3 13
REMARK SMILES IDX 27 14 26 15 25 16 1 17 28 18 29 19 30 20 31 21 35 22 32 23
REMARK SMILES IDX 34 24 33 25 12 26 13 27 14 28 15 29 21 30 16 31 19 32 18 33
REMARK SMILES IDX 20 34 22 35 17 37
REMARK H PARENT 5 9 22 36 17 38
ROOT
ATOM      1  C   UNL     1       1.770  -0.177  -0.428  1.00  0.00     0.039 A 
ATOM      2  C   UNL     1       2.850  -0.998  -0.071  1.00  0.00     0.014 A 
ATOM      3  C   UNL     1       4.062  -0.435   0.338  1.00  0.00     0.013 A 
ATOM      4  C   UNL     1       4.207   0.957   0.368  1.00  0.00     0.023 A 
ATOM      5  C   UNL     1       3.128   1.780   0.021  1.00  0.00     0.013 A 
ATOM      6  C   UNL     1       1.915   1.216  -0.386  1.00  0.00     0.014 A 
ENDROOT
BRANCH   1   7
ATOM      7  C   UNL     1       0.504  -0.826  -0.866  1.00  0.00     0.251 C 
ATOM      8  N   UNL     1      -0.659  -0.114  -0.646  1.00  0.00    -0.349 N 
ATOM      9  H   UNL     1      -0.626   0.653   0.013  1.00  0.00     0.164 HD
ATOM     10  O   UNL     1       0.530  -1.945  -1.365  1.00  0.00    -0.269 OA
BRANCH   8  11
ATOM     11  C   UNL     1      -1.963  -0.713  -0.909  1.00  0.00     0.086 C 
ATOM     12  C   UNL     1      -3.815  -2.169   0.057  1.00  0.00     0.084 C 
ATOM     13  C   UNL     1      -2.399  -1.610   0.259  1.00  0.00     0.049 C 
ATOM     14  N   UNL     1      -4.754  -1.073  -0.246  1.00  0.00    -0.336 N 
ATOM     15  C   UNL     1      -4.388  -0.232  -1.392  1.00  0.00     0.122 C 
ATOM     16  C   UNL     1      -3.005   0.379  -1.177  1.00  0.00     0.046 C 
ATOM     17  C   UNL     1      -3.865  -3.269  -1.008  1.00  0.00     0.031 C 
BRANCH  14  18
ATOM     18  C   UNL     1      -5.529  -0.580   0.813  1.00  0.00     0.254 C 
ATOM     19  O   UNL     1      -5.399  -0.944   1.979  1.00  0.00    -0.269 OA
BRANCH  18  20
ATOM     20  C   UNL     1      -6.587   0.413   0.525  1.00  0.00     0.043 A 
ATOM     21  C   UNL     1      -7.494   0.208  -0.514  1.00  0.00     0.034 A 
ATOM     22  C   UNL     1      -6.713   1.522   1.358  1.00  0.00     0.034 A 
ATOM     23  C   UNL     1      -8.474   1.163  -0.704  1.00  0.00     0.112 A 
ATOM     24  C   UNL     1      -7.730   2.416   1.084  1.00  0.00     0.112 A 
ATOM     25  N   UNL     1      -8.603   2.267   0.064  1.00  0.00    -0.265 NA
ENDBRANCH  18  20
ENDBRANCH  14  18
ENDBRANCH   8  11
ENDBRANCH   1   7
BRANCH   4  26
ATOM     26  C   UNL     1       5.467   1.599   0.810  1.00  0.00     0.196 C 
ATOM     27  O   UNL     1       5.403   2.600   1.524  1.00  0.00    -0.288 OA
BRANCH  26  28
ATOM     28  C   UNL     1       6.807   1.077   0.444  1.00  0.00     0.071 A 
ATOM     29  C   UNL     1       7.007   0.356  -0.741  1.00  0.00     0.062 A 
ATOM     30  C   UNL     1       7.904   1.346   1.276  1.00  0.00     0.162 A 
ATOM     31  C   UNL     1       8.277  -0.125  -1.055  1.00  0.00     0.119 A 
ATOM     32  C   UNL     1       9.164   0.849   0.943  1.00  0.00     0.169 A 
ATOM     33  C   UNL     1       9.360   0.108  -0.218  1.00  0.00     0.089 A 
ATOM     34  F   UNL     1      10.218   1.087   1.738  1.00  0.00    -0.203 F 
BRANCH  30  35
ATOM     35  O   UNL     1       7.794   2.090   2.423  1.00  0.00    -0.504 OA
ATOM     36  H   UNL     1       6.915   2.531   2.417  1.00  0.00     0.293 HD
ENDBRANCH  30  35
BRANCH  31  37
ATOM     37  O   UNL     1       8.413  -0.829  -2.214  1.00  0.00    -0.508 OA
ATOM     38  H   UNL     1       9.344  -1.087  -2.327  1.00  0.00     0.293 HD
ENDBRANCH  31  37
ENDBRANCH  26  28
ENDBRANCH   4  26
TORSDOF 8
