REMARK SMILES O=C(N[C@@H]1CC[C@@H](O)N(C(=O)c2ccncc2)CC1)c1ccc(C(=O)c2cc(O)cc(F)c2O)cc1
REMARK SMILES IDX 4 1 3 2 2 3 1 4 20 6 21 7 36 8 22 9 35 10 23 11 24 12 25 13
REMARK SMILES IDX 26 14 27 15 33 16 28 17 31 18 30 19 32 20 34 21 29 23 5 25
REMARK SMILES IDX 6 26 19 28 18 29 9 30 7 31 8 33 10 35 11 36 12 37 13 38
REMARK SMILES IDX 17 39 14 40 16 41 15 42
REMARK H PARENT 3 5 34 22 29 24 8 34
REMARK Flexibility Score:  124.900
ROOT
ATOM      1  C   UNL     1      -1.794  -0.248  -0.978  1.00  0.00     0.084 C 
ENDROOT
BRANCH   1   2
ATOM      2  N   UNL     1      -0.434  -0.499  -0.491  1.00  0.00    -0.349 N 
ATOM      3  C   UNL     1       0.664   0.115  -1.060  1.00  0.00     0.251 C 
ATOM      4  O   UNL     1       0.592   0.890  -2.006  1.00  0.00    -0.269 OA
ATOM      5  H   UNL     1      -0.292  -1.223   0.201  1.00  0.00     0.164 HD
BRANCH   3   6
ATOM      6  C   UNL     1       1.994  -0.225  -0.481  1.00  0.00     0.039 A 
ATOM      7  C   UNL     1       3.119  -0.140  -1.314  1.00  0.00     0.014 A 
ATOM      8  C   UNL     1       2.153  -0.595   0.860  1.00  0.00     0.014 A 
ATOM      9  C   UNL     1       4.392  -0.435  -0.819  1.00  0.00     0.013 A 
ATOM     10  C   UNL     1       3.427  -0.891   1.357  1.00  0.00     0.013 A 
ATOM     11  C   UNL     1       4.547  -0.795   0.523  1.00  0.00     0.023 A 
BRANCH  11  12
ATOM     12  C   UNL     1       5.875  -1.131   1.088  1.00  0.00     0.196 C 
ATOM     13  O   UNL     1       5.970  -2.098   1.844  1.00  0.00    -0.288 OA
BRANCH  12  14
ATOM     14  C   UNL     1       7.101  -0.359   0.766  1.00  0.00     0.071 A 
ATOM     15  C   UNL     1       7.033   0.993   0.401  1.00  0.00     0.062 A 
ATOM     16  C   UNL     1       8.356  -0.979   0.867  1.00  0.00     0.162 A 
ATOM     17  C   UNL     1       8.201   1.690   0.100  1.00  0.00     0.119 A 
ATOM     18  C   UNL     1       9.511  -0.261   0.554  1.00  0.00     0.169 A 
ATOM     19  C   UNL     1       9.444   1.073   0.166  1.00  0.00     0.089 A 
ATOM     20  F   UNL     1      10.715  -0.846   0.632  1.00  0.00    -0.203 F 
BRANCH  16  21
ATOM     21  O   UNL     1       8.503  -2.283   1.265  1.00  0.00    -0.504 OA
ATOM     22  H   UNL     1       7.643  -2.590   1.633  1.00  0.00     0.293 HD
ENDBRANCH  16  21
BRANCH  17  23
ATOM     23  O   UNL     1       8.076   3.000  -0.256  1.00  0.00    -0.508 OA
ATOM     24  H   UNL     1       8.958   3.371  -0.434  1.00  0.00     0.293 HD
ENDBRANCH  17  23
ENDBRANCH  12  14
ENDBRANCH  11  12
ENDBRANCH   3   6
ENDBRANCH   1   2
BRANCH   1  25
ATOM     25  C   UNL     1      -2.234   1.170  -0.558  1.00  0.00     0.029 C 
BRANCH  25  26
ATOM     26  C   UNL     1      -3.732   1.443  -0.404  1.00  0.00     0.057 CG0
ATOM     27  G   UNL     1      -4.272   0.863   0.905  1.00  0.00     0.000 G0
ENDBRANCH  25  26
ENDBRANCH   1  25
BRANCH   1  28
ATOM     28  C   UNL     1      -2.708  -1.428  -0.619  1.00  0.00     0.046 C 
BRANCH  28  29
ATOM     29  C   UNL     1      -3.326  -1.393   0.781  1.00  0.00     0.124 C 
BRANCH  29  30
ATOM     30  N   UNL     1      -4.532  -0.567   0.816  1.00  0.00    -0.313 N 
BRANCH  30  31
ATOM     31  C   UNL     1      -4.272   0.863   0.905  1.00  0.00     0.214 CG0
ATOM     32  G   UNL     1      -3.732   1.443  -0.404  1.00  0.00     0.000 G0
BRANCH  31  33
ATOM     33  O   UNL     1      -5.405   1.564   1.373  1.00  0.00    -0.374 OA
ATOM     34  H   UNL     1      -5.857   1.961   0.610  1.00  0.00     0.213 HD
ENDBRANCH  31  33
ENDBRANCH  30  31
BRANCH  30  35
ATOM     35  C   UNL     1      -5.674  -1.167   0.268  1.00  0.00     0.255 C 
ATOM     36  O   UNL     1      -5.715  -2.343  -0.095  1.00  0.00    -0.269 OA
BRANCH  35  37
ATOM     37  C   UNL     1      -6.907  -0.396   0.067  1.00  0.00     0.043 A 
ATOM     38  C   UNL     1      -7.734  -0.107   1.149  1.00  0.00     0.034 A 
ATOM     39  C   UNL     1      -7.271  -0.032  -1.226  1.00  0.00     0.034 A 
ATOM     40  C   UNL     1      -8.886   0.608   0.890  1.00  0.00     0.112 A 
ATOM     41  C   UNL     1      -8.450   0.672  -1.377  1.00  0.00     0.112 A 
ATOM     42  N   UNL     1      -9.254   1.015  -0.346  1.00  0.00    -0.265 NA
ENDBRANCH  35  37
ENDBRANCH  30  35
ENDBRANCH  29  30
ENDBRANCH  28  29
ENDBRANCH   1  28
TORSDOF 9
