REMARK SMILES CS(=O)(=O)c1nc2c([nH]1)CN(C(=O)[C@H](Cc1ccc(F)cc1)NC(=O)c1ccncc1)C[C@@H]2O
REMARK SMILES IDX 12 1 13 2 11 3 5 4 6 5 9 6 7 7 8 8 33 9 10 10 32 11 2 13
REMARK SMILES IDX 1 14 3 15 4 16 34 17 14 19 15 20 16 21 17 22 22 23 18 24
REMARK SMILES IDX 21 25 19 26 20 27 23 28 24 29 25 31 26 32 27 33 31 34 28 35
REMARK SMILES IDX 30 36 29 37
REMARK H PARENT 9 12 34 18 23 30
ROOT
ATOM      1  C   UNL     1       0.005  -0.828  -0.834  1.00  0.00     0.245 C 
ATOM      2  O   UNL     1      -0.110  -1.983  -1.259  1.00  0.00    -0.272 OA
ENDROOT
BRANCH   1   3
ATOM      3  N   UNL     1       1.272  -0.293  -0.587  1.00  0.00    -0.332 N 
ATOM      4  C   UNL     1       5.664  -0.296   0.564  1.00  0.00     0.225 A 
ATOM      5  N   UNL     1       5.051   0.873   0.714  1.00  0.00    -0.220 NA
ATOM      6  N   UNL     1       4.819  -1.242   0.026  1.00  0.00    -0.331 N 
ATOM      7  C   UNL     1       3.776   0.652   0.265  1.00  0.00     0.095 A 
ATOM      8  C   UNL     1       3.612  -0.638  -0.176  1.00  0.00     0.061 A 
ATOM      9  C   UNL     1       2.685   1.663   0.227  1.00  0.00     0.184 C 
ATOM     10  C   UNL     1       2.394  -1.232  -0.770  1.00  0.00     0.175 C 
ATOM     11  C   UNL     1       1.580   1.155  -0.738  1.00  0.00     0.158 C 
ATOM     12  H   UNL     1       5.079  -2.200  -0.178  1.00  0.00     0.169 HD
BRANCH   4  13
ATOM     13  S   UNL     1       7.341  -0.671   0.969  1.00  0.00     0.208 S 
ATOM     14  C   UNL     1       7.997   0.861   1.571  1.00  0.00     0.167 C 
ATOM     15  O   UNL     1       7.957  -1.008  -0.300  1.00  0.00    -0.221 OA
ATOM     16  O   UNL     1       7.255  -1.633   2.049  1.00  0.00    -0.221 OA
ENDBRANCH   4  13
BRANCH   9  17
ATOM     17  O   UNL     1       3.160   2.935  -0.210  1.00  0.00    -0.385 OA
ATOM     18  H   UNL     1       4.060   3.007   0.163  1.00  0.00     0.211 HD
ENDBRANCH   9  17
ENDBRANCH   1   3
BRANCH   1  19
ATOM     19  C   UNL     1      -1.242   0.064  -0.583  1.00  0.00     0.176 C 
BRANCH  19  20
ATOM     20  C   UNL     1      -1.330   0.554   0.878  1.00  0.00     0.070 C 
BRANCH  20  21
ATOM     21  C   UNL     1      -2.421   1.582   1.094  1.00  0.00    -0.045 A 
ATOM     22  C   UNL     1      -3.643   1.203   1.672  1.00  0.00     0.007 A 
ATOM     23  C   UNL     1      -2.231   2.918   0.710  1.00  0.00     0.007 A 
ATOM     24  C   UNL     1      -4.657   2.141   1.859  1.00  0.00     0.039 A 
ATOM     25  C   UNL     1      -3.248   3.856   0.899  1.00  0.00     0.039 A 
ATOM     26  C   UNL     1      -4.451   3.459   1.470  1.00  0.00     0.123 A 
ATOM     27  F   UNL     1      -5.425   4.361   1.648  1.00  0.00    -0.207 F 
ENDBRANCH  20  21
ENDBRANCH  19  20
BRANCH  19  28
ATOM     28  N   UNL     1      -2.449  -0.617  -1.083  1.00  0.00    -0.340 N 
ATOM     29  C   UNL     1      -3.046  -1.667  -0.413  1.00  0.00     0.252 C 
ATOM     30  H   UNL     1      -2.539  -0.639  -2.089  1.00  0.00     0.164 HD
ATOM     31  O   UNL     1      -2.738  -2.043   0.711  1.00  0.00    -0.269 OA
BRANCH  29  32
ATOM     32  C   UNL     1      -4.114  -2.381  -1.156  1.00  0.00     0.042 A 
ATOM     33  C   UNL     1      -4.950  -1.716  -2.053  1.00  0.00     0.034 A 
ATOM     34  C   UNL     1      -4.293  -3.743  -0.919  1.00  0.00     0.034 A 
ATOM     35  C   UNL     1      -5.926  -2.458  -2.694  1.00  0.00     0.112 A 
ATOM     36  C   UNL     1      -5.295  -4.394  -1.613  1.00  0.00     0.112 A 
ATOM     37  N   UNL     1      -6.111  -3.782  -2.499  1.00  0.00    -0.265 NA
ENDBRANCH  29  32
ENDBRANCH  19  28
ENDBRANCH   1  19
TORSDOF 8
