MODEL        2USER    Run = 2USERUSER    Estimated Free Energy of Binding    =  -8.67 kcal/mol  [=(1)+(2)+(3)-(4)]USERUSER    (1) Final Intermolecular Energy     = -10.46 kcal/molUSER        vdW + Hbond + desolv Energy     = -10.07 kcal/molUSER        Electrostatic Energy            =  -0.39 kcal/molUSER        Moving Ligand-Fixed Receptor    = -10.46 kcal/molUSER        Moving Ligand-Moving Receptor   =  +0.00 kcal/molUSER    (2) Final Total Internal Energy     =  -1.20 kcal/molUSER    (3) Torsional Free Energy           =  +1.79 kcal/molUSER    (4) Unbound System's Energy         =  -1.20 kcal/molUSERUSERREMARK SMILES COc1ccc(O)c(C(=O)c2ccc(C(=O)N[C@H]3CNC[C@@H](F)C3)cc2)c1FREMARK SMILES IDX 11 1 12 2 13 3 14 4 25 5 26 6 9 7 10 8 8 9 3 10 4 11 27 12REMARK SMILES IDX 5 13 6 14 28 15 2 16 1 17 7 18 15 20 17 21 16 22 18 24 19 25REMARK SMILES IDX 24 26 20 27 22 28 21 29 23 31REMARK H PARENT 7 19 17 23 20 30USER                              x       y       z     vdW  Elec       q    TypeUSER                           _______ _______ _______ _____ _____    ______ ____ROOTATOM      1  C   UNL     1      42.088  46.958  19.168 -0.50 +0.00    +0.023 A  ATOM      2  C   UNL     1      42.053  48.041  18.280 -0.37 -0.00    +0.013 A  ATOM      3  C   UNL     1      41.206  48.004  17.165 -0.49 -0.00    +0.014 A  ATOM      4  C   UNL     1      40.374  46.897  16.950 -0.47 -0.01    +0.039 A  ATOM      5  C   UNL     1      40.409  45.819  17.844 -0.46 -0.00    +0.014 A  ATOM      6  C   UNL     1      41.253  45.855  18.957 -0.46 +0.00    +0.013 A  ENDROOTBRANCH   1   7ATOM      7  C   UNL     1      42.946  46.970  20.375 -0.36 +0.05    +0.199 C  ATOM      8  O   UNL     1      44.152  47.183  20.241 -0.40 -0.21    -0.288 OA BRANCH   7   9ATOM      9  C   UNL     1      42.440  46.683  21.736 -0.26 +0.02    +0.104 A  ATOM     10  C   UNL     1      41.396  45.198  23.366 -0.09 +0.01    +0.155 A  ATOM     11  C   UNL     1      41.510  46.190  24.341 -0.11 +0.00    +0.053 A  ATOM     12  C   UNL     1      41.858  45.458  22.066 -0.16 +0.03    +0.179 A  ATOM     13  C   UNL     1      42.062  47.432  24.014 -0.21 +0.01    +0.051 A  ATOM     14  C   UNL     1      42.509  47.679  22.719 -0.24 +0.02    +0.130 A  ATOM     15  F   UNL     1      41.711  44.508  21.130 -0.08 -0.03    -0.202 F  BRANCH  10  16ATOM     16  O   UNL     1      40.862  43.952  23.562 -0.01 -0.02    -0.494 OA ATOM     17  C   UNL     1      41.769  42.884  23.804 -0.14 -0.01    +0.278 C  ENDBRANCH  10  16BRANCH  14  18ATOM     18  O   UNL     1      43.009  48.931  22.478 -0.61 -0.12    -0.507 OA ATOM     19  H   UNL     1      43.624  48.868  21.710 -0.43 -0.06    +0.293 HD ENDBRANCH  14  18ENDBRANCH   7   9ENDBRANCH   1   7BRANCH   4  20ATOM     20  C   UNL     1      39.461  46.810  15.778 -0.34 -0.06    +0.251 C  ATOM     21  N   UNL     1      38.267  47.496  15.877 -0.18 +0.18    -0.348 N  ATOM     22  O   UNL     1      39.774  46.137  14.803 -0.32 +0.04    -0.269 OA ATOM     23  H   UNL     1      38.008  47.923  16.755 +0.10 -0.11    +0.164 HD BRANCH  21  24ATOM     24  C   UNL     1      37.282  47.468  14.799 -0.46 -0.06    +0.099 C  ATOM     25  C   UNL     1      37.891  47.924  13.458 -0.46 -0.03    +0.106 C  ATOM     26  C   UNL     1      36.644  46.074  14.672 -0.41 -0.04    +0.065 C  ATOM     27  N   UNL     1      36.919  48.016  12.360 -0.94 +0.08    -0.312 NA ATOM     28  C   UNL     1      36.223  45.752  13.243 -0.41 -0.08    +0.182 C  ATOM     29  C   UNL     1      35.848  47.010  12.456 -0.61 -0.07    +0.118 C  ATOM     30  H   UNL     1      37.421  47.884  11.480 -0.09 -0.00    +0.122 HD ATOM     31  F   UNL     1      37.279  45.154  12.612 -0.11 +0.08    -0.246 F  ENDBRANCH  21  24ENDBRANCH   4  20TORSDOF 6TERENDMDL