MODEL        6USER    Run = 6USERUSER    Estimated Free Energy of Binding    =  -8.43 kcal/mol  [=(1)+(2)+(3)-(4)]USERUSER    (1) Final Intermolecular Energy     = -10.22 kcal/molUSER        vdW + Hbond + desolv Energy     =  -9.63 kcal/molUSER        Electrostatic Energy            =  -0.59 kcal/molUSER        Moving Ligand-Fixed Receptor    = -10.22 kcal/molUSER        Moving Ligand-Moving Receptor   =  +0.00 kcal/molUSER    (2) Final Total Internal Energy     =  -1.27 kcal/molUSER    (3) Torsional Free Energy           =  +1.79 kcal/molUSER    (4) Unbound System's Energy         =  -1.27 kcal/molUSERUSERREMARK SMILES COc1ccc(O)c(C(=O)c2ccc(C(=O)N[C@@H]3CCCNC3)cc2)c1REMARK SMILES IDX 11 1 12 2 13 3 14 4 24 5 25 6 9 7 10 8 8 9 3 10 4 11 26 12REMARK SMILES IDX 5 13 6 14 2 15 1 16 7 17 15 19 17 20 16 21 18 23 19 24 23 25REMARK SMILES IDX 20 26 22 27 21 28REMARK H PARENT 7 18 17 22 22 29USER                              x       y       z     vdW  Elec       q    TypeUSER                           _______ _______ _______ _____ _____    ______ ____ROOTATOM      1  C   UNL     1      41.502  46.938  18.492 -0.51 -0.00    +0.023 A  ATOM      2  C   UNL     1      40.680  45.824  18.712 -0.47 -0.00    +0.013 A  ATOM      3  C   UNL     1      39.489  45.677  17.994 -0.43 -0.00    +0.014 A  ATOM      4  C   UNL     1      39.113  46.647  17.055 -0.41 -0.01    +0.039 A  ATOM      5  C   UNL     1      39.920  47.779  16.868 -0.45 -0.00    +0.014 A  ATOM      6  C   UNL     1      41.109  47.927  17.586 -0.48 -0.00    +0.013 A  ENDROOTBRANCH   1   7ATOM      7  C   UNL     1      42.746  47.063  19.288 -0.43 +0.03    +0.196 C  ATOM      8  O   UNL     1      43.794  47.354  18.710 -0.37 -0.09    -0.288 OA BRANCH   7   9ATOM      9  C   UNL     1      42.783  46.832  20.755 -0.35 +0.02    +0.068 A  ATOM     10  C   UNL     1      41.684  46.267  22.852 -0.15 +0.01    +0.119 A  ATOM     11  C   UNL     1      42.900  46.403  23.524 -0.14 +0.01    +0.050 A  ATOM     12  C   UNL     1      41.628  46.490  21.471 -0.21 +0.01    +0.062 A  ATOM     13  C   UNL     1      44.050  46.772  22.822 -0.22 +0.02    +0.051 A  ATOM     14  C   UNL     1      43.987  46.997  21.450 -0.27 +0.07    +0.127 A  BRANCH  10  15ATOM     15  O   UNL     1      40.486  45.927  23.418 -0.01 -0.04    -0.497 OA ATOM     16  C   UNL     1      39.375  45.785  22.542 -0.21 +0.02    +0.278 C  ENDBRANCH  10  15BRANCH  14  17ATOM     17  O   UNL     1      45.152  47.383  20.844 -0.42 -0.71    -0.507 OA ATOM     18  H   UNL     1      44.927  48.071  20.177 -0.27 +0.12    +0.293 HD ENDBRANCH  14  17ENDBRANCH   7   9ENDBRANCH   1   7BRANCH   4  19ATOM     19  C   UNL     1      37.855  46.537  16.264 -0.27 -0.11    +0.251 C  ATOM     20  N   UNL     1      37.731  47.391  15.185 -0.17 +0.19    -0.348 N  ATOM     21  O   UNL     1      36.981  45.747  16.602 -0.21 +0.12    -0.269 OA ATOM     22  H   UNL     1      38.350  48.189  15.146 +0.12 -0.09    +0.164 HD BRANCH  20  23ATOM     23  C   UNL     1      36.470  47.478  14.451 -0.42 -0.07    +0.096 C  ATOM     24  C   UNL     1      36.051  46.100  13.937 -0.50 -0.02    +0.027 C  ATOM     25  C   UNL     1      36.537  48.497  13.280 -0.45 -0.05    +0.105 C  ATOM     26  C   UNL     1      36.935  45.605  12.786 -0.60 -0.01    +0.017 C  ATOM     27  N   UNL     1      36.851  47.934  11.952 -0.87 +0.08    -0.315 NA ATOM     28  C   UNL     1      37.664  46.729  12.048 -0.28 -0.02    +0.081 C  ATOM     29  H   UNL     1      35.976  47.705  11.478 -0.16 -0.08    +0.122 HD ENDBRANCH  20  23ENDBRANCH   4  19TORSDOF 6TERENDMDL