MODEL        6USER    Run = 6USERUSER    Estimated Free Energy of Binding    =  -8.63 kcal/mol  [=(1)+(2)+(3)-(4)]USERUSER    (1) Final Intermolecular Energy     = -10.42 kcal/molUSER        vdW + Hbond + desolv Energy     = -10.11 kcal/molUSER        Electrostatic Energy            =  -0.31 kcal/molUSER        Moving Ligand-Fixed Receptor    = -10.42 kcal/molUSER        Moving Ligand-Moving Receptor   =  +0.00 kcal/molUSER    (2) Final Total Internal Energy     =  -1.37 kcal/molUSER    (3) Torsional Free Energy           =  +1.79 kcal/molUSER    (4) Unbound System's Energy         =  -1.37 kcal/molUSERUSERREMARK SMILES COc1ccc(O)c(C(=O)c2ccc(C(=O)N[C@@H]3CCCN[C@@H]3C)cc2)c1FREMARK SMILES IDX 11 1 12 2 13 3 14 4 25 5 26 6 9 7 10 8 8 9 3 10 4 11 27 12REMARK SMILES IDX 5 13 6 14 28 15 2 16 1 17 7 18 15 20 17 21 16 22 18 24 19 25REMARK SMILES IDX 23 26 20 27 22 28 21 29 24 30REMARK H PARENT 7 19 17 23 22 31USER                              x       y       z     vdW  Elec       q    TypeUSER                           _______ _______ _______ _____ _____    ______ ____ROOTATOM      1  C   UNL     1      42.171  46.712  19.919 -0.42 +0.00    +0.023 A  ATOM      2  C   UNL     1      42.206  47.724  18.953 -0.36 +0.00    +0.013 A  ATOM      3  C   UNL     1      41.498  47.567  17.757 -0.46 -0.00    +0.014 A  ATOM      4  C   UNL     1      40.736  46.413  17.529 -0.47 -0.00    +0.039 A  ATOM      5  C   UNL     1      40.701  45.403  18.499 -0.46 -0.00    +0.014 A  ATOM      6  C   UNL     1      41.407  45.560  19.695 -0.41 +0.00    +0.013 A  ENDROOTBRANCH   1   7ATOM      7  C   UNL     1      42.873  46.849  21.217 -0.30 +0.05    +0.199 C  ATOM      8  O   UNL     1      44.045  46.475  21.297 -0.43 -0.21    -0.288 OA BRANCH   7   9ATOM      9  C   UNL     1      42.222  47.363  22.442 -0.21 +0.02    +0.104 A  ATOM     10  C   UNL     1      40.358  47.417  24.013 -0.20 +0.02    +0.155 A  ATOM     11  C   UNL     1      41.040  48.360  24.785 -0.29 +0.01    +0.053 A  ATOM     12  C   UNL     1      40.957  46.931  22.840 -0.09 +0.02    +0.179 A  ATOM     13  C   UNL     1      42.293  48.824  24.378 -0.36 +0.01    +0.051 A  ATOM     14  C   UNL     1      42.872  48.339  23.206 -0.30 +0.03    +0.130 A  ATOM     15  F   UNL     1      40.275  46.055  22.085 -0.07 -0.02    -0.202 F  BRANCH  10  16ATOM     16  O   UNL     1      39.122  46.902  24.299 -0.10 -0.05    -0.494 OA ATOM     17  C   UNL     1      38.158  47.788  24.856 -0.27 +0.03    +0.278 C  ENDBRANCH  10  16BRANCH  14  18ATOM     18  O   UNL     1      44.086  48.870  22.863 -0.42 -0.15    -0.507 OA ATOM     19  H   UNL     1      44.319  48.532  21.967 -0.46 +0.02    +0.293 HD ENDBRANCH  14  18ENDBRANCH   7   9ENDBRANCH   1   7BRANCH   4  20ATOM     20  C   UNL     1      39.998  46.297  16.239 -0.31 -0.04    +0.251 C  ATOM     21  N   UNL     1      38.652  46.608  16.277 -0.17 +0.12    -0.348 N  ATOM     22  O   UNL     1      40.594  45.977  15.219 -0.40 +0.00    -0.269 OA ATOM     23  H   UNL     1      38.326  47.144  17.069 +0.09 -0.07    +0.164 HD BRANCH  21  24ATOM     24  C   UNL     1      37.860  46.669  15.052 -0.40 -0.04    +0.099 C  ATOM     25  C   UNL     1      37.668  48.121  14.599 -0.58 -0.02    +0.028 C  ATOM     26  C   UNL     1      36.480  45.940  15.156 -0.39 -0.04    +0.073 C  ATOM     27  C   UNL     1      36.875  48.203  13.291 -0.64 -0.01    +0.017 C  ATOM     28  N   UNL     1      35.518  46.304  14.091 -0.22 +0.22    -0.312 NA ATOM     29  C   UNL     1      36.176  46.892  12.927 -0.63 -0.04    +0.081 C  ATOM     30  C   UNL     1      35.777  46.137  16.506 -0.41 -0.02    +0.026 C  ATOM     31  H   UNL     1      34.835  46.973  14.450 +0.02 -0.15    +0.123 HD ENDBRANCH  21  24ENDBRANCH   4  20TORSDOF 6TERENDMDL