MODEL        8USER    Run = 8USERUSER    Estimated Free Energy of Binding    =  -8.96 kcal/mol  [=(1)+(2)+(3)-(4)]USERUSER    (1) Final Intermolecular Energy     = -11.05 kcal/molUSER        vdW + Hbond + desolv Energy     = -10.83 kcal/molUSER        Electrostatic Energy            =  -0.21 kcal/molUSER        Moving Ligand-Fixed Receptor    = -11.05 kcal/molUSER        Moving Ligand-Moving Receptor   =  +0.00 kcal/molUSER    (2) Final Total Internal Energy     =  -1.81 kcal/molUSER    (3) Torsional Free Energy           =  +2.09 kcal/molUSER    (4) Unbound System's Energy         =  -1.81 kcal/molUSERUSERREMARK SMILES COc1ccc(O)c(C(=O)c2ccc(C(=O)N[C@@H]3CCCNC3)cc2N)c1FREMARK SMILES IDX 11 1 12 2 13 3 14 4 24 5 25 6 9 7 10 8 8 9 3 10 4 11 27 12REMARK SMILES IDX 5 13 6 14 28 15 2 16 1 17 7 18 26 20 15 23 17 24 16 25 18 27REMARK SMILES IDX 19 28 23 29 20 30 22 31 21 32REMARK H PARENT 7 19 26 21 26 22 17 26 22 33USER                              x       y       z     vdW  Elec       q    TypeUSER                           _______ _______ _______ _____ _____    ______ ____ROOTATOM      1  C   UNL     1      41.587  46.603  19.917 -0.33 +0.00    +0.046 A  ATOM      2  C   UNL     1      40.392  45.876  19.799 -0.38 +0.00    +0.015 A  ATOM      3  C   UNL     1      39.712  45.841  18.581 -0.43 -0.00    +0.015 A  ATOM      4  C   UNL     1      40.229  46.528  17.477 -0.46 -0.01    +0.041 A  ATOM      5  C   UNL     1      41.399  47.289  17.611 -0.42 -0.00    +0.040 A  ATOM      6  C   UNL     1      42.062  47.380  18.841 -0.48 +0.00    +0.043 A  ENDROOTBRANCH   1   7ATOM      7  C   UNL     1      42.306  46.619  21.214 -0.28 +0.04    +0.201 C  ATOM      8  O   UNL     1      43.498  46.300  21.238 -0.25 -0.15    -0.288 OA BRANCH   7   9ATOM      9  C   UNL     1      41.670  47.045  22.483 -0.15 +0.01    +0.104 A  ATOM     10  C   UNL     1      39.979  46.796  24.227 -0.17 +0.01    +0.155 A  ATOM     11  C   UNL     1      40.500  47.909  24.890 -0.25 +0.01    +0.053 A  ATOM     12  C   UNL     1      40.574  46.372  23.028 -0.14 +0.02    +0.179 A  ATOM     13  C   UNL     1      41.611  48.576  24.369 -0.34 +0.01    +0.051 A  ATOM     14  C   UNL     1      42.196  48.139  23.182 -0.26 +0.02    +0.130 A  ATOM     15  F   UNL     1      40.077  45.282  22.420 -0.04 -0.01    -0.202 F  BRANCH  10  16ATOM     16  O   UNL     1      38.903  46.058  24.643 -0.06 -0.04    -0.494 OA ATOM     17  C   UNL     1      37.985  46.687  25.529 -0.21 +0.02    +0.278 C  ENDBRANCH  10  16BRANCH  14  18ATOM     18  O   UNL     1      43.295  48.840  22.758 -0.66 -0.14    -0.507 OA ATOM     19  H   UNL     1      43.637  48.401  21.946 -0.36 +0.02    +0.293 HD ENDBRANCH  14  18ENDBRANCH   7   9ENDBRANCH   1   7BRANCH   6  20ATOM     20  N   UNL     1      43.297  48.057  18.896 -0.07 -0.01    -0.398 N  ATOM     21  H   UNL     1      43.795  47.860  19.769 -0.43 +0.02    +0.156 HD ATOM     22  H   UNL     1      43.222  49.055  18.730 -0.47 -0.01    +0.156 HD ENDBRANCH   6  20BRANCH   4  23ATOM     23  C   UNL     1      39.554  46.497  16.151 -0.33 -0.05    +0.251 C  ATOM     24  N   UNL     1      38.293  47.058  16.101 -0.17 +0.16    -0.348 N  ATOM     25  O   UNL     1      40.108  45.969  15.195 -0.32 +0.03    -0.269 OA ATOM     26  H   UNL     1      37.814  47.198  16.981 +0.09 -0.09    +0.164 HD BRANCH  24  27ATOM     27  C   UNL     1      37.475  46.970  14.894 -0.42 -0.05    +0.096 C  ATOM     28  C   UNL     1      37.159  45.507  14.534 -0.44 -0.01    +0.027 C  ATOM     29  C   UNL     1      38.156  47.672  13.699 -0.49 -0.03    +0.105 C  ATOM     30  C   UNL     1      36.973  45.291  13.030 -0.56 -0.01    +0.017 C  ATOM     31  N   UNL     1      37.355  47.691  12.472 -0.93 +0.06    -0.315 NA ATOM     32  C   UNL     1      36.450  46.547  12.343 -0.67 -0.04    +0.081 C  ATOM     33  H   UNL     1      37.979  47.735  11.666 +0.04 +0.02    +0.122 HD ENDBRANCH  24  27ENDBRANCH   4  23TORSDOF 7TERENDMDL