MODEL        8USER    Run = 8USERUSER    Estimated Free Energy of Binding    =  -9.67 kcal/mol  [=(1)+(2)+(3)-(4)]USERUSER    (1) Final Intermolecular Energy     = -10.86 kcal/molUSER        vdW + Hbond + desolv Energy     = -10.78 kcal/molUSER        Electrostatic Energy            =  -0.08 kcal/molUSER        Moving Ligand-Fixed Receptor    = -10.86 kcal/molUSER        Moving Ligand-Moving Receptor   =  +0.00 kcal/molUSER    (2) Final Total Internal Energy     =  -0.59 kcal/molUSER    (3) Torsional Free Energy           =  +1.19 kcal/molUSER    (4) Unbound System's Energy         =  -0.59 kcal/molUSERUSERREMARK SMILES Cn1cc(-c2ccc(C(=O)N3CCC(n4c(O)nc5ccccc54)CC3)cc2)c(F)n1REMARK SMILES IDX 9 1 10 2 11 3 12 4 13 5 14 6 25 7 26 8 8 9 5 10 6 11 28 12REMARK SMILES IDX 7 13 27 14 4 15 2 16 3 17 31 18 29 19 1 20 30 21 15 22 16 23REMARK SMILES IDX 24 24 18 25 23 26 19 27 22 28 20 29 21 30 17 31REMARK H PARENT 17 32USER                              x       y       z     vdW  Elec       q    TypeUSER                           _______ _______ _______ _____ _____    ______ ____ROOTATOM      1  C   UNL     1      40.479  45.596  19.773 -0.30 +0.01    +0.253 C  ATOM      2  O   UNL     1      41.602  46.056  19.962 -0.29 -0.03    -0.269 OA ATOM      3  N   UNL     1      39.786  44.857  20.732 -0.14 -0.01    -0.338 N  ATOM      4  C   UNL     1      38.634  43.998  20.463 -0.24 -0.00    +0.122 C  ATOM      5  C   UNL     1      37.560  44.211  21.523 -0.41 +0.00    +0.047 C  ATOM      6  C   UNL     1      38.142  44.234  22.952 -0.32 +0.01    +0.096 C  ATOM      7  C   UNL     1      39.626  43.844  23.003 -0.26 +0.00    +0.047 C  ATOM      8  C   UNL     1      40.438  44.688  22.027 -0.24 +0.01    +0.122 C  ENDROOTBRANCH   1   9ATOM      9  C   UNL     1      39.839  45.870  18.469 -0.42 -0.00    +0.040 A  ATOM     10  C   UNL     1      38.657  46.481  15.996 -0.41 +0.00    -0.012 A  ATOM     11  C   UNL     1      40.055  46.465  16.137 -0.45 -0.00    +0.010 A  ATOM     12  C   UNL     1      37.862  46.199  17.118 -0.37 -0.00    +0.010 A  ATOM     13  C   UNL     1      40.645  46.169  17.370 -0.47 -0.00    +0.014 A  ATOM     14  C   UNL     1      38.447  45.905  18.354 -0.33 -0.00    +0.014 A  BRANCH  10  15ATOM     15  C   UNL     1      38.035  46.789  14.719 -0.39 -0.02    +0.056 A  ATOM     16  N   UNL     1      36.765  46.656  12.927 -0.35 +0.11    -0.272 N  ATOM     17  C   UNL     1      37.050  46.034  14.110 -0.34 -0.05    +0.120 A  ATOM     18  N   UNL     1      37.490  47.769  12.714 -1.04 +0.02    -0.142 NA ATOM     19  C   UNL     1      38.261  47.839  13.800 -0.30 -0.08    +0.240 A  ATOM     20  C   UNL     1      35.805  46.236  11.935 -0.49 -0.09    +0.173 C  ATOM     21  F   UNL     1      39.151  48.824  13.987 -0.16 +0.08    -0.182 F  ENDBRANCH  10  15ENDBRANCH   1   9BRANCH   6  22ATOM     22  N   UNL     1      37.347  43.456  23.893 -0.18 -0.02    -0.291 N  ATOM     23  C   UNL     1      36.856  42.196  23.691 -0.23 +0.02    +0.295 A  ATOM     24  C   UNL     1      36.960  43.837  25.161 -0.30 +0.00    +0.072 A  ATOM     25  N   UNL     1      36.190  41.729  24.710 -0.31 +0.02    -0.195 NA ATOM     26  C   UNL     1      37.160  44.994  25.926 -0.32 -0.00    +0.029 A  ATOM     27  C   UNL     1      36.244  42.738  25.641 -0.32 -0.01    +0.092 A  ATOM     28  C   UNL     1      36.608  45.015  27.213 -0.37 -0.00    +0.002 A  ATOM     29  C   UNL     1      35.697  42.780  26.933 -0.49 -0.01    +0.031 A  ATOM     30  C   UNL     1      35.888  43.929  27.711 -0.50 -0.00    +0.002 A  BRANCH  23  31ATOM     31  O   UNL     1      37.020  41.496  22.586 -0.26 -0.03    -0.480 OA ATOM     32  H   UNL     1      36.263  40.882  22.641 +0.20 +0.00    +0.296 HD ENDBRANCH  23  31ENDBRANCH   6  22TORSDOF 4TERENDMDL