MODEL        4USER    Run = 4USERUSER    Estimated Free Energy of Binding    =  -9.79 kcal/mol  [=(1)+(2)+(3)-(4)]USERUSER    (1) Final Intermolecular Energy     = -11.28 kcal/molUSER        vdW + Hbond + desolv Energy     = -11.24 kcal/molUSER        Electrostatic Energy            =  -0.05 kcal/molUSER        Moving Ligand-Fixed Receptor    = -11.28 kcal/molUSER        Moving Ligand-Moving Receptor   =  +0.00 kcal/molUSER    (2) Final Total Internal Energy     =  -0.93 kcal/molUSER    (3) Torsional Free Energy           =  +1.49 kcal/molUSER    (4) Unbound System's Energy         =  -0.93 kcal/molUSERUSERREMARK SMILES COc1nn(C)cc1-c1ccc(C(=O)N2CCC(n3c(O)nc4ccccc43)CC2)cc1REMARK SMILES IDX 13 1 14 2 15 3 16 4 17 5 18 6 29 7 30 8 12 9 9 10 10 11REMARK SMILES IDX 32 12 11 13 31 14 8 15 3 16 4 17 5 18 7 19 6 20 2 21 1 22REMARK SMILES IDX 19 23 20 24 28 25 22 26 27 27 23 28 26 29 24 30 25 31 21 32REMARK H PARENT 21 33USER                              x       y       z     vdW  Elec       q    TypeUSER                           _______ _______ _______ _____ _____    ______ ____ROOTATOM      1  C   UNL     1      36.894  43.718  19.903 -0.26 -0.02    +0.253 C  ATOM      2  O   UNL     1      36.015  42.973  19.479 -0.25 +0.03    -0.269 OA ATOM      3  N   UNL     1      37.358  43.700  21.227 -0.18 -0.01    -0.338 N  ATOM      4  C   UNL     1      36.712  42.748  22.122 -0.40 +0.01    +0.122 C  ATOM      5  C   UNL     1      37.665  42.315  23.224 -0.42 +0.00    +0.047 C  ATOM      6  C   UNL     1      38.220  43.505  24.019 -0.28 +0.01    +0.096 C  ATOM      7  C   UNL     1      38.733  44.620  23.088 -0.31 +0.00    +0.047 C  ATOM      8  C   UNL     1      37.850  44.914  21.876 -0.27 +0.01    +0.122 C  ENDROOTBRANCH   1   9ATOM      9  C   UNL     1      37.511  44.661  18.944 -0.33 -0.01    +0.040 A  ATOM     10  C   UNL     1      38.657  46.409  17.071 -0.40 +0.00    -0.011 A  ATOM     11  C   UNL     1      39.465  45.709  17.981 -0.43 -0.00    +0.010 A  ATOM     12  C   UNL     1      37.269  46.208  17.105 -0.35 -0.00    +0.010 A  ATOM     13  C   UNL     1      38.899  44.832  18.911 -0.38 -0.00    +0.014 A  ATOM     14  C   UNL     1      36.697  45.330  18.030 -0.32 -0.00    +0.014 A  BRANCH  10  15ATOM     15  C   UNL     1      39.240  47.323  16.103 -0.43 -0.02    +0.063 A  ATOM     16  C   UNL     1      38.956  47.554  14.736 -0.31 -0.08    +0.240 A  ATOM     17  N   UNL     1      39.742  48.483  14.187 -0.39 +0.04    -0.134 NA ATOM     18  N   UNL     1      40.544  48.847  15.203 -0.37 +0.07    -0.271 N  ATOM     19  C   UNL     1      40.285  48.187  16.370 -0.44 -0.03    +0.121 A  ATOM     20  C   UNL     1      41.559  49.848  14.981 -0.59 -0.03    +0.173 C  BRANCH  16  21ATOM     21  O   UNL     1      37.995  46.941  14.007 -0.14 +0.17    -0.479 OA ATOM     22  C   UNL     1      36.912  47.784  13.634 -0.41 -0.14    +0.280 C  ENDBRANCH  16  21ENDBRANCH  10  15ENDBRANCH   1   9BRANCH   6  23ATOM     23  N   UNL     1      37.339  43.893  25.117 -0.15 -0.01    -0.291 N  ATOM     24  C   UNL     1      36.999  45.137  25.569 -0.16 +0.00    +0.295 A  ATOM     25  C   UNL     1      36.682  42.991  25.942 -0.34 -0.01    +0.072 A  ATOM     26  N   UNL     1      36.175  45.120  26.580 +0.01 +0.05    -0.195 NA ATOM     27  C   UNL     1      36.641  41.590  25.996 -0.26 -0.01    +0.029 A  ATOM     28  C   UNL     1      35.965  43.790  26.832 -0.37 -0.02    +0.092 A  ATOM     29  C   UNL     1      35.842  41.008  26.986 -0.57 -0.00    +0.002 A  ATOM     30  C   UNL     1      35.168  43.188  27.817 -0.54 -0.01    +0.031 A  ATOM     31  C   UNL     1      35.115  41.791  27.884 -0.54 -0.00    +0.002 A  BRANCH  24  32ATOM     32  O   UNL     1      37.439  46.277  25.085 -0.70 -0.08    -0.480 OA ATOM     33  H   UNL     1      36.761  46.895  25.416 +0.05 +0.03    +0.296 HD ENDBRANCH  24  32ENDBRANCH   6  23TORSDOF 5TERENDMDL