MODEL        2USER    Run = 2USERUSER    Estimated Free Energy of Binding    = -10.66 kcal/mol  [=(1)+(2)+(3)-(4)]USERUSER    (1) Final Intermolecular Energy     = -11.86 kcal/molUSER        vdW + Hbond + desolv Energy     = -11.78 kcal/molUSER        Electrostatic Energy            =  -0.07 kcal/molUSER        Moving Ligand-Fixed Receptor    = -11.86 kcal/molUSER        Moving Ligand-Moving Receptor   =  +0.00 kcal/molUSER    (2) Final Total Internal Energy     =  -0.95 kcal/molUSER    (3) Torsional Free Energy           =  +1.19 kcal/molUSER    (4) Unbound System's Energy         =  -0.95 kcal/molUSERUSERREMARK SMILES O=C(c1ccc(-c2ncnc3[nH]ccc23)cc1)N1CCC(n2c(O)nc3ccccc32)CC1REMARK SMILES IDX 1 1 2 2 18 3 19 4 20 5 21 6 32 7 33 8 3 9 4 10 17 11 5 12REMARK SMILES IDX 16 13 6 14 7 15 8 16 15 17 9 18 14 19 11 20 10 21 13 22REMARK SMILES IDX 12 23 22 25 23 26 31 27 25 28 30 29 26 30 29 31 27 32 28 33REMARK SMILES IDX 24 34REMARK H PARENT 12 24 24 35USER                              x       y       z     vdW  Elec       q    TypeUSER                           _______ _______ _______ _____ _____    ______ ____ROOTATOM      1  O   UNL     1      34.166  42.123  19.352 -0.36 +0.01    -0.269 OA ATOM      2  C   UNL     1      35.211  42.768  19.395 -0.30 -0.02    +0.253 C  ATOM      3  N   UNL     1      36.106  42.712  20.468 -0.22 +0.00    -0.338 N  ATOM      4  C   UNL     1      37.119  43.742  20.715 -0.37 -0.00    +0.122 C  ATOM      5  C   UNL     1      37.515  43.835  22.183 -0.40 +0.00    +0.047 C  ATOM      6  C   UNL     1      37.986  42.466  22.686 -0.38 +0.01    +0.096 C  ATOM      7  C   UNL     1      37.047  41.313  22.286 -0.56 +0.00    +0.047 C  ATOM      8  C   UNL     1      35.797  41.788  21.555 -0.41 +0.01    +0.122 C  ENDROOTBRANCH   2   9ATOM      9  C   UNL     1      35.523  43.651  18.248 -0.30 -0.01    +0.040 A  ATOM     10  C   UNL     1      35.434  45.039  18.366 -0.35 -0.00    +0.014 A  ATOM     11  C   UNL     1      35.958  43.074  17.054 -0.32 -0.00    +0.014 A  ATOM     12  C   UNL     1      35.747  45.847  17.268 -0.35 -0.01    +0.011 A  ATOM     13  C   UNL     1      36.269  43.890  15.961 -0.39 -0.00    +0.011 A  ATOM     14  C   UNL     1      36.176  45.291  16.047 -0.35 -0.00    +0.001 A  BRANCH  14  15ATOM     15  C   UNL     1      36.491  46.161  14.912 -0.33 -0.05    +0.083 A  ATOM     16  N   UNL     1      35.665  46.108  13.830 -0.29 +0.15    -0.236 NA ATOM     17  C   UNL     1      37.576  47.051  14.893 -0.40 -0.02    +0.045 A  ATOM     18  C   UNL     1      35.947  46.894  12.774 -0.43 -0.13    +0.224 A  ATOM     19  C   UNL     1      38.619  47.458  15.775 -0.44 -0.01    +0.032 A  ATOM     20  C   UNL     1      37.732  47.797  13.733 -0.42 -0.05    +0.141 A  ATOM     21  N   UNL     1      36.961  47.763  12.637 -1.01 +0.07    -0.219 NA ATOM     22  C   UNL     1      39.377  48.410  15.124 -0.48 -0.03    +0.085 A  ATOM     23  N   UNL     1      38.827  48.602  13.883 -0.18 +0.13    -0.346 N  ATOM     24  H   UNL     1      39.153  49.245  13.175 -0.13 -0.06    +0.167 HD ENDBRANCH  14  15ENDBRANCH   2   9BRANCH   6  25ATOM     25  N   UNL     1      38.308  42.481  24.108 -0.14 -0.02    -0.291 N  ATOM     26  C   UNL     1      39.523  42.834  24.630 -0.05 +0.01    +0.295 A  ATOM     27  C   UNL     1      37.492  42.165  25.174 -0.31 -0.00    +0.072 A  ATOM     28  N   UNL     1      39.566  42.769  25.931 -0.13 +0.00    -0.195 NA ATOM     29  C   UNL     1      36.161  41.744  25.288 -0.33 -0.00    +0.029 A  ATOM     30  C   UNL     1      38.310  42.354  26.292 -0.25 -0.00    +0.092 A  ATOM     31  C   UNL     1      35.666  41.512  26.577 -0.56 -0.00    +0.002 A  ATOM     32  C   UNL     1      37.794  42.115  27.576 -0.39 -0.01    +0.031 A  ATOM     33  C   UNL     1      36.467  41.692  27.705 -0.51 -0.00    +0.002 A  BRANCH  26  34ATOM     34  O   UNL     1      40.566  43.209  23.919 -0.05 -0.01    -0.480 OA ATOM     35  H   UNL     1      41.022  43.798  24.548 +0.10 +0.00    +0.296 HD ENDBRANCH  26  34ENDBRANCH   6  25TORSDOF 4TERENDMDL