REMARK SMILES Cn1cc(-c2ccc(C(=O)N3CCC(n4c(O)nc5ccccc54)CC3)cc2)c(F)n1
REMARK SMILES IDX 9 1 10 2 11 3 12 4 13 5 14 6 25 7 26 8 8 9 5 10 6 11 28 12
REMARK SMILES IDX 7 13 27 14 4 15 2 16 3 17 31 18 29 19 1 20 30 21 15 22 16 23
REMARK SMILES IDX 24 24 18 25 23 26 19 27 22 28 20 29 21 30 17 31
REMARK H PARENT 17 32
ROOT
ATOM      1  C   UNL     1       0.944  -0.859  -2.113  1.00  0.00     0.253 C 
ATOM      2  O   UNL     1       1.143  -1.530  -3.123  1.00  0.00    -0.269 OA
ATOM      3  N   UNL     1      -0.311  -0.362  -1.763  1.00  0.00    -0.338 N 
ATOM      4  C   UNL     1      -0.554   0.712  -0.801  1.00  0.00     0.122 C 
ATOM      5  C   UNL     1      -1.720   0.349   0.111  1.00  0.00     0.047 C 
ATOM      6  C   UNL     1      -2.921  -0.222  -0.672  1.00  0.00     0.096 C 
ATOM      7  C   UNL     1      -2.753  -0.114  -2.194  1.00  0.00     0.047 C 
ATOM      8  C   UNL     1      -1.426  -0.722  -2.634  1.00  0.00     0.122 C 
ENDROOT
BRANCH   1   9
ATOM      9  C   UNL     1       2.099  -0.596  -1.229  1.00  0.00     0.040 A 
ATOM     10  C   UNL     1       4.346  -0.158   0.397  1.00  0.00    -0.012 A 
ATOM     11  C   UNL     1       4.350   0.238  -0.951  1.00  0.00     0.010 A 
ATOM     12  C   UNL     1       3.203  -0.789   0.912  1.00  0.00     0.010 A 
ATOM     13  C   UNL     1       3.235   0.013  -1.764  1.00  0.00     0.014 A 
ATOM     14  C   UNL     1       2.086  -1.018   0.102  1.00  0.00     0.014 A 
BRANCH  10  15
ATOM     15  C   UNL     1       5.501   0.070   1.250  1.00  0.00     0.056 A 
ATOM     16  N   UNL     1       7.577   0.328   1.932  1.00  0.00    -0.272 N 
ATOM     17  C   UNL     1       6.813   0.120   0.818  1.00  0.00     0.120 A 
ATOM     18  N   UNL     1       6.862   0.422   3.067  1.00  0.00    -0.142 NA
ATOM     19  C   UNL     1       5.607   0.259   2.647  1.00  0.00     0.240 A 
ATOM     20  C   UNL     1       9.015   0.443   1.989  1.00  0.00     0.173 C 
ATOM     21  F   UNL     1       4.560   0.283   3.484  1.00  0.00    -0.182 F 
ENDBRANCH  10  15
ENDBRANCH   1   9
BRANCH   6  22
ATOM     22  N   UNL     1      -4.193   0.333  -0.228  1.00  0.00    -0.291 N 
ATOM     23  C   UNL     1      -4.571   1.646  -0.294  1.00  0.00     0.295 A 
ATOM     24  C   UNL     1      -5.252  -0.361   0.319  1.00  0.00     0.072 A 
ATOM     25  N   UNL     1      -5.774   1.862   0.159  1.00  0.00    -0.195 NA
ATOM     26  C   UNL     1      -5.467  -1.711   0.627  1.00  0.00     0.029 A 
ATOM     27  C   UNL     1      -6.219   0.621   0.546  1.00  0.00     0.092 A 
ATOM     28  C   UNL     1      -6.707  -2.052   1.181  1.00  0.00     0.002 A 
ATOM     29  C   UNL     1      -7.455   0.258   1.104  1.00  0.00     0.031 A 
ATOM     30  C   UNL     1      -7.686  -1.087   1.417  1.00  0.00     0.002 A 
BRANCH  23  31
ATOM     31  O   UNL     1      -3.817   2.621  -0.761  1.00  0.00    -0.480 OA
ATOM     32  H   UNL     1      -4.415   3.385  -0.657  1.00  0.00     0.296 HD
ENDBRANCH  23  31
ENDBRANCH   6  22
TORSDOF 4
