REMARK SMILES COc1nn(C)cc1-c1ccc(C(=O)N2CCC(n3c(O)nc4ccccc43)CC2)cc1
REMARK SMILES IDX 13 1 14 2 15 3 16 4 17 5 18 6 29 7 30 8 12 9 9 10 10 11
REMARK SMILES IDX 32 12 11 13 31 14 8 15 3 16 4 17 5 18 7 19 6 20 2 21 1 22
REMARK SMILES IDX 19 23 20 24 28 25 22 26 27 27 23 28 26 29 24 30 25 31 21 32
REMARK H PARENT 21 33
ROOT
ATOM      1  C   UNL     1      -0.099   0.584  -2.097  1.00  0.00     0.253 C 
ATOM      2  O   UNL     1      -0.070   0.638  -3.324  1.00  0.00    -0.269 OA
ATOM      3  N   UNL     1       1.046   0.638  -1.288  1.00  0.00    -0.338 N 
ATOM      4  C   UNL     1       2.322   0.733  -1.985  1.00  0.00     0.122 C 
ATOM      5  C   UNL     1       3.350   1.453  -1.128  1.00  0.00     0.047 C 
ATOM      6  C   UNL     1       3.538   0.788   0.243  1.00  0.00     0.096 C 
ATOM      7  C   UNL     1       2.186   0.494   0.921  1.00  0.00     0.047 C 
ATOM      8  C   UNL     1       1.101  -0.057  -0.003  1.00  0.00     0.122 C 
ENDROOT
BRANCH   1   9
ATOM      9  C   UNL     1      -1.426   0.489  -1.449  1.00  0.00     0.040 A 
ATOM     10  C   UNL     1      -3.974   0.319  -0.285  1.00  0.00    -0.011 A 
ATOM     11  C   UNL     1      -3.087   1.342   0.086  1.00  0.00     0.010 A 
ATOM     12  C   UNL     1      -3.570  -0.608  -1.258  1.00  0.00     0.010 A 
ATOM     13  C   UNL     1      -1.820   1.434  -0.497  1.00  0.00     0.014 A 
ATOM     14  C   UNL     1      -2.305  -0.519  -1.847  1.00  0.00     0.014 A 
BRANCH  10  15
ATOM     15  C   UNL     1      -5.292   0.217   0.319  1.00  0.00     0.063 A 
ATOM     16  C   UNL     1      -6.092  -0.903   0.650  1.00  0.00     0.240 A 
ATOM     17  N   UNL     1      -7.269  -0.567   1.184  1.00  0.00    -0.134 NA
ATOM     18  N   UNL     1      -7.232   0.777   1.189  1.00  0.00    -0.271 N 
ATOM     19  C   UNL     1      -6.073   1.296   0.686  1.00  0.00     0.121 A 
ATOM     20  C   UNL     1      -8.364   1.515   1.695  1.00  0.00     0.173 C 
BRANCH  16  21
ATOM     21  O   UNL     1      -5.753  -2.202   0.481  1.00  0.00    -0.479 OA
ATOM     22  C   UNL     1      -6.748  -3.129   0.898  1.00  0.00     0.280 C 
ENDBRANCH  16  21
ENDBRANCH  10  15
ENDBRANCH   1   9
BRANCH   6  23
ATOM     23  N   UNL     1       4.523  -0.289   0.203  1.00  0.00    -0.291 N 
ATOM     24  C   UNL     1       4.341  -1.642   0.230  1.00  0.00     0.295 A 
ATOM     25  C   UNL     1       5.895  -0.085   0.149  1.00  0.00     0.072 A 
ATOM     26  N   UNL     1       5.453  -2.322   0.174  1.00  0.00    -0.195 NA
ATOM     27  C   UNL     1       6.696   1.065   0.116  1.00  0.00     0.029 A 
ATOM     28  C   UNL     1       6.437  -1.370   0.125  1.00  0.00     0.092 A 
ATOM     29  C   UNL     1       8.082   0.881   0.054  1.00  0.00     0.002 A 
ATOM     30  C   UNL     1       7.829  -1.534   0.062  1.00  0.00     0.031 A 
ATOM     31  C   UNL     1       8.643  -0.396   0.027  1.00  0.00     0.002 A 
BRANCH  24  32
ATOM     32  O   UNL     1       3.185  -2.261   0.320  1.00  0.00    -0.480 OA
ATOM     33  H   UNL     1       3.470  -3.194   0.308  1.00  0.00     0.296 HD
ENDBRANCH  24  32
ENDBRANCH   6  23
TORSDOF 5
