MODEL        10USER    Run = 10USERUSER    Estimated Free Energy of Binding    = -11.90 kcal/mol  [=(1)+(2)+(3)-(4)]USERUSER    (1) Final Intermolecular Energy     = -13.99 kcal/molUSER        vdW + Hbond + desolv Energy     = -13.92 kcal/molUSER        Electrostatic Energy            =  -0.07 kcal/molUSER        Moving Ligand-Fixed Receptor    = -13.99 kcal/molUSER        Moving Ligand-Moving Receptor   =  +0.00 kcal/molUSER    (2) Final Total Internal Energy     =  -1.61 kcal/molUSER    (3) Torsional Free Energy           =  +2.09 kcal/molUSER    (4) Unbound System's Energy         =  -1.61 kcal/molUSERUSERREMARK SMILES Oc1ccc(-c2nc3ccccc3nc2-c2ccc(CN3CCC(n4c(O)nc5ccccc54)CC3)cc2)cc1REMARK SMILES IDX 16 1 17 2 18 3 19 4 37 5 38 6 15 7 6 8 7 9 8 10 14 11 9 12REMARK SMILES IDX 13 13 10 14 12 15 11 16 5 17 2 18 3 19 40 20 4 21 39 22 1 23REMARK SMILES IDX 20 25 21 26 22 27 36 28 23 29 35 30 24 31 25 32 26 33 34 34REMARK SMILES IDX 28 35 33 36 29 37 32 38 30 39 31 40 27 41REMARK H PARENT 1 24 27 42USER                              x       y       z     vdW  Elec       q    TypeUSER                           _______ _______ _______ _____ _____    ______ ____ROOTATOM      1  C   UNL     1      36.450  45.113  17.520 -0.33 -0.00    +0.002 A  ATOM      2  C   UNL     1      36.160  43.884  16.905 -0.34 -0.00    +0.011 A  ATOM      3  C   UNL     1      34.839  43.454  16.727 -0.37 -0.00    +0.006 A  ATOM      4  C   UNL     1      33.768  44.228  17.190 -0.28 +0.01    -0.034 A  ATOM      5  C   UNL     1      34.044  45.446  17.821 -0.40 -0.00    +0.006 A  ATOM      6  C   UNL     1      35.363  45.880  17.982 -0.37 -0.01    +0.011 A  ENDROOTBRANCH   1   7ATOM      7  C   UNL     1      37.833  45.596  17.713 -0.31 -0.03    +0.097 A  ATOM      8  C   UNL     1      38.615  46.251  16.748 -0.34 -0.03    +0.097 A  ATOM      9  N   UNL     1      39.904  46.611  17.011 -0.29 +0.04    -0.244 NA ATOM     10  C   UNL     1      40.387  46.350  18.238 -0.42 -0.01    +0.089 A  ATOM     11  N   UNL     1      38.331  45.338  18.958 -0.23 +0.03    -0.244 NA ATOM     12  C   UNL     1      41.688  46.719  18.557 -0.50 +0.00    +0.030 A  ATOM     13  C   UNL     1      39.595  45.714  19.218 -0.35 -0.00    +0.089 A  ATOM     14  C   UNL     1      42.225  46.474  19.821 -0.43 +0.00    +0.002 A  ATOM     15  C   UNL     1      40.138  45.473  20.475 -0.35 +0.00    +0.030 A  ATOM     16  C   UNL     1      41.445  45.847  20.785 -0.35 +0.00    +0.002 A  BRANCH   8  17ATOM     17  C   UNL     1      38.163  46.642  15.401 -0.41 -0.00    +0.003 A  ATOM     18  C   UNL     1      37.303  47.427  12.842 -0.48 -0.03    +0.115 A  ATOM     19  C   UNL     1      37.413  46.077  13.148 -0.44 -0.02    +0.047 A  ATOM     20  C   UNL     1      37.602  48.397  13.792 -0.48 -0.02    +0.047 A  ATOM     21  C   UNL     1      37.836  45.687  14.421 -0.40 -0.00    +0.014 A  ATOM     22  C   UNL     1      38.024  48.003  15.067 -0.51 -0.01    +0.014 A  BRANCH  18  23ATOM     23  O   UNL     1      36.887  47.765  11.589 -0.73 +0.16    -0.508 OA ATOM     24  H   UNL     1      36.259  48.505  11.660 -0.16 -0.15    +0.293 HD ENDBRANCH  18  23ENDBRANCH   8  17ENDBRANCH   1   7BRANCH   4  25ATOM     25  C   UNL     1      32.343  43.750  17.008 -0.28 -0.04    +0.120 C  BRANCH  25  26ATOM     26  N   UNL     1      32.239  42.300  16.790 -0.10 +0.14    -0.299 NA ATOM     27  C   UNL     1      30.885  41.892  16.379 -0.29 -0.04    +0.087 C  ATOM     28  C   UNL     1      32.777  41.529  17.917 -0.40 -0.02    +0.087 C  ATOM     29  C   UNL     1      30.488  40.504  16.878 -0.38 -0.01    +0.041 C  ATOM     30  C   UNL     1      31.741  41.219  18.992 -0.34 -0.00    +0.041 C  ATOM     31  C   UNL     1      30.523  40.477  18.413 -0.25 -0.00    +0.095 C  BRANCH  31  32ATOM     32  N   UNL     1      30.364  39.131  18.950 -0.18 -0.04    -0.291 N  ATOM     33  C   UNL     1      31.293  38.130  18.923 -0.27 +0.06    +0.295 A  ATOM     34  C   UNL     1      29.259  38.637  19.614 -0.28 +0.01    +0.072 A  ATOM     35  N   UNL     1      30.892  37.037  19.512 -0.65 -0.08    -0.195 NA ATOM     36  C   UNL     1      28.010  39.177  19.955 -0.21 -0.00    +0.029 A  ATOM     37  C   UNL     1      29.624  37.331  19.949 -0.24 +0.02    +0.092 A  ATOM     38  C   UNL     1      27.121  38.346  20.646 -0.28 -0.00    +0.002 A  ATOM     39  C   UNL     1      28.719  36.517  20.646 -0.20 -0.00    +0.031 A  ATOM     40  C   UNL     1      27.468  37.040  20.992 -0.31 -0.00    +0.002 A  BRANCH  33  41ATOM     41  O   UNL     1      32.478  38.217  18.356 -0.23 -0.03    -0.480 OA ATOM     42  H   UNL     1      32.741  37.279  18.314 +0.24 +0.03    +0.296 HD ENDBRANCH  33  41ENDBRANCH  31  32ENDBRANCH  25  26ENDBRANCH   4  25TORSDOF 7TERENDMDL