REMARK SMILES NS(=O)(=O)c1ccc(-c2nc3ccccc3nc2-c2ccc(CN3CCC(n4c(O)nc5ccccc54)CC3)cc2)cc1
REMARK SMILES IDX 19 1 20 2 21 3 22 4 40 5 41 6 18 7 9 8 10 9 11 10 17 11
REMARK SMILES IDX 12 12 16 13 13 14 15 15 14 16 8 17 5 18 6 19 43 20 7 21
REMARK SMILES IDX 42 22 2 23 3 24 4 25 1 26 23 29 24 30 25 31 39 32 26 33
REMARK SMILES IDX 38 34 27 35 28 36 29 37 37 38 31 39 36 40 32 41 35 42 33 43
REMARK SMILES IDX 34 44 30 45
REMARK H PARENT 1 27 1 28 30 46
ROOT
ATOM      1  C   UNL     1      -2.307  -1.371   0.145  1.00  0.00     0.002 A 
ATOM      2  C   UNL     1      -1.693  -1.780   1.342  1.00  0.00     0.011 A 
ATOM      3  C   UNL     1      -0.633  -1.057   1.899  1.00  0.00     0.006 A 
ATOM      4  C   UNL     1      -0.147   0.091   1.263  1.00  0.00    -0.034 A 
ATOM      5  C   UNL     1      -0.745   0.501   0.065  1.00  0.00     0.006 A 
ATOM      6  C   UNL     1      -1.804  -0.224  -0.490  1.00  0.00     0.011 A 
ENDROOT
BRANCH   1   7
ATOM      7  C   UNL     1      -3.427  -2.144  -0.419  1.00  0.00     0.097 A 
ATOM      8  C   UNL     1      -4.671  -1.608  -0.790  1.00  0.00     0.097 A 
ATOM      9  N   UNL     1      -5.637  -2.385  -1.355  1.00  0.00    -0.244 NA
ATOM     10  C   UNL     1      -5.362  -3.692  -1.520  1.00  0.00     0.089 A 
ATOM     11  N   UNL     1      -3.159  -3.471  -0.578  1.00  0.00    -0.244 NA
ATOM     12  C   UNL     1      -6.317  -4.531  -2.082  1.00  0.00     0.030 A 
ATOM     13  C   UNL     1      -4.118  -4.237  -1.128  1.00  0.00     0.089 A 
ATOM     14  C   UNL     1      -6.071  -5.892  -2.269  1.00  0.00     0.002 A 
ATOM     15  C   UNL     1      -3.881  -5.592  -1.321  1.00  0.00     0.030 A 
ATOM     16  C   UNL     1      -4.847  -6.426  -1.887  1.00  0.00     0.002 A 
BRANCH   8  17
ATOM     17  C   UNL     1      -5.075  -0.205  -0.597  1.00  0.00     0.002 A 
ATOM     18  C   UNL     1      -5.831   2.480  -0.263  1.00  0.00     0.082 A 
ATOM     19  C   UNL     1      -5.872   1.904  -1.534  1.00  0.00     0.022 A 
ATOM     20  C   UNL     1      -5.421   1.737   0.844  1.00  0.00     0.022 A 
ATOM     21  C   UNL     1      -5.504   0.566  -1.694  1.00  0.00     0.012 A 
ATOM     22  C   UNL     1      -5.052   0.400   0.674  1.00  0.00     0.012 A 
BRANCH  18  23
ATOM     23  S   UNL     1      -6.306   4.176  -0.071  1.00  0.00     0.238 S 
ATOM     24  O   UNL     1      -6.213   4.527   1.328  1.00  0.00    -0.207 OA
ATOM     25  O   UNL     1      -5.665   4.944  -1.112  1.00  0.00    -0.207 OA
BRANCH  23  26
ATOM     26  N   UNL     1      -7.960   4.112  -0.395  1.00  0.00    -0.225 NA
ATOM     27  H   UNL     1      -8.466   4.393   0.448  1.00  0.00     0.137 HD
ATOM     28  H   UNL     1      -8.271   3.200  -0.727  1.00  0.00     0.137 HD
ENDBRANCH  23  26
ENDBRANCH  18  23
ENDBRANCH   8  17
ENDBRANCH   1   7
BRANCH   4  29
ATOM     29  C   UNL     1       0.990   0.890   1.866  1.00  0.00     0.120 C 
BRANCH  29  30
ATOM     30  N   UNL     1       2.123   1.078   0.939  1.00  0.00    -0.299 NA
ATOM     31  C   UNL     1       3.016   2.125   1.450  1.00  0.00     0.087 C 
ATOM     32  C   UNL     1       2.865  -0.178   0.757  1.00  0.00     0.087 C 
ATOM     33  C   UNL     1       4.113   2.442   0.440  1.00  0.00     0.041 C 
ATOM     34  C   UNL     1       3.973  -0.018  -0.281  1.00  0.00     0.041 C 
ATOM     35  C   UNL     1       4.869   1.210  -0.071  1.00  0.00     0.095 C 
BRANCH  35  36
ATOM     36  N   UNL     1       6.107   0.936   0.653  1.00  0.00    -0.291 N 
ATOM     37  C   UNL     1       6.258   0.528   1.948  1.00  0.00     0.295 A 
ATOM     38  C   UNL     1       7.386   1.063   0.134  1.00  0.00     0.072 A 
ATOM     39  N   UNL     1       7.502   0.391   2.313  1.00  0.00    -0.195 NA
ATOM     40  C   UNL     1       7.889   1.435  -1.121  1.00  0.00     0.029 A 
ATOM     41  C   UNL     1       8.224   0.718   1.195  1.00  0.00     0.092 A 
ATOM     42  C   UNL     1       9.280   1.446  -1.280  1.00  0.00     0.002 A 
ATOM     43  C   UNL     1       9.616   0.739   1.016  1.00  0.00     0.031 A 
ATOM     44  C   UNL     1      10.133   1.102  -0.231  1.00  0.00     0.002 A 
BRANCH  37  45
ATOM     45  O   UNL     1       5.282   0.279   2.793  1.00  0.00    -0.480 OA
ATOM     46  H   UNL     1       5.785   0.036   3.593  1.00  0.00     0.296 HD
ENDBRANCH  37  45
ENDBRANCH  35  36
ENDBRANCH  29  30
ENDBRANCH   4  29
TORSDOF 8
