MODEL        4USER    Run = 4USERUSER    Estimated Free Energy of Binding    = -12.18 kcal/mol  [=(1)+(2)+(3)-(4)]USERUSER    (1) Final Intermolecular Energy     = -14.57 kcal/molUSER        vdW + Hbond + desolv Energy     = -14.24 kcal/molUSER        Electrostatic Energy            =  -0.33 kcal/molUSER        Moving Ligand-Fixed Receptor    = -14.57 kcal/molUSER        Moving Ligand-Moving Receptor   =  +0.00 kcal/molUSER    (2) Final Total Internal Energy     =  -1.81 kcal/molUSER    (3) Torsional Free Energy           =  +2.39 kcal/molUSER    (4) Unbound System's Energy         =  -1.81 kcal/molUSERUSERREMARK SMILES NS(=O)(=O)c1ccc(-c2nc3ccccc3nc2-c2ccc(CN3CCC(n4c(O)nc5ccccc54)CC3)cc2)cc1REMARK SMILES IDX 19 1 20 2 21 3 22 4 40 5 41 6 18 7 9 8 10 9 11 10 17 11REMARK SMILES IDX 12 12 16 13 13 14 15 15 14 16 8 17 5 18 6 19 43 20 7 21REMARK SMILES IDX 42 22 2 23 3 24 4 25 1 26 23 29 24 30 25 31 39 32 26 33REMARK SMILES IDX 38 34 27 35 28 36 29 37 37 38 31 39 36 40 32 41 35 42 33 43REMARK SMILES IDX 34 44 30 45REMARK H PARENT 1 27 1 28 30 46USER                              x       y       z     vdW  Elec       q    TypeUSER                           _______ _______ _______ _____ _____    ______ ____ROOTATOM      1  C   UNL     1      36.367  43.491  19.433 -0.37 -0.00    +0.002 A  ATOM      2  C   UNL     1      37.402  44.210  18.809 -0.32 -0.00    +0.011 A  ATOM      3  C   UNL     1      38.601  44.484  19.475 -0.36 -0.00    +0.006 A  ATOM      4  C   UNL     1      38.793  44.056  20.794 -0.26 -0.00    -0.034 A  ATOM      5  C   UNL     1      37.764  43.348  21.428 -0.35 +0.00    +0.006 A  ATOM      6  C   UNL     1      36.566  43.076  20.760 -0.43 +0.00    +0.011 A  ENDROOTBRANCH   1   7ATOM      7  C   UNL     1      35.116  43.208  18.709 -0.30 -0.02    +0.097 A  ATOM      8  C   UNL     1      34.745  43.785  17.484 -0.25 -0.03    +0.097 A  ATOM      9  N   UNL     1      33.591  43.428  16.853 -0.17 +0.10    -0.244 NA ATOM     10  C   UNL     1      32.808  42.519  17.464 -0.28 -0.03    +0.089 A  ATOM     11  N   UNL     1      34.313  42.297  19.328 -0.31 +0.01    -0.244 NA ATOM     12  C   UNL     1      31.615  42.128  16.868 -0.26 -0.01    +0.030 A  ATOM     13  C   UNL     1      33.170  41.953  18.707 -0.34 -0.01    +0.089 A  ATOM     14  C   UNL     1      30.775  41.190  17.469 -0.32 -0.00    +0.002 A  ATOM     15  C   UNL     1      32.329  41.018  19.296 -0.29 +0.00    +0.030 A  ATOM     16  C   UNL     1      31.133  40.631  18.689 -0.30 -0.00    +0.002 A  BRANCH   8  17ATOM     17  C   UNL     1      35.513  44.822  16.774 -0.31 -0.00    +0.002 A  ATOM     18  C   UNL     1      37.007  46.775  15.416 -0.34 -0.05    +0.082 A  ATOM     19  C   UNL     1      37.109  45.437  15.031 -0.36 -0.01    +0.022 A  ATOM     20  C   UNL     1      36.170  47.154  16.465 -0.12 -0.02    +0.022 A  ATOM     21  C   UNL     1      36.357  44.470  15.704 -0.36 -0.00    +0.012 A  ATOM     22  C   UNL     1      35.424  46.180  17.134 -0.36 -0.01    +0.012 A  BRANCH  18  23ATOM     23  S   UNL     1      37.960  47.993  14.552 -0.55 -0.12    +0.238 S  ATOM     24  O   UNL     1      39.355  47.810  14.883 -0.38 +0.07    -0.207 OA ATOM     25  O   UNL     1      37.484  48.056  13.191 -0.92 +0.06    -0.207 OA BRANCH  23  26ATOM     26  N   UNL     1      37.508  49.413  15.343 -0.36 +0.22    -0.225 NA ATOM     27  H   UNL     1      36.502  49.547  15.217 -0.15 -0.21    +0.137 HD ATOM     28  H   UNL     1      38.032  50.231  15.035 -0.48 -0.16    +0.137 HD ENDBRANCH  23  26ENDBRANCH  18  23ENDBRANCH   8  17ENDBRANCH   1   7BRANCH   4  29ATOM     29  C   UNL     1      40.093  44.333  21.519 -0.27 +0.01    +0.120 C  BRANCH  29  30ATOM     30  N   UNL     1      39.968  45.373  22.560 -0.11 -0.02    -0.299 NA ATOM     31  C   UNL     1      38.576  45.833  22.639 -0.30 +0.01    +0.087 C  ATOM     32  C   UNL     1      40.410  44.863  23.866 -0.15 +0.00    +0.087 C  ATOM     33  C   UNL     1      38.448  47.009  23.601 -0.23 +0.01    +0.041 C  ATOM     34  C   UNL     1      40.383  45.963  24.924 -0.15 +0.00    +0.041 C  ATOM     35  C   UNL     1      39.075  46.763  24.978 -0.25 +0.01    +0.095 C  BRANCH  35  36ATOM     36  N   UNL     1      38.124  46.296  25.983 -0.14 -0.00    -0.291 N  ATOM     37  C   UNL     1      37.745  46.914  27.141 -0.15 -0.03    +0.295 A  ATOM     38  C   UNL     1      37.432  45.096  25.939 -0.28 -0.00    +0.072 A  ATOM     39  N   UNL     1      36.889  46.228  27.846 -0.25 +0.04    -0.195 NA ATOM     40  C   UNL     1      37.386  44.039  25.019 -0.31 +0.00    +0.029 A  ATOM     41  C   UNL     1      36.678  45.090  27.113 -0.30 -0.02    +0.092 A  ATOM     42  C   UNL     1      36.544  42.961  25.318 -0.39 -0.00    +0.002 A  ATOM     43  C   UNL     1      35.842  43.998  27.396 -0.46 -0.01    +0.031 A  ATOM     44  C   UNL     1      35.781  42.938  26.486 -0.46 -0.00    +0.002 A  BRANCH  37  45ATOM     45  O   UNL     1      38.164  48.089  27.557 -0.07 +0.05    -0.480 OA ATOM     46  H   UNL     1      38.377  47.891  28.489 -0.37 -0.13    +0.296 HD ENDBRANCH  37  45ENDBRANCH  35  36ENDBRANCH  29  30ENDBRANCH   4  29TORSDOF 8TERENDMDL