MODEL        7USER    Run = 7USERUSER    Estimated Free Energy of Binding    = -12.07 kcal/mol  [=(1)+(2)+(3)-(4)]USERUSER    (1) Final Intermolecular Energy     = -13.86 kcal/molUSER        vdW + Hbond + desolv Energy     = -13.80 kcal/molUSER        Electrostatic Energy            =  -0.05 kcal/molUSER        Moving Ligand-Fixed Receptor    = -13.86 kcal/molUSER        Moving Ligand-Moving Receptor   =  +0.00 kcal/molUSER    (2) Final Total Internal Energy     =  -1.41 kcal/molUSER    (3) Torsional Free Energy           =  +1.79 kcal/molUSER    (4) Unbound System's Energy         =  -1.41 kcal/molUSERUSERREMARK SMILES Oc1nc2ccccc2n1C1CCN(Cc2ccc(-c3nc4ncccc4nc3-c3ccncc3)cc2)CC1REMARK SMILES IDX 11 1 12 2 13 3 14 4 38 5 39 6 10 7 2 8 3 9 4 10 9 11 5 12REMARK SMILES IDX 8 13 6 14 7 15 1 16 15 18 16 19 17 20 37 21 18 22 36 23REMARK SMILES IDX 19 24 20 25 21 26 29 27 22 28 28 29 23 30 27 31 24 32 26 33REMARK SMILES IDX 25 34 30 35 31 36 35 37 32 38 34 39 33 40REMARK H PARENT 1 17USER                              x       y       z     vdW  Elec       q    TypeUSER                           _______ _______ _______ _____ _____    ______ ____ROOTATOM      1  C   UNL     1      39.231  46.372  16.203 -0.42 -0.02    +0.095 C  ATOM      2  C   UNL     1      38.294  45.823  17.283 -0.42 -0.01    +0.041 C  ATOM      3  C   UNL     1      39.077  45.003  18.316 -0.40 -0.01    +0.087 C  ATOM      4  N   UNL     1      40.465  45.450  18.475 -0.24 +0.01    -0.299 NA ATOM      5  C   UNL     1      40.629  46.884  18.274 -0.48 -0.01    +0.087 C  ATOM      6  C   UNL     1      40.353  47.232  16.808 -0.55 -0.01    +0.041 C  ENDROOTBRANCH   1   7ATOM      7  N   UNL     1      38.534  47.040  15.112 -0.21 +0.11    -0.291 N  ATOM      8  C   UNL     1      38.448  48.401  14.915 -0.29 -0.16    +0.295 A  ATOM      9  N   UNL     1      37.866  48.701  13.782 -0.51 +0.09    -0.195 NA ATOM     10  C   UNL     1      37.499  47.501  13.238 -0.47 -0.03    +0.092 A  ATOM     11  C   UNL     1      37.884  46.436  14.053 -0.39 -0.03    +0.072 A  ATOM     12  C   UNL     1      36.820  47.248  12.036 -0.64 -0.01    +0.031 A  ATOM     13  C   UNL     1      37.599  45.104  13.717 -0.36 -0.01    +0.029 A  ATOM     14  C   UNL     1      36.535  45.924  11.684 -0.56 -0.00    +0.002 A  ATOM     15  C   UNL     1      36.918  44.872  12.515 -0.52 -0.00    +0.002 A  BRANCH   8  16ATOM     16  O   UNL     1      38.890  49.341  15.735 -0.16 +0.32    -0.480 OA ATOM     17  H   UNL     1      38.667  50.210  15.372 -0.28 -0.30    +0.296 HD ENDBRANCH   8  16ENDBRANCH   1   7BRANCH   4  18ATOM     18  C   UNL     1      41.128  44.917  19.673 -0.37 +0.01    +0.120 C  BRANCH  18  19ATOM     19  C   UNL     1      40.259  44.703  20.896 -0.32 -0.00    -0.034 A  ATOM     20  C   UNL     1      40.478  43.615  21.749 -0.25 +0.00    +0.006 A  ATOM     21  C   UNL     1      39.217  45.588  21.198 -0.31 +0.00    +0.006 A  ATOM     22  C   UNL     1      39.683  43.423  22.885 -0.26 +0.00    +0.011 A  ATOM     23  C   UNL     1      38.426  45.396  22.335 -0.32 +0.00    +0.011 A  ATOM     24  C   UNL     1      38.635  44.305  23.193 -0.28 +0.00    +0.002 A  BRANCH  24  25ATOM     25  C   UNL     1      37.788  44.124  24.386 -0.24 +0.01    +0.099 A  ATOM     26  N   UNL     1      37.249  42.876  24.487 -0.23 -0.01    -0.224 NA ATOM     27  C   UNL     1      37.515  45.115  25.340 -0.26 +0.00    +0.098 A  ATOM     28  C   UNL     1      36.423  42.616  25.501 -0.26 -0.01    +0.178 A  ATOM     29  N   UNL     1      36.659  44.869  26.367 -0.23 +0.03    -0.242 NA ATOM     30  N   UNL     1      35.896  41.390  25.590 -0.22 +0.07    -0.235 NA ATOM     31  C   UNL     1      36.127  43.631  26.439 -0.34 -0.01    +0.108 A  ATOM     32  C   UNL     1      35.052  41.123  26.609 -0.49 -0.05    +0.114 A  ATOM     33  C   UNL     1      35.256  43.319  27.470 -0.54 -0.01    +0.034 A  ATOM     34  C   UNL     1      34.702  42.048  27.569 -0.54 -0.01    +0.022 A  BRANCH  27  35ATOM     35  C   UNL     1      38.107  46.465  25.370 -0.30 +0.00    +0.005 A  ATOM     36  C   UNL     1      39.492  46.675  25.317 -0.19 +0.00    +0.030 A  ATOM     37  C   UNL     1      37.287  47.597  25.487 -0.35 +0.00    +0.030 A  ATOM     38  C   UNL     1      39.980  47.972  25.347 -0.21 +0.01    +0.111 A  ATOM     39  C   UNL     1      37.868  48.854  25.514 -0.32 +0.01    +0.111 A  ATOM     40  N   UNL     1      39.197  49.066  25.435 -0.08 -0.04    -0.265 NA ENDBRANCH  27  35ENDBRANCH  24  25ENDBRANCH  18  19ENDBRANCH   4  18TORSDOF 6TERENDMDL