REMARK SMILES Cc1cc(/C=C2\SC(=O)NC2=O)ccc1-c1ccc(NCC2CCOCC2)nc1C
REMARK SMILES IDX 1 1 2 2 3 3 4 4 13 5 14 6 15 7 16 8 17 9 29 10 18 11 28 12
REMARK SMILES IDX 19 13 30 14 20 15 21 17 22 18 23 19 27 20 24 21 26 22 25 23
REMARK SMILES IDX 5 24 6 25 7 26 11 27 8 28 10 29 12 30 9 31
REMARK H PARENT 20 16 10 32
ROOT
ATOM      1  C   UNL     1       2.394  -2.314  -0.455  1.00  0.00     0.045 C 
ATOM      2  C   UNL     1       2.994  -0.995  -0.043  1.00  0.00    -0.043 A 
ATOM      3  C   UNL     1       4.388  -0.902   0.124  1.00  0.00     0.012 A 
ATOM      4  C   UNL     1       4.990   0.306   0.492  1.00  0.00    -0.024 A 
ATOM      5  C   UNL     1       4.197   1.435   0.697  1.00  0.00     0.009 A 
ATOM      6  C   UNL     1       2.813   1.355   0.535  1.00  0.00     0.010 A 
ATOM      7  C   UNL     1       2.191   0.149   0.167  1.00  0.00    -0.014 A 
ENDROOT
BRANCH   7   8
ATOM      8  C   UNL     1       0.731   0.122  -0.002  1.00  0.00     0.003 A 
ATOM      9  C   UNL     1       0.170   0.380  -1.256  1.00  0.00     0.014 A 
ATOM     10  C   UNL     1      -0.159  -0.151   1.046  1.00  0.00     0.048 A 
ATOM     11  C   UNL     1      -1.213   0.355  -1.422  1.00  0.00     0.047 A 
ATOM     12  N   UNL     1      -1.510  -0.175   0.885  1.00  0.00    -0.236 NA
ATOM     13  C   UNL     1      -2.029   0.082  -0.331  1.00  0.00     0.126 A 
ATOM     14  C   UNL     1       0.331  -0.440   2.437  1.00  0.00     0.067 C 
BRANCH  13  15
ATOM     15  N   UNL     1      -3.419   0.039  -0.542  1.00  0.00    -0.370 N 
ATOM     16  H   UNL     1      -3.698   0.899  -1.005  1.00  0.00     0.162 HD
BRANCH  15  17
ATOM     17  C   UNL     1      -4.204  -0.235   0.658  1.00  0.00     0.118 C 
BRANCH  17  18
ATOM     18  C   UNL     1      -5.706  -0.344   0.344  1.00  0.00     0.013 C 
ATOM     19  C   UNL     1      -6.326   0.990  -0.095  1.00  0.00     0.034 C 
ATOM     20  C   UNL     1      -6.019  -1.431  -0.694  1.00  0.00     0.034 C 
ATOM     21  C   UNL     1      -7.805   0.808  -0.414  1.00  0.00     0.160 C 
ATOM     22  C   UNL     1      -7.514  -1.473  -0.988  1.00  0.00     0.160 C 
ATOM     23  O   UNL     1      -7.986  -0.194  -1.413  1.00  0.00    -0.381 OA
ENDBRANCH  17  18
ENDBRANCH  15  17
ENDBRANCH  13  15
ENDBRANCH   7   8
BRANCH   4  24
ATOM     24  C   UNL     1       6.443   0.380   0.650  1.00  0.00     0.029 C 
BRANCH  24  25
ATOM     25  C   UNL     1       7.294   0.830  -0.280  1.00  0.00     0.083 C 
ATOM     26  S   UNL     1       6.933   1.418  -1.861  1.00  0.00    -0.022 SA
ATOM     27  C   UNL     1       8.762   0.873  -0.050  1.00  0.00     0.265 C 
ATOM     28  C   UNL     1       8.622   1.711  -2.222  1.00  0.00     0.290 C 
ATOM     29  N   UNL     1       9.387   1.368  -1.155  1.00  0.00    -0.282 N 
ATOM     30  O   UNL     1       9.329   0.518   0.971  1.00  0.00    -0.268 OA
ATOM     31  O   UNL     1       9.032   2.157  -3.280  1.00  0.00    -0.261 OA
ATOM     32  H   UNL     1      10.388   1.467  -1.187  1.00  0.00     0.174 HD
ENDBRANCH  24  25
ENDBRANCH   4  24
TORSDOF 6
