MODEL        8USER    Run = 8USERUSER    Estimated Free Energy of Binding    =  -8.49 kcal/mol  [=(1)+(2)+(3)-(4)]USERUSER    (1) Final Intermolecular Energy     = -10.87 kcal/molUSER        vdW + Hbond + desolv Energy     = -10.57 kcal/molUSER        Electrostatic Energy            =  -0.30 kcal/molUSER        Moving Ligand-Fixed Receptor    = -10.87 kcal/molUSER        Moving Ligand-Moving Receptor   =  +0.00 kcal/molUSER    (2) Final Total Internal Energy     =  -1.47 kcal/molUSER    (3) Torsional Free Energy           =  +2.39 kcal/molUSER    (4) Unbound System's Energy         =  -1.47 kcal/molUSERUSERREMARK SMILES O=C(O)C=CC1=C(c2n[nH]c3cc(NCC4CC4)ncc23)C=C1REMARK SMILES IDX 6 1 7 2 22 3 23 4 5 5 4 6 2 7 1 8 3 9 8 11 9 12 21 13 10 14REMARK SMILES IDX 20 15 11 16 19 17 12 18 13 19 14 21 15 23 16 24 17 25 18 26REMARK H PARENT 3 10 10 20 14 22USER                              x       y       z     vdW  Elec       q    TypeUSER                           _______ _______ _______ _____ _____    ______ ____ROOTATOM      1  C   UNL     1      40.911  45.357  20.869 -0.38 -0.00    -0.016 C  ATOM      2  C   UNL     1      40.380  45.662  19.681 -0.46 +0.00    +0.010 C  ATOM      3  C   UNL     1      39.330  44.722  19.908 -0.42 -0.00    +0.012 C  ATOM      4  C   UNL     1      39.868  44.416  21.108 -0.36 +0.00    +0.009 C  ENDROOTBRANCH   1   5ATOM      5  C   UNL     1      42.106  45.745  21.747 -0.31 +0.00    +0.016 C  BRANCH   5   6ATOM      6  C   UNL     1      42.727  46.929  21.694 -0.33 +0.02    +0.094 C  BRANCH   6   7ATOM      7  C   UNL     1      44.081  47.020  21.141 -0.15 +0.21    +0.328 C  ATOM      8  O   UNL     1      45.136  46.838  21.717 -0.79 -0.30    -0.247 OA BRANCH   7   9ATOM      9  O   UNL     1      44.026  47.347  19.840 -0.25 -0.26    -0.478 OA ATOM     10  H   UNL     1      43.294  47.997  19.797 -0.31 -0.01    +0.297 HD ENDBRANCH   7   9ENDBRANCH   6   7ENDBRANCH   5   6ENDBRANCH   1   5BRANCH   2  11ATOM     11  C   UNL     1      40.661  46.587  18.493 -0.41 -0.01    +0.102 A  ATOM     12  N   UNL     1      41.864  47.154  18.334 -0.44 +0.00    -0.174 NA ATOM     13  C   UNL     1      39.756  46.953  17.464 -0.43 -0.01    +0.046 A  ATOM     14  N   UNL     1      41.733  47.869  17.206 -0.19 +0.02    -0.277 N  ATOM     15  C   UNL     1      38.435  46.689  17.111 -0.28 -0.04    +0.126 A  ATOM     16  C   UNL     1      40.491  47.799  16.642 -0.48 -0.01    +0.071 A  ATOM     17  N   UNL     1      37.894  47.252  15.998 -0.25 +0.13    -0.239 NA ATOM     18  C   UNL     1      39.953  48.383  15.497 -0.50 -0.02    +0.075 A  ATOM     19  C   UNL     1      38.621  48.079  15.219 -0.41 -0.06    +0.128 A  ATOM     20  H   UNL     1      42.537  48.390  16.873 -0.20 +0.06    +0.190 HD BRANCH  19  21ATOM     21  N   UNL     1      38.070  48.630  14.049 -0.22 +0.18    -0.370 N  ATOM     22  H   UNL     1      38.004  49.636  14.166 -0.45 -0.14    +0.162 HD BRANCH  21  23ATOM     23  C   UNL     1      36.802  48.067  13.599 -0.55 -0.06    +0.118 C  BRANCH  23  24ATOM     24  C   UNL     1      36.953  47.036  12.514 -0.73 -0.00    +0.008 C  ATOM     25  C   UNL     1      36.866  45.557  12.807 -0.61 -0.00    +0.006 C  ATOM     26  C   UNL     1      35.811  46.217  11.961 -0.66 -0.00    +0.006 C  ENDBRANCH  23  24ENDBRANCH  21  23ENDBRANCH  19  21ENDBRANCH   2  11TORSDOF 8TERENDMDL