MODEL        6USER    Run = 6USERUSER    Estimated Free Energy of Binding    =  -9.10 kcal/mol  [=(1)+(2)+(3)-(4)]USERUSER    (1) Final Intermolecular Energy     = -10.89 kcal/molUSER        vdW + Hbond + desolv Energy     = -10.80 kcal/molUSER        Electrostatic Energy            =  -0.09 kcal/molUSER        Moving Ligand-Fixed Receptor    = -10.89 kcal/molUSER        Moving Ligand-Moving Receptor   =  +0.00 kcal/molUSER    (2) Final Total Internal Energy     =  -2.35 kcal/molUSER    (3) Torsional Free Energy           =  +1.79 kcal/molUSER    (4) Unbound System's Energy         =  -2.35 kcal/molUSERUSERREMARK SMILES Cc1ccc(F)cc1NC1=C(c2c(F)cnc(Nc3ccc(O)cc3)c2C)CCNC1=OREMARK SMILES IDX 12 1 13 2 14 3 15 4 16 5 17 6 26 7 27 8 11 9 10 10 31 11REMARK SMILES IDX 28 12 30 13 29 14 32 15 9 17 8 19 2 20 3 21 4 22 7 23 5 24REMARK SMILES IDX 1 25 6 26 18 27 19 29 20 30 25 31 21 32 24 33 22 34 23 35REMARK H PARENT 30 16 9 18 18 28 23 36USER                              x       y       z     vdW  Elec       q    TypeUSER                           _______ _______ _______ _____ _____    ______ ____ROOTATOM      1  C   UNL     1      36.644  44.791  18.895 -0.30 -0.00    +0.024 A  ATOM      2  C   UNL     1      35.393  45.344  18.627 -0.20 -0.05    +0.149 A  ATOM      3  F   UNL     1      34.360  45.161  19.461 -0.10 +0.07    -0.205 F  ATOM      4  C   UNL     1      35.223  46.080  17.477 -0.28 -0.11    +0.153 A  ATOM      5  N   UNL     1      36.207  46.293  16.579 -0.22 +0.17    -0.236 NA ATOM      6  C   UNL     1      37.432  45.770  16.819 -0.28 -0.05    +0.134 A  ATOM      7  C   UNL     1      37.702  45.023  17.988 -0.37 -0.00    +0.002 A  ATOM      8  C   UNL     1      39.088  44.480  18.233 -0.37 -0.00    +0.049 C  ENDROOTBRANCH   1   9ATOM      9  C   UNL     1      36.793  43.955  20.107 -0.46 +0.00    -0.006 C  ATOM     10  C   UNL     1      36.394  42.660  20.127 -0.40 -0.00    +0.108 C  ATOM     11  C   UNL     1      36.571  41.883  21.432 -0.40 +0.01    +0.268 C  ATOM     12  C   UNL     1      37.400  44.657  21.296 -0.30 +0.00    +0.060 C  ATOM     13  N   UNL     1      37.053  42.572  22.515 -0.21 -0.03    -0.350 N  ATOM     14  C   UNL     1      36.955  44.006  22.594 -0.29 +0.02    +0.121 C  ATOM     15  O   UNL     1      36.307  40.691  21.550 -0.35 +0.00    -0.268 OA ATOM     16  H   UNL     1      37.026  42.025  23.366 +0.10 +0.01    +0.163 HD BRANCH  10  17ATOM     17  N   UNL     1      35.773  42.009  19.062 -0.13 +0.04    -0.350 N  ATOM     18  H   UNL     1      35.757  41.001  19.185 +0.09 +0.00    +0.167 HD BRANCH  17  19ATOM     19  C   UNL     1      34.571  42.418  18.418 -0.37 -0.01    +0.044 A  ATOM     20  C   UNL     1      34.590  42.673  17.024 -0.40 +0.01    -0.027 A  ATOM     21  C   UNL     1      33.417  43.089  16.367 -0.33 -0.00    +0.008 A  ATOM     22  C   UNL     1      32.236  43.274  17.080 -0.28 -0.01    +0.039 A  ATOM     23  C   UNL     1      33.376  42.636  19.116 -0.35 -0.00    +0.065 A  ATOM     24  C   UNL     1      32.229  43.050  18.447 -0.25 -0.02    +0.125 A  ATOM     25  C   UNL     1      35.850  42.512  16.211 -0.45 -0.02    +0.046 C  ATOM     26  F   UNL     1      31.092  43.226  19.135 +0.03 +0.00    -0.207 F  ENDBRANCH  17  19ENDBRANCH  10  17ENDBRANCH   1   9BRANCH   6  27ATOM     27  N   UNL     1      38.477  45.972  15.885 -0.14 +0.10    -0.340 N  ATOM     28  H   UNL     1      38.187  45.636  14.973 +0.12 -0.05    +0.168 HD BRANCH  27  29ATOM     29  C   UNL     1      39.379  47.052  15.767 -0.44 -0.01    +0.040 A  ATOM     30  C   UNL     1      39.424  47.894  14.648 -0.49 -0.01    +0.030 A  ATOM     31  C   UNL     1      40.183  47.384  16.869 -0.49 -0.01    +0.030 A  ATOM     32  C   UNL     1      40.288  48.994  14.600 -0.47 -0.02    +0.048 A  ATOM     33  C   UNL     1      41.047  48.483  16.830 -0.49 -0.01    +0.048 A  ATOM     34  C   UNL     1      41.099  49.274  15.692 -0.54 -0.02    +0.115 A  BRANCH  34  35ATOM     35  O   UNL     1      41.956  50.333  15.689 -0.65 +0.01    -0.508 OA ATOM     36  H   UNL     1      41.633  50.991  16.327 -0.32 -0.10    +0.293 HD ENDBRANCH  34  35ENDBRANCH  27  29ENDBRANCH   6  27TORSDOF 6TERENDMDL