MODEL        10USER    Run = 10USERUSER    Estimated Free Energy of Binding    =  -7.96 kcal/mol  [=(1)+(2)+(3)-(4)]USERUSER    (1) Final Intermolecular Energy     =  -9.15 kcal/molUSER        vdW + Hbond + desolv Energy     =  -9.05 kcal/molUSER        Electrostatic Energy            =  -0.10 kcal/molUSER        Moving Ligand-Fixed Receptor    =  -9.15 kcal/molUSER        Moving Ligand-Moving Receptor   =  +0.00 kcal/molUSER    (2) Final Total Internal Energy     =  -0.29 kcal/molUSER    (3) Torsional Free Energy           =  +1.19 kcal/molUSER    (4) Unbound System's Energy         =  -0.29 kcal/molUSERUSERREMARK SMILES FC(F)(F)c1cccc(CNc2ncc3ccc4ocnc4c3n2)c1REMARK SMILES IDX 5 1 6 2 7 3 8 4 9 5 25 6 2 7 1 8 3 9 4 10 10 11 11 12 12 14REMARK SMILES IDX 13 15 24 16 14 17 23 18 15 19 22 20 16 21 21 22 18 23 17 24REMARK SMILES IDX 20 25 19 26REMARK H PARENT 11 13USER                              x       y       z     vdW  Elec       q    TypeUSER                           _______ _______ _______ _____ _____    ______ ____ROOTATOM      1  C   UNL     1      44.401  52.857  11.108 -0.35 -0.03    +0.056 A  ATOM      2  C   UNL     1      45.102  53.582  12.083 -0.22 -0.01    +0.013 A  ATOM      3  C   UNL     1      44.959  53.272  13.435 -0.22 -0.00    +0.001 A  ATOM      4  C   UNL     1      44.116  52.233  13.829 +0.01 -0.00    +0.005 A  ATOM      5  C   UNL     1      43.406  51.490  12.877 -0.36 +0.01    -0.028 A  ATOM      6  C   UNL     1      43.561  51.808  11.518 -0.44 -0.01    +0.018 A  ENDROOTBRANCH   1   7ATOM      7  C   UNL     1      44.580  53.169   9.644 -0.18 -0.18    +0.416 C  ATOM      8  F   UNL     1      43.565  52.688   8.870 -0.17 -0.00    -0.166 F  ATOM      9  F   UNL     1      45.723  52.646   9.118 -0.11 +0.03    -0.166 F  ATOM     10  F   UNL     1      44.632  54.508   9.397 -0.05 +0.12    -0.166 F  ENDBRANCH   1   7BRANCH   5  11ATOM     11  C   UNL     1      42.485  50.368  13.304 -0.63 -0.04    +0.152 C  BRANCH  11  12ATOM     12  N   UNL     1      41.818  50.683  14.548 -0.35 +0.09    -0.350 N  ATOM     13  H   UNL     1      42.415  51.068  15.271 -0.08 -0.02    +0.164 HD BRANCH  12  14ATOM     14  C   UNL     1      41.149  49.632  15.154 -0.47 -0.05    +0.223 A  ATOM     15  N   UNL     1      41.491  49.209  16.381 -0.99 -0.01    -0.221 NA ATOM     16  N   UNL     1      40.158  49.102  14.430 -0.32 +0.08    -0.211 NA ATOM     17  C   UNL     1      40.812  48.162  16.891 -0.42 -0.02    +0.125 A  ATOM     18  C   UNL     1      39.495  48.058  14.975 -0.46 -0.03    +0.105 A  ATOM     19  C   UNL     1      39.779  47.518  16.234 -0.49 -0.01    +0.021 A  ATOM     20  C   UNL     1      38.449  47.479  14.225 -0.39 -0.05    +0.135 A  ATOM     21  C   UNL     1      39.053  46.422  16.749 -0.42 -0.00    +0.016 A  ATOM     22  N   UNL     1      37.919  47.768  12.980 -0.83 +0.03    -0.214 NA ATOM     23  C   UNL     1      37.763  46.402  14.770 -0.29 -0.06    +0.156 A  ATOM     24  C   UNL     1      38.018  45.835  16.015 -0.34 -0.02    +0.050 A  ATOM     25  C   UNL     1      36.968  46.873  12.834 -0.35 -0.12    +0.309 A  ATOM     26  O   UNL     1      36.809  46.011  13.877 -0.14 +0.20    -0.443 OA ENDBRANCH  12  14ENDBRANCH  11  12ENDBRANCH   5  11TORSDOF 4TERENDMDL