REMARK SMILES Cc1cc(C(F)(F)F)ccc1C(=O)NC1=CC(=CC(=O)O)[C@H]1O
REMARK SMILES IDX 15 1 16 2 17 3 22 4 14 5 12 6 13 7 11 9 2 10 3 11 4 12 10 13
REMARK SMILES IDX 9 14 1 15 5 16 6 17 7 18 8 19 23 20 18 22 19 23 20 24 21 25
REMARK H PARENT 14 8 23 21 21 26
ROOT
ATOM      1  C   UNL     1       2.039  -0.425  -0.460  1.00  0.00     0.052 C 
ATOM      2  C   UNL     1       3.068  -0.806  -1.257  1.00  0.00     0.031 C 
ATOM      3  C   UNL     1       4.054  -0.428  -0.276  1.00  0.00    -0.005 C 
ATOM      4  C   UNL     1       2.968   0.080   0.645  1.00  0.00     0.191 C 
ENDROOT
BRANCH   1   5
ATOM      5  N   UNL     1       0.570  -0.476  -0.626  1.00  0.00    -0.323 N 
ATOM      6  C   UNL     1      -0.301  -0.105   0.379  1.00  0.00     0.255 C 
ATOM      7  O   UNL     1       0.023   0.230   1.511  1.00  0.00    -0.269 OA
ATOM      8  H   UNL     1       0.211  -0.763  -1.527  1.00  0.00     0.170 HD
BRANCH   6   9
ATOM      9  C   UNL     1      -1.737  -0.151  -0.000  1.00  0.00     0.043 A 
ATOM     10  C   UNL     1      -2.577   0.956   0.216  1.00  0.00    -0.038 A 
ATOM     11  C   UNL     1      -3.934   0.852  -0.135  1.00  0.00     0.017 A 
ATOM     12  C   UNL     1      -4.452  -0.322  -0.709  1.00  0.00     0.056 A 
ATOM     13  C   UNL     1      -2.249  -1.333  -0.557  1.00  0.00     0.015 A 
ATOM     14  C   UNL     1      -3.597  -1.416  -0.909  1.00  0.00     0.014 A 
ATOM     15  C   UNL     1      -2.071   2.230   0.835  1.00  0.00     0.045 C 
BRANCH  12  16
ATOM     16  C   UNL     1      -5.918  -0.421  -1.061  1.00  0.00     0.416 C 
ATOM     17  F   UNL     1      -6.157  -1.256  -2.111  1.00  0.00    -0.166 F 
ATOM     18  F   UNL     1      -6.668  -0.894  -0.029  1.00  0.00    -0.166 F 
ATOM     19  F   UNL     1      -6.467   0.777  -1.408  1.00  0.00    -0.166 F 
ENDBRANCH  12  16
ENDBRANCH   6   9
ENDBRANCH   1   5
BRANCH   4  20
ATOM     20  O   UNL     1       2.987   1.509   0.809  1.00  0.00    -0.382 OA
ATOM     21  H   UNL     1       3.754   1.639   1.396  1.00  0.00     0.212 HD
ENDBRANCH   4  20
BRANCH   3  22
ATOM     22  C   UNL     1       5.388  -0.506  -0.246  1.00  0.00     0.100 C 
BRANCH  22  23
ATOM     23  C   UNL     1       6.163  -0.016   0.893  1.00  0.00     0.328 C 
ATOM     24  O   UNL     1       7.367  -0.168   1.004  1.00  0.00    -0.247 OA
BRANCH  23  25
ATOM     25  O   UNL     1       5.464   0.642   1.832  1.00  0.00    -0.478 OA
ATOM     26  H   UNL     1       6.150   0.873   2.495  1.00  0.00     0.297 HD
ENDBRANCH  23  25
ENDBRANCH  22  23
ENDBRANCH   3  22
TORSDOF 7
