MODEL        2USER    Run = 2USERUSER    Estimated Free Energy of Binding    =  -9.19 kcal/mol  [=(1)+(2)+(3)-(4)]USERUSER    (1) Final Intermolecular Energy     = -10.69 kcal/molUSER        vdW + Hbond + desolv Energy     = -10.63 kcal/molUSER        Electrostatic Energy            =  -0.06 kcal/molUSER        Moving Ligand-Fixed Receptor    = -10.69 kcal/molUSER        Moving Ligand-Moving Receptor   =  +0.00 kcal/molUSER    (2) Final Total Internal Energy     =  -0.87 kcal/molUSER    (3) Torsional Free Energy           =  +1.49 kcal/molUSER    (4) Unbound System's Energy         =  -0.87 kcal/molUSERUSERREMARK SMILES Cc1c(CCn2cc(-c3ccc4[nH]ncc4c3)nn2)cccc1C(F)(F)FREMARK SMILES IDX 4 1 3 2 2 3 23 4 20 5 22 6 21 7 1 8 24 9 25 10 26 11 27 12REMARK SMILES IDX 5 13 6 14 7 15 19 16 8 17 18 18 9 19 10 20 17 21 11 22 16 23REMARK SMILES IDX 12 24 15 25 13 26 14 27REMARK H PARENT 13 28USER                              x       y       z     vdW  Elec       q    TypeUSER                           _______ _______ _______ _____ _____    ______ ____ROOTATOM      1  C   UNL     1      42.151  46.234  18.693 -0.46 +0.01    +0.059 C  ENDROOTBRANCH   1   2ATOM      2  C   UNL     1      40.976  45.722  19.503 -0.40 -0.00    -0.043 A  ATOM      3  C   UNL     1      40.865  45.904  20.904 -0.29 -0.00    -0.036 A  ATOM      4  C   UNL     1      39.697  45.443  21.572 -0.29 +0.00    +0.059 A  ATOM      5  C   UNL     1      39.948  45.061  18.808 -0.43 -0.00    +0.004 A  ATOM      6  C   UNL     1      38.695  44.781  20.840 -0.35 +0.00    +0.013 A  ATOM      7  C   UNL     1      38.820  44.589  19.470 -0.37 -0.00    +0.001 A  ATOM      8  C   UNL     1      41.932  46.627  21.693 -0.31 +0.01    +0.045 C  BRANCH   4   9ATOM      9  C   UNL     1      39.497  45.633  23.065 -0.11 +0.03    +0.416 C  ATOM     10  F   UNL     1      38.308  45.135  23.508 -0.10 -0.02    -0.166 F  ATOM     11  F   UNL     1      39.521  46.943  23.435 -0.11 -0.02    -0.166 F  ATOM     12  F   UNL     1      40.451  45.020  23.824 -0.02 -0.01    -0.166 F  ENDBRANCH   4   9ENDBRANCH   1   2BRANCH   1  13ATOM     13  C   UNL     1      42.068  47.742  18.463 -0.44 -0.00    +0.151 C  BRANCH  13  14ATOM     14  N   UNL     1      41.252  48.063  17.314 -0.38 +0.02    -0.252 N  ATOM     15  C   UNL     1      40.238  47.332  16.771 -0.41 -0.03    +0.139 A  ATOM     16  N   UNL     1      41.453  49.207  16.642 -1.12 -0.00    -0.067 NA ATOM     17  C   UNL     1      39.814  48.094  15.704 -0.45 -0.03    +0.113 A  ATOM     18  N   UNL     1      40.577  49.237  15.647 -0.56 +0.04    -0.130 NA BRANCH  17  19ATOM     19  C   UNL     1      38.748  47.790  14.762 -0.51 -0.00    +0.004 A  ATOM     20  C   UNL     1      37.800  48.753  14.382 -0.45 -0.01    +0.013 A  ATOM     21  C   UNL     1      38.668  46.494  14.217 -0.41 -0.01    +0.022 A  ATOM     22  C   UNL     1      36.770  48.464  13.474 -0.50 -0.01    +0.029 A  ATOM     23  C   UNL     1      37.643  46.185  13.305 -0.43 -0.01    +0.020 A  ATOM     24  C   UNL     1      36.726  47.168  12.957 -0.57 -0.03    +0.065 A  ATOM     25  C   UNL     1      37.241  45.048  12.570 -0.30 -0.04    +0.143 A  ATOM     26  N   UNL     1      35.872  46.566  12.069 -0.43 +0.15    -0.278 N  ATOM     27  N   UNL     1      36.161  45.277  11.817 -0.36 +0.07    -0.183 NA ATOM     28  H   UNL     1      35.074  46.979  11.602 -0.05 -0.16    +0.190 HD ENDBRANCH  17  19ENDBRANCH  13  14ENDBRANCH   1  13TORSDOF 5TERENDMDL