MODEL        8USER    Run = 8USERUSER    Estimated Free Energy of Binding    = -11.07 kcal/mol  [=(1)+(2)+(3)-(4)]USERUSER    (1) Final Intermolecular Energy     = -12.86 kcal/molUSER        vdW + Hbond + desolv Energy     = -12.56 kcal/molUSER        Electrostatic Energy            =  -0.30 kcal/molUSER        Moving Ligand-Fixed Receptor    = -12.86 kcal/molUSER        Moving Ligand-Moving Receptor   =  +0.00 kcal/molUSER    (2) Final Total Internal Energy     =  -1.12 kcal/molUSER    (3) Torsional Free Energy           =  +1.79 kcal/molUSER    (4) Unbound System's Energy         =  -1.12 kcal/molUSERUSERREMARK SMILES Cc1cc(/C=C2\SC(=O)NC2=O)ccc1-c1ccc(NCC2CCOCC2)nc1CREMARK SMILES IDX 1 1 2 2 3 3 4 4 13 5 14 6 15 7 16 8 17 9 29 10 18 11 28 12REMARK SMILES IDX 19 13 30 14 20 15 21 17 22 18 23 19 27 20 24 21 26 22 25 23REMARK SMILES IDX 5 24 6 25 7 26 11 27 8 28 10 29 12 30 9 31REMARK H PARENT 20 16 10 32USER                              x       y       z     vdW  Elec       q    TypeUSER                           _______ _______ _______ _____ _____    ______ ____ROOTATOM      1  C   UNL     1      37.090  44.016  19.669 -0.40 -0.00    +0.045 C  ATOM      2  C   UNL     1      37.283  44.740  18.362 -0.33 +0.01    -0.043 A  ATOM      3  C   UNL     1      38.511  45.379  18.111 -0.39 -0.00    +0.012 A  ATOM      4  C   UNL     1      38.740  46.051  16.905 -0.39 +0.01    -0.024 A  ATOM      5  C   UNL     1      37.736  46.088  15.937 -0.37 -0.00    +0.009 A  ATOM      6  C   UNL     1      36.513  45.458  16.175 -0.34 -0.00    +0.010 A  ATOM      7  C   UNL     1      36.266  44.780  17.382 -0.32 +0.01    -0.014 A  ENDROOTBRANCH   7   8ATOM      8  C   UNL     1      34.965  44.123  17.577 -0.30 -0.00    +0.003 A  ATOM      9  C   UNL     1      34.784  42.800  17.162 -0.40 -0.01    +0.014 A  ATOM     10  C   UNL     1      33.864  44.759  18.166 -0.34 -0.02    +0.048 A  ATOM     11  C   UNL     1      33.553  42.173  17.345 -0.35 -0.02    +0.047 A  ATOM     12  N   UNL     1      32.662  44.146  18.345 -0.18 +0.05    -0.236 NA ATOM     13  C   UNL     1      32.507  42.874  17.933 -0.24 -0.03    +0.126 A  ATOM     14  C   UNL     1      33.943  46.180  18.648 -0.53 -0.04    +0.067 C  BRANCH  13  15ATOM     15  N   UNL     1      31.288  42.199  18.125 -0.07 +0.06    -0.370 N  ATOM     16  H   UNL     1      31.150  42.070  19.123 +0.10 -0.01    +0.162 HD BRANCH  15  17ATOM     17  C   UNL     1      31.161  40.955  17.373 -0.31 -0.03    +0.118 C  BRANCH  17  18ATOM     18  C   UNL     1      31.210  39.724  18.294 -0.45 +0.00    +0.013 C  ATOM     19  C   UNL     1      29.911  38.906  18.273 -0.40 +0.01    +0.034 C  ATOM     20  C   UNL     1      32.407  38.809  18.000 -0.46 -0.00    +0.034 C  ATOM     21  C   UNL     1      30.035  37.691  19.184 -0.34 +0.05    +0.160 C  ATOM     22  C   UNL     1      32.388  37.593  18.919 -0.46 +0.03    +0.160 C  ATOM     23  O   UNL     1      31.151  36.888  18.806 -0.86 -0.21    -0.381 OA ENDBRANCH  17  18ENDBRANCH  15  17ENDBRANCH  13  15ENDBRANCH   7   8BRANCH   4  24ATOM     24  C   UNL     1      40.029  46.700  16.663 -0.52 -0.00    +0.029 C  BRANCH  24  25ATOM     25  C   UNL     1      40.969  46.909  17.593 -0.51 -0.01    +0.083 C  ATOM     26  S   UNL     1      41.448  45.864  18.879 -0.63 -0.00    -0.022 SA ATOM     27  C   UNL     1      41.767  48.163  17.639 -0.24 -0.01    +0.265 C  ATOM     28  C   UNL     1      42.642  47.005  19.465 -0.36 +0.05    +0.290 C  ATOM     29  N   UNL     1      42.643  48.113  18.681 -0.36 -0.00    -0.282 N  ATOM     30  O   UNL     1      41.657  49.100  16.865 -0.99 -0.03    -0.268 OA ATOM     31  O   UNL     1      43.356  46.816  20.435 -0.33 -0.11    -0.261 OA ATOM     32  H   UNL     1      43.267  48.879  18.874 -0.49 -0.02    +0.174 HD ENDBRANCH  24  25ENDBRANCH   4  24TORSDOF 6TERENDMDL