MODEL        7USER    Run = 7USERUSER    Estimated Free Energy of Binding    = -10.45 kcal/mol  [=(1)+(2)+(3)-(4)]USERUSER    (1) Final Intermolecular Energy     = -12.53 kcal/molUSER        vdW + Hbond + desolv Energy     = -12.43 kcal/molUSER        Electrostatic Energy            =  -0.11 kcal/molUSER        Moving Ligand-Fixed Receptor    = -12.53 kcal/molUSER        Moving Ligand-Moving Receptor   =  +0.00 kcal/molUSER    (2) Final Total Internal Energy     =  -1.65 kcal/molUSER    (3) Torsional Free Energy           =  +2.09 kcal/molUSER    (4) Unbound System's Energy         =  -1.65 kcal/molUSERUSERREMARK SMILES Nc1nccc(-c2ccc(C(=O)CN3CCC(Nc4nc5ccccc5o4)CC3)cc2)n1REMARK SMILES IDX 11 1 12 2 10 3 7 4 8 5 31 6 9 7 30 8 6 9 2 10 3 11 32 12REMARK SMILES IDX 4 13 5 14 1 15 13 18 14 19 15 20 29 21 16 22 28 23 17 24REMARK SMILES IDX 18 25 19 27 20 28 27 29 21 30 26 31 22 32 25 33 23 34 24 35REMARK H PARENT 1 16 1 17 18 26USER                              x       y       z     vdW  Elec       q    TypeUSER                           _______ _______ _______ _____ _____    ______ ____ROOTATOM      1  C   UNL     1      36.204  46.357  12.737 -0.53 -0.09    +0.176 C  ATOM      2  O   UNL     1      35.970  45.727  11.705 -0.42 +0.13    -0.293 OA ENDROOTBRANCH   1   3ATOM      3  C   UNL     1      35.810  45.744  14.046 -0.40 -0.01    +0.019 A  ATOM      4  C   UNL     1      35.152  44.514  16.528 -0.32 -0.00    +0.000 A  ATOM      5  C   UNL     1      34.349  45.529  15.976 -0.29 -0.01    +0.011 A  ATOM      6  C   UNL     1      36.297  44.139  15.805 -0.38 -0.00    +0.011 A  ATOM      7  C   UNL     1      34.669  46.137  14.752 -0.27 -0.01    +0.012 A  ATOM      8  C   UNL     1      36.622  44.739  14.582 -0.38 -0.00    +0.012 A  BRANCH   4   9ATOM      9  C   UNL     1      34.828  43.866  17.817 -0.26 -0.02    +0.076 A  ATOM     10  C   UNL     1      33.392  43.773  19.608 -0.27 -0.02    +0.220 A  ATOM     11  N   UNL     1      34.074  42.798  20.210 -0.61 -0.03    -0.222 NA ATOM     12  N   UNL     1      33.733  44.342  18.450 -0.21 +0.06    -0.213 NA ATOM     13  C   UNL     1      35.164  42.350  19.567 -0.34 -0.01    +0.117 A  ATOM     14  C   UNL     1      35.589  42.848  18.359 -0.31 -0.01    +0.049 A  BRANCH  10  15ATOM     15  N   UNL     1      32.276  44.262  20.255 -0.19 +0.00    -0.368 N  ATOM     16  H   UNL     1      31.845  43.525  20.796 +0.07 +0.02    +0.159 HD ATOM     17  H   UNL     1      32.504  45.122  20.733 -0.49 -0.04    +0.159 HD ENDBRANCH  10  15ENDBRANCH   4   9ENDBRANCH   1   3BRANCH   1  18ATOM     18  C   UNL     1      36.869  47.739  12.765 -0.56 -0.06    +0.165 C  BRANCH  18  19ATOM     19  N   UNL     1      38.036  47.862  13.657 -0.49 +0.09    -0.296 NA ATOM     20  C   UNL     1      37.734  48.448  14.959 -0.54 -0.06    +0.087 C  ATOM     21  C   UNL     1      38.836  46.635  13.742 -0.20 -0.02    +0.087 C  ATOM     22  C   UNL     1      39.027  48.900  15.645 -0.50 -0.02    +0.040 C  ATOM     23  C   UNL     1      39.683  46.545  15.015 -0.49 -0.01    +0.040 C  ATOM     24  C   UNL     1      40.196  47.927  15.420 -0.55 -0.02    +0.086 C  BRANCH  24  25ATOM     25  N   UNL     1      41.004  47.799  16.628 -0.27 +0.04    -0.337 N  ATOM     26  H   UNL     1      42.007  47.840  16.499 -0.39 -0.02    +0.165 HD BRANCH  25  27ATOM     27  C   UNL     1      40.574  47.007  17.623 -0.29 -0.04    +0.295 A  ATOM     28  N   UNL     1      39.363  46.571  17.892 -0.32 +0.04    -0.194 NA ATOM     29  O   UNL     1      41.546  46.577  18.482 -0.26 +0.00    -0.424 OA ATOM     30  C   UNL     1      39.537  45.803  19.014 -0.34 -0.01    +0.111 A  ATOM     31  C   UNL     1      40.872  45.803  19.379 -0.34 +0.01    +0.156 A  ATOM     32  C   UNL     1      38.622  45.072  19.783 -0.34 -0.00    +0.032 A  ATOM     33  C   UNL     1      41.395  45.123  20.471 -0.33 +0.01    +0.049 A  ATOM     34  C   UNL     1      39.111  44.369  20.897 -0.33 +0.00    +0.003 A  ATOM     35  C   UNL     1      40.471  44.395  21.232 -0.31 +0.00    +0.004 A  ENDBRANCH  25  27ENDBRANCH  24  25ENDBRANCH  18  19ENDBRANCH   1  18TORSDOF 7TERENDMDL