MODEL        10USER    Run = 10USERUSER    Estimated Free Energy of Binding    = -10.56 kcal/mol  [=(1)+(2)+(3)-(4)]USERUSER    (1) Final Intermolecular Energy     = -12.65 kcal/molUSER        vdW + Hbond + desolv Energy     = -12.49 kcal/molUSER        Electrostatic Energy            =  -0.16 kcal/molUSER        Moving Ligand-Fixed Receptor    = -12.65 kcal/molUSER        Moving Ligand-Moving Receptor   =  +0.00 kcal/molUSER    (2) Final Total Internal Energy     =  -1.16 kcal/molUSER    (3) Torsional Free Energy           =  +2.09 kcal/molUSER    (4) Unbound System's Energy         =  -1.16 kcal/molUSERUSERREMARK SMILES Nc1nccc(-c2ccc(C(=O)CN3CCC(Nc4nc5ccccc5o4)CC3)cc2)n1REMARK SMILES IDX 11 1 12 2 10 3 7 4 8 5 31 6 9 7 30 8 6 9 2 10 3 11 32 12REMARK SMILES IDX 4 13 5 14 1 15 13 18 14 19 15 20 29 21 16 22 28 23 17 24REMARK SMILES IDX 18 25 19 27 20 28 27 29 21 30 26 31 22 32 25 33 23 34 24 35REMARK H PARENT 1 16 1 17 18 26USER                              x       y       z     vdW  Elec       q    TypeUSER                           _______ _______ _______ _____ _____    ______ ____ROOTATOM      1  C   UNL     1      36.902  47.111  13.443 -0.48 -0.08    +0.176 C  ATOM      2  O   UNL     1      37.210  47.859  12.515 -1.03 +0.06    -0.293 OA ENDROOTBRANCH   1   3ATOM      3  C   UNL     1      37.858  46.970  14.587 -0.43 -0.01    +0.019 A  ATOM      4  C   UNL     1      39.591  46.722  16.833 -0.47 -0.00    +0.000 A  ATOM      5  C   UNL     1      40.069  46.581  15.517 -0.45 -0.00    +0.011 A  ATOM      6  C   UNL     1      38.220  46.981  16.991 -0.27 -0.00    +0.011 A  ATOM      7  C   UNL     1      39.219  46.704  14.407 -0.42 -0.00    +0.012 A  ATOM      8  C   UNL     1      37.365  47.108  15.889 -0.40 -0.01    +0.012 A  BRANCH   4   9ATOM      9  C   UNL     1      40.476  46.593  18.010 -0.44 -0.01    +0.076 A  ATOM     10  C   UNL     1      42.516  47.096  18.940 -0.37 +0.02    +0.220 A  ATOM     11  N   UNL     1      42.247  46.456  20.079 -0.28 -0.04    -0.222 NA ATOM     12  N   UNL     1      41.692  47.171  17.893 -0.35 +0.02    -0.213 NA ATOM     13  C   UNL     1      41.037  45.881  20.167 -0.31 +0.01    +0.117 A  ATOM     14  C   UNL     1      40.105  45.919  19.159 -0.39 -0.00    +0.049 A  BRANCH  10  15ATOM     15  N   UNL     1      43.758  47.684  18.819 -0.16 -0.08    -0.368 N  ATOM     16  H   UNL     1      44.149  47.471  17.912 -0.35 +0.02    +0.159 HD ATOM     17  H   UNL     1      43.707  48.655  19.091 -0.53 -0.03    +0.159 HD ENDBRANCH  10  15ENDBRANCH   4   9ENDBRANCH   1   3BRANCH   1  18ATOM     18  C   UNL     1      35.597  46.305  13.497 -0.43 -0.10    +0.165 C  BRANCH  18  19ATOM     19  N   UNL     1      35.297  45.671  14.794 -0.18 +0.21    -0.296 NA ATOM     20  C   UNL     1      33.873  45.502  15.061 -0.28 -0.08    +0.087 C  ATOM     21  C   UNL     1      36.086  44.460  15.047 -0.34 -0.04    +0.087 C  ATOM     22  C   UNL     1      33.647  45.221  16.550 -0.35 -0.03    +0.040 C  ATOM     23  C   UNL     1      35.443  43.515  16.066 -0.44 -0.02    +0.040 C  ATOM     24  C   UNL     1      34.723  44.308  17.157 -0.30 -0.04    +0.086 C  BRANCH  24  25ATOM     25  N   UNL     1      34.134  43.374  18.111 -0.09 +0.09    -0.337 N  ATOM     26  H   UNL     1      33.128  43.423  18.219 +0.13 -0.04    +0.165 HD BRANCH  25  27ATOM     27  C   UNL     1      34.824  43.039  19.213 -0.19 -0.04    +0.295 A  ATOM     28  N   UNL     1      34.769  41.949  19.945 -0.29 -0.00    -0.194 NA ATOM     29  O   UNL     1      35.735  43.970  19.631 -0.16 +0.05    -0.424 OA ATOM     30  C   UNL     1      35.701  42.169  20.925 -0.38 +0.00    +0.111 A  ATOM     31  C   UNL     1      36.296  43.405  20.737 -0.32 +0.00    +0.156 A  ATOM     32  C   UNL     1      36.108  41.378  22.008 -0.50 +0.00    +0.032 A  ATOM     33  C   UNL     1      37.286  43.941  21.551 -0.36 +0.00    +0.049 A  ATOM     34  C   UNL     1      37.107  41.883  22.855 -0.49 +0.00    +0.003 A  ATOM     35  C   UNL     1      37.683  43.140  22.629 -0.38 +0.00    +0.004 A  ENDBRANCH  25  27ENDBRANCH  24  25ENDBRANCH  18  19ENDBRANCH   1  18TORSDOF 7TERENDMDL