REMARK SMILES Nc1nccc(-c2ccc(C(=O)CN3CCC(Nc4nc5ccccc5o4)CC3)cc2)n1
REMARK SMILES IDX 11 1 12 2 10 3 7 4 8 5 31 6 9 7 30 8 6 9 2 10 3 11 32 12
REMARK SMILES IDX 4 13 5 14 1 15 13 18 14 19 15 20 29 21 16 22 28 23 17 24
REMARK SMILES IDX 18 25 19 27 20 28 27 29 21 30 26 31 22 32 25 33 23 34 24 35
REMARK H PARENT 1 16 1 17 18 26
ROOT
ATOM      1  C   UNL     1      -1.596  -0.623   0.192  1.00  0.00     0.176 C 
ATOM      2  O   UNL     1      -1.208  -1.149   1.235  1.00  0.00    -0.293 OA
ENDROOT
BRANCH   1   3
ATOM      3  C   UNL     1      -3.060  -0.342   0.043  1.00  0.00     0.019 A 
ATOM      4  C   UNL     1      -5.857   0.160  -0.135  1.00  0.00     0.000 A 
ATOM      5  C   UNL     1      -4.999   0.390  -1.226  1.00  0.00     0.011 A 
ATOM      6  C   UNL     1      -5.273  -0.320   1.049  1.00  0.00     0.011 A 
ATOM      7  C   UNL     1      -3.620   0.143  -1.143  1.00  0.00     0.012 A 
ATOM      8  C   UNL     1      -3.898  -0.572   1.139  1.00  0.00     0.012 A 
BRANCH   4   9
ATOM      9  C   UNL     1      -7.311   0.418  -0.208  1.00  0.00     0.076 A 
ATOM     10  C   UNL     1      -9.197   1.096   0.917  1.00  0.00     0.220 A 
ATOM     11  N   UNL     1      -9.987   0.941  -0.146  1.00  0.00    -0.222 NA
ATOM     12  N   UNL     1      -7.889   0.832   0.942  1.00  0.00    -0.213 NA
ATOM     13  C   UNL     1      -9.392   0.518  -1.273  1.00  0.00     0.117 A 
ATOM     14  C   UNL     1      -8.049   0.242  -1.363  1.00  0.00     0.049 A 
BRANCH  10  15
ATOM     15  N   UNL     1      -9.786   1.516   2.091  1.00  0.00    -0.368 N 
ATOM     16  H   UNL     1     -10.769   1.284   2.082  1.00  0.00     0.159 HD
ATOM     17  H   UNL     1      -9.239   1.205   2.881  1.00  0.00     0.159 HD
ENDBRANCH  10  15
ENDBRANCH   4   9
ENDBRANCH   1   3
BRANCH   1  18
ATOM     18  C   UNL     1      -0.672  -0.242  -0.972  1.00  0.00     0.165 C 
BRANCH  18  19
ATOM     19  N   UNL     1       0.769  -0.437  -0.727  1.00  0.00    -0.296 NA
ATOM     20  C   UNL     1       1.303   0.368   0.366  1.00  0.00     0.087 C 
ATOM     21  C   UNL     1       1.161  -1.849  -0.657  1.00  0.00     0.087 C 
ATOM     22  C   UNL     1       2.833   0.409   0.290  1.00  0.00     0.040 C 
ATOM     23  C   UNL     1       2.466  -2.082   0.110  1.00  0.00     0.040 C 
ATOM     24  C   UNL     1       3.447  -0.935  -0.133  1.00  0.00     0.086 C 
BRANCH  24  25
ATOM     25  N   UNL     1       4.678  -1.198   0.605  1.00  0.00    -0.337 N 
ATOM     26  H   UNL     1       4.573  -1.384   1.595  1.00  0.00     0.165 HD
BRANCH  25  27
ATOM     27  C   UNL     1       5.806  -0.565   0.245  1.00  0.00     0.295 A 
ATOM     28  N   UNL     1       6.103   0.062  -0.872  1.00  0.00    -0.194 NA
ATOM     29  O   UNL     1       6.794  -0.560   1.190  1.00  0.00    -0.424 OA
ATOM     30  C   UNL     1       7.381   0.510  -0.662  1.00  0.00     0.111 A 
ATOM     31  C   UNL     1       7.809   0.132   0.599  1.00  0.00     0.156 A 
ATOM     32  C   UNL     1       8.249   1.243  -1.482  1.00  0.00     0.032 A 
ATOM     33  C   UNL     1       9.057   0.425   1.134  1.00  0.00     0.049 A 
ATOM     34  C   UNL     1       9.521   1.560  -0.979  1.00  0.00     0.003 A 
ATOM     35  C   UNL     1       9.915   1.158   0.304  1.00  0.00     0.004 A 
ENDBRANCH  25  27
ENDBRANCH  24  25
ENDBRANCH  18  19
ENDBRANCH   1  18
TORSDOF 7
