MODEL        6USER    Run = 6USERUSER    Estimated Free Energy of Binding    =  -8.95 kcal/mol  [=(1)+(2)+(3)-(4)]USERUSER    (1) Final Intermolecular Energy     = -11.04 kcal/molUSER        vdW + Hbond + desolv Energy     = -10.71 kcal/molUSER        Electrostatic Energy            =  -0.33 kcal/molUSER        Moving Ligand-Fixed Receptor    = -11.04 kcal/molUSER        Moving Ligand-Moving Receptor   =  +0.00 kcal/molUSER    (2) Final Total Internal Energy     =  -0.64 kcal/molUSER    (3) Torsional Free Energy           =  +2.09 kcal/molUSER    (4) Unbound System's Energy         =  -0.64 kcal/molUSERUSERREMARK SMILES Cc1n[nH]cc1CC[C@@H](N)CNC(=O)c1ccc2ccccc2c1REMARK SMILES IDX 8 1 7 2 6 3 2 4 3 5 4 6 5 7 1 8 9 10 10 11 11 14 12 15 13 16REMARK SMILES IDX 14 18 15 19 16 20 24 21 17 22 23 23 18 24 22 25 19 26 21 27REMARK SMILES IDX 20 28REMARK H PARENT 4 9 10 12 10 13 12 17USER                              x       y       z     vdW  Elec       q    TypeUSER                           _______ _______ _______ _____ _____    ______ ____ROOTATOM      1  C   UNL     1      32.797  45.340  15.671 -0.37 -0.02    +0.025 C  ENDROOTBRANCH   1   2ATOM      2  C   UNL     1      33.071  43.923  16.188 -0.36 -0.02    +0.041 C  BRANCH   2   3ATOM      3  C   UNL     1      33.047  43.856  17.677 -0.31 +0.00    -0.007 A  ATOM      4  C   UNL     1      32.919  42.704  18.506 -0.32 -0.01    +0.062 A  ATOM      5  N   UNL     1      32.939  43.024  19.805 -0.78 -0.02    -0.181 NA ATOM      6  N   UNL     1      33.074  44.356  19.814 -0.30 +0.04    -0.285 N  ATOM      7  C   UNL     1      33.144  44.904  18.569 -0.30 -0.04    +0.109 A  ATOM      8  C   UNL     1      32.778  41.287  18.088 -0.42 -0.02    +0.069 C  ATOM      9  H   UNL     1      33.111  44.829  20.712 -0.36 -0.06    +0.189 HD ENDBRANCH   2   3ENDBRANCH   1   2BRANCH   1  10ATOM     10  C   UNL     1      31.333  45.637  15.305 -0.47 -0.04    +0.070 C  BRANCH  10  11ATOM     11  N   UNL     1      30.913  46.984  15.740 -0.61 +0.12    -0.326 NA ATOM     12  H   UNL     1      31.645  47.423  16.295 -0.45 -0.17    +0.119 HD ATOM     13  H   UNL     1      30.104  46.895  16.357 +0.00 +0.04    +0.119 HD ENDBRANCH  10  11BRANCH  10  14ATOM     14  C   UNL     1      31.042  45.447  13.799 -0.46 -0.10    +0.134 C  BRANCH  14  15ATOM     15  N   UNL     1      29.752  46.012  13.444 -0.21 +0.32    -0.350 N  ATOM     16  C   UNL     1      29.605  46.744  12.282 -0.42 -0.15    +0.251 C  ATOM     17  H   UNL     1      28.956  45.467  13.752 -0.45 -0.25    +0.163 HD ATOM     18  O   UNL     1      30.547  47.086  11.578 -1.12 +0.09    -0.269 OA BRANCH  16  19ATOM     19  C   UNL     1      28.208  47.076  11.884 -0.48 -0.02    +0.040 A  ATOM     20  C   UNL     1      27.920  48.089  10.964 -0.39 -0.01    +0.014 A  ATOM     21  C   UNL     1      27.162  46.326  12.437 -0.35 -0.01    +0.022 A  ATOM     22  C   UNL     1      26.595  48.365  10.618 -0.42 -0.01    +0.009 A  ATOM     23  C   UNL     1      25.826  46.593  12.097 -0.34 +0.00    -0.018 A  ATOM     24  C   UNL     1      25.538  47.629  11.178 -0.32 +0.01    -0.018 A  ATOM     25  C   UNL     1      24.769  45.854  12.652 -0.24 +0.00    +0.009 A  ATOM     26  C   UNL     1      24.202  47.895  10.840 -0.18 -0.01    +0.009 A  ATOM     27  C   UNL     1      23.446  46.131  12.306 -0.16 -0.00    +0.001 A  ATOM     28  C   UNL     1      23.162  47.151  11.401 -0.14 -0.00    +0.001 A  ENDBRANCH  16  19ENDBRANCH  14  15ENDBRANCH  10  14ENDBRANCH   1  10TORSDOF 7TERENDMDL