REMARK SMILES C[C@@H](C(=O)c1ccc(-c2ccnc(N)n2)cc1)N1CCC(N)CC1
REMARK SMILES IDX 3 1 4 2 2 3 1 4 18 5 19 6 24 7 20 8 23 9 21 10 22 11 5 14
REMARK SMILES IDX 6 15 17 16 7 17 16 18 8 19 9 20 10 21 15 22 11 23 13 24
REMARK SMILES IDX 12 25 14 26
REMARK H PARENT 22 12 22 13 14 27 14 28
ROOT
ATOM      1  C   UNL     1      -0.764   1.057  -0.776  1.00  0.00     0.179 C 
ATOM      2  O   UNL     1      -1.086   2.204  -0.465  1.00  0.00    -0.292 OA
ENDROOT
BRANCH   1   3
ATOM      3  C   UNL     1      -1.766   0.009  -1.297  1.00  0.00     0.126 C 
ATOM      4  C   UNL     1      -2.129   0.341  -2.745  1.00  0.00     0.033 C 
BRANCH   3   5
ATOM      5  N   UNL     1      -2.957  -0.158  -0.418  1.00  0.00    -0.293 NA
ATOM      6  C   UNL     1      -2.578  -0.585   0.939  1.00  0.00     0.087 C 
ATOM      7  C   UNL     1      -3.874   0.989  -0.381  1.00  0.00     0.087 C 
ATOM      8  C   UNL     1      -3.808  -0.975   1.760  1.00  0.00     0.034 C 
ATOM      9  C   UNL     1      -5.149   0.642   0.398  1.00  0.00     0.034 C 
ATOM     10  C   UNL     1      -4.809   0.178   1.814  1.00  0.00     0.053 C 
BRANCH  10  11
ATOM     11  N   UNL     1      -6.015  -0.232   2.540  1.00  0.00    -0.328 NA
ATOM     12  H   UNL     1      -6.450  -1.019   2.059  1.00  0.00     0.119 HD
ATOM     13  H   UNL     1      -6.700   0.523   2.514  1.00  0.00     0.119 HD
ENDBRANCH  10  11
ENDBRANCH   3   5
ENDBRANCH   1   3
BRANCH   1  14
ATOM     14  C   UNL     1       0.672   0.673  -0.636  1.00  0.00     0.019 A 
ATOM     15  C   UNL     1       1.276  -0.296  -1.441  1.00  0.00     0.012 A 
ATOM     16  C   UNL     1       1.439   1.326   0.334  1.00  0.00     0.012 A 
ATOM     17  C   UNL     1       2.629  -0.619  -1.262  1.00  0.00     0.011 A 
ATOM     18  C   UNL     1       2.787   0.995   0.510  1.00  0.00     0.011 A 
ATOM     19  C   UNL     1       3.414   0.018  -0.284  1.00  0.00     0.000 A 
BRANCH  19  20
ATOM     20  C   UNL     1       4.838  -0.317  -0.080  1.00  0.00     0.076 A 
ATOM     21  C   UNL     1       5.687  -0.650  -1.118  1.00  0.00     0.049 A 
ATOM     22  N   UNL     1       5.268  -0.273   1.201  1.00  0.00    -0.213 NA
ATOM     23  C   UNL     1       6.982  -0.945  -0.768  1.00  0.00     0.117 A 
ATOM     24  C   UNL     1       6.550  -0.564   1.432  1.00  0.00     0.220 A 
ATOM     25  N   UNL     1       7.432  -0.921   0.497  1.00  0.00    -0.222 NA
BRANCH  24  26
ATOM     26  N   UNL     1       6.983  -0.544   2.740  1.00  0.00    -0.368 N 
ATOM     27  H   UNL     1       7.785  -1.151   2.843  1.00  0.00     0.159 HD
ATOM     28  H   UNL     1       6.202  -0.691   3.364  1.00  0.00     0.159 HD
ENDBRANCH  24  26
ENDBRANCH  19  20
ENDBRANCH   1  14
TORSDOF 6
