REMARK SMILES Cc1n[nH]cc1CC[C@@H](N)CNC(=O)c1ccc2ccccc2c1
REMARK SMILES IDX 8 1 7 2 6 3 2 4 3 5 4 6 5 7 1 8 9 10 10 11 11 14 12 15 13 16
REMARK SMILES IDX 14 18 15 19 16 20 24 21 17 22 23 23 18 24 22 25 19 26 21 27
REMARK SMILES IDX 20 28
REMARK H PARENT 4 9 10 12 10 13 12 17
ROOT
ATOM      1  C   UNL     1      -2.868   0.150  -0.780  1.00  0.00     0.025 C 
ENDROOT
BRANCH   1   2
ATOM      2  C   UNL     1      -3.841   0.861   0.167  1.00  0.00     0.041 C 
BRANCH   2   3
ATOM      3  C   UNL     1      -5.261   0.506  -0.120  1.00  0.00    -0.007 A 
ATOM      4  C   UNL     1      -6.016  -0.588   0.391  1.00  0.00     0.062 A 
ATOM      5  N   UNL     1      -7.267  -0.592  -0.085  1.00  0.00    -0.181 NA
ATOM      6  N   UNL     1      -7.316   0.477  -0.890  1.00  0.00    -0.285 N 
ATOM      7  C   UNL     1      -6.144   1.169  -0.946  1.00  0.00     0.109 A 
ATOM      8  C   UNL     1      -5.574  -1.644   1.335  1.00  0.00     0.069 C 
ATOM      9  H   UNL     1      -8.187   0.675  -1.372  1.00  0.00     0.189 HD
ENDBRANCH   2   3
ENDBRANCH   1   2
BRANCH   1  10
ATOM     10  C   UNL     1      -1.381   0.486  -0.572  1.00  0.00     0.070 C 
BRANCH  10  11
ATOM     11  N   UNL     1      -1.075   1.891  -0.908  1.00  0.00    -0.326 NA
ATOM     12  H   UNL     1      -1.625   2.523  -0.329  1.00  0.00     0.119 HD
ATOM     13  H   UNL     1      -1.359   2.070  -1.872  1.00  0.00     0.119 HD
ENDBRANCH  10  11
BRANCH  10  14
ATOM     14  C   UNL     1      -0.888   0.159   0.856  1.00  0.00     0.134 C 
BRANCH  14  15
ATOM     15  N   UNL     1       0.550   0.336   0.963  1.00  0.00    -0.350 N 
ATOM     16  C   UNL     1       1.407  -0.698   0.645  1.00  0.00     0.251 C 
ATOM     17  H   UNL     1       0.871   1.279   0.778  1.00  0.00     0.163 HD
ATOM     18  O   UNL     1       1.028  -1.839   0.409  1.00  0.00    -0.269 OA
BRANCH  16  19
ATOM     19  C   UNL     1       2.854  -0.352   0.555  1.00  0.00     0.040 A 
ATOM     20  C   UNL     1       3.404   0.726   1.256  1.00  0.00     0.014 A 
ATOM     21  C   UNL     1       3.682  -1.155  -0.241  1.00  0.00     0.022 A 
ATOM     22  C   UNL     1       4.767   1.012   1.143  1.00  0.00     0.009 A 
ATOM     23  C   UNL     1       5.053  -0.877  -0.363  1.00  0.00    -0.018 A 
ATOM     24  C   UNL     1       5.602   0.223   0.336  1.00  0.00    -0.018 A 
ATOM     25  C   UNL     1       5.890  -1.669  -1.165  1.00  0.00     0.009 A 
ATOM     26  C   UNL     1       6.973   0.499   0.212  1.00  0.00     0.009 A 
ATOM     27  C   UNL     1       7.251  -1.381  -1.277  1.00  0.00     0.001 A 
ATOM     28  C   UNL     1       7.792  -0.298  -0.590  1.00  0.00     0.001 A 
ENDBRANCH  16  19
ENDBRANCH  14  15
ENDBRANCH  10  14
ENDBRANCH   1  10
TORSDOF 7
