MODEL        3USER    Run = 3USERUSER    Estimated Free Energy of Binding    =  -8.84 kcal/mol  [=(1)+(2)+(3)-(4)]USERUSER    (1) Final Intermolecular Energy     = -10.63 kcal/molUSER        vdW + Hbond + desolv Energy     = -10.45 kcal/molUSER        Electrostatic Energy            =  -0.18 kcal/molUSER        Moving Ligand-Fixed Receptor    = -10.63 kcal/molUSER        Moving Ligand-Moving Receptor   =  +0.00 kcal/molUSER    (2) Final Total Internal Energy     =  -0.93 kcal/molUSER    (3) Torsional Free Energy           =  +1.79 kcal/molUSER    (4) Unbound System's Energy         =  -0.93 kcal/molUSERUSERREMARK SMILES C[C@@H](C(=O)c1ccc(-c2ccnc(N)n2)cc1)N1CCC(N)CC1REMARK SMILES IDX 3 1 4 2 2 3 1 4 18 5 19 6 24 7 20 8 23 9 21 10 22 11 5 14REMARK SMILES IDX 6 15 17 16 7 17 16 18 8 19 9 20 10 21 15 22 11 23 13 24REMARK SMILES IDX 12 25 14 26REMARK H PARENT 22 12 22 13 14 27 14 28USER                              x       y       z     vdW  Elec       q    TypeUSER                           _______ _______ _______ _____ _____    ______ ____ROOTATOM      1  C   UNL     1      35.353  44.901  17.302 -0.25 -0.08    +0.179 C  ATOM      2  O   UNL     1      34.335  45.149  17.949 -0.21 +0.14    -0.292 OA ENDROOTBRANCH   1   3ATOM      3  C   UNL     1      35.328  44.395  15.846 -0.31 -0.06    +0.126 C  ATOM      4  C   UNL     1      36.025  43.036  15.777 -0.48 -0.01    +0.033 C  BRANCH   3   5ATOM      5  N   UNL     1      35.869  45.381  14.869 -0.17 +0.16    -0.293 NA ATOM      6  C   UNL     1      36.822  44.758  13.936 -0.39 -0.03    +0.087 C  ATOM      7  C   UNL     1      34.859  46.171  14.153 -0.37 -0.07    +0.087 C  ATOM      8  C   UNL     1      37.541  45.812  13.094 -0.44 -0.01    +0.034 C  ATOM      9  C   UNL     1      35.521  47.275  13.319 -0.45 -0.02    +0.034 C  ATOM     10  C   UNL     1      36.534  46.680  12.341 -0.70 -0.02    +0.053 C  BRANCH  10  11ATOM     11  N   UNL     1      37.230  47.733  11.595 -0.76 +0.05    -0.328 NA ATOM     12  H   UNL     1      36.652  48.573  11.573 -0.37 -0.04    +0.119 HD ATOM     13  H   UNL     1      37.340  47.445  10.623 -0.28 -0.04    +0.119 HD ENDBRANCH  10  11ENDBRANCH   3   5ENDBRANCH   1   3BRANCH   1  14ATOM     14  C   UNL     1      36.672  45.102  17.971 -0.33 -0.01    +0.019 A  ATOM     15  C   UNL     1      37.002  44.497  19.187 -0.35 -0.00    +0.012 A  ATOM     16  C   UNL     1      37.614  45.921  17.342 -0.36 -0.00    +0.012 A  ATOM     17  C   UNL     1      38.255  44.726  19.772 -0.36 -0.00    +0.011 A  ATOM     18  C   UNL     1      38.861  46.148  17.934 -0.39 -0.00    +0.011 A  ATOM     19  C   UNL     1      39.212  45.555  19.160 -0.41 -0.00    +0.000 A  BRANCH  19  20ATOM     20  C   UNL     1      40.534  45.810  19.768 -0.36 +0.00    +0.076 A  ATOM     21  C   UNL     1      40.893  45.329  21.012 -0.31 +0.00    +0.049 A  ATOM     22  N   UNL     1      41.385  46.549  19.021 -0.34 -0.01    -0.213 NA ATOM     23  C   UNL     1      42.154  45.657  21.446 -0.23 +0.02    +0.117 A  ATOM     24  C   UNL     1      42.593  46.801  19.530 -0.31 +0.04    +0.220 A  ATOM     25  N   UNL     1      43.014  46.400  20.730 -0.22 -0.08    -0.222 NA BRANCH  24  26ATOM     26  N   UNL     1      43.452  47.575  18.781 -0.26 -0.06    -0.368 N  ATOM     27  H   UNL     1      43.399  48.537  19.087 -0.53 -0.02    +0.159 HD ATOM     28  H   UNL     1      43.314  47.390  17.797 -0.50 -0.03    +0.159 HD ENDBRANCH  24  26ENDBRANCH  19  20ENDBRANCH   1  14TORSDOF 6TERENDMDL