MODEL        1USER    Run = 1USERUSER    Estimated Free Energy of Binding    =  -9.92 kcal/mol  [=(1)+(2)+(3)-(4)]USERUSER    (1) Final Intermolecular Energy     = -14.40 kcal/molUSER        vdW + Hbond + desolv Energy     = -14.19 kcal/molUSER        Electrostatic Energy            =  -0.21 kcal/molUSER        Moving Ligand-Fixed Receptor    = -14.40 kcal/molUSER        Moving Ligand-Moving Receptor   =  +0.00 kcal/molUSER    (2) Final Total Internal Energy     =  -6.18 kcal/molUSER    (3) Torsional Free Energy           =  +4.47 kcal/molUSER    (4) Unbound System's Energy         =  -6.18 kcal/molUSERUSERREMARK SMILES COc1ccc(O)c(C(=O)c2ccc(C(=O)N[C@@H]3CCN(C[C@@H](O)[C@@H](O)CO)C[C@@H]3NC(=O)c3ccncc3)cc2)c1FREMARK SMILES IDX 18 1 19 2 20 3 21 4 29 5 30 6 17 7 15 8 16 9 14 11 11 12REMARK SMILES IDX 12 13 41 14 13 15 40 16 9 17 10 18 8 19 3 20 4 21 42 22 5 23REMARK SMILES IDX 6 24 43 25 2 26 1 27 7 28 31 30 32 31 33 33 34 34 35 35REMARK SMILES IDX 39 36 36 37 38 38 37 39 22 40 23 41 24 42 25 44 26 45 27 47REMARK SMILES IDX 28 48REMARK H PARENT 17 10 7 29 31 32 24 43 26 46 28 49USER                              x       y       z     vdW  Elec       q    TypeUSER                           _______ _______ _______ _____ _____    ______ ____ROOTATOM      1  C   UNL     1      38.829  44.419  20.974 -0.33 +0.00    +0.107 C  ATOM      2  C   UNL     1      38.933  45.645  21.897 -0.33 +0.00    +0.042 C  ATOM      3  C   UNL     1      40.262  45.648  22.660 -0.25 +0.01    +0.087 C  ATOM      4  N   UNL     1      41.414  45.544  21.758 -0.11 -0.03    -0.298 NA ATOM      5  C   UNL     1      41.336  44.335  20.917 -0.32 +0.01    +0.111 C  ATOM      6  C   UNL     1      40.063  44.354  20.043 -0.30 +0.00    +0.118 C  ENDROOTBRANCH   1   7ATOM      7  N   UNL     1      37.559  44.415  20.251 -0.16 +0.01    -0.347 N  ATOM      8  C   UNL     1      36.749  43.297  20.273 -0.28 -0.01    +0.251 C  ATOM      9  O   UNL     1      37.036  42.273  20.889 -0.29 -0.00    -0.269 OA ATOM     10  H   UNL     1      37.473  45.062  19.474 +0.09 -0.01    +0.164 HD BRANCH   8  11ATOM     11  C   UNL     1      35.500  43.353  19.469 -0.38 -0.00    +0.039 A  ATOM     12  C   UNL     1      33.106  43.557  18.022 -0.31 -0.01    +0.023 A  ATOM     13  C   UNL     1      33.175  44.062  19.327 -0.44 -0.00    +0.013 A  ATOM     14  C   UNL     1      34.242  42.988  17.425 -0.36 -0.00    +0.013 A  ATOM     15  C   UNL     1      34.370  43.958  20.046 -0.25 -0.00    +0.014 A  ATOM     16  C   UNL     1      35.435  42.875  18.152 -0.36 -0.00    +0.014 A  BRANCH  12  17ATOM     17  C   UNL     1      31.853  43.648  17.234 -0.22 -0.06    +0.199 C  ATOM     18  O   UNL     1      31.476  44.748  16.825 -0.64 +0.07    -0.288 OA BRANCH  17  19ATOM     19  C   UNL     1      31.003  42.466  16.955 -0.23 -0.03    +0.104 A  ATOM     20  C   UNL     1      30.226  40.212  17.492 -0.26 -0.00    +0.155 A  ATOM     21  C   UNL     1      29.343  40.261  16.414 -0.36 +0.00    +0.053 A  ATOM     22  C   UNL     1      31.056  41.315  17.748 -0.20 -0.03    +0.179 A  ATOM     23  C   UNL     1      29.306  41.389  15.590 -0.29 -0.02    +0.051 A  ATOM     24  C   UNL     1      30.138  42.479  15.856 -0.23 -0.06    +0.130 A  ATOM     25  F   UNL     1      31.944  41.238  18.751 -0.08 +0.01    -0.202 F  BRANCH  20  26ATOM     26  O   UNL     1      30.367  39.164  18.357 -0.10 -0.07    -0.494 OA ATOM     27  C   UNL     1      31.607  38.475  18.347 -0.32 +0.04    +0.278 C  ENDBRANCH  20  26BRANCH  24  28ATOM     28  O   UNL     1      30.054  43.533  14.985 -0.03 +0.43    -0.507 OA ATOM     29  H   UNL     1      30.422  44.324  15.439 +0.19 -0.17    +0.293 HD ENDBRANCH  24  28ENDBRANCH  17  19ENDBRANCH  12  17ENDBRANCH   8  11ENDBRANCH   1   7BRANCH   6  30ATOM     30  N   UNL     1      40.105  45.483  19.106 -0.20 +0.01    -0.346 N  ATOM     31  C   UNL     1      39.342  45.526  17.964 -0.32 -0.03    +0.251 C  ATOM     32  H   UNL     1      40.798  46.190  19.309 +0.10 +0.00    +0.164 HD ATOM     33  O   UNL     1      38.560  44.630  17.648 -0.24 +0.04    -0.269 OA BRANCH  31  34ATOM     34  C   UNL     1      39.526  46.704  17.084 -0.43 -0.01    +0.042 A  ATOM     35  C   UNL     1      38.480  47.065  16.234 -0.40 -0.01    +0.034 A  ATOM     36  C   UNL     1      40.694  47.466  17.109 -0.50 -0.01    +0.034 A  ATOM     37  C   UNL     1      38.656  48.172  15.422 -0.42 -0.06    +0.112 A  ATOM     38  C   UNL     1      40.767  48.559  16.261 -0.48 -0.02    +0.112 A  ATOM     39  N   UNL     1      39.777  48.926  15.420 -0.33 +0.11    -0.265 NA ENDBRANCH  31  34ENDBRANCH   6  30BRANCH   4  40ATOM     40  C   UNL     1      42.704  45.658  22.494 -0.19 +0.02    +0.119 C  BRANCH  40  41ATOM     41  C   UNL     1      43.937  46.197  21.714 -0.21 +0.10    +0.159 C  BRANCH  41  42ATOM     42  O   UNL     1      43.444  47.060  20.659 -0.27 -0.15    -0.389 OA ATOM     43  H   UNL     1      43.719  47.968  20.881 -0.43 +0.00    +0.211 HD ENDBRANCH  41  42BRANCH  41  44ATOM     44  C   UNL     1      44.904  47.063  22.549 -0.23 +0.10    +0.169 C  BRANCH  44  45ATOM     45  O   UNL     1      45.811  47.765  21.691 -0.66 -0.36    -0.388 OA ATOM     46  H   UNL     1      45.254  48.253  21.055 -0.36 +0.09    +0.211 HD ENDBRANCH  44  45BRANCH  44  47ATOM     47  C   UNL     1      44.236  48.034  23.531 -0.23 +0.05    +0.190 C  BRANCH  47  48ATOM     48  O   UNL     1      43.289  48.889  22.909 -0.76 -0.12    -0.394 OA ATOM     49  H   UNL     1      43.430  48.826  21.949 -0.46 -0.00    +0.210 HD ENDBRANCH  47  48ENDBRANCH  44  47ENDBRANCH  41  44ENDBRANCH  40  41ENDBRANCH   4  40TORSDOF 15TERENDMDL