REMARK SMILES Cc1cccc(-c2nnc3sc(C(=O)NC4CCN(CCO)CC4)cn23)c1
REMARK SMILES IDX 16 1 17 2 18 3 19 4 23 5 24 6 15 7 13 8 14 9 12 11 7 12 8 13
REMARK SMILES IDX 26 14 9 15 25 16 10 17 11 18 6 19 2 20 3 21 27 22 4 23 5 24
REMARK SMILES IDX 1 25 20 26 21 27 22 28
REMARK H PARENT 15 10 22 29
ROOT
ATOM      1  C   UNL     1       2.755   0.354  -0.486  1.00  0.00     0.084 C 
ATOM      2  C   UNL     1       3.767  -0.276  -1.455  1.00  0.00     0.040 C 
ATOM      3  C   UNL     1       5.196  -0.290  -0.901  1.00  0.00     0.086 C 
ATOM      4  N   UNL     1       5.439   0.916  -0.118  1.00  0.00    -0.301 NA
ATOM      5  C   UNL     1       4.616   0.987   1.093  1.00  0.00     0.086 C 
ATOM      6  C   UNL     1       3.263   0.280   0.953  1.00  0.00     0.040 C 
ENDROOT
BRANCH   1   7
ATOM      7  N   UNL     1       1.446  -0.279  -0.616  1.00  0.00    -0.348 N 
ATOM      8  C   UNL     1       0.283   0.360  -0.265  1.00  0.00     0.263 C 
ATOM      9  O   UNL     1       0.223   1.532   0.094  1.00  0.00    -0.268 OA
ATOM     10  H   UNL     1       1.407  -1.276  -0.794  1.00  0.00     0.164 HD
BRANCH   8  11
ATOM     11  C   UNL     1      -0.943  -0.475  -0.332  1.00  0.00     0.112 A 
ATOM     12  C   UNL     1      -4.486  -1.155  -0.144  1.00  0.00     0.169 A 
ATOM     13  N   UNL     1      -4.758  -2.424  -0.447  1.00  0.00    -0.128 NA
ATOM     14  N   UNL     1      -3.125  -0.993  -0.230  1.00  0.00    -0.272 N 
ATOM     15  N   UNL     1      -3.570  -3.104  -0.692  1.00  0.00    -0.118 NA
ATOM     16  C   UNL     1      -2.181   0.002  -0.112  1.00  0.00     0.120 A 
ATOM     17  C   UNL     1      -2.629  -2.219  -0.552  1.00  0.00     0.217 A 
ATOM     18  S   UNL     1      -0.904  -2.201  -0.705  1.00  0.00    -0.089 S 
BRANCH  12  19
ATOM     19  C   UNL     1      -5.465  -0.118   0.170  1.00  0.00     0.020 A 
ATOM     20  C   UNL     1      -7.660   0.873  -0.251  1.00  0.00    -0.050 A 
ATOM     21  C   UNL     1      -7.404   1.835   0.731  1.00  0.00     0.003 A 
ATOM     22  C   UNL     1      -6.692  -0.109  -0.511  1.00  0.00     0.015 A 
ATOM     23  C   UNL     1      -6.199   1.824   1.430  1.00  0.00     0.001 A 
ATOM     24  C   UNL     1      -5.235   0.852   1.154  1.00  0.00     0.012 A 
ATOM     25  C   UNL     1      -8.977   0.855  -0.969  1.00  0.00     0.044 C 
ENDBRANCH  12  19
ENDBRANCH   8  11
ENDBRANCH   1   7
BRANCH   4  26
ATOM     26  C   UNL     1       6.866   1.189   0.127  1.00  0.00     0.112 C 
BRANCH  26  27
ATOM     27  C   UNL     1       7.686   0.115   0.865  1.00  0.00     0.171 C 
BRANCH  27  28
ATOM     28  O   UNL     1       7.943  -1.012   0.031  1.00  0.00    -0.395 OA
ATOM     29  H   UNL     1       8.434  -1.656   0.570  1.00  0.00     0.210 HD
ENDBRANCH  27  28
ENDBRANCH  26  27
ENDBRANCH   4  26
TORSDOF 6
