REMARK SMILES COc1ccc(O)c(C(=O)c2ccc(C(=O)N[C@@H]3CCN(C[C@@H](O)[C@@H](O)CO)C[C@@H]3NC(=O)c3ccncc3)cc2)c1F
REMARK SMILES IDX 18 1 19 2 20 3 21 4 29 5 30 6 17 7 15 8 16 9 14 11 11 12
REMARK SMILES IDX 12 13 41 14 13 15 40 16 9 17 10 18 8 19 3 20 4 21 42 22 5 23
REMARK SMILES IDX 6 24 43 25 2 26 1 27 7 28 31 30 32 31 33 33 34 34 35 35
REMARK SMILES IDX 39 36 36 37 38 38 37 39 22 40 23 41 24 42 25 44 26 45 27 47
REMARK SMILES IDX 28 48
REMARK H PARENT 17 10 7 29 31 32 24 43 26 46 28 49
ROOT
ATOM      1  C   UNL     1      -1.572  -0.812   0.055  1.00  0.00     0.107 C 
ATOM      2  C   UNL     1      -2.124  -1.584  -1.155  1.00  0.00     0.042 C 
ATOM      3  C   UNL     1      -3.576  -2.015  -0.916  1.00  0.00     0.087 C 
ATOM      4  N   UNL     1      -4.433  -0.882  -0.553  1.00  0.00    -0.298 NA
ATOM      5  C   UNL     1      -3.928  -0.181   0.642  1.00  0.00     0.111 C 
ATOM      6  C   UNL     1      -2.507   0.372   0.396  1.00  0.00     0.118 C 
ENDROOT
BRANCH   1   7
ATOM      7  N   UNL     1      -0.186  -0.406  -0.173  1.00  0.00    -0.347 N 
ATOM      8  C   UNL     1       0.840  -1.315  -0.015  1.00  0.00     0.251 C 
ATOM      9  O   UNL     1       0.655  -2.486   0.309  1.00  0.00    -0.269 OA
ATOM     10  H   UNL     1       0.022   0.583  -0.079  1.00  0.00     0.164 HD
BRANCH   8  11
ATOM     11  C   UNL     1       2.225  -0.812  -0.213  1.00  0.00     0.039 A 
ATOM     12  C   UNL     1       4.880   0.020  -0.564  1.00  0.00     0.023 A 
ATOM     13  C   UNL     1       4.601  -1.098   0.233  1.00  0.00     0.013 A 
ATOM     14  C   UNL     1       3.839   0.697  -1.218  1.00  0.00     0.013 A 
ATOM     15  C   UNL     1       3.276  -1.510   0.406  1.00  0.00     0.014 A 
ATOM     16  C   UNL     1       2.511   0.289  -1.034  1.00  0.00     0.014 A 
BRANCH  12  17
ATOM     17  C   UNL     1       6.274   0.485  -0.765  1.00  0.00     0.199 C 
ATOM     18  O   UNL     1       6.646   0.806  -1.895  1.00  0.00    -0.288 OA
BRANCH  17  19
ATOM     19  C   UNL     1       7.261   0.535   0.340  1.00  0.00     0.104 A 
ATOM     20  C   UNL     1       7.816   0.780   2.707  1.00  0.00     0.155 A 
ATOM     21  C   UNL     1       9.164   0.583   2.411  1.00  0.00     0.053 A 
ATOM     22  C   UNL     1       6.875   0.763   1.665  1.00  0.00     0.179 A 
ATOM     23  C   UNL     1       9.569   0.393   1.087  1.00  0.00     0.051 A 
ATOM     24  C   UNL     1       8.623   0.378   0.060  1.00  0.00     0.130 A 
ATOM     25  F   UNL     1       5.588   1.011   1.950  1.00  0.00    -0.202 F 
BRANCH  20  26
ATOM     26  O   UNL     1       7.299   0.992   3.954  1.00  0.00    -0.494 OA
ATOM     27  C   UNL     1       8.220   1.142   5.023  1.00  0.00     0.278 C 
ENDBRANCH  20  26
BRANCH  24  28
ATOM     28  O   UNL     1       9.108   0.209  -1.210  1.00  0.00    -0.507 OA
ATOM     29  H   UNL     1       8.389   0.446  -1.838  1.00  0.00     0.293 HD
ENDBRANCH  24  28
ENDBRANCH  17  19
ENDBRANCH  12  17
ENDBRANCH   8  11
ENDBRANCH   1   7
BRANCH   6  30
ATOM     30  N   UNL     1      -2.531   1.380  -0.670  1.00  0.00    -0.346 N 
ATOM     31  C   UNL     1      -1.655   2.438  -0.708  1.00  0.00     0.251 C 
ATOM     32  H   UNL     1      -3.292   1.297  -1.330  1.00  0.00     0.164 HD
ATOM     33  O   UNL     1      -0.780   2.612   0.140  1.00  0.00    -0.269 OA
BRANCH  31  34
ATOM     34  C   UNL     1      -1.829   3.408  -1.815  1.00  0.00     0.042 A 
ATOM     35  C   UNL     1      -1.500   4.744  -1.581  1.00  0.00     0.034 A 
ATOM     36  C   UNL     1      -2.279   3.014  -3.075  1.00  0.00     0.034 A 
ATOM     37  C   UNL     1      -1.656   5.642  -2.623  1.00  0.00     0.112 A 
ATOM     38  C   UNL     1      -2.394   3.990  -4.051  1.00  0.00     0.112 A 
ATOM     39  N   UNL     1      -2.095   5.291  -3.852  1.00  0.00    -0.265 NA
ENDBRANCH  31  34
ENDBRANCH   6  30
BRANCH   4  40
ATOM     40  C   UNL     1      -5.861  -1.287  -0.430  1.00  0.00     0.119 C 
BRANCH  40  41
ATOM     41  C   UNL     1      -6.258  -2.183   0.778  1.00  0.00     0.159 C 
BRANCH  41  42
ATOM     42  O   UNL     1      -6.252  -1.348   1.962  1.00  0.00    -0.389 OA
ATOM     43  H   UNL     1      -6.211  -1.944   2.732  1.00  0.00     0.211 HD
ENDBRANCH  41  42
BRANCH  41  44
ATOM     44  C   UNL     1      -7.675  -2.789   0.697  1.00  0.00     0.169 C 
BRANCH  44  45
ATOM     45  O   UNL     1      -8.629  -1.780   0.345  1.00  0.00    -0.388 OA
ATOM     46  H   UNL     1      -8.414  -1.005   0.898  1.00  0.00     0.211 HD
ENDBRANCH  44  45
BRANCH  44  47
ATOM     47  C   UNL     1      -7.818  -4.006  -0.226  1.00  0.00     0.190 C 
BRANCH  47  48
ATOM     48  O   UNL     1      -7.284  -3.785  -1.523  1.00  0.00    -0.394 OA
ATOM     49  H   UNL     1      -7.664  -4.460  -2.110  1.00  0.00     0.210 HD
ENDBRANCH  47  48
ENDBRANCH  44  47
ENDBRANCH  41  44
ENDBRANCH  40  41
ENDBRANCH   4  40
TORSDOF 15
