MODEL        9USER    Run = 9USERUSER    Estimated Free Energy of Binding    = -13.92 kcal/mol  [=(1)+(2)+(3)-(4)]USERUSER    (1) Final Intermolecular Energy     = -16.01 kcal/molUSER        vdW + Hbond + desolv Energy     = -15.60 kcal/molUSER        Electrostatic Energy            =  -0.41 kcal/molUSER        Moving Ligand-Fixed Receptor    = -16.01 kcal/molUSER        Moving Ligand-Moving Receptor   =  +0.00 kcal/molUSER    (2) Final Total Internal Energy     =  -1.98 kcal/molUSER    (3) Torsional Free Energy           =  +2.09 kcal/molUSER    (4) Unbound System's Energy         =  -1.98 kcal/molUSERUSERREMARK SMILES Oc1nc2ccccc2n1C1CCN(Cc2ccc(-c3nc4ccccc4nc3-c3ccc(N4CCOCC4)cc3)cc2)CC1REMARK SMILES IDX 15 1 14 2 11 3 12 4 45 5 13 6 44 7 10 8 2 9 3 10 4 11 9 12REMARK SMILES IDX 5 13 8 14 6 15 7 16 1 17 16 19 17 20 43 21 18 22 42 23 19 24REMARK SMILES IDX 20 25 21 26 29 27 22 28 28 29 23 30 27 31 24 32 26 33 25 34REMARK SMILES IDX 30 35 31 36 41 37 32 38 40 39 33 40 34 41 35 42 39 43 36 44REMARK SMILES IDX 38 45 37 46REMARK H PARENT 1 18USER                              x       y       z     vdW  Elec       q    TypeUSER                           _______ _______ _______ _____ _____    ______ ____ROOTATOM      1  C   UNL     1      30.505  41.811  16.657 -0.30 -0.04    +0.120 C  ENDROOTBRANCH   1   2ATOM      2  N   UNL     1      29.296  41.450  17.413 -0.08 +0.04    -0.299 NA ATOM      3  C   UNL     1      26.770  40.247  18.169 -0.24 +0.00    +0.095 C  ATOM      4  C   UNL     1      26.863  41.713  17.723 -0.23 -0.00    +0.041 C  ATOM      5  C   UNL     1      28.099  39.779  18.766 -0.25 +0.00    +0.041 C  ATOM      6  C   UNL     1      28.055  41.913  16.786 -0.22 -0.02    +0.087 C  ATOM      7  C   UNL     1      29.243  40.038  17.788 -0.30 +0.01    +0.087 C  BRANCH   3   8ATOM      8  N   UNL     1      25.648  39.962  19.052 -0.11 +0.05    -0.291 N  ATOM      9  C   UNL     1      24.775  38.914  18.965 -0.17 -0.14    +0.295 A  ATOM     10  N   UNL     1      23.858  38.927  19.894 -0.24 +0.14    -0.195 NA ATOM     11  C   UNL     1      24.114  40.067  20.613 -0.32 -0.03    +0.092 A  ATOM     12  C   UNL     1      25.226  40.744  20.109 -0.30 -0.02    +0.072 A  ATOM     13  C   UNL     1      23.424  40.594  21.714 -0.24 -0.01    +0.031 A  ATOM     14  C   UNL     1      25.680  41.950  20.659 -0.44 -0.01    +0.029 A  ATOM     15  C   UNL     1      23.863  41.797  22.276 -0.65 -0.00    +0.002 A  ATOM     16  C   UNL     1      24.974  42.462  21.753 -0.55 -0.00    +0.002 A  BRANCH   9  17ATOM     17  O   UNL     1      24.813  37.973  18.045 -0.52 +0.19    -0.480 OA ATOM     18  H   UNL     1      24.529  37.194  18.556 -0.38 -0.48    +0.296 HD ENDBRANCH   9  17ENDBRANCH   3   8ENDBRANCH   1   2BRANCH   1  19ATOM     19  C   UNL     1      31.753  42.108  17.463 -0.29 +0.01    -0.034 A  ATOM     20  C   UNL     1      31.920  43.363  18.062 -0.31 -0.00    +0.006 A  ATOM     21  C   UNL     1      32.765  41.151  17.616 -0.35 -0.00    +0.006 A  ATOM     22  C   UNL     1      33.076  43.657  18.790 -0.38 -0.00    +0.011 A  ATOM     23  C   UNL     1      33.929  41.454  18.328 -0.26 -0.00    +0.011 A  ATOM     24  C   UNL     1      34.100  42.708  18.935 -0.40 -0.00    +0.002 A  BRANCH  24  25ATOM     25  C   UNL     1      35.328  43.020  19.682 -0.36 -0.01    +0.097 A  ATOM     26  N   UNL     1      35.334  42.545  20.958 -0.28 -0.02    -0.244 NA ATOM     27  C   UNL     1      36.435  43.697  19.149 -0.29 -0.01    +0.097 A  ATOM     28  C   UNL     1      36.457  42.714  21.676 -0.37 +0.01    +0.089 A  ATOM     29  N   UNL     1      37.578  43.850  19.875 -0.19 +0.01    -0.244 NA ATOM     30  C   UNL     1      36.517  42.237  22.980 -0.41 +0.00    +0.030 A  ATOM     31  C   UNL     1      37.588  43.361  21.128 -0.30 +0.00    +0.089 A  ATOM     32  C   UNL     1      37.669  42.383  23.753 -0.36 +0.00    +0.002 A  ATOM     33  C   UNL     1      38.731  43.498  21.907 -0.25 +0.00    +0.030 A  ATOM     34  C   UNL     1      38.781  43.014  23.216 -0.29 +0.00    +0.002 A  BRANCH  27  35ATOM     35  C   UNL     1      36.481  44.324  17.816 -0.32 -0.00    +0.003 A  ATOM     36  C   UNL     1      36.239  43.593  16.645 -0.37 -0.00    +0.012 A  ATOM     37  C   UNL     1      36.723  45.696  17.677 -0.32 -0.00    +0.012 A  ATOM     38  C   UNL     1      36.260  44.208  15.382 -0.37 -0.01    +0.026 A  ATOM     39  C   UNL     1      36.744  46.304  16.414 -0.36 -0.02    +0.026 A  ATOM     40  C   UNL     1      36.521  45.575  15.235 -0.34 -0.02    +0.037 A  BRANCH  40  41ATOM     41  N   UNL     1      36.521  46.237  14.000 -0.16 +0.19    -0.367 N  ATOM     42  C   UNL     1      37.239  45.611  12.870 -0.43 -0.05    +0.145 C  ATOM     43  C   UNL     1      36.790  47.694  14.084 -0.47 -0.09    +0.145 C  ATOM     44  C   UNL     1      36.911  46.357  11.567 -0.53 -0.06    +0.181 C  ATOM     45  C   UNL     1      36.498  48.360  12.728 -0.39 -0.07    +0.181 C  ATOM     46  O   UNL     1      37.245  47.751  11.662 -0.91 +0.05    -0.378 OA ENDBRANCH  40  41ENDBRANCH  27  35ENDBRANCH  24  25ENDBRANCH   1  19TORSDOF 7TERENDMDL