REMARK SMILES CN1CCOc2cnnc(-c3ccnc(Nc4ccc(CN5CCOCC5)cc4)n3)c21
REMARK SMILES IDX 16 1 15 3 11 4 12 5 30 6 13 7 14 8 10 9 2 10 3 11 31 12 4 13
REMARK SMILES IDX 6 14 5 15 9 16 7 17 8 18 1 19 17 20 18 21 29 22 19 23 28 24
REMARK SMILES IDX 20 25 21 26 22 27 23 28 27 29 24 30 26 31 25 32
REMARK H PARENT 16 2
ROOT
ATOM      1  N   UNL     1      -0.252  -1.127   0.661  1.00  0.00    -0.324 N 
ATOM      2  H   UNL     1      -0.637  -1.341   1.569  1.00  0.00     0.170 HD
ENDROOT
BRANCH   1   3
ATOM      3  C   UNL     1      -1.304  -0.919  -0.226  1.00  0.00     0.227 A 
ATOM      4  C   UNL     1      -3.602  -0.779  -0.465  1.00  0.00     0.098 A 
ATOM      5  C   UNL     1      -3.474  -0.546  -1.819  1.00  0.00     0.051 A 
ATOM      6  N   UNL     1      -2.522  -0.966   0.333  1.00  0.00    -0.211 NA
ATOM      7  C   UNL     1      -2.192  -0.504  -2.300  1.00  0.00     0.117 A 
ATOM      8  N   UNL     1      -1.105  -0.681  -1.529  1.00  0.00    -0.221 NA
BRANCH   4   9
ATOM      9  C   UNL     1      -4.917  -0.842   0.195  1.00  0.00     0.139 A 
ATOM     10  N   UNL     1      -5.684   1.394  -0.603  1.00  0.00    -0.366 N 
ATOM     11  C   UNL     1      -6.963   2.033  -0.963  1.00  0.00     0.158 C 
ATOM     12  C   UNL     1      -5.905   0.158   0.085  1.00  0.00     0.111 A 
ATOM     13  C   UNL     1      -7.921   2.035   0.223  1.00  0.00     0.251 C 
ATOM     14  C   UNL     1      -7.149  -0.129   0.676  1.00  0.00     0.165 A 
ATOM     15  O   UNL     1      -8.240   0.706   0.645  1.00  0.00    -0.488 OA
ATOM     16  N   UNL     1      -5.144  -2.003   0.871  1.00  0.00    -0.146 NA
ATOM     17  C   UNL     1      -7.329  -1.333   1.331  1.00  0.00     0.184 A 
ATOM     18  N   UNL     1      -6.356  -2.252   1.444  1.00  0.00    -0.154 NA
ATOM     19  C   UNL     1      -4.743   2.263   0.122  1.00  0.00     0.144 C 
ENDBRANCH   4   9
ENDBRANCH   1   3
BRANCH   1  20
ATOM     20  C   UNL     1       1.137  -1.212   0.525  1.00  0.00     0.041 A 
ATOM     21  C   UNL     1       1.817  -1.037  -0.683  1.00  0.00     0.026 A 
ATOM     22  C   UNL     1       1.908  -1.457   1.673  1.00  0.00     0.026 A 
ATOM     23  C   UNL     1       3.214  -1.117  -0.752  1.00  0.00     0.007 A 
ATOM     24  C   UNL     1       3.303  -1.539   1.612  1.00  0.00     0.007 A 
ATOM     25  C   UNL     1       3.972  -1.368   0.396  1.00  0.00    -0.034 A 
BRANCH  25  26
ATOM     26  C   UNL     1       5.481  -1.463   0.324  1.00  0.00     0.120 C 
BRANCH  26  27
ATOM     27  N   UNL     1       6.169  -0.463   1.156  1.00  0.00    -0.295 NA
ATOM     28  C   UNL     1       5.886   0.916   0.693  1.00  0.00     0.113 C 
ATOM     29  C   UNL     1       7.626  -0.705   1.208  1.00  0.00     0.113 C 
ATOM     30  C   UNL     1       6.989   1.899   1.112  1.00  0.00     0.175 C 
ATOM     31  C   UNL     1       8.431   0.192   0.255  1.00  0.00     0.175 C 
ATOM     32  O   UNL     1       8.258   1.591   0.515  1.00  0.00    -0.379 OA
ENDBRANCH  26  27
ENDBRANCH  25  26
ENDBRANCH   1  20
TORSDOF 5
