MODEL        6USER    Run = 6USERUSER    Estimated Free Energy of Binding    = -10.75 kcal/mol  [=(1)+(2)+(3)-(4)]USERUSER    (1) Final Intermolecular Energy     = -12.24 kcal/molUSER        vdW + Hbond + desolv Energy     = -12.14 kcal/molUSER        Electrostatic Energy            =  -0.10 kcal/molUSER        Moving Ligand-Fixed Receptor    = -12.24 kcal/molUSER        Moving Ligand-Moving Receptor   =  +0.00 kcal/molUSER    (2) Final Total Internal Energy     =  -0.53 kcal/molUSER    (3) Torsional Free Energy           =  +1.49 kcal/molUSER    (4) Unbound System's Energy         =  -0.53 kcal/molUSERUSERREMARK SMILES CN1CCOc2cnnc(-c3ccnc(Nc4ccc(CN5CCOCC5)cc4)n3)c21REMARK SMILES IDX 16 1 15 3 11 4 12 5 30 6 13 7 14 8 10 9 2 10 3 11 31 12 4 13REMARK SMILES IDX 6 14 5 15 9 16 7 17 8 18 1 19 17 20 18 21 29 22 19 23 28 24REMARK SMILES IDX 20 25 21 26 22 27 23 28 27 29 24 30 26 31 25 32REMARK H PARENT 16 2USER                              x       y       z     vdW  Elec       q    TypeUSER                           _______ _______ _______ _____ _____    ______ ____ROOTATOM      1  N   UNL     1      41.235  46.592  17.794 -0.27 +0.02    -0.324 N  ATOM      2  H   UNL     1      42.186  46.318  17.598 -0.35 -0.03    +0.170 HD ENDROOTBRANCH   1   3ATOM      3  C   UNL     1      40.834  47.512  16.830 -0.31 -0.03    +0.227 A  ATOM      4  C   UNL     1      39.361  47.945  15.098 -0.45 -0.03    +0.098 A  ATOM      5  C   UNL     1      39.931  49.183  14.887 -0.29 -0.02    +0.051 A  ATOM      6  N   UNL     1      39.809  47.108  16.066 -0.31 +0.05    -0.211 NA ATOM      7  C   UNL     1      40.965  49.516  15.722 -0.55 -0.02    +0.117 A  ATOM      8  N   UNL     1      41.424  48.707  16.692 -0.91 +0.00    -0.221 NA BRANCH   4   9ATOM      9  C   UNL     1      38.236  47.454  14.284 -0.39 -0.05    +0.139 A  ATOM     10  N   UNL     1      36.974  46.474  16.200 -0.13 +0.22    -0.366 N  ATOM     11  C   UNL     1      35.563  46.247  16.563 -0.31 -0.14    +0.158 C  ATOM     12  C   UNL     1      37.099  46.810  14.814 -0.34 -0.06    +0.111 A  ATOM     13  C   UNL     1      34.879  45.344  15.542 -0.22 -0.18    +0.251 C  ATOM     14  C   UNL     1      36.064  46.527  13.904 -0.35 -0.10    +0.165 A  ATOM     15  O   UNL     1      34.870  45.934  14.239 -0.13 +0.38    -0.488 OA ATOM     16  N   UNL     1      38.340  47.748  12.958 -0.67 +0.01    -0.146 NA ATOM     17  C   UNL     1      36.217  46.866  12.573 -0.50 -0.09    +0.184 A  ATOM     18  N   UNL     1      37.327  47.452  12.095 -1.11 +0.03    -0.154 NA ATOM     19  C   UNL     1      37.892  45.389  16.585 -0.32 -0.04    +0.144 C  ENDBRANCH   4   9ENDBRANCH   1   3BRANCH   1  20ATOM     20  C   UNL     1      40.663  46.099  18.970 -0.43 -0.00    +0.041 A  ATOM     21  C   UNL     1      39.294  45.873  19.140 -0.37 -0.00    +0.026 A  ATOM     22  C   UNL     1      41.510  45.777  20.043 -0.38 +0.00    +0.026 A  ATOM     23  C   UNL     1      38.782  45.360  20.338 -0.30 +0.00    +0.007 A  ATOM     24  C   UNL     1      41.006  45.264  21.243 -0.31 +0.00    +0.007 A  ATOM     25  C   UNL     1      39.634  45.049  21.403 -0.30 -0.00    -0.034 A  BRANCH  25  26ATOM     26  C   UNL     1      39.083  44.501  22.702 -0.26 +0.01    +0.120 C  BRANCH  26  27ATOM     27  N   UNL     1      38.718  43.077  22.627 -0.13 -0.02    -0.295 NA ATOM     28  C   UNL     1      37.582  42.856  21.702 -0.36 +0.00    +0.113 C  ATOM     29  C   UNL     1      38.417  42.520  23.962 -0.22 +0.01    +0.113 C  ATOM     30  C   UNL     1      36.817  41.566  22.032 -0.50 +0.01    +0.175 C  ATOM     31  C   UNL     1      36.913  42.428  24.263 -0.35 +0.01    +0.175 C  ATOM     32  O   UNL     1      36.199  41.609  23.328 -0.33 -0.01    -0.379 OA ENDBRANCH  26  27ENDBRANCH  25  26ENDBRANCH   1  20TORSDOF 5TERENDMDL