MODEL        5USER    Run = 5USERUSER    Estimated Free Energy of Binding    =  -9.47 kcal/mol  [=(1)+(2)+(3)-(4)]USERUSER    (1) Final Intermolecular Energy     = -11.26 kcal/molUSER        vdW + Hbond + desolv Energy     = -11.15 kcal/molUSER        Electrostatic Energy            =  -0.11 kcal/molUSER        Moving Ligand-Fixed Receptor    = -11.26 kcal/molUSER        Moving Ligand-Moving Receptor   =  +0.00 kcal/molUSER    (2) Final Total Internal Energy     =  -1.25 kcal/molUSER    (3) Torsional Free Energy           =  +1.79 kcal/molUSER    (4) Unbound System's Energy         =  -1.25 kcal/molUSERUSERREMARK SMILES Cc1cccc(-c2nnc3sc(C(=O)NC4CCN(CCO)CC4)cn23)c1REMARK SMILES IDX 16 1 17 2 18 3 19 4 23 5 24 6 15 7 13 8 14 9 12 11 7 12 8 13REMARK SMILES IDX 26 14 9 15 25 16 10 17 11 18 6 19 2 20 3 21 27 22 4 23 5 24REMARK SMILES IDX 1 25 20 26 21 27 22 28REMARK H PARENT 15 10 22 29USER                              x       y       z     vdW  Elec       q    TypeUSER                           _______ _______ _______ _____ _____    ______ ____ROOTATOM      1  C   UNL     1      41.211  46.991  19.110 -0.31 +0.00    +0.084 C  ATOM      2  C   UNL     1      42.562  47.679  18.866 -0.56 +0.00    +0.040 C  ATOM      3  C   UNL     1      43.679  47.141  19.768 -0.16 +0.04    +0.086 C  ATOM      4  N   UNL     1      43.142  46.812  21.083 -0.22 -0.10    -0.301 NA ATOM      5  C   UNL     1      42.182  45.705  21.049 -0.31 +0.02    +0.086 C  ATOM      6  C   UNL     1      41.410  45.608  19.728 -0.45 +0.00    +0.040 C  ENDROOTBRANCH   1   7ATOM      7  N   UNL     1      40.438  46.909  17.874 -0.25 +0.04    -0.348 N  ATOM      8  C   UNL     1      40.487  47.886  16.911 -0.36 -0.05    +0.263 C  ATOM      9  O   UNL     1      41.240  48.854  16.950 -0.85 +0.01    -0.268 OA ATOM     10  H   UNL     1      39.708  46.209  17.807 +0.10 -0.02    +0.164 HD BRANCH   8  11ATOM     11  C   UNL     1      39.536  47.711  15.784 -0.43 -0.04    +0.112 A  ATOM     12  C   UNL     1      36.597  46.439  14.114 -0.32 -0.09    +0.169 A  ATOM     13  N   UNL     1      36.486  46.925  12.878 -0.54 +0.06    -0.128 NA ATOM     14  N   UNL     1      37.740  46.964  14.663 -0.21 +0.12    -0.272 N  ATOM     15  N   UNL     1      37.581  47.738  12.603 -1.06 +0.02    -0.118 NA ATOM     16  C   UNL     1      38.428  46.953  15.855 -0.34 -0.05    +0.120 A  ATOM     17  C   UNL     1      38.297  47.733  13.687 -0.30 -0.06    +0.217 A  ATOM     18  S   UNL     1      39.766  48.484  14.212 -0.53 +0.03    -0.089 S  BRANCH  12  19ATOM     19  C   UNL     1      35.645  45.551  14.776 -0.36 -0.01    +0.020 A  ATOM     20  C   UNL     1      33.326  45.050  15.369 -0.28 +0.04    -0.050 A  ATOM     21  C   UNL     1      33.752  43.884  16.012 -0.31 -0.00    +0.003 A  ATOM     22  C   UNL     1      34.278  45.867  14.739 -0.27 -0.01    +0.015 A  ATOM     23  C   UNL     1      35.104  43.547  16.037 -0.38 -0.00    +0.001 A  ATOM     24  C   UNL     1      36.046  44.374  15.420 -0.36 -0.01    +0.012 A  ATOM     25  C   UNL     1      31.866  45.387  15.300 -0.45 -0.03    +0.044 C  ENDBRANCH  12  19ENDBRANCH   8  11ENDBRANCH   1   7BRANCH   4  26ATOM     26  C   UNL     1      44.172  46.663  22.126 -0.27 +0.06    +0.112 C  BRANCH  26  27ATOM     27  C   UNL     1      44.358  47.821  23.123 -0.24 +0.05    +0.171 C  BRANCH  27  28ATOM     28  O   UNL     1      43.432  48.877  22.878 -0.72 -0.12    -0.395 OA ATOM     29  H   UNL     1      43.208  48.841  21.932 -0.42 +0.00    +0.210 HD ENDBRANCH  27  28ENDBRANCH  26  27ENDBRANCH   4  26TORSDOF 6TERENDMDL