MODEL        5USER    Run = 5USERUSER    Estimated Free Energy of Binding    = -12.25 kcal/mol  [=(1)+(2)+(3)-(4)]USERUSER    (1) Final Intermolecular Energy     = -14.04 kcal/molUSER        vdW + Hbond + desolv Energy     = -13.91 kcal/molUSER        Electrostatic Energy            =  -0.13 kcal/molUSER        Moving Ligand-Fixed Receptor    = -14.04 kcal/molUSER        Moving Ligand-Moving Receptor   =  +0.00 kcal/molUSER    (2) Final Total Internal Energy     =  -0.64 kcal/molUSER    (3) Torsional Free Energy           =  +1.79 kcal/molUSER    (4) Unbound System's Energy         =  -0.64 kcal/molUSERUSERREMARK SMILES Cn1ccc2ccc3c4[nH]c5c(CCCN[C@H]6CC[C@H](O)CC6)cccc5c4c4c(c3c21)C(=O)NC4=OREMARK SMILES IDX 15 1 14 2 13 3 12 4 2 5 3 6 32 7 4 8 31 9 5 10 30 11 8 12REMARK SMILES IDX 6 13 29 14 33 15 7 16 9 17 28 18 36 19 35 20 10 21 27 22REMARK SMILES IDX 11 23 26 24 25 25 24 26 1 27 34 28 37 29 16 32 17 34 23 35REMARK SMILES IDX 18 36 22 37 19 38 20 39 21 40REMARK H PARENT 35 30 10 31 16 33 21 41USER                              x       y       z     vdW  Elec       q    TypeUSER                           _______ _______ _______ _____ _____    ______ ____ROOTATOM      1  C   UNL     1      38.439  45.861  23.339 -0.31 +0.01    +0.081 C  ENDROOTBRANCH   1   2ATOM      2  C   UNL     1      38.460  44.652  22.400 -0.37 +0.00    +0.020 C  BRANCH   2   3ATOM      3  C   UNL     1      39.878  44.216  22.013 -0.29 +0.00    +0.039 C  BRANCH   3   4ATOM      4  C   UNL     1      40.551  45.125  21.013 -0.32 -0.00    -0.024 A  ATOM      5  N   UNL     1      36.003  46.603  13.778 -0.21 +0.22    -0.350 N  ATOM      6  C   UNL     1      34.673  46.410  13.486 -0.17 -0.07    +0.086 A  ATOM      7  C   UNL     1      36.242  46.384  15.130 -0.35 -0.04    +0.057 A  ATOM      8  C   UNL     1      34.080  45.854  14.587 -0.22 -0.03    +0.028 A  ATOM      9  C   UNL     1      37.382  46.588  15.996 -0.38 -0.01    +0.022 A  ATOM     10  C   UNL     1      35.071  45.759  15.597 -0.34 -0.00    +0.000 A  ATOM     11  C   UNL     1      38.521  47.377  15.774 -0.41 -0.03    +0.063 A  ATOM     12  C   UNL     1      37.332  45.903  17.250 -0.36 -0.00    +0.009 A  ATOM     13  C   UNL     1      35.041  45.194  16.883 -0.32 -0.01    +0.011 A  ATOM     14  C   UNL     1      39.618  47.381  16.644 -0.44 -0.02    +0.063 A  ATOM     15  C   UNL     1      38.805  48.435  14.788 -0.38 -0.12    +0.259 C  ATOM     16  C   UNL     1      36.183  45.222  17.678 -0.33 -0.00    +0.012 A  ATOM     17  C   UNL     1      38.472  45.923  18.113 -0.33 -0.01    +0.055 A  ATOM     18  C   UNL     1      39.643  46.637  17.825 -0.43 -0.00    +0.022 A  ATOM     19  C   UNL     1      40.607  48.320  16.119 -0.43 -0.05    +0.259 C  ATOM     20  N   UNL     1      40.100  48.803  14.958 -0.33 +0.10    -0.288 N  ATOM     21  N   UNL     1      38.688  45.310  19.328 -0.17 +0.03    -0.354 N  ATOM     22  C   UNL     1      40.570  46.408  18.898 -0.42 -0.00    +0.008 A  ATOM     23  C   UNL     1      39.943  45.571  19.822 -0.36 -0.00    +0.050 A  ATOM     24  C   UNL     1      41.886  46.829  19.177 -0.49 +0.00    +0.011 A  ATOM     25  C   UNL     1      42.520  46.408  20.350 -0.37 +0.00    +0.001 A  ATOM     26  C   UNL     1      41.863  45.573  21.248 -0.31 +0.00    +0.006 A  ATOM     27  C   UNL     1      36.975  46.742  12.714 -0.57 -0.05    +0.149 C  ATOM     28  O   UNL     1      38.018  48.974  14.037 -0.36 +0.15    -0.269 OA ATOM     29  O   UNL     1      41.651  48.665  16.632 -0.89 -0.02    -0.269 OA ATOM     30  H   UNL     1      40.498  49.608  14.498 +0.04 -0.07    +0.173 HD ATOM     31  H   UNL     1      38.019  44.718  19.795 +0.10 -0.01    +0.167 HD ENDBRANCH   3   4ENDBRANCH   2   3ENDBRANCH   1   2BRANCH   1  32ATOM     32  N   UNL     1      37.666  45.527  24.537 -0.50 -0.05    -0.314 NA ATOM     33  H   UNL     1      37.873  46.190  25.282 +0.05 +0.01    +0.122 HD BRANCH  32  34ATOM     34  C   UNL     1      37.906  44.155  25.005 -0.29 +0.00    +0.053 C  ATOM     35  C   UNL     1      38.305  44.086  26.494 -0.26 -0.00    +0.021 C  ATOM     36  C   UNL     1      36.625  43.348  24.711 -0.38 +0.00    +0.021 C  ATOM     37  C   UNL     1      37.104  43.844  27.407 -0.41 -0.01    +0.033 C  ATOM     38  C   UNL     1      36.531  42.119  25.605 -0.47 -0.00    +0.033 C  ATOM     39  C   UNL     1      36.416  42.513  27.080 -0.43 -0.03    +0.114 C  BRANCH  39  40ATOM     40  O   UNL     1      36.998  41.466  27.856 -0.28 +0.12    -0.393 OA ATOM     41  H   UNL     1      36.629  41.525  28.754 -0.43 -0.14    +0.210 HD ENDBRANCH  39  40ENDBRANCH  32  34ENDBRANCH   1  32TORSDOF 6TERENDMDL