MODEL        2USER    Run = 2USERUSER    Estimated Free Energy of Binding    =  -7.49 kcal/mol  [=(1)+(2)+(3)-(4)]USERUSER    (1) Final Intermolecular Energy     = -11.96 kcal/molUSER        vdW + Hbond + desolv Energy     = -12.39 kcal/molUSER        Electrostatic Energy            =  -0.17 kcal/molUSER        Moving Ligand-Fixed Receptor    = -12.56 kcal/molUSER        Moving Ligand-Moving Receptor   =  +0.60 kcal/molUSER    (2) Final Total Internal Energy     =  -2.06 kcal/molUSER    (3) Torsional Free Energy           =  +4.47 kcal/molUSER    (4) Unbound System's Energy         =  -2.06 kcal/molUSERUSERREMARK SMILES COc1ccc(O)c(C(=O)c2ccc(/C=C/[C@@H]3CCCNC[C@H]3NC(=O)c3ccncc3)cc2)c1FREMARK SMILES IDX 16 1 15 2 14 3 11 4 12 5 34 6 13 7 33 8 9 9 10 10 8 11 3 12REMARK SMILES IDX 4 13 35 14 5 15 6 16 36 17 2 18 1 19 7 20 17 22 18 23 23 25REMARK SMILES IDX 22 26 21 27 20 29 19 30 24 32 25 33 26 35 27 36 28 37 32 38REMARK SMILES IDX 29 39 31 40 30 41REMARK H PARENT 7 21 21 28 24 34REMARK Flexibility Score:   99.900USER                              x       y       z     vdW  Elec       q    TypeUSER                           _______ _______ _______ _____ _____    ______ ____ROOTATOM      1  C   UNL     1      36.195  44.009  19.133 -0.42 +0.00    -0.021 C  ENDROOTBRANCH   1   2ATOM      2  C   UNL     1      37.382  43.658  19.653 -0.36 -0.00    +0.004 C  BRANCH   2   3ATOM      3  C   UNL     1      37.604  43.445  21.089 -0.34 -0.00    -0.026 A  ATOM      4  C   UNL     1      38.005  42.959  23.825 -0.32 +0.00    +0.023 A  ATOM      5  C   UNL     1      36.957  42.326  23.150 -0.45 +0.00    +0.013 A  ATOM      6  C   UNL     1      38.876  43.802  23.129 -0.26 +0.00    +0.013 A  ATOM      7  C   UNL     1      36.764  42.567  21.785 -0.47 +0.00    +0.009 A  ATOM      8  C   UNL     1      38.670  44.049  21.770 -0.32 +0.00    +0.009 A  BRANCH   4   9ATOM      9  C   UNL     1      38.259  42.704  25.259 -0.21 +0.00    +0.199 C  ATOM     10  O   UNL     1      39.414  42.785  25.680 -0.13 +0.00    -0.288 OA BRANCH   9  11ATOM     11  C   UNL     1      37.194  42.305  26.206 -0.31 -0.01    +0.104 A  ATOM     12  C   UNL     1      35.074  42.722  27.337 -0.45 -0.04    +0.155 A  ATOM     13  C   UNL     1      35.199  41.507  28.011 -0.47 -0.02    +0.053 A  ATOM     14  C   UNL     1      36.079  43.112  26.439 -0.30 -0.02    +0.179 A  ATOM     15  C   UNL     1      36.325  40.705  27.807 -0.44 -0.02    +0.051 A  ATOM     16  C   UNL     1      37.319  41.109  26.922 -0.31 -0.03    +0.130 A  ATOM     17  F   UNL     1      35.967  44.301  25.825 -0.11 +0.02    -0.202 F  BRANCH  12  18ATOM     18  O   UNL     1      34.030  43.598  27.468 -0.19 +0.05    -0.494 OA ATOM     19  C   UNL     1      33.972  44.369  28.662 -0.43 -0.04    +0.278 C  ENDBRANCH  12  18BRANCH  16  20ATOM     20  O   UNL     1      38.402  40.278  26.804 -0.10 +0.01    -0.507 OA ATOM     21  H   UNL     1      39.181  40.832  26.565 +0.10 -0.01    +0.293 HD ENDBRANCH  16  20ENDBRANCH   9  11ENDBRANCH   4   9ENDBRANCH   2   3ENDBRANCH   1   2BRANCH   1  22ATOM     22  C   UNL     1      35.903  45.278  18.337 -0.36 -0.01    +0.035 C  BRANCH  22  23ATOM     23  C   UNL     1      34.380  45.506  18.406 -0.51 -0.01    +0.011 CG0ATOM     24  G   UNL     1      33.466  44.521  17.686 +0.00 +0.00    +0.000 G0 ENDBRANCH  22  23BRANCH  22  25ATOM     25  C   UNL     1      36.496  45.351  16.897 -0.33 -0.05    +0.103 C  BRANCH  25  26ATOM     26  C   UNL     1      35.423  45.812  15.869 -0.34 -0.08    +0.106 C  BRANCH  26  27ATOM     27  N   UNL     1      34.425  44.841  15.434 -0.12 +0.20    -0.315 NA ATOM     28  H   UNL     1      34.850  43.913  15.400 +0.07 -0.06    +0.122 HD BRANCH  27  29ATOM     29  C   UNL     1      33.203  44.812  16.222 -0.33 -0.05    +0.081 C  BRANCH  29  30ATOM     30  C   UNL     1      33.470  44.517  17.691 -0.38 -0.01    +0.016 CG0ATOM     31  G   UNL     1      34.378  45.511  18.406 +0.00 +0.00    +0.000 G0 ENDBRANCH  29  30ENDBRANCH  27  29ENDBRANCH  26  27ENDBRANCH  25  26BRANCH  25  32ATOM     32  N   UNL     1      37.631  46.283  16.834 -0.15 +0.15    -0.347 N  ATOM     33  C   UNL     1      38.432  46.379  15.717 -0.28 -0.09    +0.251 C  ATOM     34  H   UNL     1      37.699  46.991  17.553 +0.08 -0.08    +0.164 HD ATOM     35  O   UNL     1      38.270  45.706  14.707 -0.26 +0.08    -0.269 OA BRANCH  33  36ATOM     36  C   UNL     1      39.518  47.389  15.777 -0.47 -0.01    +0.042 A  ATOM     37  C   UNL     1      40.368  47.489  16.878 -0.50 -0.01    +0.034 A  ATOM     38  C   UNL     1      39.701  48.230  14.680 -0.50 -0.01    +0.034 A  ATOM     39  C   UNL     1      41.356  48.455  16.842 -0.37 -0.00    +0.112 A  ATOM     40  C   UNL     1      40.717  49.165  14.745 -0.51 -0.03    +0.112 A  ATOM     41  N   UNL     1      41.542  49.301  15.806 -0.89 -0.00    -0.265 NA ENDBRANCH  33  36ENDBRANCH  25  32ENDBRANCH  22  25ENDBRANCH   1  22TORSDOF 9TERENDMDL