MODEL        8USER    Run = 8USERUSER    Estimated Free Energy of Binding    = -12.29 kcal/mol  [=(1)+(2)+(3)-(4)]USERUSER    (1) Final Intermolecular Energy     = -14.08 kcal/molUSER        vdW + Hbond + desolv Energy     = -13.80 kcal/molUSER        Electrostatic Energy            =  -0.28 kcal/molUSER        Moving Ligand-Fixed Receptor    = -14.08 kcal/molUSER        Moving Ligand-Moving Receptor   =  +0.00 kcal/molUSER    (2) Final Total Internal Energy     =  -1.91 kcal/molUSER    (3) Torsional Free Energy           =  +1.79 kcal/molUSER    (4) Unbound System's Energy         =  -1.91 kcal/molUSERUSERREMARK SMILES Oc1nc2ccccc2n1C1CCN(Cc2ccc(-c3cc4ccccc4nc3-c3ccccc3)cc2)CC1REMARK SMILES IDX 11 1 12 2 13 3 14 4 38 5 39 6 10 7 2 8 3 9 4 10 9 11 5 12REMARK SMILES IDX 8 13 6 14 7 15 1 16 15 18 16 19 17 20 37 21 18 22 36 23REMARK SMILES IDX 19 24 20 25 21 26 29 27 22 28 28 29 23 30 27 31 24 32 26 33REMARK SMILES IDX 25 34 30 35 31 36 35 37 32 38 34 39 33 40REMARK H PARENT 1 17USER                              x       y       z     vdW  Elec       q    TypeUSER                           _______ _______ _______ _____ _____    ______ ____ROOTATOM      1  C   UNL     1      28.142  41.490  15.832 -0.29 -0.03    +0.095 C  ATOM      2  C   UNL     1      29.453  40.702  15.701 -0.45 -0.01    +0.041 C  ATOM      3  C   UNL     1      30.520  41.069  16.727 -0.35 -0.02    +0.087 C  ATOM      4  N   UNL     1      30.702  42.510  16.914 -0.11 +0.09    -0.299 NA ATOM      5  C   UNL     1      29.446  43.142  17.326 -0.22 -0.02    +0.087 C  ATOM      6  C   UNL     1      28.284  42.926  16.359 -0.26 -0.02    +0.041 C  ENDROOTBRANCH   1   7ATOM      7  N   UNL     1      27.046  40.732  16.433 -0.13 +0.00    -0.291 N  ATOM      8  C   UNL     1      26.247  39.868  15.723 -0.04 +0.07    +0.295 A  ATOM      9  N   UNL     1      25.310  39.312  16.437 -0.59 -0.02    -0.195 NA ATOM     10  C   UNL     1      25.495  39.827  17.692 -0.28 -0.00    +0.092 A  ATOM     11  C   UNL     1      26.581  40.715  17.732 -0.20 -0.00    +0.072 A  ATOM     12  C   UNL     1      24.755  39.568  18.857 -0.31 -0.01    +0.031 A  ATOM     13  C   UNL     1      26.953  41.345  18.926 -0.13 -0.00    +0.029 A  ATOM     14  C   UNL     1      25.120  40.200  20.048 -0.31 -0.00    +0.002 A  ATOM     15  C   UNL     1      26.204  41.073  20.078 -0.30 -0.00    +0.002 A  BRANCH   8  16ATOM     16  O   UNL     1      26.380  39.596  14.441 -0.68 -0.09    -0.480 OA ATOM     17  H   UNL     1      26.596  40.477  14.084 +0.11 -0.17    +0.296 HD ENDBRANCH   8  16ENDBRANCH   1   7BRANCH   4  18ATOM     18  C   UNL     1      31.336  43.147  15.747 -0.33 -0.06    +0.120 C  BRANCH  18  19ATOM     19  C   UNL     1      32.734  43.652  16.029 -0.31 +0.02    -0.034 A  ATOM     20  C   UNL     1      33.798  42.760  16.215 -0.28 -0.00    +0.006 A  ATOM     21  C   UNL     1      32.986  45.028  16.107 -0.33 -0.00    +0.006 A  ATOM     22  C   UNL     1      35.086  43.237  16.477 -0.41 -0.00    +0.009 A  ATOM     23  C   UNL     1      34.272  45.502  16.378 -0.31 -0.01    +0.009 A  ATOM     24  C   UNL     1      35.339  44.614  16.572 -0.31 +0.01    -0.016 A  BRANCH  24  25ATOM     25  C   UNL     1      36.694  45.114  16.847 -0.34 -0.00    +0.009 A  ATOM     26  C   UNL     1      37.262  44.891  18.110 -0.34 -0.00    +0.021 A  ATOM     27  C   UNL     1      37.489  45.783  15.902 -0.31 -0.03    +0.079 A  ATOM     28  C   UNL     1      38.567  45.310  18.397 -0.40 -0.00    +0.001 A  ATOM     29  N   UNL     1      38.766  46.185  16.164 -0.22 +0.07    -0.247 NA ATOM     30  C   UNL     1      39.156  45.094  19.655 -0.38 -0.00    +0.010 A  ATOM     31  C   UNL     1      39.288  45.957  17.379 -0.38 -0.01    +0.071 A  ATOM     32  C   UNL     1      40.459  45.518  19.907 -0.41 +0.00    +0.001 A  ATOM     33  C   UNL     1      40.586  46.370  17.653 -0.48 -0.00    +0.029 A  ATOM     34  C   UNL     1      41.177  46.158  18.902 -0.48 +0.00    +0.002 A  BRANCH  27  35ATOM     35  C   UNL     1      37.038  46.124  14.539 -0.41 -0.00    +0.001 A  ATOM     36  C   UNL     1      36.963  45.133  13.545 -0.46 -0.00    +0.010 A  ATOM     37  C   UNL     1      36.692  47.439  14.183 -0.49 -0.01    +0.010 A  ATOM     38  C   UNL     1      36.535  45.440  12.250 -0.58 -0.00    +0.001 A  ATOM     39  C   UNL     1      36.264  47.748  12.888 -0.64 -0.00    +0.001 A  ATOM     40  C   UNL     1      36.182  46.747  11.923 -0.68 -0.00    +0.000 A  ENDBRANCH  27  35ENDBRANCH  24  25ENDBRANCH  18  19ENDBRANCH   4  18TORSDOF 6TERENDMDL