MODEL        6USER    Run = 6USERUSER    Estimated Free Energy of Binding    =  -6.93 kcal/mol  [=(1)+(2)+(3)-(4)]USERUSER    (1) Final Intermolecular Energy     = -11.40 kcal/molUSER        vdW + Hbond + desolv Energy     = -11.88 kcal/molUSER        Electrostatic Energy            =  -0.15 kcal/molUSER        Moving Ligand-Fixed Receptor    = -12.03 kcal/molUSER        Moving Ligand-Moving Receptor   =  +0.63 kcal/molUSER    (2) Final Total Internal Energy     =  -2.93 kcal/molUSER    (3) Torsional Free Energy           =  +4.47 kcal/molUSER    (4) Unbound System's Energy         =  -2.93 kcal/molUSERUSERREMARK SMILES COc1ccc(O)c(C(=O)c2ccc(CO[C@@H]3CCCNC[C@@H]3NC(=O)c3ccncc3)cc2)c1FREMARK SMILES IDX 16 1 15 2 14 3 11 4 12 5 34 6 13 7 33 8 9 9 10 10 8 11 3 12REMARK SMILES IDX 4 13 35 14 5 15 6 16 36 17 2 18 1 19 7 20 17 22 18 23 23 25REMARK SMILES IDX 22 26 21 27 20 29 19 30 24 32 25 33 26 35 27 36 28 37 32 38REMARK SMILES IDX 29 39 31 40 30 41REMARK H PARENT 7 21 21 28 24 34REMARK Flexibility Score:   99.900USER                              x       y       z     vdW  Elec       q    TypeUSER                           _______ _______ _______ _____ _____    ______ ____ROOTATOM      1  O   UNL     1      36.840  43.006  25.663 -0.16 +0.02    -0.371 OA ENDROOTBRANCH   1   2ATOM      2  C   UNL     1      37.761  42.356  24.790 -0.24 +0.00    +0.196 C  BRANCH   2   3ATOM      3  C   UNL     1      37.256  42.501  23.378 -0.41 -0.00    -0.022 A  ATOM      4  C   UNL     1      36.330  42.744  20.736 -0.45 +0.00    +0.023 A  ATOM      5  C   UNL     1      36.172  41.538  21.424 -0.53 +0.00    +0.012 A  ATOM      6  C   UNL     1      36.921  43.838  21.379 -0.40 +0.00    +0.012 A  ATOM      7  C   UNL     1      36.639  41.418  22.735 -0.52 +0.00    +0.007 A  ATOM      8  C   UNL     1      37.386  43.715  22.690 -0.37 +0.00    +0.007 A  BRANCH   4   9ATOM      9  C   UNL     1      35.821  42.930  19.356 -0.32 -0.02    +0.199 C  ATOM     10  O   UNL     1      35.173  42.021  18.830 -0.33 +0.04    -0.288 OA BRANCH   9  11ATOM     11  C   UNL     1      36.101  44.132  18.543 -0.27 -0.02    +0.104 A  ATOM     12  C   UNL     1      37.649  45.727  17.542 -0.27 -0.05    +0.155 A  ATOM     13  C   UNL     1      36.573  46.413  16.975 -0.26 -0.03    +0.053 A  ATOM     14  C   UNL     1      37.400  44.594  18.330 -0.23 -0.03    +0.179 A  ATOM     15  C   UNL     1      35.266  45.979  17.209 -0.33 -0.04    +0.051 A  ATOM     16  C   UNL     1      35.033  44.856  17.999 -0.25 -0.05    +0.130 A  ATOM     17  F   UNL     1      38.441  43.964  18.899 -0.07 +0.02    -0.202 F  BRANCH  12  18ATOM     18  O   UNL     1      38.968  46.066  17.398 -0.13 +0.11    -0.494 OA ATOM     19  C   UNL     1      39.294  47.003  16.380 -0.32 -0.08    +0.278 C  ENDBRANCH  12  18BRANCH  16  20ATOM     20  O   UNL     1      33.722  44.517  18.204 -0.03 +0.18    -0.507 OA ATOM     21  H   UNL     1      33.685  43.549  18.382 +0.22 -0.07    +0.293 HD ENDBRANCH  16  20ENDBRANCH   9  11ENDBRANCH   4   9ENDBRANCH   2   3ENDBRANCH   1   2BRANCH   1  22ATOM     22  C   UNL     1      37.279  43.041  27.038 -0.31 -0.02    +0.142 C  BRANCH  22  23ATOM     23  C   UNL     1      37.117  41.597  27.534 -0.53 -0.01    +0.035 CG0ATOM     24  G   UNL     1      35.723  41.076  27.864 +0.00 +0.00    +0.000 G0 ENDBRANCH  22  23BRANCH  22  25ATOM     25  C   UNL     1      36.474  44.117  27.806 -0.41 -0.03    +0.125 C  BRANCH  25  26ATOM     26  C   UNL     1      35.028  43.634  28.083 -0.58 -0.03    +0.108 C  BRANCH  26  27ATOM     27  N   UNL     1      34.343  42.946  26.991 -0.25 +0.03    -0.315 NA ATOM     28  H   UNL     1      34.592  43.407  26.114 +0.07 +0.00    +0.122 HD BRANCH  27  29ATOM     29  C   UNL     1      34.610  41.517  26.914 -0.56 -0.03    +0.081 C  BRANCH  29  30ATOM     30  C   UNL     1      35.720  41.076  27.857 -0.67 -0.01    +0.018 CG0ATOM     31  G   UNL     1      37.117  41.598  27.539 +0.00 +0.00    +0.000 G0 ENDBRANCH  29  30ENDBRANCH  27  29ENDBRANCH  26  27ENDBRANCH  25  26BRANCH  25  32ATOM     32  N   UNL     1      36.556  45.422  27.134 -0.15 +0.08    -0.345 N  ATOM     33  C   UNL     1      37.772  45.985  26.808 -0.22 -0.02    +0.251 C  ATOM     34  H   UNL     1      35.796  45.612  26.492 -0.48 -0.09    +0.164 HD ATOM     35  O   UNL     1      38.851  45.511  27.138 -0.14 +0.01    -0.269 OA BRANCH  33  36ATOM     36  C   UNL     1      37.724  47.216  25.974 -0.32 +0.00    +0.042 A  ATOM     37  C   UNL     1      36.729  48.157  26.240 -0.40 -0.00    +0.034 A  ATOM     38  C   UNL     1      38.616  47.434  24.925 -0.32 +0.00    +0.034 A  ATOM     39  C   UNL     1      36.679  49.291  25.450 -0.41 -0.00    +0.112 A  ATOM     40  C   UNL     1      38.480  48.601  24.192 -0.31 +0.02    +0.112 A  ATOM     41  N   UNL     1      37.535  49.534  24.436 -0.21 -0.02    -0.265 NA ENDBRANCH  33  36ENDBRANCH  25  32ENDBRANCH  22  25ENDBRANCH   1  22TORSDOF 9TERENDMDL