MODEL        4USER    Run = 4USERUSER    Estimated Free Energy of Binding    =  -7.08 kcal/mol  [=(1)+(2)+(3)-(4)]USERUSER    (1) Final Intermolecular Energy     = -11.55 kcal/molUSER        vdW + Hbond + desolv Energy     = -12.50 kcal/molUSER        Electrostatic Energy            =  -0.33 kcal/molUSER        Moving Ligand-Fixed Receptor    = -12.83 kcal/molUSER        Moving Ligand-Moving Receptor   =  +1.28 kcal/molUSER    (2) Final Total Internal Energy     =  -2.41 kcal/molUSER    (3) Torsional Free Energy           =  +4.47 kcal/molUSER    (4) Unbound System's Energy         =  -2.41 kcal/molUSERUSERREMARK SMILES COc1ccc(O)c(C(=O)c2ccc(C(=O)O[C@@H]3CCCNC[C@H]3NC(=O)c3ccncc3)cc2)c1FREMARK SMILES IDX 17 1 15 2 16 3 14 4 11 5 12 6 35 7 13 8 34 9 9 10 10 11 8 12REMARK SMILES IDX 3 13 4 14 36 15 5 16 6 17 37 18 2 19 1 20 7 21 18 23 24 25REMARK SMILES IDX 23 26 22 27 21 29 20 30 19 31 25 33 26 34 27 36 28 37 29 38REMARK SMILES IDX 33 39 30 40 32 41 31 42REMARK H PARENT 7 22 22 28 25 35REMARK Flexibility Score:   99.900USER                              x       y       z     vdW  Elec       q    TypeUSER                           _______ _______ _______ _____ _____    ______ ____ROOTATOM      1  O   UNL     1      32.796  44.656  18.013 -0.09 +0.14    -0.457 OA ENDROOTBRANCH   1   2ATOM      2  C   UNL     1      33.622  44.434  19.066 -0.24 -0.08    +0.338 C  ATOM      3  O   UNL     1      33.304  44.022  20.173 -0.68 +0.01    -0.246 OA BRANCH   2   4ATOM      4  C   UNL     1      35.023  44.722  18.671 -0.33 -0.02    +0.060 A  ATOM      5  C   UNL     1      37.647  45.329  17.880 -0.35 -0.01    +0.023 A  ATOM      6  C   UNL     1      37.367  44.112  18.517 -0.28 -0.00    +0.013 A  ATOM      7  C   UNL     1      36.606  46.237  17.637 -0.17 -0.01    +0.013 A  ATOM      8  C   UNL     1      36.059  43.810  18.911 -0.35 -0.00    +0.016 A  ATOM      9  C   UNL     1      35.297  45.931  18.022 -0.36 -0.01    +0.016 A  BRANCH   5  10ATOM     10  C   UNL     1      39.024  45.711  17.465 -0.33 -0.04    +0.199 C  ATOM     11  O   UNL     1      40.005  45.138  17.927 -0.26 +0.02    -0.288 OA BRANCH  10  12ATOM     12  C   UNL     1      39.240  46.790  16.493 -0.37 -0.03    +0.104 A  ATOM     13  C   UNL     1      38.748  47.749  14.321 -0.38 -0.05    +0.155 A  ATOM     14  C   UNL     1      39.656  48.781  14.587 -0.41 -0.02    +0.053 A  ATOM     15  C   UNL     1      38.552  46.751  15.283 -0.30 -0.06    +0.179 A  ATOM     16  C   UNL     1      40.336  48.829  15.811 -0.55 -0.01    +0.051 A  ATOM     17  C   UNL     1      40.120  47.837  16.765 -0.39 -0.03    +0.130 A  ATOM     18  F   UNL     1      37.660  45.774  15.052 -0.07 +0.08    -0.202 F  BRANCH  13  19ATOM     19  O   UNL     1      37.991  47.630  13.185 -0.57 +0.11    -0.494 OA ATOM     20  C   UNL     1      36.589  47.829  13.310 -0.43 -0.14    +0.278 C  ENDBRANCH  13  19BRANCH  17  21ATOM     21  O   UNL     1      40.763  47.890  17.969 -0.17 +0.06    -0.507 OA ATOM     22  H   UNL     1      41.043  47.000  18.237 +0.19 -0.02    +0.293 HD ENDBRANCH  17  21ENDBRANCH  10  12ENDBRANCH   5  10ENDBRANCH   2   4ENDBRANCH   1   2BRANCH   1  23ATOM     23  C   UNL     1      32.996  43.821  16.842 -0.23 -0.08    +0.200 CG0ATOM     24  G   UNL     1      33.420  44.744  15.700 +0.00 +0.00    +0.000 G0 BRANCH  23  25ATOM     25  C   UNL     1      31.675  43.066  16.591 -0.28 -0.05    +0.137 C  BRANCH  25  26ATOM     26  C   UNL     1      31.249  42.992  15.111 -0.27 -0.07    +0.109 C  BRANCH  26  27ATOM     27  N   UNL     1      30.571  44.193  14.618 -0.14 +0.27    -0.315 NA ATOM     28  H   UNL     1      29.566  44.061  14.732 -0.19 -0.15    +0.122 HD BRANCH  27  29ATOM     29  C   UNL     1      30.951  45.455  15.261 -0.46 -0.04    +0.081 C  BRANCH  29  30ATOM     30  C   UNL     1      32.436  45.840  15.276 -0.25 -0.02    +0.019 C  BRANCH  30  31ATOM     31  C   UNL     1      33.424  44.745  15.698 -0.35 -0.03    +0.049 CG0ATOM     32  G   UNL     1      32.978  43.832  16.839 +0.00 +0.00    +0.000 G0 ENDBRANCH  30  31ENDBRANCH  29  30ENDBRANCH  27  29ENDBRANCH  26  27ENDBRANCH  25  26BRANCH  25  33ATOM     33  N   UNL     1      31.779  41.714  17.155 -0.10 +0.13    -0.344 N  ATOM     34  C   UNL     1      30.702  41.062  17.704 -0.20 -0.04    +0.251 C  ATOM     35  H   UNL     1      32.575  41.170  16.849 -0.37 -0.11    +0.164 HD ATOM     36  O   UNL     1      29.588  41.557  17.817 -0.12 +0.03    -0.269 OA BRANCH  34  37ATOM     37  C   UNL     1      30.950  39.675  18.162 -0.36 +0.00    +0.042 A  ATOM     38  C   UNL     1      29.909  38.976  18.770 -0.34 +0.01    +0.034 A  ATOM     39  C   UNL     1      32.205  39.082  18.032 -0.41 -0.00    +0.034 A  ATOM     40  C   UNL     1      30.163  37.688  19.203 -0.32 +0.04    +0.112 A  ATOM     41  C   UNL     1      32.357  37.792  18.504 -0.39 +0.01    +0.112 A  ATOM     42  N   UNL     1      31.362  37.080  19.079 -0.83 -0.11    -0.265 NA ENDBRANCH  34  37ENDBRANCH  25  33ENDBRANCH  23  25ENDBRANCH   1  23TORSDOF 9TERENDMDL