MODEL        7USER    Run = 7USERUSER    Estimated Free Energy of Binding    =  -7.01 kcal/mol  [=(1)+(2)+(3)-(4)]USERUSER    (1) Final Intermolecular Energy     = -11.19 kcal/molUSER        vdW + Hbond + desolv Energy     = -11.47 kcal/molUSER        Electrostatic Energy            =  -0.12 kcal/molUSER        Moving Ligand-Fixed Receptor    = -11.59 kcal/molUSER        Moving Ligand-Moving Receptor   =  +0.41 kcal/molUSER    (2) Final Total Internal Energy     =  -2.74 kcal/molUSER    (3) Torsional Free Energy           =  +4.18 kcal/molUSER    (4) Unbound System's Energy         =  -2.74 kcal/molUSERUSERREMARK SMILES COc1ccc(O)c(C(=O)c2ccc(C(=O)N[C@@H]3CCCNC[C@H]3NC(=O)c3ccncc3)cc2)c1FREMARK SMILES IDX 15 1 16 2 17 3 14 5 11 6 12 7 35 8 13 9 34 10 9 11 10 12REMARK SMILES IDX 8 13 3 14 4 15 36 16 5 17 6 18 37 19 2 20 1 21 7 22 18 24REMARK SMILES IDX 19 25 24 27 23 28 22 29 21 31 20 32 25 34 26 35 27 37 28 38REMARK SMILES IDX 29 39 33 40 30 41 32 42 31 43REMARK H PARENT 17 4 7 23 22 30 25 36REMARK Flexibility Score:   88.900USER                              x       y       z     vdW  Elec       q    TypeUSER                           _______ _______ _______ _____ _____    ______ ____ROOTATOM      1  C   UNL     1      38.690  43.330  22.728 -0.20 +0.01    +0.251 C  ATOM      2  O   UNL     1      38.476  42.123  22.711 -0.25 -0.03    -0.269 OA ATOM      3  N   UNL     1      38.493  44.118  23.844 -0.08 -0.02    -0.347 N  ATOM      4  H   UNL     1      38.491  45.121  23.721 +0.08 +0.01    +0.164 HD ENDROOTBRANCH   1   5ATOM      5  C   UNL     1      39.116  44.036  21.488 -0.27 +0.00    +0.039 A  ATOM      6  C   UNL     1      40.032  45.284  19.150 -0.42 -0.00    +0.023 A  ATOM      7  C   UNL     1      40.942  44.889  20.136 -0.37 +0.00    +0.013 A  ATOM      8  C   UNL     1      38.663  45.056  19.334 -0.38 -0.00    +0.013 A  ATOM      9  C   UNL     1      40.484  44.278  21.307 -0.30 +0.00    +0.014 A  ATOM     10  C   UNL     1      38.204  44.443  20.507 -0.36 -0.00    +0.014 A  BRANCH   6  11ATOM     11  C   UNL     1      40.571  45.854  17.896 -0.39 -0.01    +0.199 C  ATOM     12  O   UNL     1      41.702  45.512  17.544 -0.26 -0.00    -0.288 OA BRANCH  11  13ATOM     13  C   UNL     1      39.819  46.773  17.011 -0.40 -0.02    +0.104 A  ATOM     14  C   UNL     1      37.864  47.340  15.665 -0.32 -0.09    +0.155 A  ATOM     15  C   UNL     1      38.441  48.571  15.343 -0.48 -0.03    +0.053 A  ATOM     16  C   UNL     1      38.561  46.451  16.501 -0.28 -0.06    +0.179 A  ATOM     17  C   UNL     1      39.688  48.917  15.868 -0.46 -0.02    +0.051 A  ATOM     18  C   UNL     1      40.362  48.030  16.705 -0.41 -0.03    +0.130 A  ATOM     19  F   UNL     1      37.976  45.288  16.831 -0.07 +0.06    -0.202 F  BRANCH  14  20ATOM     20  O   UNL     1      36.644  46.898  15.225 -0.09 +0.37    -0.494 OA ATOM     21  C   UNL     1      36.214  47.347  13.944 -0.32 -0.19    +0.278 C  ENDBRANCH  14  20BRANCH  18  22ATOM     22  O   UNL     1      41.564  48.466  17.198 -0.61 -0.00    -0.507 OA ATOM     23  H   UNL     1      42.152  47.678  17.281 -0.30 -0.04    +0.293 HD ENDBRANCH  18  22ENDBRANCH  11  13ENDBRANCH   6  11ENDBRANCH   1   5BRANCH   3  24ATOM     24  C   UNL     1      37.813  43.585  25.032 -0.27 +0.00    +0.106 C  BRANCH  24  25ATOM     25  C   UNL     1      36.469  42.966  24.626 -0.32 +0.00    +0.028 CG0ATOM     26  G   UNL     1      35.841  42.006  25.650 +0.00 +0.00    +0.000 G0 ENDBRANCH  24  25BRANCH  24  27ATOM     27  C   UNL     1      37.699  44.682  26.128 -0.27 -0.01    +0.118 C  BRANCH  27  28ATOM     28  C   UNL     1      37.560  44.148  27.574 -0.33 -0.02    +0.108 C  BRANCH  28  29ATOM     29  N   UNL     1      37.046  42.784  27.736 -0.17 +0.08    -0.315 NA ATOM     30  H   UNL     1      37.745  42.111  27.428 +0.07 -0.02    +0.122 HD BRANCH  29  31ATOM     31  C   UNL     1      35.769  42.496  27.095 -0.53 -0.02    +0.081 C  BRANCH  31  32ATOM     32  C   UNL     1      35.843  42.010  25.650 -0.38 -0.00    +0.017 CG0ATOM     33  G   UNL     1      36.470  42.969  24.625 +0.00 +0.00    +0.000 G0 ENDBRANCH  31  32ENDBRANCH  29  31ENDBRANCH  28  29ENDBRANCH  27  28BRANCH  27  34ATOM     34  N   UNL     1      38.820  45.624  26.020 -0.06 -0.00    -0.346 N  ATOM     35  C   UNL     1      38.742  46.748  25.230 -0.19 +0.02    +0.251 C  ATOM     36  H   UNL     1      39.526  45.581  26.737 +0.05 +0.00    +0.164 HD ATOM     37  O   UNL     1      37.792  47.001  24.500 -0.60 -0.07    -0.269 OA BRANCH  35  38ATOM     38  C   UNL     1      39.880  47.695  25.319 -0.23 +0.00    +0.042 A  ATOM     39  C   UNL     1      40.615  47.957  24.162 -0.29 +0.00    +0.034 A  ATOM     40  C   UNL     1      40.247  48.301  26.522 -0.23 +0.00    +0.034 A  ATOM     41  C   UNL     1      41.676  48.836  24.252 -0.33 +0.02    +0.112 A  ATOM     42  C   UNL     1      41.326  49.165  26.507 -0.22 +0.01    +0.112 A  ATOM     43  N   UNL     1      42.045  49.450  25.397 -0.24 -0.04    -0.265 NA ENDBRANCH  35  38ENDBRANCH  27  34ENDBRANCH  24  27ENDBRANCH   3  24TORSDOF 8TERENDMDL