MODEL        6USER    Run = 6USERUSER    Estimated Free Energy of Binding    = -12.83 kcal/mol  [=(1)+(2)+(3)-(4)]USERUSER    (1) Final Intermolecular Energy     = -15.21 kcal/molUSER        vdW + Hbond + desolv Energy     = -15.09 kcal/molUSER        Electrostatic Energy            =  -0.13 kcal/molUSER        Moving Ligand-Fixed Receptor    = -15.21 kcal/molUSER        Moving Ligand-Moving Receptor   =  +0.00 kcal/molUSER    (2) Final Total Internal Energy     =  -2.57 kcal/molUSER    (3) Torsional Free Energy           =  +2.39 kcal/molUSER    (4) Unbound System's Energy         =  -2.57 kcal/molUSERUSERREMARK SMILES N#Cc1cnc(-c2ccc(CNCc3ccc(-c4csnn4)cc3)cc2)c(-c2ccccc2)c1REMARK SMILES IDX 11 1 10 2 7 3 8 4 26 5 9 6 25 7 6 8 3 9 4 10 34 11 5 12REMARK SMILES IDX 27 13 2 14 1 15 28 16 29 17 33 18 30 19 32 20 31 21 12 22REMARK SMILES IDX 13 24 14 25 15 26 24 27 16 28 23 29 17 30 18 31 19 32 22 33REMARK SMILES IDX 20 34 21 35REMARK H PARENT 12 23USER                              x       y       z     vdW  Elec       q    TypeUSER                           _______ _______ _______ _____ _____    ______ ____ROOTATOM      1  C   UNL     1      36.223  43.404  20.418 -0.41 -0.00    +0.117 C  ENDROOTBRANCH   1   2ATOM      2  C   UNL     1      35.386  43.918  19.270 -0.36 +0.01    -0.034 A  ATOM      3  C   UNL     1      33.786  44.898  17.139 -0.33 -0.00    +0.001 A  ATOM      4  C   UNL     1      34.145  43.541  17.217 -0.32 -0.00    +0.011 A  ATOM      5  C   UNL     1      34.261  45.756  18.143 -0.46 -0.01    +0.011 A  ATOM      6  C   UNL     1      34.928  43.054  18.270 -0.36 -0.00    +0.006 A  ATOM      7  C   UNL     1      35.042  45.273  19.199 -0.19 -0.00    +0.006 A  BRANCH   3   8ATOM      8  C   UNL     1      32.956  45.385  16.018 -0.24 -0.06    +0.078 A  ATOM      9  C   UNL     1      31.163  46.205  14.078 -0.52 -0.05    +0.071 A  ATOM     10  C   UNL     1      30.760  45.772  15.326 -0.37 -0.06    +0.131 A  ATOM     11  C   UNL     1      32.529  46.235  13.807 -0.11 -0.03    +0.032 A  ATOM     12  N   UNL     1      31.618  45.372  16.292 -0.68 +0.10    -0.254 NA ATOM     13  C   UNL     1      33.465  45.827  14.779 -0.14 -0.01    +0.009 A  BRANCH   9  14ATOM     14  C   UNL     1      30.202  46.617  13.106 -0.59 -0.06    +0.101 C  ATOM     15  N   UNL     1      29.422  46.952  12.316 -0.75 +0.10    -0.192 NA ENDBRANCH   9  14BRANCH  13  16ATOM     16  C   UNL     1      34.901  45.918  14.462 -0.34 +0.01    -0.016 A  ATOM     17  C   UNL     1      35.392  46.956  13.650 -0.43 -0.01    +0.009 A  ATOM     18  C   UNL     1      35.818  44.986  14.974 -0.35 -0.00    +0.009 A  ATOM     19  C   UNL     1      36.753  47.051  13.351 -0.57 -0.00    +0.001 A  ATOM     20  C   UNL     1      37.179  45.080  14.673 -0.38 -0.00    +0.001 A  ATOM     21  C   UNL     1      37.646  46.111  13.862 -0.45 -0.00    +0.000 A  ENDBRANCH  13  16ENDBRANCH   3   8ENDBRANCH   1   2BRANCH   1  22ATOM     22  N   UNL     1      37.276  44.363  20.753 -0.20 +0.00    -0.309 NA ATOM     23  H   UNL     1      37.363  44.397  21.768 +0.06 +0.01    +0.123 HD BRANCH  22  24ATOM     24  C   UNL     1      38.567  43.988  20.178 -0.22 -0.00    +0.117 C  BRANCH  24  25ATOM     25  C   UNL     1      39.109  45.008  19.203 -0.38 +0.00    -0.034 A  ATOM     26  C   UNL     1      40.439  45.441  19.284 -0.44 +0.00    +0.006 A  ATOM     27  C   UNL     1      38.285  45.555  18.213 -0.38 -0.00    +0.006 A  ATOM     28  C   UNL     1      40.935  46.393  18.386 -0.50 -0.00    +0.011 A  ATOM     29  C   UNL     1      38.779  46.507  17.317 -0.40 -0.00    +0.011 A  ATOM     30  C   UNL     1      40.113  46.934  17.387 -0.49 -0.00    +0.003 A  BRANCH  30  31ATOM     31  C   UNL     1      40.600  47.927  16.434 -0.47 -0.02    +0.105 A  ATOM     32  C   UNL     1      40.246  47.975  15.096 -0.45 -0.02    +0.118 A  ATOM     33  N   UNL     1      41.466  48.943  16.834 -1.01 -0.00    -0.138 NA ATOM     34  S   UNL     1      41.056  49.317  14.395 -0.84 +0.00    -0.020 S  ATOM     35  N   UNL     1      41.789  49.745  15.834 -1.04 -0.01    -0.091 NA ENDBRANCH  30  31ENDBRANCH  24  25ENDBRANCH  22  24ENDBRANCH   1  22TORSDOF 8TERENDMDL