MODEL        6USER    Run = 6USERUSER    Estimated Free Energy of Binding    =  -6.75 kcal/mol  [=(1)+(2)+(3)-(4)]USERUSER    (1) Final Intermolecular Energy     = -11.23 kcal/molUSER        vdW + Hbond + desolv Energy     = -11.00 kcal/molUSER        Electrostatic Energy            =  -0.30 kcal/molUSER        Moving Ligand-Fixed Receptor    = -11.30 kcal/molUSER        Moving Ligand-Moving Receptor   =  +0.07 kcal/molUSER    (2) Final Total Internal Energy     =  -2.74 kcal/molUSER    (3) Torsional Free Energy           =  +4.47 kcal/molUSER    (4) Unbound System's Energy         =  -2.74 kcal/molUSERUSERREMARK SMILES COc1ccc(O)c(C(=O)c2ccc(CN[C@@H]3CCCNC[C@H]3NC(=O)c3ccncc3)cc2)c1FREMARK SMILES IDX 16 1 15 3 14 4 11 5 12 6 34 7 13 8 33 9 9 10 10 11 8 12 3 13REMARK SMILES IDX 4 14 35 15 5 16 6 17 36 18 2 19 1 20 7 21 17 23 18 24 23 26REMARK SMILES IDX 22 27 21 28 20 30 19 31 24 33 25 34 26 36 27 37 28 38 32 39REMARK SMILES IDX 29 40 31 41 30 42REMARK H PARENT 16 2 7 22 21 29 24 35REMARK Flexibility Score:   99.900USER                              x       y       z     vdW  Elec       q    TypeUSER                           _______ _______ _______ _____ _____    ______ ____ROOTATOM      1  N   UNL     1      39.116  44.514  18.099 -0.17 +0.03    -0.308 NA ATOM      2  H   UNL     1      39.224  44.007  17.218 +0.11 -0.01    +0.123 HD ENDROOTBRANCH   1   3ATOM      3  C   UNL     1      39.765  45.821  17.971 -0.43 -0.01    +0.117 C  BRANCH   3   4ATOM      4  C   UNL     1      40.846  46.062  18.996 -0.44 -0.00    -0.034 A  ATOM      5  C   UNL     1      42.859  46.490  20.914 -0.34 +0.01    +0.023 A  ATOM      6  C   UNL     1      41.977  45.414  21.053 -0.30 +0.00    +0.012 A  ATOM      7  C   UNL     1      42.717  47.366  19.831 -0.43 +0.00    +0.012 A  ATOM      8  C   UNL     1      40.984  45.199  20.094 -0.39 +0.00    +0.006 A  ATOM      9  C   UNL     1      41.722  47.149  18.876 -0.47 +0.00    +0.006 A  BRANCH   5  10ATOM     10  C   UNL     1      43.902  46.784  21.925 -0.25 +0.09    +0.199 C  ATOM     11  O   UNL     1      45.019  46.277  21.797 -0.62 -0.36    -0.288 OA BRANCH  10  12ATOM     12  C   UNL     1      43.696  47.711  23.059 -0.26 +0.02    +0.104 A  ATOM     13  C   UNL     1      42.242  48.945  24.578 -0.30 +0.03    +0.155 A  ATOM     14  C   UNL     1      43.364  49.483  25.210 -0.25 +0.01    +0.053 A  ATOM     15  C   UNL     1      42.420  48.055  23.509 -0.25 +0.03    +0.179 A  ATOM     16  C   UNL     1      44.647  49.118  24.792 -0.24 +0.01    +0.051 A  ATOM     17  C   UNL     1      44.809  48.226  23.735 -0.18 +0.03    +0.130 A  ATOM     18  F   UNL     1      41.334  47.513  22.934 -0.06 -0.02    -0.202 F  BRANCH  13  19ATOM     19  O   UNL     1      40.941  49.210  24.914 -0.14 -0.10    -0.494 OA ATOM     20  C   UNL     1      40.366  48.435  25.958 -0.18 +0.03    +0.278 C  ENDBRANCH  13  19BRANCH  17  21ATOM     21  O   UNL     1      46.097  47.892  23.411 -0.06 -0.18    -0.507 OA ATOM     22  H   UNL     1      46.078  47.005  22.983 +0.08 +0.18    +0.293 HD ENDBRANCH  17  21ENDBRANCH  10  12ENDBRANCH   5  10ENDBRANCH   3   4ENDBRANCH   1   3BRANCH   1  23ATOM     23  C   UNL     1      37.664  44.595  18.416 -0.36 -0.01    +0.077 C  BRANCH  23  24ATOM     24  C   UNL     1      37.443  43.838  19.732 -0.38 -0.00    +0.022 CG0ATOM     25  G   UNL     1      36.293  44.352  20.596 +0.00 +0.00    +0.000 G0 ENDBRANCH  23  24BRANCH  23  26ATOM     26  C   UNL     1      36.828  44.028  17.225 -0.30 -0.03    +0.113 C  BRANCH  26  27ATOM     27  C   UNL     1      35.484  43.424  17.700 -0.32 -0.03    +0.107 C  BRANCH  27  28ATOM     28  N   UNL     1      34.679  44.169  18.662 -0.13 +0.08    -0.315 NA ATOM     29  H   UNL     1      33.689  43.998  18.471 +0.09 -0.03    +0.122 HD BRANCH  28  30ATOM     30  C   UNL     1      34.922  43.926  20.076 -0.35 -0.01    +0.081 C  BRANCH  30  31ATOM     31  C   UNL     1      36.292  44.353  20.596 -0.38 -0.00    +0.017 CG0ATOM     32  G   UNL     1      37.443  43.839  19.732 +0.00 +0.00    +0.000 G0 ENDBRANCH  30  31ENDBRANCH  28  30ENDBRANCH  27  28ENDBRANCH  26  27BRANCH  26  33ATOM     33  N   UNL     1      36.569  45.105  16.249 -0.10 +0.15    -0.346 N  ATOM     34  C   UNL     1      37.559  45.574  15.414 -0.25 -0.10    +0.251 C  ATOM     35  H   UNL     1      35.616  45.426  16.151 +0.12 -0.10    +0.164 HD ATOM     36  O   UNL     1      38.726  45.209  15.484 -0.14 +0.06    -0.269 OA BRANCH  34  37ATOM     37  C   UNL     1      37.161  46.595  14.410 -0.40 -0.02    +0.042 A  ATOM     38  C   UNL     1      37.567  47.913  14.618 -0.49 -0.02    +0.034 A  ATOM     39  C   UNL     1      36.431  46.269  13.266 -0.51 -0.02    +0.034 A  ATOM     40  C   UNL     1      37.199  48.863  13.685 -0.30 -0.06    +0.112 A  ATOM     41  C   UNL     1      36.115  47.294  12.391 -0.58 -0.06    +0.112 A  ATOM     42  N   UNL     1      36.473  48.581  12.581 -0.66 +0.10    -0.265 NA ENDBRANCH  34  37ENDBRANCH  26  33ENDBRANCH  23  26ENDBRANCH   1  23TORSDOF 9TERENDMDL