MODEL        10USER    Run = 10USERUSER    Estimated Free Energy of Binding    =  -7.26 kcal/mol  [=(1)+(2)+(3)-(4)]USERUSER    (1) Final Intermolecular Energy     = -11.74 kcal/molUSER        vdW + Hbond + desolv Energy     = -12.30 kcal/molUSER        Electrostatic Energy            =  -0.03 kcal/molUSER        Moving Ligand-Fixed Receptor    = -12.32 kcal/molUSER        Moving Ligand-Moving Receptor   =  +0.59 kcal/molUSER    (2) Final Total Internal Energy     =  -2.63 kcal/molUSER    (3) Torsional Free Energy           =  +4.47 kcal/molUSER    (4) Unbound System's Energy         =  -2.63 kcal/molUSERUSERREMARK SMILES COc1ccc(O)c(C(=O)c2ccc(NC[C@@H]3CCCNC[C@@H]3NC(=O)c3ccncc3)cc2)c1FREMARK SMILES IDX 16 1 15 2 14 4 11 5 12 6 34 7 13 8 33 9 9 10 10 11 8 12 3 13REMARK SMILES IDX 4 14 35 15 5 16 6 17 36 18 2 19 1 20 7 21 17 23 18 24 23 26REMARK SMILES IDX 22 27 21 28 20 30 19 31 24 33 25 34 26 36 27 37 28 38 32 39REMARK SMILES IDX 29 40 31 41 30 42REMARK H PARENT 15 3 7 22 21 29 24 35REMARK Flexibility Score:   99.900USER                              x       y       z     vdW  Elec       q    TypeUSER                           _______ _______ _______ _____ _____    ______ ____ROOTATOM      1  C   UNL     1      40.460  46.424  15.770 -0.39 -0.01    +0.118 C  ENDROOTBRANCH   1   2ATOM      2  N   UNL     1      40.811  46.855  17.126 -0.21 +0.05    -0.385 N  ATOM      3  H   UNL     1      41.779  47.145  17.217 -0.37 -0.03    +0.160 HD BRANCH   2   4ATOM      4  C   UNL     1      40.303  46.237  18.265 -0.46 -0.00    +0.034 A  ATOM      5  C   UNL     1      39.180  44.869  20.474 -0.35 +0.00    +0.023 A  ATOM      6  C   UNL     1      40.528  45.233  20.477 -0.36 +0.00    +0.014 A  ATOM      7  C   UNL     1      38.402  45.136  19.346 -0.36 -0.00    +0.014 A  ATOM      8  C   UNL     1      41.082  45.902  19.379 -0.43 +0.00    +0.026 A  ATOM      9  C   UNL     1      38.968  45.808  18.255 -0.40 -0.00    +0.026 A  BRANCH   5  10ATOM     10  C   UNL     1      38.643  44.132  21.643 -0.26 +0.01    +0.199 C  ATOM     11  O   UNL     1      37.517  43.636  21.574 -0.24 -0.01    -0.288 OA BRANCH  10  12ATOM     12  C   UNL     1      39.371  44.003  22.925 -0.19 +0.00    +0.104 A  ATOM     13  C   UNL     1      41.266  43.216  24.244 -0.13 -0.00    +0.155 A  ATOM     14  C   UNL     1      40.713  43.803  25.383 -0.11 +0.00    +0.053 A  ATOM     15  C   UNL     1      40.582  43.316  23.022 -0.17 +0.01    +0.179 A  ATOM     16  C   UNL     1      39.485  44.465  25.305 -0.12 +0.00    +0.051 A  ATOM     17  C   UNL     1      38.815  44.550  24.088 -0.17 +0.01    +0.130 A  ATOM     18  F   UNL     1      41.102  42.710  21.943 -0.09 -0.00    -0.202 F  BRANCH  13  19ATOM     19  O   UNL     1      42.450  42.528  24.201 -0.07 +0.04    -0.494 OA ATOM     20  C   UNL     1      43.501  43.087  23.423 -0.17 +0.01    +0.278 C  ENDBRANCH  13  19BRANCH  17  21ATOM     21  O   UNL     1      37.602  45.186  24.105 -0.29 -0.08    -0.507 OA ATOM     22  H   UNL     1      37.086  44.874  23.327 +0.16 +0.06    +0.293 HD ENDBRANCH  17  21ENDBRANCH  10  12ENDBRANCH   5  10ENDBRANCH   2   4ENDBRANCH   1   2BRANCH   1  23ATOM     23  C   UNL     1      38.967  46.683  15.447 -0.48 -0.01    +0.032 C  BRANCH  23  24ATOM     24  C   UNL     1      38.538  45.851  14.221 -0.45 -0.00    +0.009 CG0ATOM     25  G   UNL     1      37.134  46.054  13.651 +0.00 +0.00    +0.000 G0 ENDBRANCH  23  24BRANCH  23  26ATOM     26  C   UNL     1      38.694  48.202  15.346 -0.51 -0.05    +0.101 C  BRANCH  26  27ATOM     27  C   UNL     1      37.326  48.491  14.684 -0.52 -0.08    +0.106 C  BRANCH  27  28ATOM     28  N   UNL     1      37.331  48.484  13.215 -0.67 +0.09    -0.315 NA ATOM     29  H   UNL     1      36.643  49.173  12.904 +0.06 -0.04    +0.122 HD BRANCH  28  30ATOM     30  C   UNL     1      36.955  47.187  12.649 -0.65 -0.03    +0.081 C  BRANCH  30  31ATOM     31  C   UNL     1      37.131  46.056  13.655 -0.52 -0.01    +0.016 CG0ATOM     32  G   UNL     1      38.536  45.857  14.223 +0.00 +0.00    +0.000 G0 ENDBRANCH  30  31ENDBRANCH  28  30ENDBRANCH  27  28ENDBRANCH  26  27BRANCH  26  33ATOM     33  N   UNL     1      39.744  48.927  14.635 -0.22 +0.15    -0.348 N  ATOM     34  C   UNL     1      40.903  49.358  15.236 -0.50 -0.06    +0.251 C  ATOM     35  H   UNL     1      39.507  49.199  13.689 -0.12 -0.07    +0.164 HD ATOM     36  O   UNL     1      41.148  49.173  16.422 -0.90 +0.02    -0.269 OA BRANCH  34  37ATOM     37  C   UNL     1      41.867  50.098  14.380 -0.65 -0.01    +0.042 A  ATOM     38  C   UNL     1      42.607  51.127  14.964 -0.13 -0.00    +0.034 A  ATOM     39  C   UNL     1      42.075  49.781  13.037 -0.29 -0.01    +0.034 A  ATOM     40  C   UNL     1      43.509  51.814  14.173 +0.19 -0.03    +0.112 A  ATOM     41  C   UNL     1      43.002  50.528  12.332 -0.47 -0.05    +0.112 A  ATOM     42  N   UNL     1      43.718  51.539  12.867 -0.28 +0.12    -0.265 NA ENDBRANCH  34  37ENDBRANCH  26  33ENDBRANCH  23  26ENDBRANCH   1  23TORSDOF 9TERENDMDL