MODEL        8USER    Run = 8USERUSER    Estimated Free Energy of Binding    = -13.51 kcal/mol  [=(1)+(2)+(3)-(4)]USERUSER    (1) Final Intermolecular Energy     = -15.30 kcal/molUSER        vdW + Hbond + desolv Energy     = -15.16 kcal/molUSER        Electrostatic Energy            =  -0.14 kcal/molUSER        Moving Ligand-Fixed Receptor    = -15.30 kcal/molUSER        Moving Ligand-Moving Receptor   =  +0.00 kcal/molUSER    (2) Final Total Internal Energy     =  -2.71 kcal/molUSER    (3) Torsional Free Energy           =  +1.79 kcal/molUSER    (4) Unbound System's Energy         =  -2.71 kcal/molUSERUSERREMARK SMILES Oc1nc2ccccc2n1C1CCN(Cc2ccc(-c3nc4ccccc4nc3-c3ccccc3)cc2)CC1REMARK SMILES IDX 11 1 12 2 13 3 14 4 38 5 39 6 10 7 2 8 3 9 4 10 9 11 5 12REMARK SMILES IDX 8 13 6 14 7 15 1 16 15 18 16 19 17 20 37 21 18 22 36 23REMARK SMILES IDX 19 24 20 25 21 26 29 27 22 28 28 29 23 30 27 31 24 32 26 33REMARK SMILES IDX 25 34 30 35 31 36 35 37 32 38 34 39 33 40REMARK H PARENT 1 17USER                              x       y       z     vdW  Elec       q    TypeUSER                           _______ _______ _______ _____ _____    ______ ____ROOTATOM      1  C   UNL     1      38.560  47.260  15.345 -0.45 -0.04    +0.095 C  ATOM      2  C   UNL     1      37.643  48.455  15.037 -0.57 -0.03    +0.041 C  ATOM      3  C   UNL     1      37.084  48.393  13.616 -0.55 -0.04    +0.087 C  ATOM      4  N   UNL     1      36.619  47.060  13.220 -0.35 +0.14    -0.299 NA ATOM      5  C   UNL     1      37.664  46.030  13.346 -0.43 -0.03    +0.087 C  ATOM      6  C   UNL     1      38.932  46.483  14.077 -0.38 -0.01    +0.041 C  ENDROOTBRANCH   1   7ATOM      7  N   UNL     1      39.717  47.634  16.143 -0.28 +0.08    -0.291 N  ATOM      8  C   UNL     1      40.524  48.720  15.945 -0.33 -0.07    +0.295 A  ATOM      9  N   UNL     1      41.487  48.816  16.819 -0.93 -0.01    -0.195 NA ATOM     10  C   UNL     1      41.300  47.738  17.650 -0.45 -0.01    +0.092 A  ATOM     11  C   UNL     1      40.196  46.977  17.259 -0.45 -0.01    +0.072 A  ATOM     12  C   UNL     1      42.042  47.348  18.776 -0.51 +0.00    +0.031 A  ATOM     13  C   UNL     1      39.790  45.829  17.953 -0.43 -0.00    +0.029 A  ATOM     14  C   UNL     1      41.651  46.203  19.481 -0.45 +0.00    +0.002 A  ATOM     15  C   UNL     1      40.544  45.459  19.074 -0.45 +0.00    +0.002 A  BRANCH   8  16ATOM     16  O   UNL     1      40.368  49.607  14.984 -0.22 +0.21    -0.480 OA ATOM     17  H   UNL     1      39.604  50.115  15.315 -0.19 -0.23    +0.296 HD ENDBRANCH   8  16ENDBRANCH   1   7BRANCH   4  18ATOM     18  C   UNL     1      35.366  46.643  13.872 -0.43 -0.09    +0.120 C  BRANCH  18  19ATOM     19  C   UNL     1      35.568  45.950  15.203 -0.34 +0.03    -0.034 A  ATOM     20  C   UNL     1      35.581  46.683  16.395 -0.23 -0.01    +0.006 A  ATOM     21  C   UNL     1      35.763  44.565  15.261 -0.33 -0.00    +0.006 A  ATOM     22  C   UNL     1      35.765  46.036  17.622 -0.34 -0.01    +0.011 A  ATOM     23  C   UNL     1      35.944  43.921  16.487 -0.36 -0.00    +0.011 A  ATOM     24  C   UNL     1      35.933  44.643  17.692 -0.32 -0.00    +0.002 A  BRANCH  24  25ATOM     25  C   UNL     1      36.106  43.979  18.995 -0.30 -0.02    +0.097 A  ATOM     26  N   UNL     1      37.263  44.317  19.635 -0.22 +0.02    -0.244 NA ATOM     27  C   UNL     1      35.205  43.061  19.559 -0.35 -0.01    +0.097 A  ATOM     28  C   UNL     1      37.523  43.712  20.807 -0.32 -0.00    +0.089 A  ATOM     29  N   UNL     1      35.482  42.443  20.743 -0.31 -0.01    -0.244 NA ATOM     30  C   UNL     1      38.695  44.016  21.489 -0.30 +0.00    +0.030 A  ATOM     31  C   UNL     1      36.630  42.769  21.362 -0.40 +0.00    +0.089 A  ATOM     32  C   UNL     1      39.006  43.408  22.707 -0.28 +0.00    +0.002 A  ATOM     33  C   UNL     1      36.948  42.169  22.574 -0.48 +0.00    +0.030 A  ATOM     34  C   UNL     1      38.127  42.481  23.251 -0.33 +0.00    +0.002 A  BRANCH  27  35ATOM     35  C   UNL     1      33.901  42.685  18.982 -0.40 -0.00    +0.002 A  ATOM     36  C   UNL     1      32.780  43.516  19.159 -0.41 -0.00    +0.010 A  ATOM     37  C   UNL     1      33.733  41.516  18.218 -0.35 -0.00    +0.010 A  ATOM     38  C   UNL     1      31.535  43.181  18.618 -0.29 -0.00    +0.001 A  ATOM     39  C   UNL     1      32.488  41.177  17.679 -0.36 -0.00    +0.001 A  ATOM     40  C   UNL     1      31.389  42.008  17.882 -0.30 -0.00    +0.000 A  ENDBRANCH  27  35ENDBRANCH  24  25ENDBRANCH  18  19ENDBRANCH   4  18TORSDOF 6TERENDMDL