MODEL        1USER    Run = 1USERUSER    Estimated Free Energy of Binding    = -11.53 kcal/mol  [=(1)+(2)+(3)-(4)]USERUSER    (1) Final Intermolecular Energy     = -13.32 kcal/molUSER        vdW + Hbond + desolv Energy     = -13.23 kcal/molUSER        Electrostatic Energy            =  -0.08 kcal/molUSER        Moving Ligand-Fixed Receptor    = -13.32 kcal/molUSER        Moving Ligand-Moving Receptor   =  +0.00 kcal/molUSER    (2) Final Total Internal Energy     =  -1.28 kcal/molUSER    (3) Torsional Free Energy           =  +1.79 kcal/molUSER    (4) Unbound System's Energy         =  -1.28 kcal/molUSERUSERREMARK SMILES Oc1nc2ccccc2n1C1CCN(Cc2ccc(-c3nc4ccccc4nc3-c3ccncc3)cc2)CC1REMARK SMILES IDX 11 1 12 2 13 3 14 4 38 5 39 6 10 7 2 8 3 9 4 10 9 11 5 12REMARK SMILES IDX 8 13 6 14 7 15 1 16 15 18 16 19 17 20 37 21 18 22 36 23REMARK SMILES IDX 19 24 20 25 21 26 29 27 22 28 28 29 23 30 27 31 24 32 26 33REMARK SMILES IDX 25 34 30 35 31 36 35 37 32 38 34 39 33 40REMARK H PARENT 1 17USER                              x       y       z     vdW  Elec       q    TypeUSER                           _______ _______ _______ _____ _____    ______ ____ROOTATOM      1  C   UNL     1      39.243  43.820  25.721 -0.16 -0.00    +0.095 C  ATOM      2  C   UNL     1      39.701  45.253  25.412 -0.15 +0.00    +0.041 C  ATOM      3  C   UNL     1      40.717  45.299  24.273 -0.12 +0.00    +0.087 C  ATOM      4  N   UNL     1      40.153  44.658  23.094 -0.06 -0.01    -0.299 NA ATOM      5  C   UNL     1      39.767  43.259  23.268 -0.25 +0.00    +0.087 C  ATOM      6  C   UNL     1      39.763  42.780  24.719 -0.19 +0.00    +0.041 C  ENDROOTBRANCH   1   7ATOM      7  N   UNL     1      37.814  43.680  25.982 -0.09 +0.01    -0.291 N  ATOM      8  C   UNL     1      36.880  44.631  25.663 -0.16 -0.01    +0.295 A  ATOM      9  N   UNL     1      35.668  44.315  26.024 -0.07 +0.03    -0.195 NA ATOM     10  C   UNL     1      35.804  43.087  26.619 -0.40 -0.01    +0.092 A  ATOM     11  C   UNL     1      37.135  42.657  26.610 -0.32 -0.01    +0.072 A  ATOM     12  C   UNL     1      34.815  42.277  27.197 -0.54 -0.01    +0.031 A  ATOM     13  C   UNL     1      37.513  41.425  27.161 -0.45 -0.01    +0.029 A  ATOM     14  C   UNL     1      35.182  41.049  27.754 -0.60 -0.00    +0.002 A  ATOM     15  C   UNL     1      36.512  40.632  27.733 -0.43 -0.00    +0.002 A  BRANCH   8  16ATOM     16  O   UNL     1      37.144  45.774  25.063 -0.66 -0.07    -0.480 OA ATOM     17  H   UNL     1      36.365  46.303  25.314 -0.20 +0.03    +0.296 HD ENDBRANCH   8  16ENDBRANCH   1   7BRANCH   4  18ATOM     18  C   UNL     1      40.837  44.954  21.832 -0.25 +0.01    +0.120 C  BRANCH  18  19ATOM     19  C   UNL     1      39.954  45.121  20.611 -0.34 -0.00    -0.034 A  ATOM     20  C   UNL     1      40.499  45.507  19.380 -0.43 +0.00    +0.006 A  ATOM     21  C   UNL     1      38.574  44.896  20.687 -0.34 +0.00    +0.006 A  ATOM     22  C   UNL     1      39.684  45.658  18.253 -0.44 -0.00    +0.011 A  ATOM     23  C   UNL     1      37.762  45.043  19.556 -0.18 -0.00    +0.011 A  ATOM     24  C   UNL     1      38.299  45.442  18.322 -0.39 -0.00    +0.002 A  BRANCH  24  25ATOM     25  C   UNL     1      37.457  45.614  17.124 -0.30 -0.03    +0.097 A  ATOM     26  N   UNL     1      38.056  46.327  16.129 -0.21 +0.10    -0.244 NA ATOM     27  C   UNL     1      36.162  45.094  16.962 -0.27 -0.04    +0.097 A  ATOM     28  C   UNL     1      37.379  46.485  14.979 -0.33 -0.04    +0.089 A  ATOM     29  N   UNL     1      35.487  45.245  15.787 -0.18 +0.15    -0.244 NA ATOM     30  C   UNL     1      37.957  47.197  13.935 -0.47 -0.01    +0.030 A  ATOM     31  C   UNL     1      36.090  45.937  14.805 -0.33 -0.06    +0.089 A  ATOM     32  C   UNL     1      37.290  47.381  12.723 -0.60 -0.00    +0.002 A  ATOM     33  C   UNL     1      35.433  46.124  13.593 -0.40 -0.02    +0.030 A  ATOM     34  C   UNL     1      36.022  46.840  12.551 -0.65 -0.00    +0.002 A  BRANCH  27  35ATOM     35  C   UNL     1      35.395  44.376  17.995 -0.31 -0.00    +0.005 A  ATOM     36  C   UNL     1      35.669  43.031  18.273 -0.31 -0.01    +0.030 A  ATOM     37  C   UNL     1      34.356  44.986  18.710 -0.40 -0.01    +0.030 A  ATOM     38  C   UNL     1      34.934  42.378  19.248 -0.33 -0.01    +0.111 A  ATOM     39  C   UNL     1      33.678  44.251  19.670 -0.28 -0.02    +0.111 A  ATOM     40  N   UNL     1      33.949  42.963  19.961 -0.64 -0.02    -0.265 NA ENDBRANCH  27  35ENDBRANCH  24  25ENDBRANCH  18  19ENDBRANCH   4  18TORSDOF 6TERENDMDL