REMARK SMILES COc1ccc(-c2nc3ccccc3nc2-c2ccc(CN3CCC(n4c(O)nc5ccccc54)CC3)cc2)cc1
REMARK SMILES IDX 17 1 18 2 19 3 20 4 38 5 39 6 16 7 7 8 8 9 9 10 15 11 10 12
REMARK SMILES IDX 14 13 11 14 13 15 12 16 6 17 3 18 4 19 41 20 5 21 40 22 2 23
REMARK SMILES IDX 1 24 21 25 22 26 23 27 37 28 24 29 36 30 25 31 26 32 27 33
REMARK SMILES IDX 35 34 29 35 34 36 30 37 33 38 31 39 32 40 28 41
REMARK H PARENT 28 42
ROOT
ATOM      1  C   UNL     1      -2.424   0.151   0.703  1.00  0.00     0.002 A 
ATOM      2  C   UNL     1      -1.532  -0.687   1.394  1.00  0.00     0.011 A 
ATOM      3  C   UNL     1      -0.442  -1.278   0.747  1.00  0.00     0.006 A 
ATOM      4  C   UNL     1      -0.206  -1.040  -0.613  1.00  0.00    -0.034 A 
ATOM      5  C   UNL     1      -1.074  -0.188  -1.306  1.00  0.00     0.006 A 
ATOM      6  C   UNL     1      -2.162   0.405  -0.654  1.00  0.00     0.011 A 
ENDROOT
BRANCH   1   7
ATOM      7  C   UNL     1      -3.578   0.748   1.401  1.00  0.00     0.097 A 
ATOM      8  C   UNL     1      -4.907   0.715   0.947  1.00  0.00     0.097 A 
ATOM      9  N   UNL     1      -5.898   1.360   1.629  1.00  0.00    -0.244 NA
ATOM     10  C   UNL     1      -5.563   1.992   2.767  1.00  0.00     0.089 A 
ATOM     11  N   UNL     1      -3.249   1.381   2.564  1.00  0.00    -0.244 NA
ATOM     12  C   UNL     1      -6.544   2.651   3.499  1.00  0.00     0.030 A 
ATOM     13  C   UNL     1      -4.234   1.996   3.241  1.00  0.00     0.089 A 
ATOM     14  C   UNL     1      -6.241   3.311   4.691  1.00  0.00     0.002 A 
ATOM     15  C   UNL     1      -3.942   2.655   4.429  1.00  0.00     0.030 A 
ATOM     16  C   UNL     1      -4.934   3.312   5.159  1.00  0.00     0.002 A 
BRANCH   8  17
ATOM     17  C   UNL     1      -5.386  -0.005  -0.248  1.00  0.00     0.003 A 
ATOM     18  C   UNL     1      -6.335  -1.346  -2.560  1.00  0.00     0.118 A 
ATOM     19  C   UNL     1      -6.680  -0.017  -2.329  1.00  0.00     0.047 A 
ATOM     20  C   UNL     1      -5.530  -2.008  -1.633  1.00  0.00     0.047 A 
ATOM     21  C   UNL     1      -6.212   0.642  -1.184  1.00  0.00     0.014 A 
ATOM     22  C   UNL     1      -5.069  -1.351  -0.487  1.00  0.00     0.014 A 
BRANCH  18  23
ATOM     23  O   UNL     1      -6.713  -2.101  -3.634  1.00  0.00    -0.497 OA
ATOM     24  C   UNL     1      -7.592  -1.492  -4.572  1.00  0.00     0.278 C 
ENDBRANCH  18  23
ENDBRANCH   8  17
ENDBRANCH   1   7
BRANCH   4  25
ATOM     25  C   UNL     1       0.953  -1.710  -1.321  1.00  0.00     0.120 C 
BRANCH  25  26
ATOM     26  N   UNL     1       2.264  -1.365  -0.748  1.00  0.00    -0.299 NA
ATOM     27  C   UNL     1       3.309  -2.259  -1.247  1.00  0.00     0.087 C 
ATOM     28  C   UNL     1       2.590   0.059  -0.928  1.00  0.00     0.087 C 
ATOM     29  C   UNL     1       4.591  -2.039  -0.446  1.00  0.00     0.041 C 
ATOM     30  C   UNL     1       4.069   0.340  -1.208  1.00  0.00     0.041 C 
ATOM     31  C   UNL     1       4.979  -0.552  -0.358  1.00  0.00     0.095 C 
BRANCH  31  32
ATOM     32  N   UNL     1       6.388  -0.323  -0.659  1.00  0.00    -0.291 N 
ATOM     33  C   UNL     1       7.027  -0.634  -1.828  1.00  0.00     0.295 A 
ATOM     34  C   UNL     1       7.328   0.249   0.171  1.00  0.00     0.072 A 
ATOM     35  N   UNL     1       8.295  -0.328  -1.823  1.00  0.00    -0.195 NA
ATOM     36  C   UNL     1       7.280   0.773   1.470  1.00  0.00     0.029 A 
ATOM     37  C   UNL     1       8.504   0.227  -0.584  1.00  0.00     0.092 A 
ATOM     38  C   UNL     1       8.473   1.282   2.000  1.00  0.00     0.002 A 
ATOM     39  C   UNL     1       9.689   0.739  -0.032  1.00  0.00     0.031 A 
ATOM     40  C   UNL     1       9.659   1.266   1.265  1.00  0.00     0.002 A 
BRANCH  33  41
ATOM     41  O   UNL     1       6.455  -1.202  -2.871  1.00  0.00    -0.480 OA
ATOM     42  H   UNL     1       7.213  -1.288  -3.478  1.00  0.00     0.296 HD
ENDBRANCH  33  41
ENDBRANCH  31  32
ENDBRANCH  25  26
ENDBRANCH   4  25
TORSDOF 7
