MODEL        8USER    Run = 8USERUSER    Estimated Free Energy of Binding    = -12.55 kcal/mol  [=(1)+(2)+(3)-(4)]USERUSER    (1) Final Intermolecular Energy     = -14.64 kcal/molUSER        vdW + Hbond + desolv Energy     = -14.41 kcal/molUSER        Electrostatic Energy            =  -0.23 kcal/molUSER        Moving Ligand-Fixed Receptor    = -14.64 kcal/molUSER        Moving Ligand-Moving Receptor   =  +0.00 kcal/molUSER    (2) Final Total Internal Energy     =  -1.87 kcal/molUSER    (3) Torsional Free Energy           =  +2.09 kcal/molUSER    (4) Unbound System's Energy         =  -1.87 kcal/molUSERUSERREMARK SMILES COc1ccc(-c2nc3ccccc3nc2-c2ccc(CN3CCC(n4c(O)nc5ccccc54)CC3)cc2)cc1REMARK SMILES IDX 17 1 18 2 19 3 20 4 38 5 39 6 16 7 7 8 8 9 9 10 15 11 10 12REMARK SMILES IDX 14 13 11 14 13 15 12 16 6 17 3 18 4 19 41 20 5 21 40 22 2 23REMARK SMILES IDX 1 24 21 25 22 26 23 27 37 28 24 29 36 30 25 31 26 32 27 33REMARK SMILES IDX 35 34 29 35 34 36 30 37 33 38 31 39 32 40 28 41REMARK H PARENT 28 42USER                              x       y       z     vdW  Elec       q    TypeUSER                           _______ _______ _______ _____ _____    ______ ____ROOTATOM      1  C   UNL     1      39.501  43.717  23.405 -0.23 +0.00    +0.002 A  ATOM      2  C   UNL     1      40.496  43.001  22.715 -0.28 +0.00    +0.011 A  ATOM      3  C   UNL     1      41.539  43.660  22.057 -0.32 +0.00    +0.006 A  ATOM      4  C   UNL     1      41.624  45.058  22.077 -0.23 -0.00    -0.034 A  ATOM      5  C   UNL     1      40.653  45.780  22.780 -0.22 +0.00    +0.006 A  ATOM      6  C   UNL     1      39.612  45.117  23.441 -0.21 +0.00    +0.011 A  ENDROOTBRANCH   1   7ATOM      7  C   UNL     1      38.399  43.002  24.075 -0.23 +0.01    +0.097 A  ATOM      8  C   UNL     1      37.159  42.693  23.492 -0.34 +0.01    +0.097 A  ATOM      9  N   UNL     1      36.172  42.090  24.218 -0.23 -0.01    -0.244 NA ATOM     10  C   UNL     1      36.444  41.770  25.495 -0.31 -0.01    +0.089 A  ATOM     11  N   UNL     1      38.671  42.662  25.368 -0.13 -0.00    -0.244 NA ATOM     12  C   UNL     1      35.472  41.144  26.267 -0.36 -0.01    +0.030 A  ATOM     13  C   UNL     1      37.702  42.050  26.071 -0.29 -0.01    +0.089 A  ATOM     14  C   UNL     1      35.717  40.786  27.593 -0.58 -0.00    +0.002 A  ATOM     15  C   UNL     1      37.937  41.688  27.392 -0.41 -0.00    +0.030 A  ATOM     16  C   UNL     1      36.955  41.058  28.158 -0.34 -0.00    +0.002 A  BRANCH   8  17ATOM     17  C   UNL     1      36.788  42.940  22.086 -0.42 +0.00    +0.003 A  ATOM     18  C   UNL     1      36.057  43.366  19.379 -0.30 -0.01    +0.118 A  ATOM     19  C   UNL     1      35.792  42.145  19.993 -0.41 -0.00    +0.047 A  ATOM     20  C   UNL     1      36.697  44.367  20.110 -0.34 -0.00    +0.047 A  ATOM     21  C   UNL     1      36.157  41.937  21.330 -0.52 +0.00    +0.014 A  ATOM     22  C   UNL     1      37.067  44.156  21.442 -0.38 +0.00    +0.014 A  BRANCH  18  23ATOM     23  O   UNL     1      35.749  43.704  18.092 -0.02 +0.13    -0.497 OA ATOM     24  C   UNL     1      35.217  45.006  17.877 -0.21 -0.12    +0.278 C  ENDBRANCH  18  23ENDBRANCH   8  17ENDBRANCH   1   7BRANCH   4  25ATOM     25  C   UNL     1      42.734  45.771  21.333 -0.25 +0.04    +0.120 C  BRANCH  25  26ATOM     26  N   UNL     1      42.412  46.037  19.922 -0.14 -0.08    -0.299 NA ATOM     27  C   UNL     1      40.969  45.971  19.688 -0.41 +0.00    +0.087 C  ATOM     28  C   UNL     1      43.016  47.291  19.442 -0.50 +0.02    +0.087 C  ATOM     29  C   UNL     1      40.696  45.996  18.186 -0.52 -0.00    +0.041 C  ATOM     30  C   UNL     1      42.144  48.079  18.460 -0.36 -0.00    +0.041 C  ATOM     31  C   UNL     1      41.428  47.149  17.476 -0.28 -0.01    +0.095 C  BRANCH  31  32ATOM     32  N   UNL     1      40.557  47.892  16.572 -0.32 +0.05    -0.291 N  ATOM     33  C   UNL     1      40.759  49.168  16.120 -0.31 -0.06    +0.295 A  ATOM     34  C   UNL     1      39.382  47.448  16.006 -0.44 -0.02    +0.072 A  ATOM     35  N   UNL     1      39.815  49.592  15.327 -0.23 +0.11    -0.195 NA ATOM     36  C   UNL     1      38.669  46.244  16.077 -0.38 -0.01    +0.029 A  ATOM     37  C   UNL     1      38.945  48.533  15.240 -0.45 -0.05    +0.092 A  ATOM     38  C   UNL     1      37.478  46.160  15.343 -0.38 -0.00    +0.002 A  ATOM     39  C   UNL     1      37.747  48.428  14.515 -0.52 -0.02    +0.031 A  ATOM     40  C   UNL     1      37.021  47.232  14.575 -0.46 -0.00    +0.002 A  BRANCH  33  41ATOM     41  O   UNL     1      41.785  49.929  16.446 -0.83 -0.06    -0.480 OA ATOM     42  H   UNL     1      41.347  50.790  16.575 -0.31 -0.09    +0.296 HD ENDBRANCH  33  41ENDBRANCH  31  32ENDBRANCH  25  26ENDBRANCH   4  25TORSDOF 7TERENDMDL