
     RDKit          3D

 66 70  0  0  0  0  0  0  0  0999 V2000
   -2.1011    6.7611    1.3240 C   0  0  0  0  0  0  0  0  0  0  0  0
   -2.1440    5.2455    1.1593 C   0  0  0  0  0  0  0  0  0  0  0  0
   -2.2006    4.7911   -0.3111 C   0  0  0  0  0  0  0  0  0  0  0  0
   -3.4806    5.1711   -0.9057 N   0  0  0  0  0  0  0  0  0  0  0  0
   -4.5047    4.2680   -0.9370 C   0  0  0  0  0  0  0  0  0  0  0  0
   -4.4160    2.9907   -0.7745 N   0  0  0  0  0  0  0  0  0  0  0  0
   -3.1078    2.4821   -0.5840 C   0  0  0  0  0  0  0  0  0  0  0  0
   -2.8548    1.1157   -0.5236 C   0  0  0  0  0  0  0  0  0  0  0  0
   -3.9666    0.2299   -0.6780 N   0  0  0  0  0  0  0  0  0  0  0  0
   -3.9079   -1.1459   -0.3423 C   0  0  0  0  0  0  0  0  0  0  0  0
   -3.1093   -2.0340   -1.0728 C   0  0  0  0  0  0  0  0  0  0  0  0
   -3.0201   -3.3837   -0.7051 C   0  0  0  0  0  0  0  0  0  0  0  0
   -3.7120   -3.8527    0.4180 C   0  0  0  0  0  0  0  0  0  0  0  0
   -3.6897   -5.1358    0.8955 O   0  0  0  0  0  0  0  0  0  0  0  0
   -3.1589   -6.1322    0.0236 C   0  0  0  0  0  0  0  0  0  0  0  0
   -4.4916   -2.9675    1.1658 C   0  0  0  0  0  0  0  0  0  0  0  0
   -4.5918   -1.6354    0.7813 C   0  0  0  0  0  0  0  0  0  0  0  0
   -5.3507   -0.8004    1.5118 F   0  0  0  0  0  0  0  0  0  0  0  0
   -1.6129    0.6194   -0.3349 N   0  0  0  0  0  0  0  0  0  0  0  0
   -0.5943    1.4745   -0.1686 C   0  0  0  0  0  0  0  0  0  0  0  0
    0.6467    0.9642    0.0670 N   0  0  0  0  0  0  0  0  0  0  0  0
    1.8342    1.7840    0.1300 C   0  0  0  0  0  0  0  0  0  0  0  0
    2.9232    0.7773    0.4934 C   0  0  0  0  0  0  0  0  0  0  0  0
    2.4689   -0.4924   -0.2367 C   0  0  0  0  0  0  0  0  0  0  0  0
    3.0684   -1.7882    0.3202 C   0  0  0  0  0  0  0  0  0  0  0  0
    4.5413   -1.7986    0.3252 N   0  0  0  0  0  0  0  0  0  0  0  0
    5.1110   -1.8704   -1.0398 C   0  0  0  0  0  0  0  0  0  0  0  0
    6.6462   -1.9697   -1.0084 C   0  0  0  0  0  0  0  0  0  0  0  0
    7.0814   -3.1015   -0.2429 O   0  0  0  0  0  0  0  0  0  0  0  0
    6.5809   -3.0042    1.0954 C   0  0  0  0  0  0  0  0  0  0  0  0
    5.0456   -2.9513    1.1066 C   0  0  0  0  0  0  0  0  0  0  0  0
    0.9360   -0.4501   -0.0929 C   0  0  0  0  0  0  0  0  0  0  0  0
   -0.7455    2.8066   -0.1849 N   0  0  0  0  0  0  0  0  0  0  0  0
   -1.9966    3.2889   -0.3858 C   0  0  0  0  0  0  0  0  0  0  0  0
   -1.1964    7.1693    0.8669 H   0  0  0  0  0  0  0  0  0  0  0  0
   -2.0882    7.0183    2.3872 H   0  0  0  0  0  0  0  0  0  0  0  0
   -2.9720    7.2484    0.8773 H   0  0  0  0  0  0  0  0  0  0  0  0
   -3.0052    4.8485    1.7174 H   0  0  0  0  0  0  0  0  0  0  0  0
   -1.2477    4.8313    1.6433 H   0  0  0  0  0  0  0  0  0  0  0  0
   -1.3972    5.2729   -0.8822 H   0  0  0  0  0  0  0  0  0  0  0  0
   -3.7258    6.1555   -0.8581 H   0  0  0  0  0  0  0  0  0  0  0  0
   -5.4871    4.7343   -1.1208 H   0  0  0  0  0  0  0  0  0  0  0  0
   -4.7505    0.6804   -0.2047 H   0  0  0  0  0  0  0  0  0  0  0  0
   -2.5474   -1.6692   -1.9313 H   0  0  0  0  0  0  0  0  0  0  0  0
   -2.3917   -4.0342   -1.3071 H   0  0  0  0  0  0  0  0  0  0  0  0
   -3.2876   -7.1035    0.5147 H   0  0  0  0  0  0  0  0  0  0  0  0
   -3.7097   -6.1633   -0.9246 H   0  0  0  0  0  0  0  0  0  0  0  0
   -2.0870   -5.9788   -0.1451 H   0  0  0  0  0  0  0  0  0  0  0  0
   -5.0233   -3.3180    2.0454 H   0  0  0  0  0  0  0  0  0  0  0  0
    2.0387    2.2352   -0.8475 H   0  0  0  0  0  0  0  0  0  0  0  0
    1.7648    2.5691    0.8858 H   0  0  0  0  0  0  0  0  0  0  0  0
    2.9387    0.6185    1.5796 H   0  0  0  0  0  0  0  0  0  0  0  0
    3.9171    1.1132    0.1872 H   0  0  0  0  0  0  0  0  0  0  0  0
    2.7128   -0.3934   -1.3050 H   0  0  0  0  0  0  0  0  0  0  0  0
    2.7112   -1.9127    1.3540 H   0  0  0  0  0  0  0  0  0  0  0  0
    2.6789   -2.6448   -0.2460 H   0  0  0  0  0  0  0  0  0  0  0  0
    4.7102   -2.7467   -1.5734 H   0  0  0  0  0  0  0  0  0  0  0  0
    4.8430   -0.9740   -1.6122 H   0  0  0  0  0  0  0  0  0  0  0  0
    7.0956   -1.0584   -0.5943 H   0  0  0  0  0  0  0  0  0  0  0  0
    7.0282   -2.0929   -2.0261 H   0  0  0  0  0  0  0  0  0  0  0  0
    7.0137   -2.1232    1.5845 H   0  0  0  0  0  0  0  0  0  0  0  0
    6.9229   -3.8902    1.6408 H   0  0  0  0  0  0  0  0  0  0  0  0
    4.7061   -2.8739    2.1459 H   0  0  0  0  0  0  0  0  0  0  0  0
    4.6557   -3.8894    0.6871 H   0  0  0  0  0  0  0  0  0  0  0  0
    0.5897   -1.0028    0.7890 H   0  0  0  0  0  0  0  0  0  0  0  0
    0.4630   -0.8814   -0.9866 H   0  0  0  0  0  0  0  0  0  0  0  0
  1  2  1  0
  2  3  1  0
  3  4  1  0
  4  5  1  0
  5  6  2  0
  6  7  1  0
  7  8  2  0
  8  9  1  0
  9 10  1  0
 10 11  2  0
 11 12  1  0
 12 13  2  0
 13 14  1  0
 14 15  1  0
 13 16  1  0
 16 17  2  0
 17 18  1  0
  8 19  1  0
 19 20  2  0
 20 21  1  0
 21 22  1  0
 22 23  1  0
 23 24  1  0
 24 25  1  0
 25 26  1  0
 26 27  1  0
 27 28  1  0
 28 29  1  0
 29 30  1  0
 30 31  1  0
 24 32  1  0
 20 33  1  0
 33 34  2  0
 34  3  1  0
 34  7  1  0
 17 10  1  0
 32 21  1  0
 31 26  1  0
  1 35  1  0
  1 36  1  0
  1 37  1  0
  2 38  1  0
  2 39  1  0
  3 40  1  0
  4 41  1  0
  5 42  1  0
  9 43  1  0
 11 44  1  0
 12 45  1  0
 15 46  1  0
 15 47  1  0
 15 48  1  0
 16 49  1  0
 22 50  1  0
 22 51  1  0
 23 52  1  0
 23 53  1  0
 24 54  1  0
 25 55  1  0
 25 56  1  0
 27 57  1  0
 27 58  1  0
 28 59  1  0
 28 60  1  0
 30 61  1  0
 30 62  1  0
 31 63  1  0
 31 64  1  0
 32 65  1  0
 32 66  1  0
M  END
$$$$
