
     RDKit          3D

 62 66  0  0  0  0  0  0  0  0999 V2000
    1.8989   -0.7375    1.9763 O   0  0  0  0  0  0  0  0  0  0  0  0
    2.4470   -0.8142    0.8836 C   0  0  0  0  0  0  0  0  0  0  0  0
    1.9295   -1.4046   -0.2554 N   0  0  0  0  0  0  0  0  0  0  0  0
    0.6373   -1.9667   -0.3797 C   0  0  0  0  0  0  0  0  0  0  0  0
    0.5968   -3.1788   -1.0942 C   0  0  0  0  0  0  0  0  0  0  0  0
   -0.5879   -3.8908   -1.2413 C   0  0  0  0  0  0  0  0  0  0  0  0
   -1.7494   -3.4021   -0.6624 C   0  0  0  0  0  0  0  0  0  0  0  0
   -1.7460   -2.1785    0.0263 C   0  0  0  0  0  0  0  0  0  0  0  0
   -3.0080   -1.7763    0.6208 C   0  0  0  0  0  0  0  0  0  0  0  0
   -3.2239   -1.5945    1.9704 C   0  0  0  0  0  0  0  0  0  0  0  0
   -4.5467   -1.2550    2.0817 N   0  0  0  0  0  0  0  0  0  0  0  0
   -5.2924   -0.9514    3.2187 C   0  0  0  0  0  0  0  0  0  0  0  0
   -6.5941   -0.6420    3.0833 C   0  0  0  0  0  0  0  0  0  0  0  0
   -7.1818   -0.6328    1.7519 C   0  0  0  0  0  0  0  0  0  0  0  0
   -6.4534   -0.9317    0.6572 C   0  0  0  0  0  0  0  0  0  0  0  0
   -5.0752   -1.2623    0.7934 C   0  0  0  0  0  0  0  0  0  0  0  0
   -4.1644   -1.5908   -0.0990 N   0  0  0  0  0  0  0  0  0  0  0  0
   -0.5597   -1.3979    0.1148 C   0  0  0  0  0  0  0  0  0  0  0  0
   -0.6537    0.0416    0.6091 C   0  0  0  0  0  0  0  0  0  0  0  0
   -0.0768    1.1349   -0.3227 C   0  0  0  0  0  0  0  0  0  0  0  0
   -0.5652    1.1212   -1.7139 N   0  0  0  0  0  0  0  0  0  0  0  0
   -2.0376    1.2475   -1.7934 C   0  0  0  0  0  0  0  0  0  0  0  0
   -2.4968    1.7812   -3.1591 C   0  0  0  0  0  0  0  0  0  0  0  0
   -2.0119    3.1044   -3.4361 O   0  0  0  0  0  0  0  0  0  0  0  0
   -0.7784    3.3986   -2.7707 C   0  0  0  0  0  0  0  0  0  0  0  0
    0.0918    2.1538   -2.5410 C   0  0  0  0  0  0  0  0  0  0  0  0
    3.8426   -0.3002    0.7454 C   0  0  0  0  0  0  0  0  0  0  0  0
    4.3503    0.1439   -0.4834 C   0  0  0  0  0  0  0  0  0  0  0  0
    5.6632    0.6152   -0.5670 C   0  0  0  0  0  0  0  0  0  0  0  0
    6.4598    0.6755    0.5772 C   0  0  0  0  0  0  0  0  0  0  0  0
    7.7453    1.1090    0.4199 O   0  0  0  0  0  0  0  0  0  0  0  0
    8.0267    2.2822    1.1751 C   0  0  0  0  0  0  0  0  0  0  0  0
    8.1117    2.0049    2.4946 F   0  0  0  0  0  0  0  0  0  0  0  0
    9.2204    2.7757    0.7732 F   0  0  0  0  0  0  0  0  0  0  0  0
    7.0891    3.2329    0.9712 F   0  0  0  0  0  0  0  0  0  0  0  0
    5.9645    0.2284    1.8016 C   0  0  0  0  0  0  0  0  0  0  0  0
    4.6533   -0.2471    1.8871 C   0  0  0  0  0  0  0  0  0  0  0  0
    2.6229   -1.7751   -0.8931 H   0  0  0  0  0  0  0  0  0  0  0  0
    1.5031   -3.6035   -1.5189 H   0  0  0  0  0  0  0  0  0  0  0  0
   -0.6017   -4.8320   -1.7829 H   0  0  0  0  0  0  0  0  0  0  0  0
   -2.6736   -3.9699   -0.7543 H   0  0  0  0  0  0  0  0  0  0  0  0
   -2.5698   -1.6696    2.8269 H   0  0  0  0  0  0  0  0  0  0  0  0
   -4.7834   -0.9839    4.1729 H   0  0  0  0  0  0  0  0  0  0  0  0
   -7.2190   -0.4021    3.9370 H   0  0  0  0  0  0  0  0  0  0  0  0
   -8.2340   -0.3795    1.6621 H   0  0  0  0  0  0  0  0  0  0  0  0
   -6.8877   -0.9293   -0.3349 H   0  0  0  0  0  0  0  0  0  0  0  0
   -0.2025    0.1183    1.6017 H   0  0  0  0  0  0  0  0  0  0  0  0
   -1.6973    0.3251    0.7777 H   0  0  0  0  0  0  0  0  0  0  0  0
    1.0131    1.0504   -0.3405 H   0  0  0  0  0  0  0  0  0  0  0  0
   -0.2898    2.1120    0.1332 H   0  0  0  0  0  0  0  0  0  0  0  0
   -2.4026    1.9362   -1.0207 H   0  0  0  0  0  0  0  0  0  0  0  0
   -2.4981    0.2704   -1.6256 H   0  0  0  0  0  0  0  0  0  0  0  0
   -2.1668    1.1194   -3.9686 H   0  0  0  0  0  0  0  0  0  0  0  0
   -3.5902    1.8215   -3.1978 H   0  0  0  0  0  0  0  0  0  0  0  0
   -1.0110    3.8923   -1.8203 H   0  0  0  0  0  0  0  0  0  0  0  0
   -0.2405    4.1241   -3.3891 H   0  0  0  0  0  0  0  0  0  0  0  0
    0.2987    1.6948   -3.5158 H   0  0  0  0  0  0  0  0  0  0  0  0
    1.0637    2.4473   -2.1278 H   0  0  0  0  0  0  0  0  0  0  0  0
    3.7340    0.1500   -1.3792 H   0  0  0  0  0  0  0  0  0  0  0  0
    6.0573    0.9494   -1.5240 H   0  0  0  0  0  0  0  0  0  0  0  0
    6.5836    0.2263    2.6952 H   0  0  0  0  0  0  0  0  0  0  0  0
    4.2667   -0.5883    2.8464 H   0  0  0  0  0  0  0  0  0  0  0  0
  1  2  2  0
  2  3  1  0
  3  4  1  0
  4  5  2  0
  5  6  1  0
  6  7  2  0
  7  8  1  0
  8  9  1  0
  9 10  2  0
 10 11  1  0
 11 12  1  0
 12 13  2  0
 13 14  1  0
 14 15  2  0
 15 16  1  0
 16 17  2  0
  8 18  2  0
 18 19  1  0
 19 20  1  0
 20 21  1  0
 21 22  1  0
 22 23  1  0
 23 24  1  0
 24 25  1  0
 25 26  1  0
  2 27  1  0
 27 28  2  0
 28 29  1  0
 29 30  2  0
 30 31  1  0
 31 32  1  0
 32 33  1  0
 32 34  1  0
 32 35  1  0
 30 36  1  0
 36 37  2  0
 18  4  1  0
 26 21  1  0
 37 27  1  0
 17  9  1  0
 16 11  1  0
  3 38  1  0
  5 39  1  0
  6 40  1  0
  7 41  1  0
 10 42  1  0
 12 43  1  0
 13 44  1  0
 14 45  1  0
 15 46  1  0
 19 47  1  0
 19 48  1  0
 20 49  1  0
 20 50  1  0
 22 51  1  0
 22 52  1  0
 23 53  1  0
 23 54  1  0
 25 55  1  0
 25 56  1  0
 26 57  1  0
 26 58  1  0
 28 59  1  0
 29 60  1  0
 36 61  1  0
 37 62  1  0
M  END
$$$$
