
     RDKit          3D

 69 75  0  0  0  0  0  0  0  0999 V2000
   -3.5903   -3.7041   -3.5315 O   0  0  0  0  0  0  0  0  0  0  0  0
   -3.9438   -2.6385   -2.7572 C   0  0  0  0  0  0  0  0  0  0  0  0
   -5.1521   -2.6109   -2.0710 C   0  0  0  0  0  0  0  0  0  0  0  0
   -5.4732   -1.4936   -1.2921 C   0  0  0  0  0  0  0  0  0  0  0  0
   -4.5947   -0.3981   -1.1828 C   0  0  0  0  0  0  0  0  0  0  0  0
   -4.9624    0.7722   -0.3619 C   0  0  0  0  0  0  0  0  0  0  0  0
   -6.2081    1.2607   -0.6300 N   0  0  0  0  0  0  0  0  0  0  0  0
   -6.6004    2.3668    0.0249 C   0  0  0  0  0  0  0  0  0  0  0  0
   -7.8533    2.9007   -0.2325 C   0  0  0  0  0  0  0  0  0  0  0  0
   -8.2772    4.0496    0.4230 C   0  0  0  0  0  0  0  0  0  0  0  0
   -9.4898    4.5509    0.1584 F   0  0  0  0  0  0  0  0  0  0  0  0
   -7.4618    4.6847    1.3459 C   0  0  0  0  0  0  0  0  0  0  0  0
   -6.2017    4.1512    1.6127 C   0  0  0  0  0  0  0  0  0  0  0  0
   -5.7567    3.0021    0.9665 C   0  0  0  0  0  0  0  0  0  0  0  0
   -4.5369    2.5169    1.2481 N   0  0  0  0  0  0  0  0  0  0  0  0
   -4.1385    1.3859    0.5955 C   0  0  0  0  0  0  0  0  0  0  0  0
   -2.8101    0.8994    1.0066 C   0  0  0  0  0  0  0  0  0  0  0  0
   -1.6995    1.7609    0.9739 C   0  0  0  0  0  0  0  0  0  0  0  0
   -0.4255    1.3182    1.3431 C   0  0  0  0  0  0  0  0  0  0  0  0
   -0.2275   -0.0018    1.7635 C   0  0  0  0  0  0  0  0  0  0  0  0
    1.1487   -0.4833    2.1689 C   0  0  0  0  0  0  0  0  0  0  0  0
    1.6570   -1.6051    1.3609 N   0  0  0  0  0  0  0  0  0  0  0  0
    1.8103   -1.2934   -0.0653 C   0  0  0  0  0  0  0  0  0  0  0  0
    3.0169   -0.4081   -0.3749 C   0  0  0  0  0  0  0  0  0  0  0  0
    4.2877   -0.9021    0.3378 C   0  0  0  0  0  0  0  0  0  0  0  0
    5.4643   -0.8836   -0.5199 N   0  0  0  0  0  0  0  0  0  0  0  0
    5.6501   -1.6158   -1.6603 C   0  0  0  0  0  0  0  0  0  0  0  0
    4.7731   -2.4618   -2.1615 O   0  0  0  0  0  0  0  0  0  0  0  0
    6.8001   -1.3936   -2.2363 N   0  0  0  0  0  0  0  0  0  0  0  0
    7.4112   -0.4637   -1.4294 C   0  0  0  0  0  0  0  0  0  0  0  0
    8.6714    0.1404   -1.5681 C   0  0  0  0  0  0  0  0  0  0  0  0
    9.0873    1.0691   -0.6054 C   0  0  0  0  0  0  0  0  0  0  0  0
    8.2664    1.3902    0.4770 C   0  0  0  0  0  0  0  0  0  0  0  0
    7.0058    0.8004    0.6334 C   0  0  0  0  0  0  0  0  0  0  0  0
    6.6031   -0.1247   -0.3406 C   0  0  0  0  0  0  0  0  0  0  0  0
    4.0782   -2.2584    1.0209 C   0  0  0  0  0  0  0  0  0  0  0  0
    2.8718   -2.1821    1.9603 C   0  0  0  0  0  0  0  0  0  0  0  0
   -1.3312   -0.8631    1.8197 C   0  0  0  0  0  0  0  0  0  0  0  0
   -2.6045   -0.4172    1.4512 C   0  0  0  0  0  0  0  0  0  0  0  0
   -3.3882   -0.4527   -1.9055 C   0  0  0  0  0  0  0  0  0  0  0  0
   -3.0612   -1.5694   -2.6809 C   0  0  0  0  0  0  0  0  0  0  0  0
   -4.3031   -4.3627   -3.4985 H   0  0  0  0  0  0  0  0  0  0  0  0
   -5.8560   -3.4353   -2.1336 H   0  0  0  0  0  0  0  0  0  0  0  0
   -6.4262   -1.4721   -0.7642 H   0  0  0  0  0  0  0  0  0  0  0  0
   -8.5089    2.4241   -0.9543 H   0  0  0  0  0  0  0  0  0  0  0  0
   -7.8055    5.5837    1.8493 H   0  0  0  0  0  0  0  0  0  0  0  0
   -5.5511    4.6369    2.3366 H   0  0  0  0  0  0  0  0  0  0  0  0
   -1.8284    2.7939    0.6537 H   0  0  0  0  0  0  0  0  0  0  0  0
    0.4102    2.0136    1.2969 H   0  0  0  0  0  0  0  0  0  0  0  0
    1.0648   -0.7972    3.2189 H   0  0  0  0  0  0  0  0  0  0  0  0
    1.8606    0.3521    2.1587 H   0  0  0  0  0  0  0  0  0  0  0  0
    0.9036   -0.8369   -0.4793 H   0  0  0  0  0  0  0  0  0  0  0  0
    1.9080   -2.2396   -0.6147 H   0  0  0  0  0  0  0  0  0  0  0  0
    3.1461   -0.3592   -1.4629 H   0  0  0  0  0  0  0  0  0  0  0  0
    2.8115    0.6224   -0.0582 H   0  0  0  0  0  0  0  0  0  0  0  0
    4.4905   -0.1816    1.1415 H   0  0  0  0  0  0  0  0  0  0  0  0
    5.2506   -2.7827   -2.9503 H   0  0  0  0  0  0  0  0  0  0  0  0
    9.3055   -0.1144   -2.4101 H   0  0  0  0  0  0  0  0  0  0  0  0
   10.0616    1.5427   -0.7049 H   0  0  0  0  0  0  0  0  0  0  0  0
    8.6119    2.1147    1.2134 H   0  0  0  0  0  0  0  0  0  0  0  0
    6.3775    1.0603    1.4787 H   0  0  0  0  0  0  0  0  0  0  0  0
    4.9708   -2.5367    1.5949 H   0  0  0  0  0  0  0  0  0  0  0  0
    3.9267   -3.0557    0.2833 H   0  0  0  0  0  0  0  0  0  0  0  0
    2.6324   -3.1915    2.3120 H   0  0  0  0  0  0  0  0  0  0  0  0
    3.1785   -1.6214    2.8530 H   0  0  0  0  0  0  0  0  0  0  0  0
   -1.1983   -1.8937    2.1445 H   0  0  0  0  0  0  0  0  0  0  0  0
   -3.4371   -1.1173    1.5167 H   0  0  0  0  0  0  0  0  0  0  0  0
   -2.6882    0.3804   -1.8786 H   0  0  0  0  0  0  0  0  0  0  0  0
   -2.1225   -1.5973   -3.2280 H   0  0  0  0  0  0  0  0  0  0  0  0
  1  2  1  0
  2  3  2  0
  3  4  1  0
  4  5  2  0
  5  6  1  0
  6  7  2  0
  7  8  1  0
  8  9  2  0
  9 10  1  0
 10 11  1  0
 10 12  2  0
 12 13  1  0
 13 14  2  0
 14 15  1  0
 15 16  2  0
 16 17  1  0
 17 18  2  0
 18 19  1  0
 19 20  2  0
 20 21  1  0
 21 22  1  0
 22 23  1  0
 23 24  1  0
 24 25  1  0
 25 26  1  0
 26 27  1  0
 27 28  1  0
 27 29  2  0
 29 30  1  0
 30 31  2  0
 31 32  1  0
 32 33  2  0
 33 34  1  0
 34 35  2  0
 25 36  1  0
 36 37  1  0
 20 38  1  0
 38 39  2  0
  5 40  1  0
 40 41  2  0
 41  2  1  0
 16  6  1  0
 39 17  1  0
 14  8  1  0
 37 22  1  0
 35 26  1  0
 35 30  1  0
  1 42  1  0
  3 43  1  0
  4 44  1  0
  9 45  1  0
 12 46  1  0
 13 47  1  0
 18 48  1  0
 19 49  1  0
 21 50  1  0
 21 51  1  0
 23 52  1  0
 23 53  1  0
 24 54  1  0
 24 55  1  0
 25 56  1  0
 28 57  1  0
 31 58  1  0
 32 59  1  0
 33 60  1  0
 34 61  1  0
 36 62  1  0
 36 63  1  0
 37 64  1  0
 37 65  1  0
 38 66  1  0
 39 67  1  0
 40 68  1  0
 41 69  1  0
M  END
$$$$
