MODEL        7USER    Run = 7USERUSER    Estimated Free Energy of Binding    =  -6.93 kcal/mol  [=(1)+(2)+(3)-(4)]USERUSER    (1) Final Intermolecular Energy     = -11.11 kcal/molUSER        vdW + Hbond + desolv Energy     = -11.38 kcal/molUSER        Electrostatic Energy            =  +0.05 kcal/molUSER        Moving Ligand-Fixed Receptor    = -11.33 kcal/molUSER        Moving Ligand-Moving Receptor   =  +0.22 kcal/molUSER    (2) Final Total Internal Energy     =  -4.18 kcal/molUSER    (3) Torsional Free Energy           =  +4.18 kcal/molUSER    (4) Unbound System's Energy         =  -4.18 kcal/molUSERUSERREMARK SMILES COc1ccc(O)c(C(=O)c2ccc(C(=O)N[C@@H]3CCCNC[C@H]3NC(=O)c3nc4ccccc4[nH]3)cc2)c1FREMARK SMILES IDX 18 1 17 3 15 4 16 5 14 7 11 8 12 9 38 10 13 11 37 12 9 13REMARK SMILES IDX 10 14 8 15 3 16 4 17 39 18 5 19 6 20 40 21 2 22 1 23 7 24REMARK SMILES IDX 24 26 23 27 22 28 21 30 20 31 19 32 25 34 26 35 27 37 28 38REMARK SMILES IDX 29 39 36 40 30 41 35 42 31 43 34 44 32 45 33 46REMARK H PARENT 17 6 7 25 22 29 25 36 36 47REMARK Flexibility Score:  100.900USER                              x       y       z     vdW  Elec       q    TypeUSER                           _______ _______ _______ _____ _____    ______ ____ROOTATOM      1  C   UNL     1      38.300  46.547  16.509 -0.38 -0.04    +0.106 CG0ATOM      2  G   UNL     1      39.053  47.880  16.685 +0.00 +0.00    +0.000 G0 ENDROOTBRANCH   1   3ATOM      3  N   UNL     1      37.972  45.950  17.804 -0.16 +0.09    -0.347 N  ATOM      4  C   UNL     1      37.728  44.605  17.960 -0.24 -0.05    +0.251 C  ATOM      5  O   UNL     1      37.628  43.824  17.019 -0.18 +0.06    -0.269 OA ATOM      6  H   UNL     1      38.124  46.547  18.608 +0.08 -0.03    +0.164 HD BRANCH   4   7ATOM      7  C   UNL     1      37.570  44.105  19.358 -0.31 -0.00    +0.039 A  ATOM      8  C   UNL     1      37.385  43.226  22.018 -0.39 +0.00    +0.023 A  ATOM      9  C   UNL     1      38.597  43.729  21.532 -0.28 +0.00    +0.013 A  ATOM     10  C   UNL     1      36.274  43.145  21.171 -0.41 +0.00    +0.013 A  ATOM     11  C   UNL     1      38.683  44.176  20.210 -0.28 -0.00    +0.014 A  ATOM     12  C   UNL     1      36.361  43.594  19.848 -0.39 -0.00    +0.014 A  BRANCH   8  13ATOM     13  C   UNL     1      37.253  42.712  23.402 -0.33 +0.02    +0.199 C  ATOM     14  O   UNL     1      37.384  41.503  23.602 -0.24 -0.03    -0.288 OA BRANCH  13  15ATOM     15  C   UNL     1      37.027  43.587  24.572 -0.29 +0.01    +0.104 A  ATOM     16  C   UNL     1      37.155  45.757  25.678 -0.23 +0.00    +0.155 A  ATOM     17  C   UNL     1      36.587  45.202  26.827 -0.24 -0.01    +0.053 A  ATOM     18  C   UNL     1      37.362  44.942  24.555 -0.19 +0.02    +0.179 A  ATOM     19  C   UNL     1      36.215  43.854  26.843 -0.39 -0.01    +0.051 A  ATOM     20  C   UNL     1      36.420  43.060  25.718 -0.29 -0.01    +0.130 A  ATOM     21  F   UNL     1      37.871  45.496  23.442 -0.09 -0.03    -0.202 F  BRANCH  16  22ATOM     22  O   UNL     1      37.539  47.063  25.536 -0.49 -0.03    -0.494 OA ATOM     23  C   UNL     1      36.593  48.064  25.887 -0.31 -0.02    +0.278 C  ENDBRANCH  16  22BRANCH  20  24ATOM     24  O   UNL     1      35.998  41.760  25.806 -0.15 +0.10    -0.507 OA ATOM     25  H   UNL     1      36.552  41.222  25.193 +0.02 -0.08    +0.293 HD ENDBRANCH  20  24ENDBRANCH  13  15ENDBRANCH   8  13ENDBRANCH   4   7ENDBRANCH   1   3BRANCH   1  26ATOM     26  C   UNL     1      37.035  46.656  15.615 -0.37 -0.07    +0.118 C  BRANCH  26  27ATOM     27  C   UNL     1      37.281  46.469  14.103 -0.43 -0.05    +0.108 C  BRANCH  27  28ATOM     28  N   UNL     1      38.411  47.226  13.544 -0.31 +0.08    -0.315 NA ATOM     29  H   UNL     1      39.261  46.692  13.744 +0.08 -0.02    +0.122 HD BRANCH  28  30ATOM     30  C   UNL     1      38.548  48.521  14.222 -0.48 -0.04    +0.081 C  BRANCH  30  31ATOM     31  C   UNL     1      39.532  48.537  15.388 -0.61 -0.01    +0.017 C  BRANCH  31  32ATOM     32  C   UNL     1      39.054  47.878  16.686 -0.27 -0.01    +0.028 CG0ATOM     33  G   UNL     1      38.298  46.547  16.510 +0.00 +0.00    +0.000 G0 ENDBRANCH  31  32ENDBRANCH  30  31ENDBRANCH  28  30ENDBRANCH  27  28ENDBRANCH  26  27BRANCH  26  34ATOM     34  N   UNL     1      35.997  45.723  16.056 -0.11 +0.22    -0.343 N  ATOM     35  C   UNL     1      35.148  45.995  17.105 -0.22 -0.24    +0.287 C  ATOM     36  H   UNL     1      36.065  44.735  15.817 +0.11 -0.07    +0.164 HD ATOM     37  O   UNL     1      35.047  47.098  17.631 -0.33 +0.32    -0.266 OA BRANCH  35  38ATOM     38  C   UNL     1      34.387  44.839  17.531 -0.19 -0.10    +0.197 A  ATOM     39  N   UNL     1      34.421  43.656  16.938 -0.17 +0.09    -0.224 NA ATOM     40  N   UNL     1      33.546  44.827  18.615 -0.18 +0.11    -0.334 N  ATOM     41  C   UNL     1      33.565  42.864  17.668 -0.29 -0.03    +0.089 A  ATOM     42  C   UNL     1      33.005  43.574  18.725 -0.33 -0.01    +0.066 A  ATOM     43  C   UNL     1      33.217  41.518  17.486 -0.30 -0.01    +0.030 A  ATOM     44  C   UNL     1      32.101  43.015  19.631 -0.29 +0.00    +0.028 A  ATOM     45  C   UNL     1      32.312  40.932  18.381 -0.41 -0.00    +0.002 A  ATOM     46  C   UNL     1      31.766  41.671  19.433 -0.02 +0.00    +0.002 A  ATOM     47  H   UNL     1      33.378  45.621  19.218 -0.11 -0.08    +0.168 HD ENDBRANCH  35  38ENDBRANCH  26  34ENDBRANCH   1  26TORSDOF 8TERENDMDL