MODEL        9USER    Run = 9USERUSER    Estimated Free Energy of Binding    = -10.70 kcal/mol  [=(1)+(2)+(3)-(4)]USERUSER    (1) Final Intermolecular Energy     = -11.89 kcal/molUSER        vdW + Hbond + desolv Energy     = -11.82 kcal/molUSER        Electrostatic Energy            =  -0.08 kcal/molUSER        Moving Ligand-Fixed Receptor    = -11.89 kcal/molUSER        Moving Ligand-Moving Receptor   =  +0.00 kcal/molUSER    (2) Final Total Internal Energy     =  -0.92 kcal/molUSER    (3) Torsional Free Energy           =  +1.19 kcal/molUSER    (4) Unbound System's Energy         =  -0.92 kcal/molUSERUSERREMARK SMILES O=C(c1ccc(-c2ncnc3[nH]ccc23)cc1)N1CCC(n2c(O)nc3ccccc32)CC1REMARK SMILES IDX 1 1 2 2 18 3 19 4 20 5 21 6 32 7 33 8 3 9 4 10 17 11 5 12REMARK SMILES IDX 16 13 6 14 7 15 8 16 15 17 9 18 14 19 11 20 10 21 13 22REMARK SMILES IDX 12 23 22 25 23 26 31 27 25 28 30 29 26 30 29 31 27 32 28 33REMARK SMILES IDX 24 34REMARK H PARENT 12 24 24 35USER                              x       y       z     vdW  Elec       q    TypeUSER                           _______ _______ _______ _____ _____    ______ ____ROOTATOM      1  O   UNL     1      34.166  42.103  19.326 -0.35 +0.01    -0.269 OA ATOM      2  C   UNL     1      35.204  42.758  19.377 -0.30 -0.03    +0.253 C  ATOM      3  N   UNL     1      36.093  42.711  20.455 -0.22 +0.00    -0.338 N  ATOM      4  C   UNL     1      37.093  43.751  20.708 -0.37 -0.00    +0.122 C  ATOM      5  C   UNL     1      37.480  43.849  22.179 -0.40 +0.00    +0.047 C  ATOM      6  C   UNL     1      37.961  42.485  22.685 -0.38 +0.01    +0.096 C  ATOM      7  C   UNL     1      37.036  41.323  22.280 -0.57 +0.00    +0.047 C  ATOM      8  C   UNL     1      35.786  41.785  21.540 -0.40 +0.00    +0.122 C  ENDROOTBRANCH   2   9ATOM      9  C   UNL     1      35.514  43.644  18.231 -0.30 -0.01    +0.040 A  ATOM     10  C   UNL     1      35.535  45.031  18.382 -0.35 -0.00    +0.014 A  ATOM     11  C   UNL     1      35.837  43.066  17.002 -0.36 -0.00    +0.014 A  ATOM     12  C   UNL     1      35.843  45.841  17.283 -0.35 -0.01    +0.011 A  ATOM     13  C   UNL     1      36.145  43.883  15.910 -0.39 -0.00    +0.011 A  ATOM     14  C   UNL     1      36.160  45.285  16.029 -0.35 -0.00    +0.001 A  BRANCH  14  15ATOM     15  C   UNL     1      36.474  46.158  14.895 -0.33 -0.05    +0.083 A  ATOM     16  N   UNL     1      35.654  46.097  13.809 -0.29 +0.15    -0.236 NA ATOM     17  C   UNL     1      37.551  47.056  14.882 -0.40 -0.02    +0.045 A  ATOM     18  C   UNL     1      35.935  46.885  12.753 -0.43 -0.13    +0.224 A  ATOM     19  C   UNL     1      38.586  47.474  15.769 -0.44 -0.01    +0.032 A  ATOM     20  C   UNL     1      37.706  47.804  13.722 -0.42 -0.05    +0.141 A  ATOM     21  N   UNL     1      36.941  47.763  12.622 -1.01 +0.07    -0.219 NA ATOM     22  C   UNL     1      39.339  48.432  15.121 -0.48 -0.04    +0.085 A  ATOM     23  N   UNL     1      38.794  48.619  13.877 -0.17 +0.13    -0.346 N  ATOM     24  H   UNL     1      39.117  49.264  13.170 -0.14 -0.06    +0.167 HD ENDBRANCH  14  15ENDBRANCH   2   9BRANCH   6  25ATOM     25  N   UNL     1      38.273  42.503  24.109 -0.15 -0.02    -0.291 N  ATOM     26  C   UNL     1      39.487  42.850  24.638 -0.05 +0.01    +0.295 A  ATOM     27  C   UNL     1      37.448  42.197  25.171 -0.31 -0.00    +0.072 A  ATOM     28  N   UNL     1      39.521  42.790  25.939 -0.13 +0.00    -0.195 NA ATOM     29  C   UNL     1      36.113  41.786  25.278 -0.31 -0.00    +0.029 A  ATOM     30  C   UNL     1      38.260  42.385  26.294 -0.25 -0.01    +0.092 A  ATOM     31  C   UNL     1      35.608  41.562  26.565 -0.56 -0.00    +0.002 A  ATOM     32  C   UNL     1      37.734  42.155  27.575 -0.39 -0.01    +0.031 A  ATOM     33  C   UNL     1      36.403  41.741  27.697 -0.51 -0.00    +0.002 A  BRANCH  26  34ATOM     34  O   UNL     1      40.537  43.216  23.933 -0.05 -0.01    -0.480 OA ATOM     35  H   UNL     1      41.185  43.397  24.638 +0.10 -0.00    +0.296 HD ENDBRANCH  26  34ENDBRANCH   6  25TORSDOF 4TERENDMDL