REMARK SMILES O=C(c1ccc(-c2ncnc3[nH]ccc23)cc1)N1CCC(n2c(O)nc3ccccc32)CC1
REMARK SMILES IDX 1 1 2 2 18 3 19 4 20 5 21 6 32 7 33 8 3 9 4 10 17 11 5 12
REMARK SMILES IDX 16 13 6 14 7 15 8 16 15 17 9 18 14 19 11 20 10 21 13 22
REMARK SMILES IDX 12 23 22 25 23 26 31 27 25 28 30 29 26 30 29 31 27 32 28 33
REMARK SMILES IDX 24 34
REMARK H PARENT 12 24 24 35
ROOT
ATOM      1  O   UNL     1      -0.382  -2.856  -1.103  1.00  0.00    -0.269 OA
ATOM      2  C   UNL     1      -0.371  -1.656  -0.838  1.00  0.00     0.253 C 
ATOM      3  N   UNL     1       0.795  -0.885  -0.807  1.00  0.00    -0.338 N 
ATOM      4  C   UNL     1       0.877   0.407  -0.121  1.00  0.00     0.122 C 
ATOM      5  C   UNL     1       2.293   0.744   0.329  1.00  0.00     0.047 C 
ATOM      6  C   UNL     1       3.249   0.692  -0.868  1.00  0.00     0.096 C 
ATOM      7  C   UNL     1       3.071  -0.566  -1.737  1.00  0.00     0.047 C 
ATOM      8  C   UNL     1       2.046  -1.542  -1.171  1.00  0.00     0.122 C 
ENDROOT
BRANCH   2   9
ATOM      9  C   UNL     1      -1.667  -1.008  -0.531  1.00  0.00     0.040 A 
ATOM     10  C   UNL     1      -2.097   0.111  -1.246  1.00  0.00     0.014 A 
ATOM     11  C   UNL     1      -2.481  -1.566   0.456  1.00  0.00     0.014 A 
ATOM     12  C   UNL     1      -3.332   0.693  -0.941  1.00  0.00     0.011 A 
ATOM     13  C   UNL     1      -3.714  -0.978   0.754  1.00  0.00     0.011 A 
ATOM     14  C   UNL     1      -4.167   0.158   0.059  1.00  0.00     0.001 A 
BRANCH  14  15
ATOM     15  C   UNL     1      -5.453   0.792   0.361  1.00  0.00     0.083 A 
ATOM     16  N   UNL     1      -5.477   2.150   0.458  1.00  0.00    -0.236 NA
ATOM     17  C   UNL     1      -6.649   0.079   0.531  1.00  0.00     0.045 A 
ATOM     18  C   UNL     1      -6.649   2.748   0.746  1.00  0.00     0.224 A 
ATOM     19  C   UNL     1      -7.085  -1.277   0.471  1.00  0.00     0.032 A 
ATOM     20  C   UNL     1      -7.775   0.838   0.819  1.00  0.00     0.141 A 
ATOM     21  N   UNL     1      -7.844   2.171   0.947  1.00  0.00    -0.219 NA
ATOM     22  C   UNL     1      -8.438  -1.300   0.741  1.00  0.00     0.085 A 
ATOM     23  N   UNL     1      -8.842  -0.007   0.954  1.00  0.00    -0.346 N 
ATOM     24  H   UNL     1      -9.780   0.302   1.165  1.00  0.00     0.167 HD
ENDBRANCH  14  15
ENDBRANCH   2   9
BRANCH   6  25
ATOM     25  N   UNL     1       4.633   0.934  -0.480  1.00  0.00    -0.291 N 
ATOM     26  C   UNL     1       5.362   2.037  -0.833  1.00  0.00     0.295 A 
ATOM     27  C   UNL     1       5.456   0.143   0.294  1.00  0.00     0.072 A 
ATOM     28  N   UNL     1       6.578   2.027  -0.364  1.00  0.00    -0.195 NA
ATOM     29  C   UNL     1       5.292  -1.087   0.944  1.00  0.00     0.029 A 
ATOM     30  C   UNL     1       6.659   0.854   0.343  1.00  0.00     0.092 A 
ATOM     31  C   UNL     1       6.388  -1.593   1.654  1.00  0.00     0.002 A 
ATOM     32  C   UNL     1       7.746   0.329   1.060  1.00  0.00     0.031 A 
ATOM     33  C   UNL     1       7.597  -0.900   1.712  1.00  0.00     0.002 A 
BRANCH  26  34
ATOM     34  O   UNL     1       4.912   3.031  -1.571  1.00  0.00    -0.480 OA
ATOM     35  H   UNL     1       5.696   3.609  -1.609  1.00  0.00     0.296 HD
ENDBRANCH  26  34
ENDBRANCH   6  25
TORSDOF 4
