REMARK SMILES O=C(c1ccc(-c2nc3ccccc3[nH]2)cc1)N1CCC(n2c(O)nc3ccccc32)CC1
REMARK SMILES IDX 1 1 2 2 18 3 19 4 20 5 21 6 32 7 33 8 3 9 4 10 17 11 5 12
REMARK SMILES IDX 16 13 6 14 7 15 8 16 15 17 9 18 14 19 10 20 13 21 11 22
REMARK SMILES IDX 12 23 22 25 23 26 31 27 25 28 30 29 26 30 29 31 27 32 28 33
REMARK SMILES IDX 24 34
REMARK H PARENT 15 24 24 35
ROOT
ATOM      1  O   UNL     1       0.234   3.620  -1.242  1.00  0.00    -0.269 OA
ATOM      2  C   UNL     1       0.180   2.439  -0.911  1.00  0.00     0.253 C 
ATOM      3  N   UNL     1      -1.014   1.738  -0.728  1.00  0.00    -0.338 N 
ATOM      4  C   UNL     1      -2.266   2.445  -0.985  1.00  0.00     0.122 C 
ATOM      5  C   UNL     1      -3.365   1.491  -1.435  1.00  0.00     0.047 C 
ATOM      6  C   UNL     1      -3.570   0.322  -0.452  1.00  0.00     0.096 C 
ATOM      7  C   UNL     1      -2.457   0.210   0.598  1.00  0.00     0.047 C 
ATOM      8  C   UNL     1      -1.093   0.449  -0.036  1.00  0.00     0.122 C 
ENDROOT
BRANCH   2   9
ATOM      9  C   UNL     1       1.458   1.725  -0.706  1.00  0.00     0.040 A 
ATOM     10  C   UNL     1       2.353   2.201   0.253  1.00  0.00     0.014 A 
ATOM     11  C   UNL     1       1.788   0.618  -1.492  1.00  0.00     0.014 A 
ATOM     12  C   UNL     1       3.568   1.540   0.449  1.00  0.00     0.013 A 
ATOM     13  C   UNL     1       3.010  -0.035  -1.296  1.00  0.00     0.013 A 
ATOM     14  C   UNL     1       3.915   0.418  -0.323  1.00  0.00     0.017 A 
BRANCH  14  15
ATOM     15  C   UNL     1       5.203  -0.240  -0.083  1.00  0.00     0.138 A 
ATOM     16  N   UNL     1       5.931  -0.135   1.015  1.00  0.00    -0.229 NA
ATOM     17  N   UNL     1       5.846  -1.047  -0.995  1.00  0.00    -0.338 N 
ATOM     18  C   UNL     1       7.051  -0.902   0.809  1.00  0.00     0.089 A 
ATOM     19  C   UNL     1       7.023  -1.488  -0.449  1.00  0.00     0.066 A 
ATOM     20  C   UNL     1       8.142  -1.144   1.655  1.00  0.00     0.030 A 
ATOM     21  C   UNL     1       8.036  -2.317  -0.933  1.00  0.00     0.028 A 
ATOM     22  C   UNL     1       9.174  -1.975   1.197  1.00  0.00     0.002 A 
ATOM     23  C   UNL     1       9.118  -2.549  -0.075  1.00  0.00     0.002 A 
ATOM     24  H   UNL     1       5.518  -1.259  -1.924  1.00  0.00     0.168 HD
ENDBRANCH  14  15
ENDBRANCH   2   9
BRANCH   6  25
ATOM     25  N   UNL     1      -4.890   0.316   0.167  1.00  0.00    -0.291 N 
ATOM     26  C   UNL     1      -5.441   1.319   0.914  1.00  0.00     0.295 A 
ATOM     27  C   UNL     1      -5.815  -0.707   0.127  1.00  0.00     0.072 A 
ATOM     28  N   UNL     1      -6.636   1.041   1.355  1.00  0.00    -0.195 NA
ATOM     29  C   UNL     1      -5.828  -1.976  -0.467  1.00  0.00     0.029 A 
ATOM     30  C   UNL     1      -6.890  -0.221   0.875  1.00  0.00     0.092 A 
ATOM     31  C   UNL     1      -6.976  -2.757  -0.285  1.00  0.00     0.002 A 
ATOM     32  C   UNL     1      -8.031  -1.020   1.044  1.00  0.00     0.031 A 
ATOM     33  C   UNL     1      -8.061  -2.289   0.457  1.00  0.00     0.002 A 
BRANCH  26  34
ATOM     34  O   UNL     1      -4.852   2.466   1.181  1.00  0.00    -0.480 OA
ATOM     35  H   UNL     1      -5.532   2.909   1.723  1.00  0.00     0.296 HD
ENDBRANCH  26  34
ENDBRANCH   6  25
TORSDOF 4
