MODEL        7USER    Run = 7USERUSER    Estimated Free Energy of Binding    = -11.51 kcal/mol  [=(1)+(2)+(3)-(4)]USERUSER    (1) Final Intermolecular Energy     = -12.70 kcal/molUSER        vdW + Hbond + desolv Energy     = -12.16 kcal/molUSER        Electrostatic Energy            =  -0.55 kcal/molUSER        Moving Ligand-Fixed Receptor    = -12.70 kcal/molUSER        Moving Ligand-Moving Receptor   =  +0.00 kcal/molUSER    (2) Final Total Internal Energy     =  -0.70 kcal/molUSER    (3) Torsional Free Energy           =  +1.19 kcal/molUSER    (4) Unbound System's Energy         =  -0.70 kcal/molUSERUSERREMARK SMILES O=C(c1ccc(-c2nc3ccccc3[nH]2)cc1)N1CCC(n2c(O)nc3ccccc32)CC1REMARK SMILES IDX 1 1 2 2 18 3 19 4 20 5 21 6 32 7 33 8 3 9 4 10 17 11 5 12REMARK SMILES IDX 16 13 6 14 7 15 8 16 15 17 9 18 14 19 10 20 13 21 11 22REMARK SMILES IDX 12 23 22 25 23 26 31 27 25 28 30 29 26 30 29 31 27 32 28 33REMARK SMILES IDX 24 34REMARK H PARENT 15 24 24 35USER                              x       y       z     vdW  Elec       q    TypeUSER                           _______ _______ _______ _____ _____    ______ ____ROOTATOM      1  O   UNL     1      38.754  28.777  23.180 -0.12 -0.06    -0.269 OA ATOM      2  C   UNL     1      38.040  28.924  22.192 -0.14 +0.02    +0.253 C  ATOM      3  N   UNL     1      38.504  28.826  20.879 -0.07 -0.04    -0.338 N  ATOM      4  C   UNL     1      39.911  28.493  20.675 -0.19 +0.07    +0.122 C  ATOM      5  C   UNL     1      40.126  27.754  19.360 -0.17 +0.02    +0.047 C  ATOM      6  C   UNL     1      39.548  28.517  18.153 -0.23 +0.03    +0.096 C  ATOM      7  C   UNL     1      38.646  29.692  18.554 -0.30 +0.01    +0.047 C  ATOM      8  C   UNL     1      37.746  29.307  19.720 -0.29 +0.00    +0.122 C  ENDROOTBRANCH   2   9ATOM      9  C   UNL     1      36.607  29.209  22.418 -0.28 -0.00    +0.040 A  ATOM     10  C   UNL     1      35.652  28.491  21.698 -0.39 -0.00    +0.014 A  ATOM     11  C   UNL     1      36.214  30.216  23.303 -0.37 +0.00    +0.014 A  ATOM     12  C   UNL     1      34.296  28.758  21.896 -0.29 -0.00    +0.013 A  ATOM     13  C   UNL     1      34.854  30.485  23.491 -0.25 +0.00    +0.013 A  ATOM     14  C   UNL     1      33.878  29.759  22.789 -0.52 -0.00    +0.017 A  BRANCH  14  15ATOM     15  C   UNL     1      32.443  30.006  22.961 -0.48 +0.01    +0.138 A  ATOM     16  N   UNL     1      31.744  29.772  24.058 -0.68 -0.07    -0.229 NA ATOM     17  N   UNL     1      31.616  30.500  21.976 -0.37 +0.01    -0.338 N  ATOM     18  C   UNL     1      30.451  30.138  23.776 -0.53 +0.02    +0.089 A  ATOM     19  C   UNL     1      30.342  30.600  22.472 -0.52 -0.01    +0.066 A  ATOM     20  C   UNL     1      29.310  30.100  24.589 -0.53 +0.01    +0.030 A  ATOM     21  C   UNL     1      29.141  31.035  21.909 -0.46 -0.01    +0.028 A  ATOM     22  C   UNL     1      28.090  30.533  24.052 -0.53 +0.00    +0.002 A  ATOM     23  C   UNL     1      28.011  30.992  22.735 -0.47 -0.00    +0.002 A  ATOM     24  H   UNL     1      31.895  30.726  21.035 +0.05 -0.00    +0.168 HD ENDBRANCH  14  15ENDBRANCH   2   9BRANCH   6  25ATOM     25  N   UNL     1      40.565  28.928  17.192 -0.13 -0.10    -0.291 N  ATOM     26  C   UNL     1      41.759  29.526  17.480 -0.17 +0.23    +0.295 A  ATOM     27  C   UNL     1      40.500  28.806  15.820 -0.27 +0.00    +0.072 A  ATOM     28  N   UNL     1      42.473  29.795  16.423 -0.20 -0.09    -0.195 NA ATOM     29  C   UNL     1      39.540  28.288  14.940 -0.39 -0.01    +0.029 A  ATOM     30  C   UNL     1      41.704  29.353  15.373 -0.27 -0.01    +0.092 A  ATOM     31  C   UNL     1      39.833  28.337  13.571 -0.50 -0.00    +0.002 A  ATOM     32  C   UNL     1      41.978  29.392  13.997 -0.49 -0.02    +0.031 A  ATOM     33  C   UNL     1      41.031  28.879  13.105 -0.59 -0.00    +0.002 A  BRANCH  26  34ATOM     34  O   UNL     1      42.181  29.815  18.694 -0.61 -0.87    -0.480 OA ATOM     35  H   UNL     1      41.403  30.275  19.062 -0.42 +0.32    +0.296 HD ENDBRANCH  26  34ENDBRANCH   6  25TORSDOF 4TERENDMDL