
     RDKit          3D

 57 60  0  0  0  0  0  0  0  0999 V2000
    1.1216   -2.5543   -2.2550 O   0  0  0  0  0  0  0  0  0  0  0  0
    1.2589   -1.8739   -1.2409 C   0  0  0  0  0  0  0  0  0  0  0  0
    2.5343   -1.1396   -1.0743 C   0  0  0  0  0  0  0  0  0  0  0  0
    3.2988   -1.2778    0.0892 C   0  0  0  0  0  0  0  0  0  0  0  0
    4.5096   -0.5914    0.2082 C   0  0  0  0  0  0  0  0  0  0  0  0
    4.9711    0.2111   -0.8448 C   0  0  0  0  0  0  0  0  0  0  0  0
    6.2700    0.9382   -0.6854 C   0  0  0  0  0  0  0  0  0  0  0  0
    6.5130    1.4525    0.4771 N   0  0  0  0  0  0  0  0  0  0  0  0
    7.6648    2.1419    0.6960 N   0  0  0  0  0  0  0  0  0  0  0  0
    8.3643    2.9108   -0.2060 C   0  0  0  0  0  0  0  0  0  0  0  0
    8.5783    2.8365   -1.4738 N   0  0  0  0  0  0  0  0  0  0  0  0
    8.1196    1.7611   -2.1707 C   0  0  0  0  0  0  0  0  0  0  0  0
    7.1371    0.9019   -1.8917 C   0  0  0  0  0  0  0  0  0  0  0  0
    4.2069    0.3378   -2.0135 C   0  0  0  0  0  0  0  0  0  0  0  0
    2.9946   -0.3468   -2.1314 C   0  0  0  0  0  0  0  0  0  0  0  0
    0.2839   -1.7658   -0.2575 N   0  0  0  0  0  0  0  0  0  0  0  0
   -0.9256   -2.5768   -0.3906 C   0  0  0  0  0  0  0  0  0  0  0  0
   -1.6729   -2.7205    0.9465 C   0  0  0  0  0  0  0  0  0  0  0  0
   -2.0373   -1.4457    1.6084 N   0  0  0  0  0  0  0  0  0  0  0  0
   -3.4749   -1.1593    1.4590 C   0  0  0  0  0  0  0  0  0  0  0  0
   -3.9343    0.0426    2.2988 C   0  0  0  0  0  0  0  0  0  0  0  0
   -5.4584    0.2131    2.2990 C   0  0  0  0  0  0  0  0  0  0  0  0
   -6.0288    0.5656    0.9474 C   0  0  0  0  0  0  0  0  0  0  0  0
   -6.7727   -0.3743    0.2215 C   0  0  0  0  0  0  0  0  0  0  0  0
   -7.2896   -0.0506   -1.0340 C   0  0  0  0  0  0  0  0  0  0  0  0
   -7.0696    1.2146   -1.5750 C   0  0  0  0  0  0  0  0  0  0  0  0
   -6.3339    2.1579   -0.8607 C   0  0  0  0  0  0  0  0  0  0  0  0
   -5.8160    1.8359    0.3946 C   0  0  0  0  0  0  0  0  0  0  0  0
   -1.1958   -0.3230    1.1390 C   0  0  0  0  0  0  0  0  0  0  0  0
    0.2477   -0.7329    0.7857 C   0  0  0  0  0  0  0  0  0  0  0  0
    2.9654   -1.9258    0.8955 H   0  0  0  0  0  0  0  0  0  0  0  0
    5.0994   -0.6948    1.1168 H   0  0  0  0  0  0  0  0  0  0  0  0
    7.7258    2.4924    1.6504 H   0  0  0  0  0  0  0  0  0  0  0  0
    8.8421    3.7596    0.3140 H   0  0  0  0  0  0  0  0  0  0  0  0
    8.6518    1.6102   -3.1093 H   0  0  0  0  0  0  0  0  0  0  0  0
    6.9409    0.1028   -2.5999 H   0  0  0  0  0  0  0  0  0  0  0  0
    4.5348    0.9747   -2.8313 H   0  0  0  0  0  0  0  0  0  0  0  0
    2.4063   -0.2615   -3.0429 H   0  0  0  0  0  0  0  0  0  0  0  0
   -1.5672   -2.0948   -1.1384 H   0  0  0  0  0  0  0  0  0  0  0  0
   -0.6558   -3.5666   -0.7761 H   0  0  0  0  0  0  0  0  0  0  0  0
   -1.0154   -3.2560    1.6439 H   0  0  0  0  0  0  0  0  0  0  0  0
   -2.5457   -3.3702    0.8081 H   0  0  0  0  0  0  0  0  0  0  0  0
   -3.7210   -1.0056    0.4011 H   0  0  0  0  0  0  0  0  0  0  0  0
   -4.0443   -2.0339    1.7991 H   0  0  0  0  0  0  0  0  0  0  0  0
   -3.4614    0.9642    1.9399 H   0  0  0  0  0  0  0  0  0  0  0  0
   -3.6080   -0.0995    3.3371 H   0  0  0  0  0  0  0  0  0  0  0  0
   -5.7309    1.0087    3.0044 H   0  0  0  0  0  0  0  0  0  0  0  0
   -5.9323   -0.6989    2.6833 H   0  0  0  0  0  0  0  0  0  0  0  0
   -6.9544   -1.3666    0.6280 H   0  0  0  0  0  0  0  0  0  0  0  0
   -7.8652   -0.7858   -1.5901 H   0  0  0  0  0  0  0  0  0  0  0  0
   -7.4734    1.4659   -2.5522 H   0  0  0  0  0  0  0  0  0  0  0  0
   -6.1641    3.1457   -1.2808 H   0  0  0  0  0  0  0  0  0  0  0  0
   -5.2462    2.5840    0.9411 H   0  0  0  0  0  0  0  0  0  0  0  0
   -1.6402    0.1365    0.2455 H   0  0  0  0  0  0  0  0  0  0  0  0
   -1.1553    0.4454    1.9191 H   0  0  0  0  0  0  0  0  0  0  0  0
    0.8046    0.1503    0.4576 H   0  0  0  0  0  0  0  0  0  0  0  0
    0.7453   -1.1442    1.6714 H   0  0  0  0  0  0  0  0  0  0  0  0
  1  2  2  0
  2  3  1  0
  3  4  2  0
  4  5  1  0
  5  6  2  0
  6  7  1  0
  7  8  2  0
  8  9  1  0
  9 10  1  0
 10 11  2  0
 11 12  1  0
 12 13  2  0
  6 14  1  0
 14 15  2  0
  2 16  1  0
 16 17  1  0
 17 18  1  0
 18 19  1  0
 19 20  1  0
 20 21  1  0
 21 22  1  0
 22 23  1  0
 23 24  2  0
 24 25  1  0
 25 26  2  0
 26 27  1  0
 27 28  2  0
 19 29  1  0
 29 30  1  0
 15  3  1  0
 30 16  1  0
 13  7  1  0
 28 23  1  0
  4 31  1  0
  5 32  1  0
  9 33  1  0
 10 34  1  0
 12 35  1  0
 13 36  1  0
 14 37  1  0
 15 38  1  0
 17 39  1  0
 17 40  1  0
 18 41  1  0
 18 42  1  0
 20 43  1  0
 20 44  1  0
 21 45  1  0
 21 46  1  0
 22 47  1  0
 22 48  1  0
 24 49  1  0
 25 50  1  0
 26 51  1  0
 27 52  1  0
 28 53  1  0
 29 54  1  0
 29 55  1  0
 30 56  1  0
 30 57  1  0
M  END
$$$$
