
     RDKit          3D

 52 55  0  0  0  0  0  0  0  0999 V2000
    2.9003    1.9272   -0.5754 C   0  0  0  0  0  0  0  0  0  0  0  0
    3.3898    0.5035   -0.7097 C   0  0  0  0  0  0  0  0  0  0  0  0
    2.6443   -0.4480   -1.4461 C   0  0  0  0  0  0  0  0  0  0  0  0
    1.3584   -0.1270   -2.0822 C   0  0  0  0  0  0  0  0  0  0  0  0
    0.1361   -0.3439   -1.5591 C   0  0  0  0  0  0  0  0  0  0  0  0
   -0.0692   -0.9440   -0.2434 C   0  0  0  0  0  0  0  0  0  0  0  0
   -1.2968   -1.1624    0.2417 C   0  0  0  0  0  0  0  0  0  0  0  0
   -2.4643   -0.8004   -0.5184 C   0  0  0  0  0  0  0  0  0  0  0  0
   -2.1563   -0.1972   -1.8356 C   0  0  0  0  0  0  0  0  0  0  0  0
   -0.9661    0.0173   -2.3104 N   0  0  0  0  0  0  0  0  0  0  0  0
   -3.6978   -1.0385   -0.0087 C   0  0  0  0  0  0  0  0  0  0  0  0
   -4.8686   -0.7132   -0.6811 N   0  0  0  0  0  0  0  0  0  0  0  0
   -6.2105   -0.6677   -0.1327 C   0  0  0  0  0  0  0  0  0  0  0  0
   -6.3942    0.5952    0.6497 C   0  0  0  0  0  0  0  0  0  0  0  0
   -6.7032    1.8991   -0.0430 C   0  0  0  0  0  0  0  0  0  0  0  0
   -7.7625    1.2171    0.7796 C   0  0  0  0  0  0  0  0  0  0  0  0
   -3.7535   -1.6458    1.2471 N   0  0  0  0  0  0  0  0  0  0  0  0
   -2.7061   -2.0265    2.0427 N   0  0  0  0  0  0  0  0  0  0  0  0
   -1.5260   -1.7858    1.5590 C   0  0  0  0  0  0  0  0  0  0  0  0
    3.1091   -1.7643   -1.5774 C   0  0  0  0  0  0  0  0  0  0  0  0
    4.2995   -2.1545   -0.9777 C   0  0  0  0  0  0  0  0  0  0  0  0
    5.0373   -1.2311   -0.2432 C   0  0  0  0  0  0  0  0  0  0  0  0
    4.6079    0.1039   -0.0976 C   0  0  0  0  0  0  0  0  0  0  0  0
    5.4662    1.0688    0.7186 C   0  0  0  0  0  0  0  0  0  0  0  0
    6.8740    1.2157    0.1303 C   0  0  0  0  0  0  0  0  0  0  0  0
    5.5286    0.6506    2.1915 C   0  0  0  0  0  0  0  0  0  0  0  0
    3.6364    2.6179   -1.0019 H   0  0  0  0  0  0  0  0  0  0  0  0
    2.7301    2.1697    0.4804 H   0  0  0  0  0  0  0  0  0  0  0  0
    1.9594    2.1159   -1.0997 H   0  0  0  0  0  0  0  0  0  0  0  0
    1.4407    0.3295   -3.0654 H   0  0  0  0  0  0  0  0  0  0  0  0
    0.8053   -1.2195    0.3378 H   0  0  0  0  0  0  0  0  0  0  0  0
   -3.0108    0.0895   -2.4653 H   0  0  0  0  0  0  0  0  0  0  0  0
   -4.7490   -0.0498   -1.4381 H   0  0  0  0  0  0  0  0  0  0  0  0
   -6.4222   -1.5413    0.4926 H   0  0  0  0  0  0  0  0  0  0  0  0
   -6.9206   -0.7093   -0.9677 H   0  0  0  0  0  0  0  0  0  0  0  0
   -5.7504    0.6309    1.5225 H   0  0  0  0  0  0  0  0  0  0  0  0
   -6.2528    2.8015    0.3565 H   0  0  0  0  0  0  0  0  0  0  0  0
   -6.8207    1.9032   -1.1204 H   0  0  0  0  0  0  0  0  0  0  0  0
   -8.5963    0.7626    0.2557 H   0  0  0  0  0  0  0  0  0  0  0  0
   -8.0307    1.6606    1.7330 H   0  0  0  0  0  0  0  0  0  0  0  0
   -4.6803   -1.9126    1.5602 H   0  0  0  0  0  0  0  0  0  0  0  0
   -0.6350   -2.0613    2.1453 H   0  0  0  0  0  0  0  0  0  0  0  0
    2.5384   -2.4943   -2.1479 H   0  0  0  0  0  0  0  0  0  0  0  0
    4.6524   -3.1771   -1.0806 H   0  0  0  0  0  0  0  0  0  0  0  0
    5.9641   -1.5647    0.2195 H   0  0  0  0  0  0  0  0  0  0  0  0
    5.0266    2.0702    0.7006 H   0  0  0  0  0  0  0  0  0  0  0  0
    6.8274    1.5107   -0.9239 H   0  0  0  0  0  0  0  0  0  0  0  0
    7.4485    0.2856    0.1937 H   0  0  0  0  0  0  0  0  0  0  0  0
    7.4351    1.9865    0.6695 H   0  0  0  0  0  0  0  0  0  0  0  0
    4.5215    0.5724    2.6160 H   0  0  0  0  0  0  0  0  0  0  0  0
    6.0832    1.3920    2.7778 H   0  0  0  0  0  0  0  0  0  0  0  0
    6.0233   -0.3167    2.3263 H   0  0  0  0  0  0  0  0  0  0  0  0
  1  2  1  0
  2  3  2  0
  3  4  1  0
  4  5  2  3
  5  6  1  0
  6  7  2  0
  7  8  1  0
  8  9  1  0
  9 10  2  0
  8 11  2  0
 11 12  1  0
 12 13  1  0
 13 14  1  0
 14 15  1  0
 15 16  1  0
 11 17  1  0
 17 18  1  0
 18 19  2  0
  3 20  1  0
 20 21  2  0
 21 22  1  0
 22 23  2  0
 23 24  1  0
 24 25  1  0
 24 26  1  0
 23  2  1  0
 10  5  1  0
 16 14  1  0
 19  7  1  0
  1 27  1  0
  1 28  1  0
  1 29  1  0
  4 30  1  0
  6 31  1  0
  9 32  1  0
 12 33  1  0
 13 34  1  0
 13 35  1  0
 14 36  1  0
 15 37  1  0
 15 38  1  0
 16 39  1  0
 16 40  1  0
 17 41  1  0
 19 42  1  0
 20 43  1  0
 21 44  1  0
 22 45  1  0
 24 46  1  0
 25 47  1  0
 25 48  1  0
 25 49  1  0
 26 50  1  0
 26 51  1  0
 26 52  1  0
M  END
$$$$
