
     RDKit          3D

 33 34  0  0  0  0  0  0  0  0999 V2000
    4.4563   -0.4933    1.0787 C   0  0  0  0  0  0  0  0  0  0  0  0
    2.9752   -0.6023    0.7496 C   0  0  0  0  0  0  0  0  0  0  0  0
    2.4341    0.7098    0.1711 C   0  0  0  0  0  0  0  0  0  0  0  0
    0.9145    0.6761   -0.1054 C   0  0  0  0  0  0  0  0  0  0  0  0
    0.4399    2.1011   -0.5064 C   0  0  0  0  0  0  0  0  0  0  0  0
   -0.9719    2.1275   -0.7589 O   0  0  0  0  0  0  0  0  0  0  0  0
   -1.6892    1.7669    0.3258 C   0  0  0  0  0  0  0  0  0  0  0  0
   -1.7385    2.4060    1.3640 O   0  0  0  0  0  0  0  0  0  0  0  0
   -2.3675    0.4577    0.1148 C   0  0  0  0  0  0  0  0  0  0  0  0
   -3.4778    0.2039    0.9399 C   0  0  0  0  0  0  0  0  0  0  0  0
   -4.1403   -1.0227    0.8892 C   0  0  0  0  0  0  0  0  0  0  0  0
   -3.6845   -2.0107    0.0234 C   0  0  0  0  0  0  0  0  0  0  0  0
   -4.6554   -3.8474   -0.0494 I   0  0  0  0  0  0  0  0  0  0  0  0
   -2.5766   -1.7783   -0.7950 C   0  0  0  0  0  0  0  0  0  0  0  0
   -1.8982   -0.5406   -0.7707 C   0  0  0  0  0  0  0  0  0  0  0  0
   -0.7204   -0.3604   -1.7075 C   0  0  0  0  0  0  0  0  0  0  0  0
    0.6070   -0.3850   -1.0875 N   0  0  0  0  0  0  0  0  0  0  0  0
    4.6371    0.2918    1.8199 H   0  0  0  0  0  0  0  0  0  0  0  0
    5.0409   -0.2619    0.1826 H   0  0  0  0  0  0  0  0  0  0  0  0
    4.8237   -1.4389    1.4895 H   0  0  0  0  0  0  0  0  0  0  0  0
    2.4237   -0.8617    1.6607 H   0  0  0  0  0  0  0  0  0  0  0  0
    2.8332   -1.4227    0.0376 H   0  0  0  0  0  0  0  0  0  0  0  0
    2.6464    1.5187    0.8824 H   0  0  0  0  0  0  0  0  0  0  0  0
    2.9767    0.9544   -0.7515 H   0  0  0  0  0  0  0  0  0  0  0  0
    0.4266    0.3931    0.8352 H   0  0  0  0  0  0  0  0  0  0  0  0
    0.6862    2.8382    0.2676 H   0  0  0  0  0  0  0  0  0  0  0  0
    0.9380    2.4180   -1.4297 H   0  0  0  0  0  0  0  0  0  0  0  0
   -3.8244    0.9649    1.6383 H   0  0  0  0  0  0  0  0  0  0  0  0
   -4.9961   -1.1927    1.5376 H   0  0  0  0  0  0  0  0  0  0  0  0
   -2.2271   -2.5672   -1.4594 H   0  0  0  0  0  0  0  0  0  0  0  0
   -0.7280   -1.1973   -2.4191 H   0  0  0  0  0  0  0  0  0  0  0  0
   -0.8627    0.5083   -2.3599 H   0  0  0  0  0  0  0  0  0  0  0  0
    1.2988   -0.3532   -1.8366 H   0  0  0  0  0  0  0  0  0  0  0  0
  1  2  1  0
  2  3  1  0
  3  4  1  0
  4  5  1  0
  5  6  1  0
  6  7  1  0
  7  8  2  0
  7  9  1  0
  9 10  2  0
 10 11  1  0
 11 12  2  0
 12 13  1  0
 12 14  1  0
 14 15  2  0
 15 16  1  0
 16 17  1  0
 17  4  1  0
 15  9  1  0
  1 18  1  0
  1 19  1  0
  1 20  1  0
  2 21  1  0
  2 22  1  0
  3 23  1  0
  3 24  1  0
  4 25  1  0
  5 26  1  0
  5 27  1  0
 10 28  1  0
 11 29  1  0
 14 30  1  0
 16 31  1  0
 16 32  1  0
 17 33  1  0
M  END
$$$$
