
     RDKit          3D

 65 68  0  0  0  0  0  0  0  0999 V2000
    1.6221   -4.6481   -0.9331 C   0  0  0  0  0  0  0  0  0  0  0  0
    1.5764   -3.2872   -1.5674 C   0  0  0  0  0  0  0  0  0  0  0  0
    2.5231   -2.3309   -1.1583 C   0  0  0  0  0  0  0  0  0  0  0  0
    2.5541   -1.0399   -1.7116 C   0  0  0  0  0  0  0  0  0  0  0  0
    3.5494   -0.0174   -1.2036 C   0  0  0  0  0  0  0  0  0  0  0  0
    3.3082    0.3637    0.1967 N   0  0  0  0  0  0  0  0  0  0  0  0
    2.0497    1.1231    0.3543 C   0  0  0  0  0  0  0  0  0  0  0  0
    1.8324    1.6107    1.8065 C   0  0  0  0  0  0  0  0  0  0  0  0
    2.9525    2.3799    2.3855 N   0  0  0  0  0  0  0  0  0  0  0  0
    3.0230    3.7289    1.8314 C   0  0  0  0  0  0  0  0  0  0  0  0
    4.2083    1.6336    2.1695 C   0  0  0  0  0  0  0  0  0  0  0  0
    4.4404    1.1551    0.7172 C   0  0  0  0  0  0  0  0  0  0  0  0
    1.6391   -0.7080   -2.7146 C   0  0  0  0  0  0  0  0  0  0  0  0
    0.6927   -1.6390   -3.1378 C   0  0  0  0  0  0  0  0  0  0  0  0
    0.6458   -2.9160   -2.5569 C   0  0  0  0  0  0  0  0  0  0  0  0
   -0.6601   -4.0127   -3.1011 S   0  0  0  0  0  0  0  0  0  0  0  0
   -0.1177   -5.3505   -3.2034 O   0  0  0  0  0  0  0  0  0  0  0  0
   -1.3267   -3.4022   -4.2330 O   0  0  0  0  0  0  0  0  0  0  0  0
   -1.7299   -4.0260   -1.7909 N   0  0  0  0  0  0  0  0  0  0  0  0
   -2.1192   -2.7907   -1.2022 C   0  0  0  0  0  0  0  0  0  0  0  0
   -2.8215   -1.8340   -1.9216 C   0  0  0  0  0  0  0  0  0  0  0  0
   -3.1471   -0.6100   -1.3234 C   0  0  0  0  0  0  0  0  0  0  0  0
   -2.7935   -0.3054    0.0027 C   0  0  0  0  0  0  0  0  0  0  0  0
   -3.1229    0.9147    0.5825 N   0  0  0  0  0  0  0  0  0  0  0  0
   -4.3028    1.6538    0.1138 C   0  0  0  0  0  0  0  0  0  0  0  0
   -4.9843    2.3837    1.2682 C   0  0  0  0  0  0  0  0  0  0  0  0
   -4.0434    3.3582    1.9657 C   0  0  0  0  0  0  0  0  0  0  0  0
   -2.5961    2.8711    1.9843 C   0  0  0  0  0  0  0  0  0  0  0  0
   -2.4831    1.3562    1.8256 C   0  0  0  0  0  0  0  0  0  0  0  0
   -2.0804   -1.2957    0.6975 C   0  0  0  0  0  0  0  0  0  0  0  0
   -1.7498   -2.5234    0.1105 C   0  0  0  0  0  0  0  0  0  0  0  0
    0.6433   -4.9352   -0.5394 H   0  0  0  0  0  0  0  0  0  0  0  0
    2.3163   -4.6689   -0.0856 H   0  0  0  0  0  0  0  0  0  0  0  0
    1.9672   -5.3935   -1.6553 H   0  0  0  0  0  0  0  0  0  0  0  0
    3.2435   -2.5753   -0.3772 H   0  0  0  0  0  0  0  0  0  0  0  0
    4.5444   -0.4726   -1.3007 H   0  0  0  0  0  0  0  0  0  0  0  0
    3.5573    0.8675   -1.8544 H   0  0  0  0  0  0  0  0  0  0  0  0
    2.0307    1.9842   -0.3252 H   0  0  0  0  0  0  0  0  0  0  0  0
    1.1937    0.4889    0.0966 H   0  0  0  0  0  0  0  0  0  0  0  0
    0.9064    2.1968    1.8615 H   0  0  0  0  0  0  0  0  0  0  0  0
    1.6618    0.7336    2.4447 H   0  0  0  0  0  0  0  0  0  0  0  0
    3.1892    3.7489    0.7500 H   0  0  0  0  0  0  0  0  0  0  0  0
    3.8309    4.2930    2.3098 H   0  0  0  0  0  0  0  0  0  0  0  0
    2.0963    4.2738    2.0417 H   0  0  0  0  0  0  0  0  0  0  0  0
    4.1959    0.7545    2.8264 H   0  0  0  0  0  0  0  0  0  0  0  0
    5.0660    2.2336    2.5010 H   0  0  0  0  0  0  0  0  0  0  0  0
    5.3479    0.5393    0.7053 H   0  0  0  0  0  0  0  0  0  0  0  0
    4.6302    2.0228    0.0741 H   0  0  0  0  0  0  0  0  0  0  0  0
    1.6412    0.2844   -3.1585 H   0  0  0  0  0  0  0  0  0  0  0  0
   -0.0221   -1.3485   -3.9052 H   0  0  0  0  0  0  0  0  0  0  0  0
   -1.5602   -4.8143   -1.1698 H   0  0  0  0  0  0  0  0  0  0  0  0
   -3.1247   -2.0190   -2.9487 H   0  0  0  0  0  0  0  0  0  0  0  0
   -3.6717    0.1182   -1.9368 H   0  0  0  0  0  0  0  0  0  0  0  0
   -3.9992    2.3699   -0.6592 H   0  0  0  0  0  0  0  0  0  0  0  0
   -5.0485    0.9809   -0.3269 H   0  0  0  0  0  0  0  0  0  0  0  0
   -5.3387    1.6451    1.9989 H   0  0  0  0  0  0  0  0  0  0  0  0
   -5.8684    2.9200    0.9097 H   0  0  0  0  0  0  0  0  0  0  0  0
   -4.0841    4.3364    1.4709 H   0  0  0  0  0  0  0  0  0  0  0  0
   -4.4006    3.5204    2.9905 H   0  0  0  0  0  0  0  0  0  0  0  0
   -2.1150    3.1882    2.9185 H   0  0  0  0  0  0  0  0  0  0  0  0
   -2.0451    3.3582    1.1675 H   0  0  0  0  0  0  0  0  0  0  0  0
   -2.9364    0.8530    2.6865 H   0  0  0  0  0  0  0  0  0  0  0  0
   -1.4159    1.1123    1.8131 H   0  0  0  0  0  0  0  0  0  0  0  0
   -1.7774   -1.1427    1.7285 H   0  0  0  0  0  0  0  0  0  0  0  0
   -1.1927   -3.2493    0.6947 H   0  0  0  0  0  0  0  0  0  0  0  0
  1  2  1  0
  2  3  2  0
  3  4  1  0
  4  5  1  0
  5  6  1  0
  6  7  1  0
  7  8  1  0
  8  9  1  0
  9 10  1  0
  9 11  1  0
 11 12  1  0
  4 13  2  0
 13 14  1  0
 14 15  2  0
 15 16  1  0
 16 17  2  0
 16 18  2  0
 16 19  1  0
 19 20  1  0
 20 21  2  0
 21 22  1  0
 22 23  2  0
 23 24  1  0
 24 25  1  0
 25 26  1  0
 26 27  1  0
 27 28  1  0
 28 29  1  0
 23 30  1  0
 30 31  2  0
 15  2  1  0
 31 20  1  0
 12  6  1  0
 29 24  1  0
  1 32  1  0
  1 33  1  0
  1 34  1  0
  3 35  1  0
  5 36  1  0
  5 37  1  0
  7 38  1  0
  7 39  1  0
  8 40  1  0
  8 41  1  0
 10 42  1  0
 10 43  1  0
 10 44  1  0
 11 45  1  0
 11 46  1  0
 12 47  1  0
 12 48  1  0
 13 49  1  0
 14 50  1  0
 19 51  1  0
 21 52  1  0
 22 53  1  0
 25 54  1  0
 25 55  1  0
 26 56  1  0
 26 57  1  0
 27 58  1  0
 27 59  1  0
 28 60  1  0
 28 61  1  0
 29 62  1  0
 29 63  1  0
 30 64  1  0
 31 65  1  0
M  END
$$$$
