
     RDKit          3D

 73 77  0  0  0  0  0  0  0  0999 V2000
   -6.4021   -3.2924    3.9741 C   0  0  0  0  0  0  0  0  0  0  0  0
   -5.3976   -2.4658    3.4015 O   0  0  0  0  0  0  0  0  0  0  0  0
   -5.6419   -1.1194    3.3603 C   0  0  0  0  0  0  0  0  0  0  0  0
   -6.8400   -0.5011    3.7336 C   0  0  0  0  0  0  0  0  0  0  0  0
   -6.9829    0.8891    3.6388 C   0  0  0  0  0  0  0  0  0  0  0  0
   -5.9264    1.6669    3.1707 C   0  0  0  0  0  0  0  0  0  0  0  0
   -6.0752    3.0159    3.0342 O   0  0  0  0  0  0  0  0  0  0  0  0
   -4.7279    1.0572    2.7976 C   0  0  0  0  0  0  0  0  0  0  0  0
   -3.5848    1.8488    2.3249 C   0  0  0  0  0  0  0  0  0  0  0  0
   -2.9397    2.5111    3.1358 O   0  0  0  0  0  0  0  0  0  0  0  0
   -3.2003    1.8234    0.8865 C   0  0  0  0  0  0  0  0  0  0  0  0
   -1.8921    2.1950    0.5435 C   0  0  0  0  0  0  0  0  0  0  0  0
   -1.4867    2.1977   -0.7936 C   0  0  0  0  0  0  0  0  0  0  0  0
   -2.3966    1.8354   -1.7929 C   0  0  0  0  0  0  0  0  0  0  0  0
   -1.9976    1.8500   -3.2217 C   0  0  0  0  0  0  0  0  0  0  0  0
   -2.7418    2.4038   -4.0197 O   0  0  0  0  0  0  0  0  0  0  0  0
   -0.8109    1.1863   -3.4753 N   0  0  0  0  0  0  0  0  0  0  0  0
   -0.1438    1.0437   -4.7211 C   0  0  0  0  0  0  0  0  0  0  0  0
   -0.6204    1.6770   -5.8792 C   0  0  0  0  0  0  0  0  0  0  0  0
    0.0063    1.4864   -7.1102 C   0  0  0  0  0  0  0  0  0  0  0  0
    1.1196    0.6692   -7.1884 C   0  0  0  0  0  0  0  0  0  0  0  0
    1.7285    0.4974   -8.3688 F   0  0  0  0  0  0  0  0  0  0  0  0
    1.6259    0.0399   -6.0587 C   0  0  0  0  0  0  0  0  0  0  0  0
    1.0122    0.2191   -4.8120 C   0  0  0  0  0  0  0  0  0  0  0  0
    1.5474   -0.3825   -3.6420 N   0  0  0  0  0  0  0  0  0  0  0  0
    2.4588   -1.4244   -3.5859 C   0  0  0  0  0  0  0  0  0  0  0  0
    2.9536   -2.0390   -4.5197 O   0  0  0  0  0  0  0  0  0  0  0  0
    2.8203   -1.8455   -2.2122 C   0  0  0  0  0  0  0  0  0  0  0  0
    2.8331   -3.2009   -1.9113 C   0  0  0  0  0  0  0  0  0  0  0  0
    3.1541   -3.5539   -0.6193 C   0  0  0  0  0  0  0  0  0  0  0  0
    3.4694   -2.6593    0.3441 N   0  0  0  0  0  0  0  0  0  0  0  0
    3.5051   -1.3457    0.0333 C   0  0  0  0  0  0  0  0  0  0  0  0
    3.8892   -0.3950    1.0035 N   0  0  0  0  0  0  0  0  0  0  0  0
    5.1832    0.2370    0.6316 C   0  0  0  0  0  0  0  0  0  0  0  0
    5.9328    0.7627    1.8759 C   0  0  0  0  0  0  0  0  0  0  0  0
    6.3097   -0.3171    2.8130 N   0  0  0  0  0  0  0  0  0  0  0  0
    6.6155    0.2259    4.1332 C   0  0  0  0  0  0  0  0  0  0  0  0
    5.2627   -1.3668    2.8738 C   0  0  0  0  0  0  0  0  0  0  0  0
    3.8636   -0.9102    2.3962 C   0  0  0  0  0  0  0  0  0  0  0  0
    3.1711   -0.9051   -1.2427 C   0  0  0  0  0  0  0  0  0  0  0  0
   -3.7099    1.4848   -1.4598 C   0  0  0  0  0  0  0  0  0  0  0  0
   -4.1109    1.4734   -0.1207 C   0  0  0  0  0  0  0  0  0  0  0  0
   -4.5889   -0.3260    2.8936 C   0  0  0  0  0  0  0  0  0  0  0  0
   -3.4323   -0.9059    2.5311 F   0  0  0  0  0  0  0  0  0  0  0  0
   -6.0251   -4.3198    3.9887 H   0  0  0  0  0  0  0  0  0  0  0  0
   -6.6102   -3.0027    5.0065 H   0  0  0  0  0  0  0  0  0  0  0  0
   -7.3145   -3.2767    3.3688 H   0  0  0  0  0  0  0  0  0  0  0  0
   -7.6859   -1.0733    4.0990 H   0  0  0  0  0  0  0  0  0  0  0  0
   -7.9292    1.3421    3.9255 H   0  0  0  0  0  0  0  0  0  0  0  0
   -6.8826    3.3061    3.4951 H   0  0  0  0  0  0  0  0  0  0  0  0
   -1.1906    2.4937    1.3236 H   0  0  0  0  0  0  0  0  0  0  0  0
   -0.4799    2.5245   -1.0419 H   0  0  0  0  0  0  0  0  0  0  0  0
   -0.4709    0.6321   -2.7104 H   0  0  0  0  0  0  0  0  0  0  0  0
   -1.4923    2.3228   -5.8637 H   0  0  0  0  0  0  0  0  0  0  0  0
   -0.3738    1.9714   -8.0029 H   0  0  0  0  0  0  0  0  0  0  0  0
    2.5173   -0.5624   -6.1893 H   0  0  0  0  0  0  0  0  0  0  0  0
    1.1765   -0.0799   -2.7570 H   0  0  0  0  0  0  0  0  0  0  0  0
    2.5912   -3.9523   -2.6567 H   0  0  0  0  0  0  0  0  0  0  0  0
    3.1716   -4.5942   -0.3061 H   0  0  0  0  0  0  0  0  0  0  0  0
    5.8397   -0.4758    0.1119 H   0  0  0  0  0  0  0  0  0  0  0  0
    4.9953    1.0712   -0.0495 H   0  0  0  0  0  0  0  0  0  0  0  0
    6.8434    1.2788    1.5488 H   0  0  0  0  0  0  0  0  0  0  0  0
    5.2984    1.5084    2.3755 H   0  0  0  0  0  0  0  0  0  0  0  0
    6.9968   -0.5651    4.7903 H   0  0  0  0  0  0  0  0  0  0  0  0
    7.4044    0.9829    4.0622 H   0  0  0  0  0  0  0  0  0  0  0  0
    5.7389    0.6827    4.6115 H   0  0  0  0  0  0  0  0  0  0  0  0
    5.6014   -2.1932    2.2332 H   0  0  0  0  0  0  0  0  0  0  0  0
    5.1822   -1.7892    3.8827 H   0  0  0  0  0  0  0  0  0  0  0  0
    3.5199   -0.0897    3.0402 H   0  0  0  0  0  0  0  0  0  0  0  0
    3.1256   -1.7112    2.5415 H   0  0  0  0  0  0  0  0  0  0  0  0
    3.2022    0.1537   -1.4741 H   0  0  0  0  0  0  0  0  0  0  0  0
   -4.4213    1.2309   -2.2423 H   0  0  0  0  0  0  0  0  0  0  0  0
   -5.1402    1.2183    0.1133 H   0  0  0  0  0  0  0  0  0  0  0  0
  1  2  1  0
  2  3  1  0
  3  4  2  0
  4  5  1  0
  5  6  2  0
  6  7  1  0
  6  8  1  0
  8  9  1  0
  9 10  2  0
  9 11  1  0
 11 12  2  0
 12 13  1  0
 13 14  2  0
 14 15  1  0
 15 16  2  0
 15 17  1  0
 17 18  1  0
 18 19  2  0
 19 20  1  0
 20 21  2  0
 21 22  1  0
 21 23  1  0
 23 24  2  0
 24 25  1  0
 25 26  1  0
 26 27  2  0
 26 28  1  0
 28 29  2  0
 29 30  1  0
 30 31  2  0
 31 32  1  0
 32 33  1  0
 33 34  1  0
 34 35  1  0
 35 36  1  0
 36 37  1  0
 36 38  1  0
 38 39  1  0
 32 40  2  0
 14 41  1  0
 41 42  2  0
  8 43  2  0
 43 44  1  0
 43  3  1  0
 42 11  1  0
 24 18  1  0
 40 28  1  0
 39 33  1  0
  1 45  1  0
  1 46  1  0
  1 47  1  0
  4 48  1  0
  5 49  1  0
  7 50  1  0
 12 51  1  0
 13 52  1  0
 17 53  1  0
 19 54  1  0
 20 55  1  0
 23 56  1  0
 25 57  1  0
 29 58  1  0
 30 59  1  0
 34 60  1  0
 34 61  1  0
 35 62  1  0
 35 63  1  0
 37 64  1  0
 37 65  1  0
 37 66  1  0
 38 67  1  0
 38 68  1  0
 39 69  1  0
 39 70  1  0
 40 71  1  0
 41 72  1  0
 42 73  1  0
M  END
$$$$
