
     RDKit          3D

 81 86  0  0  0  0  0  0  0  0999 V2000
   -2.8737    3.5038   -2.5373 C   0  0  0  0  0  0  0  0  0  0  0  0
   -1.4269    3.0120   -2.4395 C   0  0  0  0  0  0  0  0  0  0  0  0
   -0.5211    3.7623   -3.4285 C   0  0  0  0  0  0  0  0  0  0  0  0
   -0.8980    3.1120   -1.0110 C   0  0  0  0  0  0  0  0  0  0  0  0
   -0.6839    4.3949   -0.4629 C   0  0  0  0  0  0  0  0  0  0  0  0
   -0.1386    4.5619    0.8048 C   0  0  0  0  0  0  0  0  0  0  0  0
    0.2359    3.4482    1.5435 C   0  0  0  0  0  0  0  0  0  0  0  0
    0.0243    2.1547    1.0422 C   0  0  0  0  0  0  0  0  0  0  0  0
    0.5158    1.0377    1.8710 C   0  0  0  0  0  0  0  0  0  0  0  0
    1.7988    0.6282    1.8800 C   0  0  0  0  0  0  0  0  0  0  0  0
    2.2115   -0.4673    2.7541 C   0  0  0  0  0  0  0  0  0  0  0  0
    3.4934   -0.8563    2.8254 C   0  0  0  0  0  0  0  0  0  0  0  0
    4.5096   -0.1932    2.0452 C   0  0  0  0  0  0  0  0  0  0  0  0
    3.9873    0.8723    1.1637 C   0  0  0  0  0  0  0  0  0  0  0  0
    2.7444    1.2373    1.0805 N   0  0  0  0  0  0  0  0  0  0  0  0
    5.8029   -0.5818    2.1630 C   0  0  0  0  0  0  0  0  0  0  0  0
    6.8665    0.0348    1.5129 N   0  0  0  0  0  0  0  0  0  0  0  0
    7.9653   -0.6886    0.8840 C   0  0  0  0  0  0  0  0  0  0  0  0
    9.1809    0.1874    0.9176 C   0  0  0  0  0  0  0  0  0  0  0  0
   10.5660   -0.4137    0.8981 C   0  0  0  0  0  0  0  0  0  0  0  0
   10.0482    0.2327    2.1512 C   0  0  0  0  0  0  0  0  0  0  0  0
    6.0751   -1.6415    3.0257 N   0  0  0  0  0  0  0  0  0  0  0  0
    5.1910   -2.3046    3.8354 N   0  0  0  0  0  0  0  0  0  0  0  0
    3.9511   -1.9350    3.7244 C   0  0  0  0  0  0  0  0  0  0  0  0
   -0.5997    1.9668   -0.2189 C   0  0  0  0  0  0  0  0  0  0  0  0
   -0.9070    0.5528   -0.7000 C   0  0  0  0  0  0  0  0  0  0  0  0
   -2.3121    0.3500   -1.1096 N   0  0  0  0  0  0  0  0  0  0  0  0
   -3.2633    0.5014    0.0186 C   0  0  0  0  0  0  0  0  0  0  0  0
   -4.7209    0.2911   -0.4590 C   0  0  0  0  0  0  0  0  0  0  0  0
   -4.8882   -1.0170   -1.0973 N   0  0  0  0  0  0  0  0  0  0  0  0
   -5.2079   -2.0808   -0.2586 C   0  0  0  0  0  0  0  0  0  0  0  0
   -5.2574   -1.9534    0.9650 O   0  0  0  0  0  0  0  0  0  0  0  0
   -5.4599   -3.3009   -0.8679 N   0  0  0  0  0  0  0  0  0  0  0  0
   -5.6055   -4.4804   -0.0129 C   0  0  0  0  0  0  0  0  0  0  0  0
   -7.0848   -4.8223    0.1879 C   0  0  0  0  0  0  0  0  0  0  0  0
   -7.7367   -5.0221   -1.0812 O   0  0  0  0  0  0  0  0  0  0  0  0
   -7.6612   -3.8302   -1.8764 C   0  0  0  0  0  0  0  0  0  0  0  0
   -6.2045   -3.4187   -2.1341 C   0  0  0  0  0  0  0  0  0  0  0  0
   -3.9402   -1.2020   -2.2067 C   0  0  0  0  0  0  0  0  0  0  0  0
   -2.4847   -0.9762   -1.7373 C   0  0  0  0  0  0  0  0  0  0  0  0
   -3.5108    3.0226   -1.7873 H   0  0  0  0  0  0  0  0  0  0  0  0
   -2.9494    4.5852   -2.3854 H   0  0  0  0  0  0  0  0  0  0  0  0
   -3.2878    3.2824   -3.5281 H   0  0  0  0  0  0  0  0  0  0  0  0
   -1.4041    1.9723   -2.7780 H   0  0  0  0  0  0  0  0  0  0  0  0
   -0.8410    3.5755   -4.4581 H   0  0  0  0  0  0  0  0  0  0  0  0
    0.5209    3.4285   -3.3344 H   0  0  0  0  0  0  0  0  0  0  0  0
   -0.5442    4.8463   -3.2708 H   0  0  0  0  0  0  0  0  0  0  0  0
   -0.9335    5.2870   -1.0344 H   0  0  0  0  0  0  0  0  0  0  0  0
    0.0258    5.5606    1.2027 H   0  0  0  0  0  0  0  0  0  0  0  0
    0.7125    3.5894    2.5118 H   0  0  0  0  0  0  0  0  0  0  0  0
   -0.2358    0.5719    2.4999 H   0  0  0  0  0  0  0  0  0  0  0  0
    1.4525   -0.9438    3.3658 H   0  0  0  0  0  0  0  0  0  0  0  0
    4.7078    1.3827    0.5100 H   0  0  0  0  0  0  0  0  0  0  0  0
    6.6114    0.8567    0.9751 H   0  0  0  0  0  0  0  0  0  0  0  0
    8.1666   -1.6469    1.3773 H   0  0  0  0  0  0  0  0  0  0  0  0
    7.6994   -0.9095   -0.1583 H   0  0  0  0  0  0  0  0  0  0  0  0
    9.0294    1.1121    0.3702 H   0  0  0  0  0  0  0  0  0  0  0  0
   11.3394    0.1098    0.3453 H   0  0  0  0  0  0  0  0  0  0  0  0
   10.6676   -1.4940    0.8958 H   0  0  0  0  0  0  0  0  0  0  0  0
   10.4701    1.1862    2.4392 H   0  0  0  0  0  0  0  0  0  0  0  0
    9.7815   -0.4023    2.9920 H   0  0  0  0  0  0  0  0  0  0  0  0
    7.0617   -1.7243    3.2599 H   0  0  0  0  0  0  0  0  0  0  0  0
    3.1840   -2.4309    4.3436 H   0  0  0  0  0  0  0  0  0  0  0  0
   -0.2320    0.3548   -1.5432 H   0  0  0  0  0  0  0  0  0  0  0  0
   -0.6597   -0.1938    0.0598 H   0  0  0  0  0  0  0  0  0  0  0  0
   -3.1959    1.5065    0.4509 H   0  0  0  0  0  0  0  0  0  0  0  0
   -3.0251   -0.2147    0.8151 H   0  0  0  0  0  0  0  0  0  0  0  0
   -4.9905    1.0572   -1.1966 H   0  0  0  0  0  0  0  0  0  0  0  0
   -5.4133    0.3927    0.3848 H   0  0  0  0  0  0  0  0  0  0  0  0
   -5.0918   -5.3100   -0.5233 H   0  0  0  0  0  0  0  0  0  0  0  0
   -5.1172   -4.3297    0.9568 H   0  0  0  0  0  0  0  0  0  0  0  0
   -7.6115   -4.0333    0.7443 H   0  0  0  0  0  0  0  0  0  0  0  0
   -7.1800   -5.7572    0.7529 H   0  0  0  0  0  0  0  0  0  0  0  0
   -8.1488   -4.0418   -2.8329 H   0  0  0  0  0  0  0  0  0  0  0  0
   -8.2149   -3.0264   -1.3782 H   0  0  0  0  0  0  0  0  0  0  0  0
   -6.2070   -2.4884   -2.7047 H   0  0  0  0  0  0  0  0  0  0  0  0
   -5.6873   -4.1899   -2.7198 H   0  0  0  0  0  0  0  0  0  0  0  0
   -4.0061   -2.1973   -2.6464 H   0  0  0  0  0  0  0  0  0  0  0  0
   -4.1996   -0.4734   -2.9818 H   0  0  0  0  0  0  0  0  0  0  0  0
   -2.2067   -1.7689   -1.0328 H   0  0  0  0  0  0  0  0  0  0  0  0
   -1.8288   -1.0579   -2.6138 H   0  0  0  0  0  0  0  0  0  0  0  0
  1  2  1  0
  2  3  1  0
  2  4  1  0
  4  5  2  0
  5  6  1  0
  6  7  2  0
  7  8  1  0
  8  9  1  0
  9 10  2  3
 10 11  1  0
 11 12  2  0
 12 13  1  0
 13 14  1  0
 14 15  2  0
 13 16  2  0
 16 17  1  0
 17 18  1  0
 18 19  1  0
 19 20  1  0
 20 21  1  0
 16 22  1  0
 22 23  1  0
 23 24  2  0
  8 25  2  0
 25 26  1  0
 26 27  1  0
 27 28  1  0
 28 29  1  0
 29 30  1  0
 30 31  1  0
 31 32  2  0
 31 33  1  0
 33 34  1  0
 34 35  1  0
 35 36  1  0
 36 37  1  0
 37 38  1  0
 30 39  1  0
 39 40  1  0
 25  4  1  0
 40 27  1  0
 15 10  1  0
 21 19  1  0
 38 33  1  0
 24 12  1  0
  1 41  1  0
  1 42  1  0
  1 43  1  0
  2 44  1  0
  3 45  1  0
  3 46  1  0
  3 47  1  0
  5 48  1  0
  6 49  1  0
  7 50  1  0
  9 51  1  0
 11 52  1  0
 14 53  1  0
 17 54  1  0
 18 55  1  0
 18 56  1  0
 19 57  1  0
 20 58  1  0
 20 59  1  0
 21 60  1  0
 21 61  1  0
 22 62  1  0
 24 63  1  0
 26 64  1  0
 26 65  1  0
 28 66  1  0
 28 67  1  0
 29 68  1  0
 29 69  1  0
 34 70  1  0
 34 71  1  0
 35 72  1  0
 35 73  1  0
 37 74  1  0
 37 75  1  0
 38 76  1  0
 38 77  1  0
 39 78  1  0
 39 79  1  0
 40 80  1  0
 40 81  1  0
M  END
$$$$
