MODEL        9USER    Run = 9USERUSER    Estimated Free Energy of Binding    =  -8.03 kcal/mol  [=(1)+(2)+(3)-(4)]USERUSER    (1) Final Intermolecular Energy     = -12.80 kcal/molUSER        vdW + Hbond + desolv Energy     = -13.13 kcal/molUSER        Electrostatic Energy            =  -0.30 kcal/molUSER        Moving Ligand-Fixed Receptor    = -13.43 kcal/molUSER        Moving Ligand-Moving Receptor   =  +0.63 kcal/molUSER    (2) Final Total Internal Energy     =  -2.09 kcal/molUSER    (3) Torsional Free Energy           =  +4.77 kcal/molUSER    (4) Unbound System's Energy         =  -2.09 kcal/molUSERUSERREMARK SMILES COc1ccc(O)c(C(=O)c2ccc(C(=O)N[C@@H]3CCCNC[C@@H]3NC(=O)c3cnn(C)c3CO)cc2)c1FREMARK SMILES IDX 18 1 17 3 15 4 16 5 14 7 11 8 12 9 37 10 13 11 36 12 9 13REMARK SMILES IDX 10 14 8 15 3 16 4 17 38 18 5 19 6 20 39 21 2 22 1 23 7 24REMARK SMILES IDX 24 26 23 27 22 28 21 30 20 31 19 32 25 34 26 35 27 37 28 38REMARK SMILES IDX 29 39 33 40 30 41 31 42 32 43 34 44 35 45REMARK H PARENT 17 6 7 25 22 29 25 36 35 46REMARK Flexibility Score:  100.900USER                              x       y       z     vdW  Elec       q    TypeUSER                           _______ _______ _______ _____ _____    ______ ____ROOTATOM      1  C   UNL     1      37.878  45.750  14.450 -0.39 -0.04    +0.106 CG0ATOM      2  G   UNL     1      38.030  47.034  13.618 +0.00 +0.00    +0.000 G0 ENDROOTBRANCH   1   3ATOM      3  N   UNL     1      38.793  45.739  15.592 -0.13 +0.09    -0.347 N  ATOM      4  C   UNL     1      39.944  46.499  15.598 -0.32 -0.04    +0.251 C  ATOM      5  O   UNL     1      40.374  47.080  14.608 -0.32 +0.03    -0.269 OA ATOM      6  H   UNL     1      38.344  45.553  16.484 +0.11 -0.05    +0.164 HD BRANCH   4   7ATOM      7  C   UNL     1      40.658  46.623  16.902 -0.45 -0.00    +0.039 A  ATOM      8  C   UNL     1      41.976  46.747  19.377 -0.46 +0.00    +0.023 A  ATOM      9  C   UNL     1      42.012  47.843  18.508 -0.37 -0.00    +0.013 A  ATOM     10  C   UNL     1      41.247  45.605  19.028 -0.45 +0.00    +0.013 A  ATOM     11  C   UNL     1      41.358  47.781  17.272 -0.45 -0.00    +0.014 A  ATOM     12  C   UNL     1      40.595  45.543  17.795 -0.43 -0.00    +0.014 A  BRANCH   8  13ATOM     13  C   UNL     1      42.632  46.786  20.705 -0.31 +0.05    +0.199 C  ATOM     14  O   UNL     1      43.856  46.650  20.768 -0.37 -0.21    -0.288 OA BRANCH  13  15ATOM     15  C   UNL     1      41.884  46.931  21.974 -0.16 +0.01    +0.104 A  ATOM     16  C   UNL     1      40.095  46.266  23.494 -0.17 +0.01    +0.155 A  ATOM     17  C   UNL     1      40.505  47.245  24.400 -0.21 +0.00    +0.053 A  ATOM     18  C   UNL     1      40.788  46.122  22.282 -0.15 +0.02    +0.179 A  ATOM     19  C   UNL     1      41.581  48.080  24.089 -0.29 +0.01    +0.051 A  ATOM     20  C   UNL     1      42.255  47.932  22.879 -0.20 +0.02    +0.130 A  ATOM     21  F   UNL     1      40.360  45.202  21.403 -0.06 -0.01    -0.202 F  BRANCH  16  22ATOM     22  O   UNL     1      39.051  45.400  23.680 -0.05 -0.04    -0.494 OA ATOM     23  C   UNL     1      39.371  44.029  23.889 -0.11 +0.01    +0.278 C  ENDBRANCH  16  22BRANCH  20  24ATOM     24  O   UNL     1      43.278  48.811  22.641 -0.61 -0.12    -0.507 OA ATOM     25  H   UNL     1      43.726  48.534  21.808 -0.44 -0.01    +0.293 HD ENDBRANCH  20  24ENDBRANCH  13  15ENDBRANCH   8  13ENDBRANCH   4   7ENDBRANCH   1   3BRANCH   1  26ATOM     26  C   UNL     1      36.408  45.501  14.878 -0.36 -0.06    +0.118 C  BRANCH  26  27ATOM     27  C   UNL     1      35.445  46.683  14.609 -0.29 -0.10    +0.108 C  BRANCH  27  28ATOM     28  N   UNL     1      35.044  46.952  13.224 -0.25 +0.24    -0.315 NA ATOM     29  H   UNL     1      34.112  46.554  13.088 -0.39 -0.11    +0.122 HD BRANCH  28  30ATOM     30  C   UNL     1      35.948  46.368  12.234 -0.63 -0.04    +0.081 C  BRANCH  30  31ATOM     31  C   UNL     1      37.314  47.048  12.266 -0.67 -0.00    +0.017 C  BRANCH  31  32ATOM     32  C   UNL     1      38.029  47.034  13.617 -0.53 -0.01    +0.028 CG0ATOM     33  G   UNL     1      37.882  45.755  14.460 +0.00 +0.00    +0.000 G0 ENDBRANCH  31  32ENDBRANCH  30  31ENDBRANCH  28  30ENDBRANCH  27  28ENDBRANCH  26  27BRANCH  26  34ATOM     34  N   UNL     1      36.350  45.149  16.305 -0.10 +0.16    -0.346 N  ATOM     35  C   UNL     1      36.336  43.831  16.708 -0.24 -0.08    +0.255 C  ATOM     36  H   UNL     1      36.761  45.821  16.939 +0.11 -0.08    +0.164 HD ATOM     37  O   UNL     1      36.207  42.899  15.917 -0.38 +0.09    -0.269 OA BRANCH  35  38ATOM     38  C   UNL     1      36.508  43.606  18.137 -0.19 -0.02    +0.083 A  ATOM     39  C   UNL     1      37.506  44.062  19.025 -0.21 -0.02    +0.149 A  ATOM     40  C   UNL     1      35.663  42.851  18.945 -0.32 -0.01    +0.076 A  ATOM     41  N   UNL     1      37.332  43.627  20.274 -0.25 +0.01    -0.181 NA ATOM     42  N   UNL     1      36.233  42.855  20.192 -0.25 +0.01    -0.269 N  ATOM     43  C   UNL     1      35.785  42.146  21.370 -0.36 +0.01    +0.174 C  BRANCH  40  44ATOM     44  C   UNL     1      34.393  42.152  18.627 -0.32 -0.04    +0.212 C  BRANCH  44  45ATOM     45  O   UNL     1      34.464  41.748  17.271 -0.26 +0.18    -0.390 OA ATOM     46  H   UNL     1      34.612  40.779  17.294 -0.43 -0.18    +0.211 HD ENDBRANCH  44  45ENDBRANCH  40  44ENDBRANCH  35  38ENDBRANCH  26  34ENDBRANCH   1  26TORSDOF 10TERENDMDL