MODEL        7USER    Run = 7USERUSER    Estimated Free Energy of Binding    =  -8.05 kcal/mol  [=(1)+(2)+(3)-(4)]USERUSER    (1) Final Intermolecular Energy     = -12.82 kcal/molUSER        vdW + Hbond + desolv Energy     = -12.91 kcal/molUSER        Electrostatic Energy            =  -0.24 kcal/molUSER        Moving Ligand-Fixed Receptor    = -13.15 kcal/molUSER        Moving Ligand-Moving Receptor   =  +0.33 kcal/molUSER    (2) Final Total Internal Energy     =  -4.25 kcal/molUSER    (3) Torsional Free Energy           =  +4.77 kcal/molUSER    (4) Unbound System's Energy         =  -4.25 kcal/molUSERUSERREMARK SMILES COc1ccc(O)c(C(=O)c2ccc(C(=O)N[C@@H]3CCCNC[C@H]3NC(=O)c3cccc(CN4CCO4)n3)cc2)c1FREMARK SMILES IDX 18 1 17 3 15 4 16 5 14 7 11 8 12 9 40 10 13 11 39 12 9 13REMARK SMILES IDX 10 14 8 15 3 16 4 17 41 18 5 19 6 20 42 21 2 22 1 23 7 24REMARK SMILES IDX 24 26 23 27 22 28 21 30 20 31 19 32 25 34 26 35 27 37 28 38REMARK SMILES IDX 29 39 38 40 30 41 32 42 31 43 33 44 34 45 35 46 37 47 36 48REMARK H PARENT 17 6 7 25 22 29 25 36REMARK Flexibility Score:  123.900USER                              x       y       z     vdW  Elec       q    TypeUSER                           _______ _______ _______ _____ _____    ______ ____ROOTATOM      1  C   UNL     1      37.650  46.146  15.282 -0.37 -0.04    +0.106 CG0ATOM      2  G   UNL     1      37.872  47.122  14.118 +0.00 +0.00    +0.000 G0 ENDROOTBRANCH   1   3ATOM      3  N   UNL     1      38.688  46.298  16.314 -0.16 +0.11    -0.347 N  ATOM      4  C   UNL     1      38.976  45.272  17.191 -0.19 -0.05    +0.251 C  ATOM      5  O   UNL     1      38.432  44.173  17.163 -0.15 +0.05    -0.269 OA ATOM      6  H   UNL     1      38.743  47.225  16.740 +0.10 -0.06    +0.164 HD BRANCH   4   7ATOM      7  C   UNL     1      39.981  45.581  18.248 -0.43 -0.00    +0.039 A  ATOM      8  C   UNL     1      41.823  46.299  20.238 -0.38 +0.00    +0.023 A  ATOM      9  C   UNL     1      41.805  46.987  19.016 -0.50 +0.00    +0.013 A  ATOM     10  C   UNL     1      40.946  45.229  20.449 -0.36 +0.00    +0.013 A  ATOM     11  C   UNL     1      40.877  46.634  18.030 -0.51 -0.00    +0.014 A  ATOM     12  C   UNL     1      40.020  44.877  19.460 -0.40 -0.00    +0.014 A  BRANCH   8  13ATOM     13  C   UNL     1      42.802  46.635  21.301 -0.29 +0.05    +0.199 C  ATOM     14  O   UNL     1      43.952  46.938  20.976 -0.46 -0.18    -0.288 OA BRANCH  13  15ATOM     15  C   UNL     1      42.442  46.693  22.733 -0.19 +0.02    +0.104 A  ATOM     16  C   UNL     1      41.695  45.633  24.800 -0.04 +0.01    +0.155 A  ATOM     17  C   UNL     1      41.725  46.872  25.442 -0.10 +0.00    +0.053 A  ATOM     18  C   UNL     1      42.062  45.554  23.449 -0.07 +0.02    +0.179 A  ATOM     19  C   UNL     1      42.137  48.011  24.746 -0.24 +0.01    +0.051 A  ATOM     20  C   UNL     1      42.506  47.918  23.407 -0.26 +0.02    +0.130 A  ATOM     21  F   UNL     1      42.073  44.349  22.857 -0.02 -0.02    -0.202 F  BRANCH  16  22ATOM     22  O   UNL     1      41.336  44.445  25.380 +0.02 -0.01    -0.494 OA ATOM     23  C   UNL     1      42.377  43.519  25.669 -0.06 -0.01    +0.278 C  ENDBRANCH  16  22BRANCH  20  24ATOM     24  O   UNL     1      42.928  49.079  22.814 -0.74 -0.18    -0.507 OA ATOM     25  H   UNL     1      43.461  48.840  22.021 -0.41 +0.01    +0.293 HD ENDBRANCH  20  24ENDBRANCH  13  15ENDBRANCH   8  13ENDBRANCH   4   7ENDBRANCH   1   3BRANCH   1  26ATOM     26  C   UNL     1      36.235  46.206  15.937 -0.35 -0.08    +0.118 C  BRANCH  26  27ATOM     27  C   UNL     1      35.055  46.137  14.938 -0.32 -0.10    +0.108 C  BRANCH  27  28ATOM     28  N   UNL     1      35.104  46.932  13.700 -0.22 +0.26    -0.315 NA ATOM     29  H   UNL     1      35.480  47.855  13.923 +0.09 -0.11    +0.122 HD BRANCH  28  30ATOM     30  C   UNL     1      35.898  46.352  12.623 -0.61 -0.04    +0.081 C  BRANCH  30  31ATOM     31  C   UNL     1      37.391  46.646  12.746 -0.61 -0.01    +0.017 C  BRANCH  31  32ATOM     32  C   UNL     1      37.873  47.125  14.117 -0.53 -0.01    +0.028 CG0ATOM     33  G   UNL     1      37.651  46.150  15.283 +0.00 +0.00    +0.000 G0 ENDBRANCH  31  32ENDBRANCH  30  31ENDBRANCH  28  30ENDBRANCH  27  28ENDBRANCH  26  27BRANCH  26  34ATOM     34  N   UNL     1      36.100  45.145  16.945 -0.10 +0.16    -0.345 N  ATOM     35  C   UNL     1      35.438  45.350  18.138 -0.23 -0.11    +0.270 C  ATOM     36  H   UNL     1      36.792  44.397  16.979 +0.11 -0.05    +0.164 HD ATOM     37  O   UNL     1      34.727  46.326  18.361 -0.47 +0.17    -0.268 OA BRANCH  35  38ATOM     38  C   UNL     1      35.697  44.291  19.171 -0.29 -0.02    +0.128 A  ATOM     39  C   UNL     1      34.981  43.104  19.145 -0.38 -0.00    +0.034 A  ATOM     40  N   UNL     1      36.634  44.601  20.113 -0.18 +0.02    -0.246 NA ATOM     41  C   UNL     1      35.243  42.167  20.137 -0.41 -0.00    +0.004 A  ATOM     42  C   UNL     1      36.853  43.683  21.093 -0.38 +0.00    +0.058 A  ATOM     43  C   UNL     1      36.190  42.455  21.119 -0.47 +0.00    +0.025 A  BRANCH  42  44ATOM     44  C   UNL     1      37.888  44.035  22.153 -0.31 +0.01    +0.171 C  BRANCH  44  45ATOM     45  N   UNL     1      37.310  44.571  23.399 -0.27 -0.03    -0.181 NA ATOM     46  C   UNL     1      37.862  43.867  24.573 -0.25 +0.01    +0.146 C  ATOM     47  O   UNL     1      38.078  45.787  23.703 -0.37 -0.05    -0.297 OA ATOM     48  C   UNL     1      38.411  45.239  25.008 -0.18 +0.01    +0.204 C  ENDBRANCH  44  45ENDBRANCH  42  44ENDBRANCH  35  38ENDBRANCH  26  34ENDBRANCH   1  26TORSDOF 10TERENDMDL