MODEL        10USER    Run = 10USERUSER    Estimated Free Energy of Binding    =  -7.83 kcal/mol  [=(1)+(2)+(3)-(4)]USERUSER    (1) Final Intermolecular Energy     = -12.30 kcal/molUSER        vdW + Hbond + desolv Energy     = -12.10 kcal/molUSER        Electrostatic Energy            =  -0.32 kcal/molUSER        Moving Ligand-Fixed Receptor    = -12.42 kcal/molUSER        Moving Ligand-Moving Receptor   =  +0.12 kcal/molUSER    (2) Final Total Internal Energy     =  -2.79 kcal/molUSER    (3) Torsional Free Energy           =  +4.47 kcal/molUSER    (4) Unbound System's Energy         =  -2.79 kcal/molUSERUSERREMARK SMILES COc1ccc(O)c(C(=O)c2ccc(C(=O)N[C@@H]3CCCNC[C@H]3NC(=O)c3cn(C)nc3C#N)cc2)c1FREMARK SMILES IDX 15 1 16 2 17 3 14 5 11 6 12 7 37 8 13 9 36 10 9 11 10 12REMARK SMILES IDX 8 13 3 14 4 15 38 16 5 17 6 18 39 19 2 20 1 21 7 22 18 24REMARK SMILES IDX 19 25 24 27 23 28 22 29 21 31 20 32 25 34 26 35 27 37 28 38REMARK SMILES IDX 29 39 33 40 30 41 32 42 31 43 34 44 35 45REMARK H PARENT 17 4 7 23 22 30 25 36REMARK Flexibility Score:   72.900USER                              x       y       z     vdW  Elec       q    TypeUSER                           _______ _______ _______ _____ _____    ______ ____ROOTATOM      1  C   UNL     1      39.490  47.202  16.255 -0.35 -0.07    +0.251 C  ATOM      2  O   UNL     1      39.367  48.236  15.609 -0.35 +0.11    -0.269 OA ATOM      3  N   UNL     1      38.782  46.048  15.997 -0.14 +0.10    -0.347 N  ATOM      4  H   UNL     1      38.711  45.362  16.744 +0.11 -0.04    +0.164 HD ENDROOTBRANCH   1   5ATOM      5  C   UNL     1      40.414  47.153  17.419 -0.48 -0.01    +0.039 A  ATOM      6  C   UNL     1      42.122  46.981  19.631 -0.43 +0.00    +0.023 A  ATOM      7  C   UNL     1      41.056  46.082  19.501 -0.42 +0.00    +0.013 A  ATOM      8  C   UNL     1      42.306  47.992  18.680 -0.33 +0.00    +0.013 A  ATOM      9  C   UNL     1      40.206  46.168  18.395 -0.46 -0.00    +0.014 A  ATOM     10  C   UNL     1      41.456  48.077  17.572 -0.48 -0.00    +0.014 A  BRANCH   6  11ATOM     11  C   UNL     1      43.035  46.937  20.797 -0.33 +0.06    +0.199 C  ATOM     12  O   UNL     1      44.234  47.157  20.618 -0.50 -0.22    -0.288 OA BRANCH  11  13ATOM     13  C   UNL     1      42.569  46.685  22.180 -0.23 +0.02    +0.104 A  ATOM     14  C   UNL     1      41.587  45.235  23.879 -0.07 +0.01    +0.155 A  ATOM     15  C   UNL     1      41.685  46.266  24.814 -0.09 +0.00    +0.053 A  ATOM     16  C   UNL     1      42.040  45.452  22.570 -0.12 +0.02    +0.179 A  ATOM     17  C   UNL     1      42.245  47.492  24.446 -0.18 +0.01    +0.051 A  ATOM     18  C   UNL     1      42.695  47.693  23.143 -0.25 +0.02    +0.130 A  ATOM     19  F   UNL     1      41.982  44.436  21.693 -0.06 -0.03    -0.202 F  BRANCH  14  20ATOM     20  O   UNL     1      41.075  43.988  24.124 -0.00 -0.01    -0.494 OA ATOM     21  C   UNL     1      42.003  42.941  24.380 -0.11 -0.01    +0.278 C  ENDBRANCH  14  20BRANCH  18  22ATOM     22  O   UNL     1      43.256  48.913  22.877 -0.68 -0.16    -0.507 OA ATOM     23  H   UNL     1      43.787  48.830  22.052 -0.44 +0.00    +0.293 HD ENDBRANCH  18  22ENDBRANCH  11  13ENDBRANCH   6  11ENDBRANCH   1   5BRANCH   3  24ATOM     24  C   UNL     1      37.692  46.014  15.023 -0.37 -0.04    +0.106 C  BRANCH  24  25ATOM     25  C   UNL     1      38.039  46.876  13.793 -0.52 -0.01    +0.028 CG0ATOM     26  G   UNL     1      37.404  46.468  12.464 +0.00 +0.00    +0.000 G0 ENDBRANCH  24  25BRANCH  24  27ATOM     27  C   UNL     1      36.321  46.334  15.683 -0.35 -0.09    +0.118 C  BRANCH  27  28ATOM     28  C   UNL     1      35.172  46.643  14.686 -0.15 -0.11    +0.108 C  BRANCH  28  29ATOM     29  N   UNL     1      35.183  45.966  13.384 -0.11 +0.20    -0.315 NA ATOM     30  H   UNL     1      35.623  45.053  13.513 +0.09 -0.06    +0.122 HD BRANCH  29  31ATOM     31  C   UNL     1      35.901  46.693  12.343 -0.65 -0.04    +0.081 C  BRANCH  31  32ATOM     32  C   UNL     1      37.405  46.468  12.464 -0.54 -0.00    +0.017 CG0ATOM     33  G   UNL     1      38.039  46.877  13.792 +0.00 +0.00    +0.000 G0 ENDBRANCH  31  32ENDBRANCH  29  31ENDBRANCH  28  29ENDBRANCH  27  28BRANCH  27  34ATOM     34  N   UNL     1      35.912  45.327  16.674 -0.10 +0.19    -0.346 N  ATOM     35  C   UNL     1      36.454  45.320  17.943 -0.22 -0.09    +0.256 C  ATOM     36  H   UNL     1      35.078  44.799  16.470 +0.12 -0.09    +0.164 HD ATOM     37  O   UNL     1      37.353  46.093  18.263 -0.12 +0.07    -0.269 OA BRANCH  35  38ATOM     38  C   UNL     1      35.923  44.355  18.896 -0.30 -0.02    +0.095 A  ATOM     39  C   UNL     1      36.712  43.627  19.776 -0.30 -0.01    +0.123 A  ATOM     40  C   UNL     1      34.611  43.911  19.200 -0.26 -0.03    +0.175 A  ATOM     41  N   UNL     1      35.876  42.829  20.495 -0.27 +0.00    -0.274 N  ATOM     42  N   UNL     1      34.583  42.980  20.163 -0.57 -0.01    -0.161 NA ATOM     43  C   UNL     1      36.245  41.886  21.524 -0.47 +0.01    +0.173 C  BRANCH  40  44ATOM     44  C   UNL     1      33.373  44.347  18.627 -0.36 -0.03    +0.122 C  ATOM     45  N   UNL     1      32.413  44.653  18.048 -0.23 +0.04    -0.191 NA ENDBRANCH  40  44ENDBRANCH  35  38ENDBRANCH  27  34ENDBRANCH  24  27ENDBRANCH   3  24TORSDOF 9TERENDMDL