MODEL        4USER    Run = 4USERUSER    Estimated Free Energy of Binding    =  -7.12 kcal/mol  [=(1)+(2)+(3)-(4)]USERUSER    (1) Final Intermolecular Energy     = -11.59 kcal/molUSER        vdW + Hbond + desolv Energy     = -11.28 kcal/molUSER        Electrostatic Energy            =  -0.51 kcal/molUSER        Moving Ligand-Fixed Receptor    = -11.78 kcal/molUSER        Moving Ligand-Moving Receptor   =  +0.19 kcal/molUSER    (2) Final Total Internal Energy     =  -3.63 kcal/molUSER    (3) Torsional Free Energy           =  +4.47 kcal/molUSER    (4) Unbound System's Energy         =  -3.63 kcal/molUSERUSERREMARK SMILES COc1ccc(O)c(C(=O)c2ccc(C(=O)N[C@@H]3CCCN(S(C)(=O)=O)C[C@H]3NC(=O)c3cnn(C)c3)cc2)c1FREMARK SMILES IDX 15 1 16 2 17 3 14 5 11 6 12 7 39 8 13 9 38 10 9 11 10 12REMARK SMILES IDX 8 13 3 14 4 15 40 16 5 17 6 18 41 19 2 20 1 21 7 22 18 24REMARK SMILES IDX 19 25 28 27 27 28 22 29 21 30 20 31 23 33 24 34 25 35 26 36REMARK SMILES IDX 29 37 30 38 31 40 32 41 33 42 37 43 34 44 35 45 36 46REMARK H PARENT 17 4 7 23 29 39REMARK Flexibility Score:   72.900USER                              x       y       z     vdW  Elec       q    TypeUSER                           _______ _______ _______ _____ _____    ______ ____ROOTATOM      1  C   UNL     1      33.430  43.973  17.895 -0.20 -0.08    +0.251 C  ATOM      2  O   UNL     1      33.429  44.309  19.071 -0.29 +0.06    -0.269 OA ATOM      3  N   UNL     1      34.483  44.192  17.028 -0.06 +0.15    -0.347 N  ATOM      4  H   UNL     1      34.226  44.208  16.050 +0.12 -0.08    +0.164 HD ENDROOTBRANCH   1   5ATOM      5  C   UNL     1      32.229  43.315  17.309 -0.28 -0.01    +0.039 A  ATOM      6  C   UNL     1      29.969  42.021  16.273 -0.31 -0.01    +0.023 A  ATOM      7  C   UNL     1      30.411  41.726  17.568 -0.26 -0.00    +0.013 A  ATOM      8  C   UNL     1      30.650  42.976  15.505 -0.31 -0.01    +0.013 A  ATOM      9  C   UNL     1      31.547  42.362  18.077 -0.29 -0.00    +0.014 A  ATOM     10  C   UNL     1      31.783  43.616  16.017 -0.33 -0.01    +0.014 A  BRANCH   6  11ATOM     11  C   UNL     1      28.750  41.402  15.699 -0.27 -0.08    +0.199 C  ATOM     12  O   UNL     1      28.847  40.294  15.165 -0.35 +0.04    -0.288 OA BRANCH  11  13ATOM     13  C   UNL     1      27.427  42.062  15.686 -0.19 -0.05    +0.104 A  ATOM     14  C   UNL     1      25.938  43.888  16.316 -0.24 -0.02    +0.155 A  ATOM     15  C   UNL     1      24.894  43.272  15.622 -0.31 -0.00    +0.053 A  ATOM     16  C   UNL     1      27.196  43.269  16.348 -0.14 -0.06    +0.179 A  ATOM     17  C   UNL     1      25.103  42.047  14.983 -0.25 -0.01    +0.051 A  ATOM     18  C   UNL     1      26.358  41.442  15.028 -0.26 -0.06    +0.130 A  ATOM     19  F   UNL     1      28.183  43.850  17.051 -0.03 +0.04    -0.202 F  BRANCH  14  20ATOM     20  O   UNL     1      25.848  45.075  16.993 -0.47 -0.09    -0.494 OA ATOM     21  C   UNL     1      25.986  45.032  18.408 -0.35 -0.01    +0.278 C  ENDBRANCH  14  20BRANCH  18  22ATOM     22  O   UNL     1      26.470  40.229  14.403 -0.54 +0.13    -0.507 OA ATOM     23  H   UNL     1      27.194  40.298  13.740 -0.02 -0.26    +0.293 HD ENDBRANCH  18  22ENDBRANCH  11  13ENDBRANCH   6  11ENDBRANCH   1   5BRANCH   3  24ATOM     24  C   UNL     1      35.647  45.014  17.392 -0.31 -0.05    +0.106 C  BRANCH  24  25ATOM     25  C   UNL     1      36.039  45.899  16.186 -0.40 -0.02    +0.028 CG0ATOM     26  G   UNL     1      37.041  47.040  16.424 +0.00 +0.00    +0.000 G0 ENDBRANCH  24  25BRANCH  24  27ATOM     27  C   UNL     1      36.848  44.238  18.037 -0.30 -0.03    +0.120 C  BRANCH  27  28ATOM     28  C   UNL     1      38.161  44.362  17.246 -0.21 -0.03    +0.129 C  BRANCH  28  29ATOM     29  N   UNL     1      38.773  45.691  17.509 -0.27 +0.04    -0.200 NA BRANCH  29  30ATOM     30  C   UNL     1      38.521  46.679  16.452 -0.40 -0.04    +0.102 C  BRANCH  30  31ATOM     31  C   UNL     1      37.041  47.040  16.427 -0.34 -0.01    +0.019 CG0ATOM     32  G   UNL     1      36.039  45.900  16.186 +0.00 +0.00    +0.000 G0 ENDBRANCH  30  31ENDBRANCH  29  30BRANCH  29  33ATOM     33  S   UNL     1      40.177  45.792  18.423 -0.49 -0.01    +0.211 S  ATOM     34  C   UNL     1      40.743  44.102  18.446 -0.15 +0.01    +0.176 C  ATOM     35  O   UNL     1      39.794  46.170  19.765 -0.29 +0.00    -0.213 OA ATOM     36  O   UNL     1      41.129  46.583  17.674 -0.39 +0.02    -0.213 OA ENDBRANCH  29  33ENDBRANCH  28  29ENDBRANCH  27  28BRANCH  27  37ATOM     37  N   UNL     1      37.077  44.645  19.434 -0.14 +0.04    -0.346 N  ATOM     38  C   UNL     1      36.801  43.775  20.473 -0.29 -0.01    +0.254 C  ATOM     39  H   UNL     1      37.877  45.244  19.592 +0.09 -0.01    +0.164 HD ATOM     40  O   UNL     1      36.181  42.728  20.316 -0.30 +0.01    -0.269 OA BRANCH  38  41ATOM     41  C   UNL     1      37.310  44.177  21.772 -0.34 +0.00    +0.077 A  ATOM     42  C   UNL     1      38.308  45.149  22.021 -0.25 +0.01    +0.149 A  ATOM     43  C   UNL     1      36.967  43.732  23.036 -0.24 +0.02    +0.122 A  ATOM     44  N   UNL     1      38.573  45.306  23.320 -0.23 -0.02    -0.181 NA ATOM     45  N   UNL     1      37.732  44.445  23.915 -0.18 -0.03    -0.275 N  ATOM     46  C   UNL     1      37.715  44.352  25.355 -0.24 +0.00    +0.173 C  ENDBRANCH  38  41ENDBRANCH  27  37ENDBRANCH  24  27ENDBRANCH   3  24TORSDOF 9TERENDMDL