MODEL        8USER    Run = 8USERUSER    Estimated Free Energy of Binding    =  -7.29 kcal/mol  [=(1)+(2)+(3)-(4)]USERUSER    (1) Final Intermolecular Energy     = -12.06 kcal/molUSER        vdW + Hbond + desolv Energy     = -11.83 kcal/molUSER        Electrostatic Energy            =  -0.45 kcal/molUSER        Moving Ligand-Fixed Receptor    = -12.28 kcal/molUSER        Moving Ligand-Moving Receptor   =  +0.22 kcal/molUSER    (2) Final Total Internal Energy     =  -2.64 kcal/molUSER    (3) Torsional Free Energy           =  +4.77 kcal/molUSER    (4) Unbound System's Energy         =  -2.64 kcal/molUSERUSERREMARK SMILES COc1ccc(O)c(C(=O)c2ccc(/C=C/[C@@H]3CCCN(S(C)(=O)=O)C[C@H]3NC(=O)c3cnn(C)c3)cc2)c1FREMARK SMILES IDX 16 1 15 2 14 3 11 4 12 5 38 6 13 7 37 8 9 9 10 10 8 11 3 12REMARK SMILES IDX 4 13 39 14 5 15 6 16 40 17 2 18 1 19 7 20 17 22 18 23 27 25REMARK SMILES IDX 26 26 21 27 20 28 19 29 22 31 23 32 24 33 25 34 28 35 29 36REMARK SMILES IDX 30 38 31 39 32 40 36 41 33 42 34 43 35 44REMARK H PARENT 7 21 28 37REMARK Flexibility Score:   99.900USER                              x       y       z     vdW  Elec       q    TypeUSER                           _______ _______ _______ _____ _____    ______ ____ROOTATOM      1  C   UNL     1      39.797  42.785  23.384 -0.25 -0.00    -0.021 C  ENDROOTBRANCH   1   2ATOM      2  C   UNL     1      38.500  43.134  23.355 -0.34 +0.00    +0.004 C  BRANCH   2   3ATOM      3  C   UNL     1      37.612  42.913  22.202 -0.38 -0.00    -0.026 A  ATOM      4  C   UNL     1      35.891  42.608  19.997 -0.43 -0.00    +0.023 A  ATOM      5  C   UNL     1      35.961  41.610  20.974 -0.41 -0.00    +0.013 A  ATOM      6  C   UNL     1      36.650  43.773  20.139 -0.40 -0.00    +0.013 A  ATOM      7  C   UNL     1      36.818  41.765  22.070 -0.55 +0.00    +0.009 A  ATOM      8  C   UNL     1      37.507  43.921  21.234 -0.39 +0.00    +0.009 A  BRANCH   4   9ATOM      9  C   UNL     1      34.970  42.501  18.845 -0.33 -0.03    +0.199 C  ATOM     10  O   UNL     1      34.431  41.417  18.615 -0.19 +0.04    -0.288 OA BRANCH   9  11ATOM     11  C   UNL     1      34.702  43.621  17.914 -0.25 -0.03    +0.104 A  ATOM     12  C   UNL     1      35.044  44.766  15.787 -0.22 -0.09    +0.155 A  ATOM     13  C   UNL     1      34.160  45.771  16.188 -0.10 -0.06    +0.053 A  ATOM     14  C   UNL     1      35.311  43.701  16.659 -0.24 -0.07    +0.179 A  ATOM     15  C   UNL     1      33.567  45.716  17.452 -0.32 -0.04    +0.051 A  ATOM     16  C   UNL     1      33.847  44.656  18.311 -0.28 -0.05    +0.130 A  ATOM     17  F   UNL     1      36.192  42.762  16.275 -0.15 +0.07    -0.202 F  BRANCH  12  18ATOM     18  O   UNL     1      35.694  44.717  14.581 -0.04 +0.23    -0.494 OA ATOM     19  C   UNL     1      35.884  45.946  13.893 -0.30 -0.16    +0.278 C  ENDBRANCH  12  18BRANCH  16  20ATOM     20  O   UNL     1      33.246  44.697  19.541 -0.17 +0.12    -0.507 OA ATOM     21  H   UNL     1      33.214  45.638  19.831 -0.27 -0.16    +0.293 HD ENDBRANCH  16  20ENDBRANCH   9  11ENDBRANCH   4   9ENDBRANCH   2   3ENDBRANCH   1   2BRANCH   1  22ATOM     22  C   UNL     1      40.987  43.524  22.777 -0.29 +0.00    +0.035 C  BRANCH  22  23ATOM     23  C   UNL     1      42.306  42.949  23.350 -0.29 -0.00    +0.011 CG0ATOM     24  G   UNL     1      43.520  43.088  22.426 +0.00 +0.00    +0.000 G0 ENDBRANCH  22  23BRANCH  22  25ATOM     25  C   UNL     1      40.913  45.078  22.780 -0.19 +0.01    +0.104 C  BRANCH  25  26ATOM     26  C   UNL     1      42.218  45.784  23.211 -0.14 +0.02    +0.127 C  BRANCH  26  27ATOM     27  N   UNL     1      43.267  45.579  22.150 -0.15 -0.07    -0.200 NA BRANCH  27  28ATOM     28  C   UNL     1      44.193  44.459  22.457 -0.20 +0.04    +0.102 C  BRANCH  28  29ATOM     29  C   UNL     1      43.518  43.087  22.426 -0.34 +0.00    +0.017 CG0ATOM     30  G   UNL     1      42.303  42.949  23.349 +0.00 +0.00    +0.000 G0 ENDBRANCH  28  29ENDBRANCH  27  28BRANCH  27  31ATOM     31  S   UNL     1      44.018  47.035  21.654 -0.36 +0.11    +0.211 S  ATOM     32  C   UNL     1      43.409  48.209  22.849 -0.29 +0.04    +0.176 C  ATOM     33  O   UNL     1      45.439  46.890  21.887 -0.77 -0.27    -0.213 OA ATOM     34  O   UNL     1      43.494  47.377  20.351 -0.40 -0.06    -0.213 OA ENDBRANCH  27  31ENDBRANCH  26  27ENDBRANCH  25  26BRANCH  25  35ATOM     35  N   UNL     1      40.491  45.567  21.460 -0.12 -0.02    -0.347 N  ATOM     36  C   UNL     1      41.041  45.043  20.306 -0.26 +0.02    +0.254 C  ATOM     37  H   UNL     1      39.527  45.859  21.392 +0.08 +0.01    +0.164 HD ATOM     38  O   UNL     1      42.035  44.323  20.312 -0.16 -0.06    -0.269 OA BRANCH  36  39ATOM     39  C   UNL     1      40.366  45.418  19.076 -0.40 -0.00    +0.077 A  ATOM     40  C   UNL     1      40.980  45.774  17.852 -0.36 -0.00    +0.149 A  ATOM     41  C   UNL     1      39.012  45.540  18.811 -0.33 -0.01    +0.122 A  ATOM     42  N   UNL     1      40.097  46.099  16.902 -0.30 +0.02    -0.181 NA ATOM     43  N   UNL     1      38.911  45.947  17.511 -0.23 +0.06    -0.275 N  ATOM     44  C   UNL     1      37.700  46.241  16.785 -0.32 -0.07    +0.173 C  ENDBRANCH  36  39ENDBRANCH  25  35ENDBRANCH  22  25ENDBRANCH   1  22TORSDOF 10TERENDMDL