MODEL        6USER    Run = 6USERUSER    Estimated Free Energy of Binding    =  -7.36 kcal/mol  [=(1)+(2)+(3)-(4)]USERUSER    (1) Final Intermolecular Energy     = -11.83 kcal/molUSER        vdW + Hbond + desolv Energy     = -11.96 kcal/molUSER        Electrostatic Energy            =  -0.81 kcal/molUSER        Moving Ligand-Fixed Receptor    = -12.77 kcal/molUSER        Moving Ligand-Moving Receptor   =  +0.93 kcal/molUSER    (2) Final Total Internal Energy     =  -3.24 kcal/molUSER    (3) Torsional Free Energy           =  +4.47 kcal/molUSER    (4) Unbound System's Energy         =  -3.24 kcal/molUSERUSERREMARK SMILES N#Cc1ccc(C(=O)c2ccc(C(=O)N[C@@H]3CCCNC[C@@H]3NC(=O)c3ccnc(N4CCOCC4)c3)cc2)c(O)c1REMARK SMILES IDX 16 1 15 3 13 4 14 5 12 7 9 8 10 9 39 10 11 11 38 12 7 13REMARK SMILES IDX 8 14 6 15 3 16 4 17 42 18 5 19 40 20 2 21 1 22 41 23 22 25REMARK SMILES IDX 21 26 20 27 19 29 18 30 17 31 23 33 24 34 25 36 26 37 27 38REMARK SMILES IDX 37 39 28 40 30 41 29 42 31 43 32 44 36 45 33 46 35 47 34 48REMARK H PARENT 15 6 41 24 20 28 23 35REMARK Flexibility Score:  128.900USER                              x       y       z     vdW  Elec       q    TypeUSER                           _______ _______ _______ _____ _____    ______ ____ROOTATOM      1  C   UNL     1      29.438  21.365  -9.010 -0.18 +0.06    +0.106 CG0ATOM      2  G   UNL     1      29.946  22.508  -9.912 +0.00 +0.00    +0.000 G0 ENDROOTBRANCH   1   3ATOM      3  N   UNL     1      29.925  21.586  -7.639 -0.13 -0.21    -0.347 N  ATOM      4  C   UNL     1      30.851  20.759  -7.041 -0.08 +0.19    +0.251 C  ATOM      5  O   UNL     1      31.346  19.788  -7.602 -0.53 -0.24    -0.269 OA ATOM      6  H   UNL     1      29.424  22.274  -7.082 +0.06 +0.06    +0.164 HD BRANCH   4   7ATOM      7  C   UNL     1      31.229  21.082  -5.633 -0.20 +0.01    +0.039 A  ATOM      8  C   UNL     1      31.836  21.641  -2.949 -0.23 -0.00    +0.023 A  ATOM      9  C   UNL     1      30.585  21.118  -3.290 -0.22 -0.00    +0.013 A  ATOM     10  C   UNL     1      32.797  21.852  -3.945 -0.13 +0.00    +0.013 A  ATOM     11  C   UNL     1      30.284  20.844  -4.626 -0.19 -0.00    +0.014 A  ATOM     12  C   UNL     1      32.494  21.576  -5.283 -0.23 +0.01    +0.014 A  BRANCH   8  13ATOM     13  C   UNL     1      32.130  21.899  -1.518 -0.22 +0.00    +0.196 C  ATOM     14  O   UNL     1      33.225  21.575  -1.059 -0.20 -0.15    -0.288 OA BRANCH  13  15ATOM     15  C   UNL     1      31.157  22.559  -0.614 -0.35 -0.02    +0.064 A  ATOM     16  C   UNL     1      29.342  23.768   1.154 -0.54 -0.04    +0.056 A  ATOM     17  C   UNL     1      29.109  23.797  -0.226 -0.48 -0.01    +0.020 A  ATOM     18  C   UNL     1      30.476  23.120   1.651 -0.41 -0.05    +0.066 A  ATOM     19  C   UNL     1      30.010  23.190  -1.109 -0.47 -0.01    +0.017 A  ATOM     20  C   UNL     1      31.364  22.506   0.771 -0.36 -0.05    +0.128 A  BRANCH  16  21ATOM     21  C   UNL     1      28.413  24.387   2.055 -0.63 -0.04    +0.099 C  ATOM     22  N   UNL     1      27.661  24.900   2.775 -0.67 -0.08    -0.192 NA ENDBRANCH  16  21BRANCH  20  23ATOM     23  O   UNL     1      32.433  21.862   1.330 -0.63 -0.28    -0.507 OA ATOM     24  H   UNL     1      32.522  20.987   0.889 +0.12 +0.21    +0.293 HD ENDBRANCH  20  23ENDBRANCH  13  15ENDBRANCH   8  13ENDBRANCH   4   7ENDBRANCH   1   3BRANCH   1  25ATOM     25  C   UNL     1      27.886  21.234  -8.995 -0.14 +0.02    +0.118 C  BRANCH  25  26ATOM     26  C   UNL     1      27.138  22.554  -9.293 -0.29 +0.00    +0.108 C  BRANCH  26  27ATOM     27  N   UNL     1      27.287  23.172 -10.607 -0.09 +0.04    -0.315 NA ATOM     28  H   UNL     1      27.716  24.092 -10.499 -0.52 -0.07    +0.122 HD BRANCH  27  29ATOM     29  C   UNL     1      28.001  22.393 -11.600 -0.13 +0.00    +0.081 C  BRANCH  29  30ATOM     30  C   UNL     1      29.505  22.460 -11.365 -0.20 +0.00    +0.017 C  BRANCH  30  31ATOM     31  C   UNL     1      29.957  22.507  -9.908 -0.26 +0.02    +0.028 CG0ATOM     32  G   UNL     1      29.440  21.370  -9.005 +0.00 +0.00    +0.000 G0 ENDBRANCH  30  31ENDBRANCH  29  30ENDBRANCH  27  29ENDBRANCH  26  27ENDBRANCH  25  26BRANCH  25  33ATOM     33  N   UNL     1      27.379  20.592  -7.771 -0.04 -0.02    -0.346 N  ATOM     34  C   UNL     1      27.267  21.260  -6.577 -0.21 -0.01    +0.251 C  ATOM     35  H   UNL     1      26.983  19.663  -7.849 +0.04 +0.00    +0.164 HD ATOM     36  O   UNL     1      27.626  22.413  -6.378 -0.66 -0.00    -0.269 OA BRANCH  34  37ATOM     37  C   UNL     1      26.642  20.477  -5.503 -0.21 -0.01    +0.045 A  ATOM     38  C   UNL     1      27.421  19.624  -4.737 -0.15 -0.01    +0.034 A  ATOM     39  C   UNL     1      25.277  20.624  -5.265 -0.26 -0.01    +0.060 A  ATOM     40  C   UNL     1      26.776  18.956  -3.721 -0.13 -0.03    +0.114 A  ATOM     41  C   UNL     1      24.697  19.905  -4.226 -0.22 -0.02    +0.129 A  ATOM     42  N   UNL     1      25.459  19.096  -3.451 -0.12 +0.06    -0.239 NA BRANCH  41  43ATOM     43  N   UNL     1      23.337  20.069  -3.918 -0.13 +0.04    -0.352 N  ATOM     44  C   UNL     1      22.888  21.473  -3.784 -0.27 -0.04    +0.146 C  ATOM     45  C   UNL     1      22.438  19.289  -4.803 -0.15 +0.02    +0.146 C  ATOM     46  C   UNL     1      21.414  21.513  -3.349 -0.31 -0.07    +0.181 C  ATOM     47  C   UNL     1      20.986  19.416  -4.323 -0.11 +0.05    +0.181 C  ATOM     48  O   UNL     1      20.571  20.791  -4.258 -0.51 -0.15    -0.378 OA ENDBRANCH  41  43ENDBRANCH  34  37ENDBRANCH  25  33ENDBRANCH   1  25TORSDOF 9TERENDMDL