REMARK SMILES N#Cc1ccc(C(=O)c2ccc(C(=O)N[C@@H]3CCCNC[C@@H]3NC(=O)c3ccnc(N4CCOCC4)c3)cc2)c(O)c1
REMARK SMILES IDX 16 1 15 3 13 4 14 5 12 7 9 8 10 9 39 10 11 11 38 12 7 13
REMARK SMILES IDX 8 14 6 15 3 16 4 17 42 18 5 19 40 20 2 21 1 22 41 23 22 25
REMARK SMILES IDX 21 26 20 27 19 29 18 30 17 31 23 33 24 34 25 36 26 37 27 38
REMARK SMILES IDX 37 39 28 40 30 41 29 42 31 43 32 44 36 45 33 46 35 47 34 48
REMARK H PARENT 15 6 41 24 20 28 23 35
REMARK Flexibility Score:  128.900
ROOT
ATOM      1  C   UNL     1       0.213  -3.802  -0.537  1.00  0.00     0.106 CG0
ATOM      2  G   UNL     1       0.847  -4.276   0.786  1.00  0.00     0.000 G0
ENDROOT
BRANCH   1   3
ATOM      3  N   UNL     1      -0.879  -2.863  -0.235  1.00  0.00    -0.347 N 
ATOM      4  C   UNL     1      -2.123  -3.285   0.179  1.00  0.00     0.251 C 
ATOM      5  O   UNL     1      -2.415  -4.465   0.337  1.00  0.00    -0.269 OA
ATOM      6  H   UNL     1      -0.736  -1.894  -0.509  1.00  0.00     0.164 HD
BRANCH   4   7
ATOM      7  C   UNL     1      -3.147  -2.224   0.417  1.00  0.00     0.039 A 
ATOM      8  C   UNL     1      -5.157  -0.315   0.863  1.00  0.00     0.023 A 
ATOM      9  C   UNL     1      -5.500  -1.649   0.622  1.00  0.00     0.013 A 
ATOM     10  C   UNL     1      -3.809   0.059   0.916  1.00  0.00     0.013 A 
ATOM     11  C   UNL     1      -4.498  -2.596   0.397  1.00  0.00     0.014 A 
ATOM     12  C   UNL     1      -2.807  -0.892   0.691  1.00  0.00     0.014 A 
BRANCH   8  13
ATOM     13  C   UNL     1      -6.245   0.660   1.120  1.00  0.00     0.196 C 
ATOM     14  O   UNL     1      -7.244   0.299   1.742  1.00  0.00    -0.288 OA
BRANCH  13  15
ATOM     15  C   UNL     1      -6.168   2.072   0.673  1.00  0.00     0.064 A 
ATOM     16  C   UNL     1      -6.080   4.761  -0.129  1.00  0.00     0.056 A 
ATOM     17  C   UNL     1      -5.461   3.773  -0.903  1.00  0.00     0.020 A 
ATOM     18  C   UNL     1      -6.757   4.402   1.040  1.00  0.00     0.066 A 
ATOM     19  C   UNL     1      -5.509   2.431  -0.508  1.00  0.00     0.017 A 
ATOM     20  C   UNL     1      -6.813   3.064   1.424  1.00  0.00     0.128 A 
BRANCH  16  21
ATOM     21  C   UNL     1      -6.033   6.134  -0.541  1.00  0.00     0.099 C 
ATOM     22  N   UNL     1      -5.984   7.242  -0.884  1.00  0.00    -0.192 NA
ENDBRANCH  16  21
BRANCH  20  23
ATOM     23  O   UNL     1      -7.521   2.783   2.560  1.00  0.00    -0.507 OA
ATOM     24  H   UNL     1      -7.721   1.820   2.559  1.00  0.00     0.293 HD
ENDBRANCH  20  23
ENDBRANCH  13  15
ENDBRANCH   8  13
ENDBRANCH   4   7
ENDBRANCH   1   3
BRANCH   1  25
ATOM     25  C   UNL     1       1.231  -3.122  -1.500  1.00  0.00     0.118 C 
BRANCH  25  26
ATOM     26  C   UNL     1       2.111  -4.115  -2.293  1.00  0.00     0.108 C 
BRANCH  26  27
ATOM     27  N   UNL     1       2.486  -5.382  -1.672  1.00  0.00    -0.315 NA
ATOM     28  H   UNL     1       3.174  -5.854  -2.260  1.00  0.00     0.122 HD
BRANCH  27  29
ATOM     29  C   UNL     1       2.958  -5.305  -0.303  1.00  0.00     0.081 C 
BRANCH  29  30
ATOM     30  C   UNL     1       1.804  -5.460   0.680  1.00  0.00     0.017 C 
BRANCH  30  31
ATOM     31  C   UNL     1       0.847  -4.276   0.786  1.00  0.00     0.028 CG0
ATOM     32  G   UNL     1       0.213  -3.802  -0.537  1.00  0.00     0.000 G0
ENDBRANCH  30  31
ENDBRANCH  29  30
ENDBRANCH  27  29
ENDBRANCH  26  27
ENDBRANCH  25  26
BRANCH  25  33
ATOM     33  N   UNL     1       2.046  -2.092  -0.835  1.00  0.00    -0.346 N 
ATOM     34  C   UNL     1       1.561  -0.842  -0.540  1.00  0.00     0.251 C 
ATOM     35  H   UNL     1       2.952  -2.361  -0.472  1.00  0.00     0.164 HD
ATOM     36  O   UNL     1       0.451  -0.426  -0.845  1.00  0.00    -0.269 OA
BRANCH  34  37
ATOM     37  C   UNL     1       2.492   0.004   0.217  1.00  0.00     0.045 A 
ATOM     38  C   UNL     1       2.714  -0.255   1.561  1.00  0.00     0.034 A 
ATOM     39  C   UNL     1       3.150   1.042  -0.439  1.00  0.00     0.060 A 
ATOM     40  C   UNL     1       3.631   0.551   2.195  1.00  0.00     0.114 A 
ATOM     41  C   UNL     1       4.055   1.819   0.274  1.00  0.00     0.129 A 
ATOM     42  N   UNL     1       4.302   1.550   1.579  1.00  0.00    -0.239 NA
BRANCH  41  43
ATOM     43  N   UNL     1       4.780   2.838  -0.366  1.00  0.00    -0.352 N 
ATOM     44  C   UNL     1       3.961   3.810  -1.123  1.00  0.00     0.146 C 
ATOM     45  C   UNL     1       5.749   3.517   0.528  1.00  0.00     0.146 C 
ATOM     46  C   UNL     1       4.874   4.808  -1.855  1.00  0.00     0.181 C 
ATOM     47  C   UNL     1       6.589   4.522  -0.272  1.00  0.00     0.181 C 
ATOM     48  O   UNL     1       5.760   5.481  -0.950  1.00  0.00    -0.378 OA
ENDBRANCH  41  43
ENDBRANCH  34  37
ENDBRANCH  25  33
ENDBRANCH   1  25
TORSDOF 9
