MODEL        4USER    Run = 4USERUSER    Estimated Free Energy of Binding    =  -6.07 kcal/mol  [=(1)+(2)+(3)-(4)]USERUSER    (1) Final Intermolecular Energy     = -10.54 kcal/molUSER        vdW + Hbond + desolv Energy     = -10.53 kcal/molUSER        Electrostatic Energy            =  -0.28 kcal/molUSER        Moving Ligand-Fixed Receptor    = -10.81 kcal/molUSER        Moving Ligand-Moving Receptor   =  +0.27 kcal/molUSER    (2) Final Total Internal Energy     =  -1.55 kcal/molUSER    (3) Torsional Free Energy           =  +4.47 kcal/molUSER    (4) Unbound System's Energy         =  -1.55 kcal/molUSERUSERREMARK SMILES COc1ccc(O)c(C(=O)c2ccc(/C=C/[C@@H]3CCCNC[C@H]3NC(=O)c3ccncc3)cc2)c1FREMARK SMILES IDX 16 1 15 2 14 3 11 4 12 5 34 6 13 7 33 8 9 9 10 10 8 11 3 12REMARK SMILES IDX 4 13 35 14 5 15 6 16 36 17 2 18 1 19 7 20 17 22 18 23 23 25REMARK SMILES IDX 22 26 21 27 20 29 19 30 24 32 25 33 26 35 27 36 28 37 32 38REMARK SMILES IDX 29 39 31 40 30 41REMARK H PARENT 7 21 21 28 24 34REMARK Flexibility Score:   99.900USER                              x       y       z     vdW  Elec       q    TypeUSER                           _______ _______ _______ _____ _____    ______ ____ROOTATOM      1  C   UNL     1      -2.408   2.907  -2.462 -0.28 +0.00    -0.021 C  ENDROOTBRANCH   1   2ATOM      2  C   UNL     1      -2.256   3.014  -3.791 -0.29 -0.00    +0.004 C  BRANCH   2   3ATOM      3  C   UNL     1      -0.993   2.735  -4.486 -0.30 +0.00    -0.026 A  ATOM      4  C   UNL     1       1.405   2.122  -5.811 -0.37 +0.00    +0.023 A  ATOM      5  C   UNL     1       0.909   1.259  -4.830 -0.39 +0.00    +0.013 A  ATOM      6  C   UNL     1       0.687   3.269  -6.160 -0.35 -0.00    +0.013 A  ATOM      7  C   UNL     1      -0.289   1.566  -4.175 -0.40 +0.00    +0.009 A  ATOM      8  C   UNL     1      -0.502   3.577  -5.494 -0.27 -0.00    +0.009 A  BRANCH   4   9ATOM      9  C   UNL     1       2.650   1.816  -6.546 -0.31 -0.01    +0.199 C  ATOM     10  O   UNL     1       3.328   0.851  -6.189 -0.63 -0.04    -0.288 OA BRANCH   9  11ATOM     11  C   UNL     1       3.150   2.648  -7.663 -0.26 -0.02    +0.104 A  ATOM     12  C   UNL     1       4.775   4.202  -8.609 -0.34 -0.01    +0.155 A  ATOM     13  C   UNL     1       4.061   4.212  -9.808 -0.40 -0.01    +0.053 A  ATOM     14  C   UNL     1       4.309   3.418  -7.543 -0.29 -0.04    +0.179 A  ATOM     15  C   UNL     1       2.884   3.468  -9.929 -0.26 -0.01    +0.051 A  ATOM     16  C   UNL     1       2.427   2.704  -8.860 -0.16 -0.02    +0.130 A  ATOM     17  F   UNL     1       4.983   3.446  -6.382 -0.13 +0.05    -0.202 F  BRANCH  12  18ATOM     18  O   UNL     1       5.926   4.902  -8.365 -0.80 -0.11    -0.494 OA ATOM     19  C   UNL     1       5.884   6.311  -8.552 -0.39 +0.03    +0.278 C  ENDBRANCH  12  18BRANCH  16  20ATOM     20  O   UNL     1       1.251   2.030  -9.054 +0.01 -0.02    -0.507 OA ATOM     21  H   UNL     1       1.471   1.090  -9.246 +0.10 +0.01    +0.293 HD ENDBRANCH  16  20ENDBRANCH   9  11ENDBRANCH   4   9ENDBRANCH   2   3ENDBRANCH   1   2BRANCH   1  22ATOM     22  C   UNL     1      -1.590   3.641  -1.402 -0.28 -0.01    +0.035 C  BRANCH  22  23ATOM     23  C   UNL     1      -0.682   2.590  -0.733 -0.37 -0.00    +0.011 CG0ATOM     24  G   UNL     1      -1.219   1.833   0.476 +0.00 +0.00    +0.000 G0 ENDBRANCH  22  23BRANCH  22  25ATOM     25  C   UNL     1      -2.387   4.530  -0.398 -0.25 -0.04    +0.103 C  BRANCH  25  26ATOM     26  C   UNL     1      -1.605   4.712   0.935 -0.26 -0.05    +0.106 C  BRANCH  26  27ATOM     27  N   UNL     1      -1.786   3.711   1.980 -0.07 +0.09    -0.315 NA ATOM     28  H   UNL     1      -2.777   3.480   2.059 +0.04 -0.03    +0.122 HD BRANCH  27  29ATOM     29  C   UNL     1      -0.993   2.501   1.824 -0.35 -0.02    +0.081 C  BRANCH  29  30ATOM     30  C   UNL     1      -1.221   1.831   0.477 -0.36 -0.00    +0.016 CG0ATOM     31  G   UNL     1      -0.685   2.589  -0.733 +0.00 +0.00    +0.000 G0 ENDBRANCH  29  30ENDBRANCH  27  29ENDBRANCH  26  27ENDBRANCH  25  26BRANCH  25  32ATOM     32  N   UNL     1      -2.660   5.859  -0.962 -0.17 +0.19    -0.347 N  ATOM     33  C   UNL     1      -3.557   6.726  -0.379 -0.16 -0.10    +0.251 C  ATOM     34  H   UNL     1      -2.036   6.202  -1.680 -0.24 -0.13    +0.164 HD ATOM     35  O   UNL     1      -4.191   6.465   0.635 -0.03 +0.08    -0.269 OA BRANCH  33  36ATOM     36  C   UNL     1      -3.705   8.051  -1.033 -0.24 -0.01    +0.042 A  ATOM     37  C   UNL     1      -2.990   9.167  -0.600 -0.16 -0.02    +0.034 A  ATOM     38  C   UNL     1      -4.560   8.157  -2.128 -0.14 +0.00    +0.034 A  ATOM     39  C   UNL     1      -3.186  10.357  -1.274 -0.23 -0.02    +0.112 A  ATOM     40  C   UNL     1      -4.688   9.393  -2.732 -0.10 +0.01    +0.112 A  ATOM     41  N   UNL     1      -4.027  10.498  -2.322 -0.67 -0.02    -0.265 NA ENDBRANCH  33  36ENDBRANCH  25  32ENDBRANCH  22  25ENDBRANCH   1  22TORSDOF 9TERENDMDL