MODEL        6USER    Run = 6USERUSER    Estimated Free Energy of Binding    = -10.53 kcal/mol  [=(1)+(2)+(3)-(4)]USERUSER    (1) Final Intermolecular Energy     = -12.32 kcal/molUSER        vdW + Hbond + desolv Energy     = -12.31 kcal/molUSER        Electrostatic Energy            =  -0.01 kcal/molUSER        Moving Ligand-Fixed Receptor    = -12.32 kcal/molUSER        Moving Ligand-Moving Receptor   =  +0.00 kcal/molUSER    (2) Final Total Internal Energy     =  -2.40 kcal/molUSER    (3) Torsional Free Energy           =  +1.79 kcal/molUSER    (4) Unbound System's Energy         =  -2.40 kcal/molUSERUSERREMARK SMILES Oc1nc2ccccc2n1C1CCN(Cc2ccc(-c3nc4ccccc4nc3-c3ccccc3)cc2)CC1REMARK SMILES IDX 11 1 12 2 13 3 14 4 38 5 39 6 10 7 2 8 3 9 4 10 9 11 5 12REMARK SMILES IDX 8 13 6 14 7 15 1 16 15 18 16 19 17 20 37 21 18 22 36 23REMARK SMILES IDX 19 24 20 25 21 26 29 27 22 28 28 29 23 30 27 31 24 32 26 33REMARK SMILES IDX 25 34 30 35 31 36 35 37 32 38 34 39 33 40REMARK H PARENT 1 17USER                              x       y       z     vdW  Elec       q    TypeUSER                           _______ _______ _______ _____ _____    ______ ____ROOTATOM      1  C   UNL     1      13.711 -16.535 -12.451 -0.27 -0.02    +0.095 C  ATOM      2  C   UNL     1      14.180 -15.236 -13.127 -0.35 -0.01    +0.041 C  ATOM      3  C   UNL     1      13.042 -14.539 -13.873 -0.27 -0.04    +0.087 C  ATOM      4  N   UNL     1      11.781 -14.500 -13.126 -0.08 +0.08    -0.299 NA ATOM      5  C   UNL     1      11.314 -15.837 -12.725 -0.19 -0.00    +0.087 C  ATOM      6  C   UNL     1      12.325 -16.967 -12.943 -0.34 -0.01    +0.041 C  ENDROOTBRANCH   1   7ATOM      7  N   UNL     1      14.701 -17.598 -12.536 -0.18 +0.06    -0.291 N  ATOM      8  C   UNL     1      15.090 -18.258 -13.667 -0.04 -0.09    +0.295 A  ATOM      9  N   UNL     1      16.005 -19.162 -13.452 +0.19 +0.06    -0.195 NA ATOM     10  C   UNL     1      16.243 -19.089 -12.100 -0.12 -0.01    +0.092 A  ATOM     11  C   UNL     1      15.446 -18.114 -11.495 -0.35 -0.01    +0.072 A  ATOM     12  C   UNL     1      17.141 -19.830 -11.317 -0.38 +0.00    +0.031 A  ATOM     13  C   UNL     1      15.509 -17.838 -10.121 -0.33 -0.00    +0.029 A  ATOM     14  C   UNL     1      17.217 -19.568  -9.943 -0.44 +0.00    +0.002 A  ATOM     15  C   UNL     1      16.413 -18.589  -9.359 -0.35 +0.00    +0.002 A  BRANCH   8  16ATOM     16  O   UNL     1      14.618 -18.023 -14.875 -0.13 +0.07    -0.480 OA ATOM     17  H   UNL     1      14.341 -18.916 -15.149 -0.06 -0.05    +0.296 HD ENDBRANCH   8  16ENDBRANCH   1   7BRANCH   4  18ATOM     18  C   UNL     1      11.786 -13.564 -11.989 -0.29 -0.05    +0.120 C  BRANCH  18  19ATOM     19  C   UNL     1      12.954 -13.751 -11.045 -0.29 +0.02    -0.034 A  ATOM     20  C   UNL     1      12.897 -14.698 -10.016 -0.34 -0.00    +0.006 A  ATOM     21  C   UNL     1      14.107 -12.967 -11.177 -0.08 -0.00    +0.006 A  ATOM     22  C   UNL     1      13.983 -14.868  -9.151 -0.29 -0.01    +0.011 A  ATOM     23  C   UNL     1      15.190 -13.141 -10.312 -0.32 -0.00    +0.011 A  ATOM     24  C   UNL     1      15.154 -14.106  -9.292 -0.36 -0.00    +0.002 A  BRANCH  24  25ATOM     25  C   UNL     1      16.293 -14.315  -8.383 -0.27 -0.02    +0.097 A  ATOM     26  N   UNL     1      16.772 -15.593  -8.385 -0.22 +0.02    -0.244 NA ATOM     27  C   UNL     1      16.855 -13.330  -7.555 -0.32 -0.02    +0.097 A  ATOM     28  C   UNL     1      17.777 -15.880  -7.540 -0.35 +0.00    +0.089 A  ATOM     29  N   UNL     1      17.868 -13.633  -6.692 -0.24 +0.01    -0.244 NA ATOM     30  C   UNL     1      18.289 -17.172  -7.499 -0.39 +0.00    +0.030 A  ATOM     31  C   UNL     1      18.325 -14.897  -6.688 -0.38 +0.01    +0.089 A  ATOM     32  C   UNL     1      19.330 -17.514  -6.635 -0.38 +0.00    +0.002 A  ATOM     33  C   UNL     1      19.361 -15.247  -5.830 -0.45 +0.01    +0.030 A  ATOM     34  C   UNL     1      19.868 -16.546  -5.796 -0.37 +0.00    +0.002 A  BRANCH  27  35ATOM     35  C   UNL     1      16.457 -11.910  -7.531 -0.44 -0.00    +0.002 A  ATOM     36  C   UNL     1      16.755 -11.071  -8.619 -0.47 -0.00    +0.010 A  ATOM     37  C   UNL     1      15.749 -11.353  -6.451 -0.51 -0.00    +0.010 A  ATOM     38  C   UNL     1      16.384  -9.722  -8.619 -0.56 -0.00    +0.001 A  ATOM     39  C   UNL     1      15.380 -10.004  -6.447 -0.63 -0.00    +0.001 A  ATOM     40  C   UNL     1      15.700  -9.189  -7.529 -0.65 -0.00    +0.000 A  ENDBRANCH  27  35ENDBRANCH  24  25ENDBRANCH  18  19ENDBRANCH   4  18TORSDOF 6TERENDMDL