MODEL        1USER    Run = 1USERUSER    Estimated Free Energy of Binding    = -10.61 kcal/mol  [=(1)+(2)+(3)-(4)]USERUSER    (1) Final Intermolecular Energy     = -12.40 kcal/molUSER        vdW + Hbond + desolv Energy     = -12.30 kcal/molUSER        Electrostatic Energy            =  -0.10 kcal/molUSER        Moving Ligand-Fixed Receptor    = -12.40 kcal/molUSER        Moving Ligand-Moving Receptor   =  +0.00 kcal/molUSER    (2) Final Total Internal Energy     =  -0.82 kcal/molUSER    (3) Torsional Free Energy           =  +1.79 kcal/molUSER    (4) Unbound System's Energy         =  -0.82 kcal/molUSERUSERREMARK SMILES Cn1ccc2ccc3c4[nH]c5c(CCCN[C@H]6CC[C@H](O)CC6)cccc5c4c4c(c3c21)C(=O)NC4=OREMARK SMILES IDX 15 1 14 2 13 3 12 4 2 5 3 6 32 7 4 8 31 9 5 10 30 11 8 12REMARK SMILES IDX 6 13 29 14 33 15 7 16 9 17 28 18 36 19 35 20 10 21 27 22REMARK SMILES IDX 11 23 26 24 25 25 24 26 1 27 34 28 37 29 16 32 17 34 23 35REMARK SMILES IDX 18 36 22 37 19 38 20 39 21 40REMARK H PARENT 35 30 10 31 16 33 21 41USER                              x       y       z     vdW  Elec       q    TypeUSER                           _______ _______ _______ _____ _____    ______ ____ROOTATOM      1  C   UNL     1      10.063 -13.009 -11.242 -0.45 -0.01    +0.081 C  ENDROOTBRANCH   1   2ATOM      2  C   UNL     1      10.547 -11.828 -12.089 -0.52 -0.01    +0.020 C  BRANCH   2   3ATOM      3  C   UNL     1      12.034 -11.514 -11.887 -0.36 -0.02    +0.039 C  BRANCH   3   4ATOM      4  C   UNL     1      12.923 -12.733 -11.855 -0.27 +0.01    -0.024 A  ATOM      5  N   UNL     1      18.674 -12.892  -5.366 -0.19 -0.04    -0.350 N  ATOM      6  C   UNL     1      18.745 -12.172  -4.196 -0.44 +0.02    +0.086 A  ATOM      7  C   UNL     1      17.472 -12.646  -6.019 -0.40 -0.00    +0.057 A  ATOM      8  C   UNL     1      17.698 -11.290  -4.185 -0.53 +0.00    +0.028 A  ATOM      9  C   UNL     1      16.814 -13.227  -7.167 -0.38 -0.00    +0.022 A  ATOM     10  C   UNL     1      16.938 -11.523  -5.359 -0.52 -0.00    +0.000 A  ATOM     11  C   UNL     1      17.071 -14.455  -7.796 -0.33 -0.01    +0.063 A  ATOM     12  C   UNL     1      15.751 -12.451  -7.725 -0.41 -0.00    +0.009 A  ATOM     13  C   UNL     1      15.823 -10.858  -5.896 -0.54 -0.00    +0.011 A  ATOM     14  C   UNL     1      16.445 -14.839  -8.988 -0.32 -0.01    +0.063 A  ATOM     15  C   UNL     1      17.841 -15.636  -7.367 -0.29 +0.01    +0.259 C  ATOM     16  C   UNL     1      15.271 -11.291  -7.098 -0.44 -0.00    +0.012 A  ATOM     17  C   UNL     1      15.135 -12.868  -8.947 -0.35 -0.03    +0.055 A  ATOM     18  C   UNL     1      15.478 -14.050  -9.616 -0.34 -0.01    +0.022 A  ATOM     19  C   UNL     1      16.932 -16.169  -9.346 -0.25 -0.02    +0.259 C  ATOM     20  N   UNL     1      17.843 -16.512  -8.404 -0.22 -0.01    -0.288 N  ATOM     21  N   UNL     1      14.144 -12.277  -9.699 -0.15 +0.24    -0.354 N  ATOM     22  C   UNL     1      14.675 -14.128 -10.804 -0.31 -0.00    +0.008 A  ATOM     23  C   UNL     1      13.852 -13.002 -10.829 -0.26 -0.03    +0.050 A  ATOM     24  C   UNL     1      14.566 -15.048 -11.868 -0.30 -0.00    +0.011 A  ATOM     25  C   UNL     1      13.653 -14.815 -12.901 -0.29 -0.00    +0.001 A  ATOM     26  C   UNL     1      12.849 -13.680 -12.891 -0.31 -0.00    +0.006 A  ATOM     27  C   UNL     1      19.848 -13.564  -5.885 -0.45 +0.03    +0.149 C  ATOM     28  O   UNL     1      18.295 -15.858  -6.263 -0.32 -0.05    -0.269 OA ATOM     29  O   UNL     1      16.563 -16.874 -10.262 -0.22 +0.02    -0.269 OA ATOM     30  H   UNL     1      18.185 -17.456  -8.312 +0.11 +0.02    +0.173 HD ATOM     31  H   UNL     1      13.698 -11.402  -9.469 +0.09 -0.11    +0.167 HD ENDBRANCH   3   4ENDBRANCH   2   3ENDBRANCH   1   2BRANCH   1  32ATOM     32  N   UNL     1      10.048 -14.218 -12.067 -0.57 -0.08    -0.314 NA ATOM     33  H   UNL     1      10.949 -14.691 -12.011 +0.08 +0.01    +0.122 HD BRANCH  32  34ATOM     34  C   UNL     1       9.712 -13.945 -13.472 -0.32 -0.01    +0.053 C  ATOM     35  C   UNL     1      10.115 -15.092 -14.423 -0.26 -0.00    +0.021 C  ATOM     36  C   UNL     1       8.198 -13.656 -13.524 -0.35 +0.00    +0.021 C  ATOM     37  C   UNL     1       8.970 -16.071 -14.674 -0.22 +0.00    +0.033 C  ATOM     38  C   UNL     1       7.639 -13.897 -14.920 -0.38 -0.00    +0.033 C  ATOM     39  C   UNL     1       7.771 -15.368 -15.325 -0.29 +0.00    +0.114 C  BRANCH  39  40ATOM     40  O   UNL     1       7.896 -15.419 -16.745 -0.08 +0.01    -0.393 OA ATOM     41  H   UNL     1       7.885 -16.355 -17.009 +0.05 +0.01    +0.210 HD ENDBRANCH  39  40ENDBRANCH  32  34ENDBRANCH   1  32TORSDOF 6TERENDMDL