MODEL        9USER    Run = 9USERUSER    Estimated Free Energy of Binding    = -11.60 kcal/mol  [=(1)+(2)+(3)-(4)]USERUSER    (1) Final Intermolecular Energy     = -13.98 kcal/molUSER        vdW + Hbond + desolv Energy     = -13.80 kcal/molUSER        Electrostatic Energy            =  -0.18 kcal/molUSER        Moving Ligand-Fixed Receptor    = -13.98 kcal/molUSER        Moving Ligand-Moving Receptor   =  +0.00 kcal/molUSER    (2) Final Total Internal Energy     =  -1.87 kcal/molUSER    (3) Torsional Free Energy           =  +2.39 kcal/molUSER    (4) Unbound System's Energy         =  -1.87 kcal/molUSERUSERREMARK SMILES N#Cc1cnc(-c2ccc(CNCc3ccc(-c4csnn4)cc3)cc2)c(-c2ccccc2)c1REMARK SMILES IDX 11 1 10 2 7 3 8 4 26 5 9 6 25 7 6 8 3 9 4 10 34 11 5 12REMARK SMILES IDX 27 13 2 14 1 15 28 16 29 17 33 18 30 19 32 20 31 21 12 22REMARK SMILES IDX 13 24 14 25 15 26 24 27 16 28 23 29 17 30 18 31 19 32 22 33REMARK SMILES IDX 20 34 21 35REMARK H PARENT 12 23USER                              x       y       z     vdW  Elec       q    TypeUSER                           _______ _______ _______ _____ _____    ______ ____ROOTATOM      1  C   UNL     1      13.327 -15.218 -12.626 -0.23 -0.04    +0.117 C  ENDROOTBRANCH   1   2ATOM      2  C   UNL     1      14.213 -15.035 -11.417 -0.26 +0.01    -0.034 A  ATOM      3  C   UNL     1      15.908 -14.716  -9.160 -0.34 -0.00    +0.001 A  ATOM      4  C   UNL     1      14.611 -15.244  -9.030 -0.05 -0.00    +0.011 A  ATOM      5  C   UNL     1      16.330 -14.335 -10.445 -0.36 -0.00    +0.011 A  ATOM      6  C   UNL     1      13.776 -15.408 -10.141 -0.38 -0.00    +0.006 A  ATOM      7  C   UNL     1      15.499 -14.501 -11.558 -0.36 -0.00    +0.006 A  BRANCH   3   8ATOM      8  C   UNL     1      16.770 -14.555  -7.972 -0.29 -0.01    +0.078 A  ATOM      9  C   UNL     1      18.370 -14.553  -5.715 -0.42 +0.01    +0.071 A  ATOM     10  C   UNL     1      18.000 -15.715  -6.362 -0.28 +0.02    +0.131 A  ATOM     11  C   UNL     1      17.921 -13.342  -6.241 -0.41 +0.00    +0.032 A  ATOM     12  N   UNL     1      17.223 -15.741  -7.469 -0.22 +0.00    -0.254 NA ATOM     13  C   UNL     1      17.108 -13.314  -7.391 -0.38 -0.00    +0.009 A  BRANCH   9  14ATOM     14  C   UNL     1      19.196 -14.599  -4.552 -0.56 +0.04    +0.101 C  ATOM     15  N   UNL     1      19.867 -14.638  -3.607 -0.48 -0.13    -0.192 NA ENDBRANCH   9  14BRANCH  13  16ATOM     16  C   UNL     1      16.695 -12.008  -7.935 -0.41 +0.00    -0.016 A  ATOM     17  C   UNL     1      17.267 -11.510  -9.119 -0.40 -0.00    +0.009 A  ATOM     18  C   UNL     1      15.711 -11.235  -7.299 -0.49 -0.00    +0.009 A  ATOM     19  C   UNL     1      16.876 -10.276  -9.642 -0.50 -0.00    +0.001 A  ATOM     20  C   UNL     1      15.321  -9.999  -7.820 -0.65 -0.00    +0.001 A  ATOM     21  C   UNL     1      15.903  -9.520  -8.991 -0.67 -0.00    +0.000 A  ENDBRANCH  13  16ENDBRANCH   3   8ENDBRANCH   1   2BRANCH   1  22ATOM     22  N   UNL     1      13.650 -14.226 -13.652 -0.07 +0.16    -0.309 NA ATOM     23  H   UNL     1      14.380 -14.612 -14.248 -0.46 -0.08    +0.123 HD BRANCH  22  24ATOM     24  C   UNL     1      12.491 -13.889 -14.478 -0.26 -0.06    +0.117 C  BRANCH  24  25ATOM     25  C   UNL     1      11.665 -12.753 -13.920 -0.31 +0.02    -0.034 A  ATOM     26  C   UNL     1      12.280 -11.654 -13.306 -0.18 -0.00    +0.006 A  ATOM     27  C   UNL     1      10.268 -12.788 -13.989 -0.22 -0.00    +0.006 A  ATOM     28  C   UNL     1      11.512 -10.608 -12.781 -0.22 -0.01    +0.011 A  ATOM     29  C   UNL     1       9.500 -11.744 -13.465 -0.17 -0.01    +0.011 A  ATOM     30  C   UNL     1      10.112 -10.637 -12.859 -0.44 -0.00    +0.003 A  BRANCH  30  31ATOM     31  C   UNL     1       9.282  -9.562 -12.323 -0.45 -0.03    +0.105 A  ATOM     32  C   UNL     1       8.029  -9.220 -12.804 -0.24 -0.03    +0.118 A  ATOM     33  N   UNL     1       9.707  -8.799 -11.237 -1.07 -0.02    -0.138 NA ATOM     34  S   UNL     1       7.449  -7.915 -11.850 -0.60 +0.00    -0.020 S  ATOM     35  N   UNL     1       8.819  -7.882 -10.895 -0.94 -0.01    -0.091 NA ENDBRANCH  30  31ENDBRANCH  24  25ENDBRANCH  22  24ENDBRANCH   1  22TORSDOF 8TERENDMDL