MODEL        9USER    Run = 9USERUSER    Estimated Free Energy of Binding    =  -9.06 kcal/mol  [=(1)+(2)+(3)-(4)]USERUSER    (1) Final Intermolecular Energy     = -12.04 kcal/molUSER        vdW + Hbond + desolv Energy     = -11.77 kcal/molUSER        Electrostatic Energy            =  -0.27 kcal/molUSER        Moving Ligand-Fixed Receptor    = -12.04 kcal/molUSER        Moving Ligand-Moving Receptor   =  +0.00 kcal/molUSER    (2) Final Total Internal Energy     =  -2.70 kcal/molUSER    (3) Torsional Free Energy           =  +2.98 kcal/molUSER    (4) Unbound System's Energy         =  -2.70 kcal/molUSERUSERREMARK SMILES NCCSc1[nH]nccc(N2CCC(C(F)(F)F)CC2)ccc1C=CS(N)(=O)=OREMARK SMILES IDX 5 1 6 2 7 3 8 4 9 5 10 6 21 7 22 8 23 9 4 11 3 12 2 13 1 14REMARK SMILES IDX 24 17 25 18 26 19 28 20 29 21 27 22 11 25 12 26 20 27 13 28REMARK SMILES IDX 19 29 14 30 15 31 16 32 17 33 18 34REMARK H PARENT 6 10 1 15 1 16 27 23 27 24USER                              x       y       z     vdW  Elec       q    TypeUSER                           _______ _______ _______ _____ _____    ______ ____ROOTATOM      1  C   UNL     1      37.561  45.682  14.963 -0.31 -0.04    +0.096 A  ATOM      2  N   UNL     1      38.723  46.363  14.680 -0.23 +0.08    -0.271 N  ATOM      3  N   UNL     1      38.692  47.805  14.889 -0.34 +0.08    -0.183 NA ATOM      4  C   UNL     1      39.764  48.120  15.619 -0.43 -0.04    +0.135 A  ATOM      5  C   UNL     1      40.332  47.673  16.748 -0.49 -0.01    +0.048 A  ATOM      6  C   UNL     1      39.964  46.833  17.738 -0.43 -0.01    +0.038 A  ATOM      7  C   UNL     1      38.816  46.147  17.932 -0.38 -0.01    +0.026 A  ATOM      8  C   UNL     1      37.676  45.694  17.395 -0.36 -0.00    +0.013 A  ATOM      9  C   UNL     1      37.059  45.481  16.212 -0.35 -0.00    +0.007 A  ATOM     10  H   UNL     1      38.943  46.250  13.697 +0.14 -0.04    +0.191 HD ENDROOTBRANCH   1  11ATOM     11  S   UNL     1      36.739  44.924  13.563 -0.51 +0.04    -0.105 SA BRANCH  11  12ATOM     12  C   UNL     1      35.653  46.290  13.027 -0.53 -0.05    +0.091 C  BRANCH  12  13ATOM     13  C   UNL     1      36.289  47.328  12.086 -0.65 -0.04    +0.089 C  BRANCH  13  14ATOM     14  N   UNL     1      37.661  47.732  12.399 -0.84 +0.02    -0.330 NA ATOM     15  H   UNL     1      37.633  48.466  13.129 +0.05 -0.02    +0.118 HD ATOM     16  H   UNL     1      38.099  46.989  12.953 +0.07 -0.02    +0.118 HD ENDBRANCH  13  14ENDBRANCH  12  13ENDBRANCH  11  12ENDBRANCH   1  11BRANCH   9  17ATOM     17  C   UNL     1      35.738  44.829  16.351 -0.37 -0.01    +0.024 C  BRANCH  17  18ATOM     18  C   UNL     1      34.616  45.481  16.694 -0.30 -0.10    +0.123 C  BRANCH  18  19ATOM     19  S   UNL     1      34.146  45.572  18.344 -0.49 -0.12    +0.231 S  ATOM     20  O   UNL     1      32.804  45.049  18.490 -0.31 +0.06    -0.208 OA ATOM     21  O   UNL     1      35.211  45.099  19.200 -0.34 +0.06    -0.208 OA BRANCH  19  22ATOM     22  N   UNL     1      33.988  47.203  18.718 -0.98 +0.16    -0.225 NA ATOM     23  H   UNL     1      33.494  47.680  17.968 -0.49 -0.24    +0.137 HD ATOM     24  H   UNL     1      33.550  47.304  19.632 -0.47 -0.06    +0.137 HD ENDBRANCH  19  22ENDBRANCH  18  19ENDBRANCH  17  18ENDBRANCH   9  17BRANCH   6  25ATOM     25  N   UNL     1      40.900  46.718  18.840 -0.21 +0.01    -0.371 N  ATOM     26  C   UNL     1      40.520  45.922  20.018 -0.33 +0.00    +0.117 C  ATOM     27  C   UNL     1      42.306  47.112  18.708 -0.52 +0.01    +0.117 C  ATOM     28  C   UNL     1      41.722  45.158  20.562 -0.37 +0.01    +0.034 C  ATOM     29  C   UNL     1      42.903  47.367  20.086 -0.45 +0.01    +0.034 C  ATOM     30  C   UNL     1      42.875  46.096  20.950 -0.25 +0.03    +0.098 C  BRANCH  30  31ATOM     31  C   UNL     1      42.819  46.465  22.423 -0.11 +0.09    +0.391 C  ATOM     32  F   UNL     1      43.851  47.249  22.798 -0.08 -0.05    -0.171 F  ATOM     33  F   UNL     1      41.674  47.129  22.712 -0.07 -0.02    -0.171 F  ATOM     34  F   UNL     1      42.839  45.356  23.198 -0.02 -0.03    -0.171 F  ENDBRANCH  30  31ENDBRANCH   6  25TORSDOF 10TERENDMDL