MODEL        2USER    Run = 2USERUSER    Estimated Free Energy of Binding    =  -8.79 kcal/mol  [=(1)+(2)+(3)-(4)]USERUSER    (1) Final Intermolecular Energy     =  -9.09 kcal/molUSER        vdW + Hbond + desolv Energy     =  -8.96 kcal/molUSER        Electrostatic Energy            =  -0.13 kcal/molUSER        Moving Ligand-Fixed Receptor    =  -9.09 kcal/molUSER        Moving Ligand-Moving Receptor   =  +0.00 kcal/molUSER    (2) Final Total Internal Energy     =  -0.54 kcal/molUSER    (3) Torsional Free Energy           =  +0.30 kcal/molUSER    (4) Unbound System's Energy         =  -0.54 kcal/molUSERUSERREMARK SMILES Cc1c(-c2nc3ccccc3[nH]2)ccccc(=O)[nH]c2ccc(F)cc12REMARK SMILES IDX 1 1 2 2 3 3 13 4 14 5 15 6 16 7 17 8 18 9 19 10 20 11 21 12REMARK SMILES IDX 22 13 23 14 24 15 25 16 26 17 4 19 5 20 12 21 6 22 11 23REMARK SMILES IDX 7 24 10 25 8 26 9 27REMARK H PARENT 19 18 12 28USER                              x       y       z     vdW  Elec       q    TypeUSER                           _______ _______ _______ _____ _____    ______ ____ROOTATOM      1  C   UNL     1      35.795  45.239  14.203 -0.33 -0.02    +0.046 C  ATOM      2  C   UNL     1      35.030  45.438  15.491 -0.32 +0.02    -0.031 A  ATOM      3  C   UNL     1      35.483  46.016  16.632 -0.34 -0.02    +0.021 A  ATOM      4  C   UNL     1      34.612  46.105  17.816 -0.44 -0.01    +0.012 A  ATOM      5  C   UNL     1      34.676  45.257  18.857 -0.40 -0.00    +0.001 A  ATOM      6  C   UNL     1      35.582  44.136  18.905 -0.36 -0.00    +0.006 A  ATOM      7  C   UNL     1      35.403  42.962  18.282 -0.32 -0.02    +0.071 A  ATOM      8  C   UNL     1      34.135  42.587  17.626 -0.21 -0.08    +0.248 A  ATOM      9  O   UNL     1      33.237  42.029  18.248 -0.24 +0.06    -0.270 OA ATOM     10  N   UNL     1      34.132  42.699  16.250 -0.20 +0.15    -0.322 N  ATOM     11  C   UNL     1      33.213  43.669  15.728 -0.25 -0.02    +0.049 A  ATOM     12  C   UNL     1      31.876  43.282  15.529 -0.34 -0.02    +0.030 A  ATOM     13  C   UNL     1      30.948  44.190  15.022 -0.34 -0.03    +0.041 A  ATOM     14  C   UNL     1      31.357  45.476  14.697 -0.39 -0.08    +0.123 A  ATOM     15  F   UNL     1      30.468  46.346  14.202 -0.17 +0.11    -0.207 F  ATOM     16  C   UNL     1      32.679  45.870  14.865 -0.21 -0.05    +0.049 A  ATOM     17  C   UNL     1      33.626  44.969  15.380 -0.28 -0.00    +0.005 A  ATOM     18  H   UNL     1      33.742  41.803  15.974 -0.47 -0.13    +0.170 HD ENDROOTBRANCH   3  19ATOM     19  C   UNL     1      36.851  46.439  16.713 -0.25 -0.08    +0.138 A  ATOM     20  N   UNL     1      37.839  46.069  17.503 -0.24 +0.07    -0.229 NA ATOM     21  N   UNL     1      37.275  47.427  15.852 -0.18 +0.25    -0.338 N  ATOM     22  C   UNL     1      38.916  46.841  17.150 -0.35 -0.03    +0.089 A  ATOM     23  C   UNL     1      38.590  47.707  16.116 -0.39 -0.03    +0.066 A  ATOM     24  C   UNL     1      40.215  46.867  17.675 -0.47 -0.00    +0.030 A  ATOM     25  C   UNL     1      39.496  48.608  15.551 -0.52 -0.01    +0.028 A  ATOM     26  C   UNL     1      41.145  47.762  17.134 -0.49 -0.00    +0.002 A  ATOM     27  C   UNL     1      40.789  48.617  16.088 -0.59 -0.00    +0.002 A  ATOM     28  H   UNL     1      36.707  47.860  15.138 +0.13 -0.16    +0.168 HD ENDBRANCH   3  19TORSDOF 1TERENDMDL