REMARK SMILES CCCC1(CCS(=O)(=O)Nc2cc3c(cc2Cl)OCO3)CCCC1
REMARK SMILES IDX 5 1 4 2 21 3 24 4 22 5 23 6 3 7 2 8 1 9 6 10 7 11 8 12 9 13
REMARK SMILES IDX 10 14 11 16 12 17 16 18 13 19 15 20 14 21 20 22 18 23 19 24
REMARK SMILES IDX 17 25
REMARK H PARENT 10 15
ROOT
ATOM      1  C   UNL     1      -1.237  -0.301   1.057  1.00  0.00     0.025 C 
ENDROOT
BRANCH   1   2
ATOM      2  C   UNL     1      -2.418   0.411   0.358  1.00  0.00    -0.029 C 
ATOM      3  C   UNL     1      -3.438   0.929   1.396  1.00  0.00     0.007 C 
ATOM      4  C   UNL     1      -1.963   1.760  -0.253  1.00  0.00     0.007 C 
ATOM      5  C   UNL     1      -4.167   2.090   0.722  1.00  0.00     0.001 C 
ATOM      6  C   UNL     1      -3.228   2.605  -0.363  1.00  0.00     0.001 C 
BRANCH   2   7
ATOM      7  C   UNL     1      -3.087  -0.462  -0.749  1.00  0.00     0.007 C 
BRANCH   7   8
ATOM      8  C   UNL     1      -3.347  -1.949  -0.461  1.00  0.00    -0.003 C 
ATOM      9  C   UNL     1      -4.350  -2.233   0.642  1.00  0.00     0.004 C 
ENDBRANCH   7   8
ENDBRANCH   2   7
ENDBRANCH   1   2
BRANCH   1  10
ATOM     10  C   UNL     1      -0.078  -0.662   0.128  1.00  0.00     0.160 C 
BRANCH  10  11
ATOM     11  S   UNL     1       1.213  -1.527   1.020  1.00  0.00     0.232 S 
ATOM     12  O   UNL     1       1.818  -0.624   1.973  1.00  0.00    -0.207 OA
ATOM     13  O   UNL     1       0.696  -2.820   1.413  1.00  0.00    -0.207 OA
BRANCH  11  14
ATOM     14  N   UNL     1       2.303  -1.847  -0.248  1.00  0.00    -0.282 N 
ATOM     15  H   UNL     1       2.447  -2.863  -0.266  1.00  0.00     0.180 HD
BRANCH  14  16
ATOM     16  C   UNL     1       3.536  -1.108  -0.210  1.00  0.00     0.071 A 
ATOM     17  C   UNL     1       3.550   0.202  -0.699  1.00  0.00     0.079 A 
ATOM     18  C   UNL     1       4.695  -1.660   0.387  1.00  0.00     0.069 A 
ATOM     19  C   UNL     1       4.729   0.909  -0.591  1.00  0.00     0.167 A 
ATOM     20  C   UNL     1       5.875  -0.919   0.481  1.00  0.00     0.073 A 
ATOM     21  C   UNL     1       5.856   0.366  -0.018  1.00  0.00     0.167 A 
ATOM     22  O   UNL     1       4.928   2.185  -1.016  1.00  0.00    -0.454 OA
ATOM     23  O   UNL     1       6.903   1.233  -0.014  1.00  0.00    -0.454 OA
ATOM     24  C   UNL     1       6.304   2.392  -0.631  1.00  0.00     0.468 C 
ATOM     25  Cl  UNL     1       4.689  -3.280   0.992  1.00  0.00    -0.082 Cl
ENDBRANCH  14  16
ENDBRANCH  11  14
ENDBRANCH  10  11
ENDBRANCH   1  10
TORSDOF 7
