REMARK SMILES CC(C)NC(=O)Nc1cccc(-c2ccnc3cc(C(=O)O)ccc23)c1N
REMARK SMILES IDX 13 1 14 2 15 3 16 4 17 5 18 6 19 7 23 8 24 9 25 10 12 11
REMARK SMILES IDX 8 12 9 13 26 14 10 15 11 16 7 17 4 18 5 19 6 21 2 23 1 24
REMARK SMILES IDX 3 25 27 26 20 29 21 30 22 31
REMARK H PARENT 4 20 7 22 27 27 27 28 22 32
ROOT
ATOM      1  C   UNL     1       2.279  -0.152   1.800  1.00  0.00    -0.005 A 
ATOM      2  C   UNL     1       2.547  -0.917   2.941  1.00  0.00     0.029 A 
ATOM      3  C   UNL     1       3.750  -1.585   3.023  1.00  0.00     0.112 A 
ATOM      4  N   UNL     1       4.692  -1.546   2.061  1.00  0.00    -0.256 NA
ATOM      5  C   UNL     1       4.456  -0.810   0.964  1.00  0.00     0.072 A 
ATOM      6  C   UNL     1       5.436  -0.774  -0.017  1.00  0.00     0.044 A 
ATOM      7  C   UNL     1       5.271  -0.034  -1.193  1.00  0.00     0.062 A 
ATOM      8  C   UNL     1       4.096   0.689  -1.391  1.00  0.00     0.016 A 
ATOM      9  C   UNL     1       3.098   0.665  -0.417  1.00  0.00     0.012 A 
ATOM     10  C   UNL     1       3.258  -0.083   0.774  1.00  0.00     0.008 A 
ENDROOT
BRANCH   1  11
ATOM     11  C   UNL     1       0.984   0.544   1.710  1.00  0.00     0.007 A 
ATOM     12  C   UNL     1      -1.357   0.680   1.002  1.00  0.00     0.066 A 
ATOM     13  C   UNL     1      -1.435   1.979   1.501  1.00  0.00     0.028 A 
ATOM     14  C   UNL     1      -0.158  -0.061   1.133  1.00  0.00     0.063 A 
ATOM     15  C   UNL     1      -0.325   2.559   2.115  1.00  0.00     0.003 A 
ATOM     16  C   UNL     1       0.873   1.851   2.216  1.00  0.00     0.011 A 
BRANCH  12  17
ATOM     17  N   UNL     1      -2.424   0.016   0.361  1.00  0.00    -0.306 N 
ATOM     18  N   UNL     1      -4.452  -0.496  -0.510  1.00  0.00    -0.336 N 
ATOM     19  C   UNL     1      -3.717   0.442   0.190  1.00  0.00     0.319 C 
ATOM     20  H   UNL     1      -3.915  -1.090  -1.125  1.00  0.00     0.165 HD
ATOM     21  O   UNL     1      -4.199   1.494   0.588  1.00  0.00    -0.248 OA
ATOM     22  H   UNL     1      -2.215  -0.953   0.149  1.00  0.00     0.171 HD
BRANCH  18  23
ATOM     23  C   UNL     1      -5.833  -0.236  -0.893  1.00  0.00     0.077 C 
ATOM     24  C   UNL     1      -6.556  -1.554  -1.149  1.00  0.00     0.030 C 
ATOM     25  C   UNL     1      -5.897   0.663  -2.126  1.00  0.00     0.030 C 
ENDBRANCH  18  23
ENDBRANCH  12  17
BRANCH  14  26
ATOM     26  N   UNL     1      -0.071  -1.323   0.461  1.00  0.00    -0.397 N 
ATOM     27  H   UNL     1       0.181  -1.149  -0.513  1.00  0.00     0.156 HD
ATOM     28  H   UNL     1       0.667  -1.895   0.871  1.00  0.00     0.156 HD
ENDBRANCH  14  26
ENDBRANCH   1  11
BRANCH   7  29
ATOM     29  C   UNL     1       6.310   0.012  -2.247  1.00  0.00     0.335 C 
ATOM     30  O   UNL     1       6.230   0.622  -3.297  1.00  0.00    -0.246 OA
BRANCH  29  31
ATOM     31  O   UNL     1       7.400  -0.711  -1.939  1.00  0.00    -0.478 OA
ATOM     32  H   UNL     1       7.995  -0.590  -2.708  1.00  0.00     0.297 HD
ENDBRANCH  29  31
ENDBRANCH   7  29
TORSDOF 6
