MODEL        3USER    Run = 3USERUSER    Estimated Free Energy of Binding    =  -7.19 kcal/mol  [=(1)+(2)+(3)-(4)]USERUSER    (1) Final Intermolecular Energy     =  -8.98 kcal/molUSER        vdW + Hbond + desolv Energy     =  -8.43 kcal/molUSER        Electrostatic Energy            =  -0.55 kcal/molUSER        Moving Ligand-Fixed Receptor    =  -8.98 kcal/molUSER        Moving Ligand-Moving Receptor   =  +0.00 kcal/molUSER    (2) Final Total Internal Energy     =  -1.10 kcal/molUSER    (3) Torsional Free Energy           =  +1.79 kcal/molUSER    (4) Unbound System's Energy         =  -1.10 kcal/molUSERUSERREMARK SMILES O=[N+]([O-])c1ccc(-c2ccnc(NCCO)n2)cc1REMARK SMILES IDX 13 1 12 3 8 4 9 5 17 6 10 7 11 8 7 9 4 10 5 11 19 12 6 13REMARK SMILES IDX 18 14 2 15 1 16 3 17 14 18 15 19 16 20REMARK H PARENT 13 2 16 21USER                              x       y       z     vdW  Elec       q    TypeUSER                           _______ _______ _______ _____ _____    ______ ____ROOTATOM      1  N   UNL     1      32.837  45.507  15.959 -0.11 +0.31    -0.352 N  ATOM      2  H   UNL     1      32.932  46.426  16.378 -0.38 -0.30    +0.163 HD ENDROOTBRANCH   1   3ATOM      3  C   UNL     1      34.081  44.912  16.107 -0.16 -0.15    +0.223 A  ATOM      4  C   UNL     1      36.369  45.214  16.123 -0.29 -0.04    +0.076 A  ATOM      5  C   UNL     1      36.564  43.876  16.399 -0.34 -0.02    +0.049 A  ATOM      6  N   UNL     1      35.129  45.732  15.966 -0.21 +0.18    -0.213 NA ATOM      7  C   UNL     1      35.428  43.114  16.513 -0.35 -0.04    +0.117 A  ATOM      8  N   UNL     1      34.188  43.607  16.373 -0.21 +0.10    -0.222 NA BRANCH   4   9ATOM      9  C   UNL     1      37.484  46.175  15.969 -0.38 -0.00    +0.001 A  ATOM     10  C   UNL     1      39.586  48.041  15.656 -0.31 -0.09    +0.269 A  ATOM     11  C   UNL     1      38.317  48.335  15.152 -0.46 -0.05    +0.086 A  ATOM     12  C   UNL     1      39.820  46.831  16.318 -0.41 -0.02    +0.086 A  ATOM     13  C   UNL     1      37.281  47.407  15.313 -0.43 -0.01    +0.017 A  ATOM     14  C   UNL     1      38.773  45.912  16.471 -0.38 -0.00    +0.017 A  BRANCH  10  15ATOM     15  N   UNL     1      40.679  49.007  15.492 -0.58 -0.01    +0.062 N  ATOM     16  O   UNL     1      40.802  49.554  14.386 -0.47 +0.08    -0.258 OA ATOM     17  O   UNL     1      41.412  49.222  16.468 -1.09 -0.00    -0.258 OA ENDBRANCH  10  15ENDBRANCH   4   9ENDBRANCH   1   3BRANCH   1  18ATOM     18  C   UNL     1      32.297  45.504  14.609 -0.30 -0.11    +0.144 C  BRANCH  18  19ATOM     19  C   UNL     1      31.141  46.497  14.435 -0.44 -0.11    +0.177 C  BRANCH  19  20ATOM     20  O   UNL     1      30.881  47.184  15.661 -0.78 +0.13    -0.395 OA ATOM     21  H   UNL     1      31.655  47.743  15.842 -0.36 -0.39    +0.210 HD ENDBRANCH  19  20ENDBRANCH  18  19ENDBRANCH   1  18TORSDOF 6TERENDMDL