MODEL        4USER    Run = 4USERUSER    Estimated Free Energy of Binding    = -10.53 kcal/mol  [=(1)+(2)+(3)-(4)]USERUSER    (1) Final Intermolecular Energy     = -12.62 kcal/molUSER        vdW + Hbond + desolv Energy     = -12.49 kcal/molUSER        Electrostatic Energy            =  -0.13 kcal/molUSER        Moving Ligand-Fixed Receptor    = -12.62 kcal/molUSER        Moving Ligand-Moving Receptor   =  +0.00 kcal/molUSER    (2) Final Total Internal Energy     =  -1.52 kcal/molUSER    (3) Torsional Free Energy           =  +2.09 kcal/molUSER    (4) Unbound System's Energy         =  -1.52 kcal/molUSERUSERREMARK SMILES C[C@@H]1[C@H]([C@@H](C)NC(=O)c2ccc(O)cc2)CCCN1C(=O)c1ccc(-c2cncs2)cc1FREMARK SMILES IDX 4 1 5 2 3 3 2 4 19 5 16 6 18 7 17 8 1 9 20 10 21 11 22 12REMARK SMILES IDX 23 13 32 14 24 15 31 16 25 17 33 18 26 19 27 20 30 21 28 22REMARK SMILES IDX 29 23 6 24 7 25 8 27 9 28 10 29 15 30 11 31 14 32 12 33REMARK SMILES IDX 13 34REMARK H PARENT 6 26 13 35USER                              x       y       z     vdW  Elec       q    TypeUSER                           _______ _______ _______ _____ _____    ______ ____ROOTATOM      1  C   UNL     1      37.142  44.074  21.836 -0.38 +0.01    +0.084 C  ATOM      2  C   UNL     1      36.156  43.639  20.753 -0.45 +0.00    +0.031 C  ENDROOTBRANCH   1   3ATOM      3  C   UNL     1      38.656  44.041  21.457 -0.35 +0.00    +0.034 C  ATOM      4  C   UNL     1      39.327  45.412  21.190 -0.34 +0.00    +0.087 C  ATOM      5  N   UNL     1      40.674  45.225  20.592 -0.15 -0.02    -0.335 N  ATOM      6  C   UNL     1      39.509  43.166  22.396 -0.29 +0.00    +0.009 C  ATOM      7  C   UNL     1      41.387  43.982  20.882 -0.32 +0.01    +0.120 C  ATOM      8  C   UNL     1      41.015  43.387  22.230 -0.34 +0.00    +0.022 C  ATOM      9  C   UNL     1      39.422  46.330  22.412 -0.16 +0.00    +0.031 C  BRANCH   5  10ATOM     10  C   UNL     1      41.243  46.066  19.631 -0.31 +0.02    +0.257 C  ATOM     11  O   UNL     1      42.309  46.657  19.774 -0.34 -0.05    -0.269 OA BRANCH  10  12ATOM     12  C   UNL     1      40.528  46.289  18.369 -0.43 -0.00    +0.075 A  ATOM     13  C   UNL     1      40.793  47.428  17.612 -0.51 -0.00    +0.017 A  ATOM     14  C   UNL     1      39.611  45.347  17.919 -0.32 -0.01    +0.136 A  ATOM     15  C   UNL     1      40.089  47.639  16.422 -0.52 -0.00    +0.010 A  ATOM     16  C   UNL     1      38.911  45.554  16.733 -0.30 -0.01    +0.049 A  ATOM     17  C   UNL     1      39.132  46.711  15.971 -0.44 +0.00    -0.004 A  ATOM     18  F   UNL     1      39.353  44.244  18.634 -0.09 +0.01    -0.206 F  BRANCH  17  19ATOM     19  C   UNL     1      38.368  46.979  14.747 -0.41 -0.02    +0.054 A  ATOM     20  C   UNL     1      38.140  48.177  14.092 -0.42 -0.06    +0.131 A  ATOM     21  S   UNL     1      37.591  45.720  13.870 -0.53 +0.04    -0.122 S  ATOM     22  N   UNL     1      37.369  48.114  12.949 -0.87 +0.06    -0.252 NA ATOM     23  C   UNL     1      37.022  46.866  12.737 -0.47 -0.06    +0.176 A  ENDBRANCH  17  19ENDBRANCH  10  12ENDBRANCH   5  10ENDBRANCH   1   3BRANCH   1  24ATOM     24  N   UNL     1      36.879  43.317  23.059 -0.17 -0.04    -0.349 N  ATOM     25  C   UNL     1      36.934  43.902  24.308 -0.21 +0.03    +0.251 C  ATOM     26  H   UNL     1      36.585  42.355  22.976 +0.10 +0.01    +0.164 HD ATOM     27  O   UNL     1      37.117  45.101  24.479 -0.53 -0.05    -0.269 OA BRANCH  25  28ATOM     28  C   UNL     1      36.744  42.997  25.477 -0.35 -0.00    +0.040 A  ATOM     29  C   UNL     1      37.705  42.047  25.858 -0.33 -0.00    +0.017 A  ATOM     30  C   UNL     1      35.576  43.141  26.239 -0.34 -0.00    +0.017 A  ATOM     31  C   UNL     1      37.486  41.247  26.981 -0.41 -0.01    +0.047 A  ATOM     32  C   UNL     1      35.359  42.338  27.360 -0.54 -0.01    +0.047 A  ATOM     33  C   UNL     1      36.318  41.399  27.720 -0.46 -0.04    +0.115 A  BRANCH  33  34ATOM     34  O   UNL     1      36.153  40.607  28.812 -0.15 +0.28    -0.508 OA ATOM     35  H   UNL     1      36.750  40.914  29.517 -0.35 -0.21    +0.293 HD ENDBRANCH  33  34ENDBRANCH  25  28ENDBRANCH   1  24TORSDOF 7TERENDMDL