MODEL        4USER    Run = 4USERUSER    Estimated Free Energy of Binding    =  -9.77 kcal/mol  [=(1)+(2)+(3)-(4)]USERUSER    (1) Final Intermolecular Energy     = -11.56 kcal/molUSER        vdW + Hbond + desolv Energy     = -11.28 kcal/molUSER        Electrostatic Energy            =  -0.28 kcal/molUSER        Moving Ligand-Fixed Receptor    = -11.56 kcal/molUSER        Moving Ligand-Moving Receptor   =  +0.00 kcal/molUSER    (2) Final Total Internal Energy     =  -1.27 kcal/molUSER    (3) Torsional Free Energy           =  +1.79 kcal/molUSER    (4) Unbound System's Energy         =  -1.27 kcal/molUSERUSERREMARK SMILES CC(C)NC(=O)Nc1cccc(-c2ccnc3cc(C(=O)O)ccc23)c1NREMARK SMILES IDX 13 1 14 2 15 3 16 4 17 5 18 6 19 7 23 8 24 9 25 10 12 11REMARK SMILES IDX 8 12 9 13 26 14 10 15 11 16 7 17 4 18 5 19 6 21 2 23 1 24REMARK SMILES IDX 3 25 27 26 20 29 21 30 22 31REMARK H PARENT 4 20 7 22 27 27 27 28 22 32USER                              x       y       z     vdW  Elec       q    TypeUSER                           _______ _______ _______ _____ _____    ______ ____ROOTATOM      1  C   UNL     1      36.396  46.074  14.706 -0.40 +0.00    -0.005 A  ATOM      2  C   UNL     1      35.756  46.536  13.550 -0.49 -0.02    +0.029 A  ATOM      3  C   UNL     1      36.271  47.638  12.902 -0.54 -0.06    +0.112 A  ATOM      4  N   UNL     1      37.365  48.304  13.320 -0.73 +0.09    -0.256 NA ATOM      5  C   UNL     1      37.997  47.870  14.421 -0.47 -0.03    +0.072 A  ATOM      6  C   UNL     1      39.125  48.563  14.838 -0.47 -0.02    +0.044 A  ATOM      7  C   UNL     1      39.842  48.180  15.977 -0.49 -0.02    +0.062 A  ATOM      8  C   UNL     1      39.421  47.076  16.716 -0.46 -0.00    +0.016 A  ATOM      9  C   UNL     1      38.289  46.367  16.314 -0.39 -0.00    +0.012 A  ATOM     10  C   UNL     1      37.557  46.750  15.164 -0.40 -0.00    +0.008 A  ENDROOTBRANCH   1  11ATOM     11  C   UNL     1      35.829  44.908  15.404 -0.35 -0.00    +0.007 A  ATOM     12  C   UNL     1      33.946  43.499  16.090 -0.29 -0.03    +0.066 A  ATOM     13  C   UNL     1      34.811  42.704  16.841 -0.41 -0.01    +0.028 A  ATOM     14  C   UNL     1      34.452  44.586  15.338 -0.13 -0.04    +0.063 A  ATOM     15  C   UNL     1      36.176  42.990  16.866 -0.27 -0.00    +0.003 A  ATOM     16  C   UNL     1      36.680  44.082  16.159 -0.36 -0.00    +0.011 A  BRANCH  12  17ATOM     17  N   UNL     1      32.554  43.290  16.010 -0.16 +0.15    -0.306 N  ATOM     18  N   UNL     1      30.309  43.599  16.007 -0.11 +0.15    -0.336 N  ATOM     19  C   UNL     1      31.541  44.198  16.190 -0.17 -0.13    +0.319 C  ATOM     20  H   UNL     1      30.310  42.794  15.398 +0.09 -0.10    +0.165 HD ATOM     21  O   UNL     1      31.662  45.381  16.478 -0.78 +0.08    -0.248 OA ATOM     22  H   UNL     1      32.304  42.308  15.965 -0.36 -0.11    +0.171 HD BRANCH  18  23ATOM     23  C   UNL     1      29.079  44.378  16.059 -0.30 -0.03    +0.077 C  ATOM     24  C   UNL     1      27.874  43.450  15.950 -0.28 -0.02    +0.030 C  ATOM     25  C   UNL     1      29.052  45.430  14.953 -0.09 -0.02    +0.030 C  ENDBRANCH  18  23ENDBRANCH  12  17BRANCH  14  26ATOM     26  N   UNL     1      33.511  45.471  14.720 +0.02 +0.33    -0.397 N  ATOM     27  H   UNL     1      32.647  44.953  14.554 +0.11 -0.10    +0.156 HD ATOM     28  H   UNL     1      33.288  46.247  15.343 -0.32 -0.25    +0.156 HD ENDBRANCH  14  26ENDBRANCH   1  11BRANCH   7  29ATOM     29  C   UNL     1      41.047  48.911  16.431 -0.33 -0.04    +0.335 C  ATOM     30  O   UNL     1      41.437  49.978  15.995 -1.08 +0.02    -0.246 OA BRANCH  29  31ATOM     31  O   UNL     1      41.711  48.269  17.408 -0.54 +0.00    -0.478 OA ATOM     32  H   UNL     1      42.276  47.626  16.933 -0.32 -0.07    +0.297 HD ENDBRANCH  29  31ENDBRANCH   7  29TORSDOF 6TERENDMDL