MODEL        6USER    Run = 6USERUSER    Estimated Free Energy of Binding    =  -9.04 kcal/mol  [=(1)+(2)+(3)-(4)]USERUSER    (1) Final Intermolecular Energy     = -10.83 kcal/molUSER        vdW + Hbond + desolv Energy     = -10.41 kcal/molUSER        Electrostatic Energy            =  -0.41 kcal/molUSER        Moving Ligand-Fixed Receptor    = -10.83 kcal/molUSER        Moving Ligand-Moving Receptor   =  +0.00 kcal/molUSER    (2) Final Total Internal Energy     =  -0.87 kcal/molUSER    (3) Torsional Free Energy           =  +1.79 kcal/molUSER    (4) Unbound System's Energy         =  -0.87 kcal/molUSERUSERREMARK SMILES COc1cc(C(=O)N2SC(=N)N[C@@H]2NC2CCOCC2)ccc1ClREMARK SMILES IDX 6 1 7 2 5 3 3 4 4 5 23 6 22 7 21 8 24 9 2 10 1 11 8 12 9 13REMARK SMILES IDX 13 14 10 15 12 16 14 18 15 20 16 21 20 22 17 23 19 24 18 25REMARK SMILES IDX 11 26REMARK H PARENT 12 17 14 19 11 27USER                              x       y       z     vdW  Elec       q    TypeUSER                           _______ _______ _______ _____ _____    ______ ____ROOTATOM      1  C   UNL     1      38.176  45.053  17.680 -0.25 -0.06    +0.267 C  ATOM      2  O   UNL     1      38.779  44.270  18.412 -0.24 +0.03    -0.268 OA ENDROOTBRANCH   1   3ATOM      3  C   UNL     1      39.005  46.027  16.938 -0.38 -0.01    +0.044 A  ATOM      4  C   UNL     1      40.637  47.817  16.908 -0.42 -0.02    +0.138 A  ATOM      5  C   UNL     1      39.877  46.883  17.620 -0.42 -0.01    +0.061 A  ATOM      6  C   UNL     1      40.494  47.884  15.509 -0.47 -0.01    +0.083 A  ATOM      7  C   UNL     1      39.601  47.042  14.838 -0.45 -0.01    +0.025 A  ATOM      8  C   UNL     1      38.846  46.116  15.553 -0.39 -0.00    +0.015 A  ATOM      9  Cl  UNL     1      41.409  49.005  14.563 -0.77 +0.01    -0.080 Cl BRANCH   4  10ATOM     10  O   UNL     1      41.529  48.686  17.478 -0.54 -0.00    -0.495 OA ATOM     11  C   UNL     1      42.449  48.166  18.428 -0.11 +0.00    +0.278 C  ENDBRANCH   4  10ENDBRANCH   1   3BRANCH   1  12ATOM     12  N   UNL     1      36.801  45.103  17.516 -0.19 +0.08    -0.240 N  ATOM     13  S   UNL     1      35.781  44.459  18.763 -0.49 -0.01    +0.032 SA ATOM     14  C   UNL     1      36.084  46.043  16.664 -0.23 -0.18    +0.267 C  ATOM     15  C   UNL     1      34.483  45.508  18.348 -0.38 -0.09    +0.177 C  ATOM     16  N   UNL     1      34.772  46.246  17.204 -0.18 +0.34    -0.330 N  ATOM     17  H   UNL     1      34.109  46.949  16.916 -0.31 -0.37    +0.166 HD BRANCH  14  18ATOM     18  N   UNL     1      35.875  45.416  15.388 -0.16 +0.16    -0.276 NA ATOM     19  H   UNL     1      35.009  44.887  15.463 +0.09 -0.07    +0.126 HD BRANCH  18  20ATOM     20  C   UNL     1      35.804  46.331  14.242 -0.46 -0.04    +0.062 C  ATOM     21  C   UNL     1      36.533  47.657  14.494 -0.46 -0.04    +0.047 C  ATOM     22  C   UNL     1      36.423  45.636  13.019 -0.54 -0.02    +0.047 C  ATOM     23  C   UNL     1      36.563  48.496  13.222 -0.41 -0.08    +0.161 C  ATOM     24  C   UNL     1      36.452  46.585  11.829 -0.60 -0.07    +0.161 C  ATOM     25  O   UNL     1      37.167  47.774  12.151 -0.97 +0.07    -0.381 OA ENDBRANCH  18  20ENDBRANCH  14  18BRANCH  15  26ATOM     26  N   UNL     1      33.373  45.647  18.961 -0.24 +0.13    -0.277 NA ATOM     27  H   UNL     1      33.491  46.423  19.620 -0.42 -0.12    +0.190 HD ENDBRANCH  15  26ENDBRANCH   1  12TORSDOF 6TERENDMDL