REMARK SMILES COc1cc(C(=O)N2SC(=N)N[C@@H]2NC2CCOCC2)ccc1Cl
REMARK SMILES IDX 6 1 7 2 5 3 3 4 4 5 23 6 22 7 21 8 24 9 2 10 1 11 8 12 9 13
REMARK SMILES IDX 13 14 10 15 12 16 14 18 15 20 16 21 20 22 17 23 19 24 18 25
REMARK SMILES IDX 11 26
REMARK H PARENT 12 17 14 19 11 27
ROOT
ATOM      1  C   UNL     1       1.784   2.530  -0.198  1.00  0.00     0.267 C 
ATOM      2  O   UNL     1       2.638   3.415  -0.209  1.00  0.00    -0.268 OA
ENDROOT
BRANCH   1   3
ATOM      3  C   UNL     1       2.154   1.254  -0.845  1.00  0.00     0.044 A 
ATOM      4  C   UNL     1       2.690  -1.105  -0.704  1.00  0.00     0.138 A 
ATOM      5  C   UNL     1       2.315   0.091  -0.083  1.00  0.00     0.061 A 
ATOM      6  C   UNL     1       2.913  -1.107  -2.094  1.00  0.00     0.083 A 
ATOM      7  C   UNL     1       2.775   0.065  -2.845  1.00  0.00     0.025 A 
ATOM      8  C   UNL     1       2.403   1.253  -2.220  1.00  0.00     0.015 A 
ATOM      9  Cl  UNL     1       3.367  -2.550  -2.931  1.00  0.00    -0.080 Cl
BRANCH   4  10
ATOM     10  O   UNL     1       2.857  -2.298  -0.052  1.00  0.00    -0.495 OA
ATOM     11  C   UNL     1       2.638  -2.324   1.352  1.00  0.00     0.278 C 
ENDBRANCH   4  10
ENDBRANCH   1   3
BRANCH   1  12
ATOM     12  N   UNL     1       0.516   2.644   0.350  1.00  0.00    -0.240 N 
ATOM     13  S   UNL     1      -0.008   4.188   0.943  1.00  0.00     0.032 SA
ATOM     14  C   UNL     1      -0.610   1.764   0.067  1.00  0.00     0.267 C 
ATOM     15  C   UNL     1      -1.665   3.817   0.665  1.00  0.00     0.177 C 
ATOM     16  N   UNL     1      -1.827   2.499   0.248  1.00  0.00    -0.330 N 
ATOM     17  H   UNL     1      -2.752   2.198  -0.017  1.00  0.00     0.166 HD
BRANCH  14  18
ATOM     18  N   UNL     1      -0.635   0.738   1.073  1.00  0.00    -0.276 NA
ATOM     19  H   UNL     1      -0.810   1.205   1.960  1.00  0.00     0.126 HD
BRANCH  18  20
ATOM     20  C   UNL     1      -1.627  -0.324   0.864  1.00  0.00     0.062 C 
ATOM     21  C   UNL     1      -1.273  -1.245  -0.311  1.00  0.00     0.047 C 
ATOM     22  C   UNL     1      -1.732  -1.159   2.149  1.00  0.00     0.047 C 
ATOM     23  C   UNL     1      -2.247  -2.415  -0.381  1.00  0.00     0.161 C 
ATOM     24  C   UNL     1      -2.685  -2.329   1.945  1.00  0.00     0.161 C 
ATOM     25  O   UNL     1      -2.263  -3.136   0.849  1.00  0.00    -0.381 OA
ENDBRANCH  18  20
ENDBRANCH  14  18
BRANCH  15  26
ATOM     26  N   UNL     1      -2.666   4.595   0.800  1.00  0.00    -0.277 NA
ATOM     27  H   UNL     1      -2.301   5.501   1.109  1.00  0.00     0.190 HD
ENDBRANCH  15  26
ENDBRANCH   1  12
TORSDOF 6
