MODEL        9USER    Run = 9USERUSER    Estimated Free Energy of Binding    =  -6.51 kcal/mol  [=(1)+(2)+(3)-(4)]USERUSER    (1) Final Intermolecular Energy     = -10.98 kcal/molUSER        vdW + Hbond + desolv Energy     = -12.12 kcal/molUSER        Electrostatic Energy            =  -0.29 kcal/molUSER        Moving Ligand-Fixed Receptor    = -12.41 kcal/molUSER        Moving Ligand-Moving Receptor   =  +1.43 kcal/molUSER    (2) Final Total Internal Energy     =  -2.70 kcal/molUSER    (3) Torsional Free Energy           =  +4.47 kcal/molUSER    (4) Unbound System's Energy         =  -2.70 kcal/molUSERUSERREMARK SMILES COc1ccc(O)c(C(=O)c2ccc(NC[C@@H]3CCCNC[C@@H]3NC(=O)c3ccncc3)cc2)c1FREMARK SMILES IDX 16 1 15 2 14 4 11 5 12 6 34 7 13 8 33 9 9 10 10 11 8 12 3 13REMARK SMILES IDX 4 14 35 15 5 16 6 17 36 18 2 19 1 20 7 21 17 23 18 24 23 26REMARK SMILES IDX 22 27 21 28 20 30 19 31 24 33 25 34 26 36 27 37 28 38 32 39REMARK SMILES IDX 29 40 31 41 30 42REMARK H PARENT 15 3 7 22 21 29 24 35REMARK Flexibility Score:   99.900USER                              x       y       z     vdW  Elec       q    TypeUSER                           _______ _______ _______ _____ _____    ______ ____ROOTATOM      1  C   UNL     1      38.660  47.174  16.199 -0.41 -0.05    +0.118 C  ENDROOTBRANCH   1   2ATOM      2  N   UNL     1      39.716  46.206  16.511 -0.15 +0.07    -0.385 N  ATOM      3  H   UNL     1      39.480  45.255  16.245 +0.12 -0.02    +0.160 HD BRANCH   2   4ATOM      4  C   UNL     1      40.491  46.288  17.664 -0.47 -0.00    +0.034 A  ATOM      5  C   UNL     1      42.046  46.631  20.004 -0.41 +0.00    +0.023 A  ATOM      6  C   UNL     1      41.113  45.597  19.920 -0.40 +0.00    +0.014 A  ATOM      7  C   UNL     1      42.166  47.531  18.945 -0.44 +0.00    +0.014 A  ATOM      8  C   UNL     1      40.339  45.435  18.764 -0.44 -0.00    +0.026 A  ATOM      9  C   UNL     1      41.389  47.357  17.793 -0.48 -0.00    +0.026 A  BRANCH   5  10ATOM     10  C   UNL     1      42.819  46.786  21.260 -0.29 +0.05    +0.199 C  ATOM     11  O   UNL     1      43.989  46.399  21.295 -0.40 -0.21    -0.288 OA BRANCH  10  12ATOM     12  C   UNL     1      42.242  47.337  22.506 -0.22 +0.02    +0.104 A  ATOM     13  C   UNL     1      40.465  47.462  24.172 -0.20 +0.02    +0.155 A  ATOM     14  C   UNL     1      41.204  48.408  24.885 -0.29 +0.01    +0.053 A  ATOM     15  C   UNL     1      40.991  46.940  22.980 -0.12 +0.02    +0.179 A  ATOM     16  C   UNL     1      42.442  48.837  24.402 -0.36 +0.01    +0.051 A  ATOM     17  C   UNL     1      42.948  48.316  23.215 -0.30 +0.03    +0.130 A  ATOM     18  F   UNL     1      40.251  46.063  22.281 -0.06 -0.02    -0.202 F  BRANCH  13  19ATOM     19  O   UNL     1      39.236  46.979  24.534 -0.08 -0.05    -0.494 OA ATOM     20  C   UNL     1      38.432  47.804  25.370 -0.24 +0.02    +0.278 C  ENDBRANCH  13  19BRANCH  17  21ATOM     21  O   UNL     1      44.153  48.815  22.796 -0.34 -0.14    -0.507 OA ATOM     22  H   UNL     1      44.322  48.472  21.888 -0.45 +0.02    +0.293 HD ENDBRANCH  17  21ENDBRANCH  10  12ENDBRANCH   5  10ENDBRANCH   2   4ENDBRANCH   1   2BRANCH   1  23ATOM     23  C   UNL     1      38.035  46.920  14.804 -0.47 -0.01    +0.032 C  BRANCH  23  24ATOM     24  C   UNL     1      36.921  47.950  14.527 -0.57 -0.01    +0.009 CG0ATOM     25  G   UNL     1      36.621  48.335  13.078 +0.00 +0.00    +0.000 G0 ENDBRANCH  23  24BRANCH  23  26ATOM     26  C   UNL     1      37.618  45.438  14.663 -0.38 -0.04    +0.101 C  BRANCH  26  27ATOM     27  C   UNL     1      37.063  45.134  13.251 -0.46 -0.04    +0.106 C  BRANCH  27  28ATOM     28  N   UNL     1      35.929  45.969  12.835 -0.28 +0.16    -0.315 NA ATOM     29  H   UNL     1      35.358  45.412  12.195 +0.08 -0.06    +0.122 HD BRANCH  28  30ATOM     30  C   UNL     1      36.342  47.182  12.127 -0.68 -0.04    +0.081 C  BRANCH  30  31ATOM     31  C   UNL     1      36.618  48.333  13.086 -0.60 -0.01    +0.016 CG0ATOM     32  G   UNL     1      36.909  47.960  14.540 +0.00 +0.00    +0.000 G0 ENDBRANCH  30  31ENDBRANCH  28  30ENDBRANCH  27  28ENDBRANCH  26  27BRANCH  26  33ATOM     33  N   UNL     1      36.648  45.016  15.670 -0.11 +0.15    -0.348 N  ATOM     34  C   UNL     1      36.989  44.310  16.798 -0.23 -0.08    +0.251 C  ATOM     35  H   UNL     1      35.680  45.178  15.420 +0.12 -0.09    +0.164 HD ATOM     36  O   UNL     1      38.139  43.969  17.050 -0.15 +0.05    -0.269 OA BRANCH  34  37ATOM     37  C   UNL     1      35.883  43.940  17.720 -0.29 -0.01    +0.042 A  ATOM     38  C   UNL     1      35.014  42.921  17.327 -0.37 -0.01    +0.034 A  ATOM     39  C   UNL     1      35.705  44.552  18.961 -0.34 -0.01    +0.034 A  ATOM     40  C   UNL     1      33.988  42.571  18.183 -0.31 -0.03    +0.112 A  ATOM     41  C   UNL     1      34.647  44.128  19.746 -0.30 -0.02    +0.112 A  ATOM     42  N   UNL     1      33.783  43.158  19.383 -0.37 +0.02    -0.265 NA ENDBRANCH  34  37ENDBRANCH  26  33ENDBRANCH  23  26ENDBRANCH   1  23TORSDOF 9TERENDMDL