MODEL        6USER    Run = 6USERUSER    Estimated Free Energy of Binding    =  -6.27 kcal/mol  [=(1)+(2)+(3)-(4)]USERUSER    (1) Final Intermolecular Energy     = -10.45 kcal/molUSER        vdW + Hbond + desolv Energy     = -11.10 kcal/molUSER        Electrostatic Energy            =  -0.05 kcal/molUSER        Moving Ligand-Fixed Receptor    = -11.15 kcal/molUSER        Moving Ligand-Moving Receptor   =  +0.70 kcal/molUSER    (2) Final Total Internal Energy     =  -2.68 kcal/molUSER    (3) Torsional Free Energy           =  +4.18 kcal/molUSER    (4) Unbound System's Energy         =  -2.68 kcal/molUSERUSERREMARK SMILES COc1ccc(O)c(C(=O)c2ccc(C(=O)N[C@@H]3CCCNC[C@H]3NC(=O)c3ccncc3)cc2)c1FREMARK SMILES IDX 15 1 16 2 17 3 14 5 11 6 12 7 35 8 13 9 34 10 9 11 10 12REMARK SMILES IDX 8 13 3 14 4 15 36 16 5 17 6 18 37 19 2 20 1 21 7 22 18 24REMARK SMILES IDX 19 25 24 27 23 28 22 29 21 31 20 32 25 34 26 35 27 37 28 38REMARK SMILES IDX 29 39 33 40 30 41 32 42 31 43REMARK H PARENT 17 4 7 23 22 30 25 36REMARK Flexibility Score:   88.900USER                              x       y       z     vdW  Elec       q    TypeUSER                           _______ _______ _______ _____ _____    ______ ____ROOTATOM      1  C   UNL     1      38.973  43.871  22.565 -0.19 +0.01    +0.251 C  ATOM      2  O   UNL     1      39.788  43.062  22.995 -0.18 -0.02    -0.269 OA ATOM      3  N   UNL     1      38.045  44.509  23.362 -0.14 -0.03    -0.347 N  ATOM      4  H   UNL     1      37.284  44.995  22.908 +0.07 +0.02    +0.164 HD ENDROOTBRANCH   1   5ATOM      5  C   UNL     1      38.897  44.157  21.105 -0.28 +0.00    +0.039 A  ATOM      6  C   UNL     1      38.629  44.757  18.379 -0.37 -0.00    +0.023 A  ATOM      7  C   UNL     1      37.508  44.385  19.128 -0.35 -0.00    +0.013 A  ATOM      8  C   UNL     1      39.885  44.828  18.993 -0.42 -0.00    +0.013 A  ATOM      9  C   UNL     1      37.644  44.074  20.484 -0.37 -0.00    +0.014 A  ATOM     10  C   UNL     1      40.022  44.517  20.352 -0.34 +0.00    +0.014 A  BRANCH   6  11ATOM     11  C   UNL     1      38.421  45.153  16.969 -0.26 -0.05    +0.199 C  ATOM     12  O   UNL     1      37.976  44.309  16.190 -0.16 +0.07    -0.288 OA BRANCH  11  13ATOM     13  C   UNL     1      38.670  46.516  16.444 -0.34 -0.03    +0.104 A  ATOM     14  C   UNL     1      40.144  48.409  15.993 -0.43 -0.04    +0.155 A  ATOM     15  C   UNL     1      39.077  49.104  15.417 -0.30 -0.03    +0.053 A  ATOM     16  C   UNL     1      39.929  47.116  16.500 -0.36 -0.04    +0.179 A  ATOM     17  C   UNL     1      37.818  48.503  15.330 -0.47 -0.04    +0.051 A  ATOM     18  C   UNL     1      37.624  47.216  15.826 -0.32 -0.08    +0.130 A  ATOM     19  F   UNL     1      40.974  46.448  17.017 -0.12 +0.02    -0.202 F  BRANCH  14  20ATOM     20  O   UNL     1      41.422  48.885  16.121 -0.77 +0.00    -0.494 OA ATOM     21  C   UNL     1      41.792  49.982  15.291 -0.39 -0.02    +0.278 C  ENDBRANCH  14  20BRANCH  18  22ATOM     22  O   UNL     1      36.366  46.697  15.669 -0.08 +0.41    -0.507 OA ATOM     23  H   UNL     1      36.455  45.715  15.630 +0.22 -0.16    +0.293 HD ENDBRANCH  18  22ENDBRANCH  11  13ENDBRANCH   6  11ENDBRANCH   1   5BRANCH   3  24ATOM     24  C   UNL     1      37.842  44.099  24.757 -0.27 +0.00    +0.106 C  BRANCH  24  25ATOM     25  C   UNL     1      36.516  43.337  24.887 -0.36 +0.00    +0.028 CG0ATOM     26  G   UNL     1      36.068  43.019  26.323 +0.00 +0.00    +0.000 G0 ENDBRANCH  24  25BRANCH  24  27ATOM     27  C   UNL     1      37.961  45.326  25.705 -0.26 +0.00    +0.118 C  BRANCH  27  28ATOM     28  C   UNL     1      37.810  45.004  27.211 -0.29 -0.01    +0.108 C  BRANCH  28  29ATOM     29  N   UNL     1      38.136  43.640  27.640 -0.14 +0.04    -0.315 NA ATOM     30  H   UNL     1      39.052  43.375  27.285 +0.05 -0.01    +0.122 HD BRANCH  29  31ATOM     31  C   UNL     1      37.161  42.609  27.305 -0.40 -0.02    +0.081 C  BRANCH  31  32ATOM     32  C   UNL     1      36.066  43.020  26.324 -0.49 -0.00    +0.017 CG0ATOM     33  G   UNL     1      36.506  43.341  24.886 +0.00 +0.00    +0.000 G0 ENDBRANCH  31  32ENDBRANCH  29  31ENDBRANCH  28  29ENDBRANCH  27  28BRANCH  27  34ATOM     34  N   UNL     1      39.214  46.047  25.444 -0.04 -0.01    -0.346 N  ATOM     35  C   UNL     1      39.352  46.879  24.357 -0.20 +0.02    +0.251 C  ATOM     36  H   UNL     1      39.860  46.138  26.212 +0.06 +0.01    +0.164 HD ATOM     37  O   UNL     1      38.498  47.011  23.490 -0.34 -0.05    -0.269 OA BRANCH  35  38ATOM     38  C   UNL     1      40.610  47.662  24.283 -0.26 +0.00    +0.042 A  ATOM     39  C   UNL     1      40.850  48.622  25.267 -0.29 +0.00    +0.034 A  ATOM     40  C   UNL     1      41.533  47.484  23.251 -0.24 +0.00    +0.034 A  ATOM     41  C   UNL     1      42.020  49.351  25.191 -0.25 +0.02    +0.112 A  ATOM     42  C   UNL     1      42.674  48.266  23.264 -0.31 +0.02    +0.112 A  ATOM     43  N   UNL     1      42.939  49.191  24.215 -0.74 -0.08    -0.265 NA ENDBRANCH  35  38ENDBRANCH  27  34ENDBRANCH  24  27ENDBRANCH   3  24TORSDOF 8TERENDMDL