MODEL        10USER    Run = 10USERUSER    Estimated Free Energy of Binding    = -12.57 kcal/mol  [=(1)+(2)+(3)-(4)]USERUSER    (1) Final Intermolecular Energy     = -14.36 kcal/molUSER        vdW + Hbond + desolv Energy     = -14.29 kcal/molUSER        Electrostatic Energy            =  -0.07 kcal/molUSER        Moving Ligand-Fixed Receptor    = -14.36 kcal/molUSER        Moving Ligand-Moving Receptor   =  +0.00 kcal/molUSER    (2) Final Total Internal Energy     =  -0.59 kcal/molUSER    (3) Torsional Free Energy           =  +1.79 kcal/molUSER    (4) Unbound System's Energy         =  -0.59 kcal/molUSERUSERREMARK SMILES Cn1ccc2ccc3c4[nH]c5c(CCCN[C@H]6CC[C@H](O)CC6)cccc5c4c4c(c3c21)C(=O)NC4=OREMARK SMILES IDX 15 1 14 2 13 3 12 4 2 5 3 6 32 7 4 8 31 9 5 10 30 11 8 12REMARK SMILES IDX 6 13 29 14 33 15 7 16 9 17 28 18 36 19 35 20 10 21 27 22REMARK SMILES IDX 11 23 26 24 25 25 24 26 1 27 34 28 37 29 16 32 17 34 23 35REMARK SMILES IDX 18 36 22 37 19 38 20 39 21 40REMARK H PARENT 35 30 10 31 16 33 21 41USER                              x       y       z     vdW  Elec       q    TypeUSER                           _______ _______ _______ _____ _____    ______ ____ROOTATOM      1  C   UNL     1      38.438  42.993  25.459 -0.25 -0.00    +0.081 C  ENDROOTBRANCH   1   2ATOM      2  C   UNL     1      39.374  42.835  24.257 -0.24 +0.00    +0.020 C  BRANCH   2   3ATOM      3  C   UNL     1      39.192  43.936  23.206 -0.27 +0.00    +0.039 C  BRANCH   3   4ATOM      4  C   UNL     1      38.228  43.581  22.100 -0.32 -0.00    -0.024 A  ATOM      5  N   UNL     1      39.218  48.132  14.785 -0.24 +0.13    -0.350 N  ATOM      6  C   UNL     1      40.259  48.908  14.331 -0.36 -0.03    +0.086 A  ATOM      7  C   UNL     1      39.583  47.454  15.942 -0.46 -0.02    +0.057 A  ATOM      8  C   UNL     1      41.227  48.915  15.298 -0.55 -0.00    +0.028 A  ATOM      9  C   UNL     1      38.966  46.415  16.735 -0.41 -0.01    +0.022 A  ATOM     10  C   UNL     1      40.781  48.071  16.347 -0.55 -0.00    +0.000 A  ATOM     11  C   UNL     1      37.920  45.547  16.383 -0.32 -0.02    +0.063 A  ATOM     12  C   UNL     1      39.505  46.241  18.048 -0.43 -0.00    +0.009 A  ATOM     13  C   UNL     1      41.326  47.784  17.609 -0.51 -0.00    +0.011 A  ATOM     14  C   UNL     1      37.326  44.671  17.299 -0.31 -0.02    +0.063 A  ATOM     15  C   UNL     1      37.322  45.208  15.080 -0.25 -0.10    +0.259 C  ATOM     16  C   UNL     1      40.661  46.915  18.470 -0.43 -0.00    +0.012 A  ATOM     17  C   UNL     1      38.871  45.341  18.961 -0.37 -0.01    +0.055 A  ATOM     18  C   UNL     1      37.761  44.557  18.621 -0.35 -0.00    +0.022 A  ATOM     19  C   UNL     1      36.292  43.914  16.595 -0.24 -0.09    +0.259 C  ATOM     20  N   UNL     1      36.273  44.382  15.323 -0.19 +0.12    -0.288 N  ATOM     21  N   UNL     1      39.163  45.042  20.274 -0.16 +0.00    -0.354 N  ATOM     22  C   UNL     1      37.388  43.800  19.784 -0.33 -0.00    +0.008 A  ATOM     23  C   UNL     1      38.283  44.129  20.802 -0.31 +0.00    +0.050 A  ATOM     24  C   UNL     1      36.373  42.866  20.074 -0.41 -0.00    +0.011 A  ATOM     25  C   UNL     1      36.289  42.300  21.350 -0.50 +0.00    +0.001 A  ATOM     26  C   UNL     1      37.200  42.652  22.340 -0.44 +0.00    +0.006 A  ATOM     27  C   UNL     1      37.891  48.284  14.223 -0.49 -0.08    +0.149 C  ATOM     28  O   UNL     1      37.740  45.503  13.979 -0.28 +0.09    -0.269 OA ATOM     29  O   UNL     1      35.617  43.001  17.023 -0.27 +0.09    -0.269 OA ATOM     30  H   UNL     1      35.785  43.898  14.585 +0.11 -0.07    +0.173 HD ATOM     31  H   UNL     1      39.915  45.459  20.800 +0.09 +0.01    +0.167 HD ENDBRANCH   3   4ENDBRANCH   2   3ENDBRANCH   1   2BRANCH   1  32ATOM     32  N   UNL     1      37.951  41.674  25.867 -0.14 +0.02    -0.314 NA ATOM     33  H   UNL     1      37.436  41.239  25.102 -0.09 -0.01    +0.122 HD BRANCH  32  34ATOM     34  C   UNL     1      37.111  41.725  27.072 -0.49 -0.01    +0.053 C  ATOM     35  C   UNL     1      37.195  43.078  27.810 -0.37 -0.01    +0.021 C  ATOM     36  C   UNL     1      35.670  41.395  26.631 -0.62 -0.01    +0.021 C  ATOM     37  C   UNL     1      36.086  44.041  27.387 -0.50 -0.01    +0.033 C  ATOM     38  C   UNL     1      34.652  41.934  27.626 -0.57 -0.01    +0.033 C  ATOM     39  C   UNL     1      34.700  43.463  27.697 -0.59 -0.02    +0.114 C  BRANCH  39  40ATOM     40  O   UNL     1      34.298  43.850  29.010 -0.44 +0.11    -0.393 OA ATOM     41  H   UNL     1      35.030  43.639  29.616 -0.45 -0.12    +0.210 HD ENDBRANCH  39  40ENDBRANCH  32  34ENDBRANCH   1  32TORSDOF 6TERENDMDL