MODEL        4USER    Run = 4USERUSER    Estimated Free Energy of Binding    = -13.54 kcal/mol  [=(1)+(2)+(3)-(4)]USERUSER    (1) Final Intermolecular Energy     = -15.33 kcal/molUSER        vdW + Hbond + desolv Energy     = -15.19 kcal/molUSER        Electrostatic Energy            =  -0.14 kcal/molUSER        Moving Ligand-Fixed Receptor    = -15.33 kcal/molUSER        Moving Ligand-Moving Receptor   =  +0.00 kcal/molUSER    (2) Final Total Internal Energy     =  -2.70 kcal/molUSER    (3) Torsional Free Energy           =  +1.79 kcal/molUSER    (4) Unbound System's Energy         =  -2.70 kcal/molUSERUSERREMARK SMILES Oc1nc2ccccc2n1C1CCN(Cc2ccc(-c3nc4ccccc4nc3-c3ccccc3)cc2)CC1REMARK SMILES IDX 11 1 12 2 13 3 14 4 38 5 39 6 10 7 2 8 3 9 4 10 9 11 5 12REMARK SMILES IDX 8 13 6 14 7 15 1 16 15 18 16 19 17 20 37 21 18 22 36 23REMARK SMILES IDX 19 24 20 25 21 26 29 27 22 28 28 29 23 30 27 31 24 32 26 33REMARK SMILES IDX 25 34 30 35 31 36 35 37 32 38 34 39 33 40REMARK H PARENT 1 17USER                              x       y       z     vdW  Elec       q    TypeUSER                           _______ _______ _______ _____ _____    ______ ____ROOTATOM      1  C   UNL     1      38.578  47.244  15.382 -0.45 -0.04    +0.095 C  ATOM      2  C   UNL     1      37.711  48.442  14.961 -0.58 -0.03    +0.041 C  ATOM      3  C   UNL     1      37.174  48.285  13.539 -0.55 -0.04    +0.087 C  ATOM      4  N   UNL     1      36.667  46.942  13.243 -0.33 +0.14    -0.299 NA ATOM      5  C   UNL     1      37.670  45.889  13.471 -0.43 -0.03    +0.087 C  ATOM      6  C   UNL     1      38.942  46.354  14.187 -0.42 -0.01    +0.041 C  ENDROOTBRANCH   1   7ATOM      7  N   UNL     1      39.736  47.640  16.169 -0.28 +0.08    -0.291 N  ATOM      8  C   UNL     1      40.529  48.733  15.955 -0.33 -0.07    +0.295 A  ATOM      9  N   UNL     1      41.495  48.850  16.823 -0.94 -0.01    -0.195 NA ATOM     10  C   UNL     1      41.325  47.779  17.667 -0.44 -0.01    +0.092 A  ATOM     11  C   UNL     1      40.228  47.001  17.289 -0.45 -0.01    +0.072 A  ATOM     12  C   UNL     1      42.078  47.409  18.793 -0.49 +0.00    +0.031 A  ATOM     13  C   UNL     1      39.838  45.856  17.998 -0.43 -0.00    +0.029 A  ATOM     14  C   UNL     1      41.704  46.268  19.512 -0.45 +0.00    +0.002 A  ATOM     15  C   UNL     1      40.603  45.507  19.119 -0.45 +0.00    +0.002 A  BRANCH   8  16ATOM     16  O   UNL     1      40.357  49.608  14.985 -0.22 +0.21    -0.480 OA ATOM     17  H   UNL     1      39.630  50.149  15.343 -0.19 -0.23    +0.296 HD ENDBRANCH   8  16ENDBRANCH   1   7BRANCH   4  18ATOM     18  C   UNL     1      35.388  46.623  13.902 -0.43 -0.09    +0.120 C  BRANCH  18  19ATOM     19  C   UNL     1      35.544  45.947  15.247 -0.34 +0.03    -0.034 A  ATOM     20  C   UNL     1      35.671  44.557  15.338 -0.34 -0.00    +0.006 A  ATOM     21  C   UNL     1      35.548  46.703  16.426 -0.20 -0.01    +0.006 A  ATOM     22  C   UNL     1      35.819  43.939  16.585 -0.35 -0.00    +0.011 A  ATOM     23  C   UNL     1      35.698  46.083  17.670 -0.33 -0.01    +0.011 A  ATOM     24  C   UNL     1      35.852  44.691  17.771 -0.32 -0.00    +0.002 A  BRANCH  24  25ATOM     25  C   UNL     1      36.028  44.023  19.071 -0.30 -0.02    +0.097 A  ATOM     26  N   UNL     1      37.187  44.358  19.708 -0.22 +0.02    -0.244 NA ATOM     27  C   UNL     1      35.128  43.105  19.635 -0.36 -0.01    +0.097 A  ATOM     28  C   UNL     1      37.450  43.749  20.878 -0.32 +0.00    +0.089 A  ATOM     29  N   UNL     1      35.408  42.483  20.816 -0.31 -0.01    -0.244 NA ATOM     30  C   UNL     1      38.625  44.050  21.558 -0.31 +0.00    +0.030 A  ATOM     31  C   UNL     1      36.558  42.806  21.433 -0.39 +0.00    +0.089 A  ATOM     32  C   UNL     1      38.938  43.439  22.772 -0.28 +0.00    +0.002 A  ATOM     33  C   UNL     1      36.879  42.202  22.642 -0.47 +0.00    +0.030 A  ATOM     34  C   UNL     1      38.061  42.511  23.317 -0.35 +0.00    +0.002 A  BRANCH  27  35ATOM     35  C   UNL     1      33.822  42.732  19.061 -0.40 -0.00    +0.002 A  ATOM     36  C   UNL     1      32.713  43.585  19.205 -0.42 -0.00    +0.010 A  ATOM     37  C   UNL     1      33.641  41.543  18.331 -0.36 -0.00    +0.010 A  ATOM     38  C   UNL     1      31.466  43.253  18.666 -0.28 -0.00    +0.001 A  ATOM     39  C   UNL     1      32.394  41.207  17.794 -0.38 -0.00    +0.001 A  ATOM     40  C   UNL     1      31.307  42.061  17.964 -0.30 -0.00    +0.000 A  ENDBRANCH  27  35ENDBRANCH  24  25ENDBRANCH  18  19ENDBRANCH   4  18TORSDOF 6TERENDMDL