MODEL        9USER    Run = 9USERUSER    Estimated Free Energy of Binding    = -12.65 kcal/mol  [=(1)+(2)+(3)-(4)]USERUSER    (1) Final Intermolecular Energy     = -14.43 kcal/molUSER        vdW + Hbond + desolv Energy     = -14.31 kcal/molUSER        Electrostatic Energy            =  -0.13 kcal/molUSER        Moving Ligand-Fixed Receptor    = -14.43 kcal/molUSER        Moving Ligand-Moving Receptor   =  +0.00 kcal/molUSER    (2) Final Total Internal Energy     =  -1.85 kcal/molUSER    (3) Torsional Free Energy           =  +1.79 kcal/molUSER    (4) Unbound System's Energy         =  -1.85 kcal/molUSERUSERREMARK SMILES Oc1nc2ccccc2n1C1CCN(Cc2ccc(-c3cc4ccccc4nc3-c3ccccc3)cc2)CC1REMARK SMILES IDX 11 1 12 2 13 3 14 4 38 5 39 6 10 7 2 8 3 9 4 10 9 11 5 12REMARK SMILES IDX 8 13 6 14 7 15 1 16 15 18 16 19 17 20 37 21 18 22 36 23REMARK SMILES IDX 19 24 20 25 21 26 29 27 22 28 28 29 23 30 27 31 24 32 26 33REMARK SMILES IDX 25 34 30 35 31 36 35 37 32 38 34 39 33 40REMARK H PARENT 1 17USER                              x       y       z     vdW  Elec       q    TypeUSER                           _______ _______ _______ _____ _____    ______ ____ROOTATOM      1  C   UNL     1      31.113  40.031  18.085 -0.38 -0.00    +0.095 C  ATOM      2  C   UNL     1      32.273  40.943  18.508 -0.44 -0.00    +0.041 C  ATOM      3  C   UNL     1      31.950  42.434  18.486 -0.33 -0.01    +0.087 C  ATOM      4  N   UNL     1      31.247  42.877  17.279 -0.10 +0.08    -0.299 NA ATOM      5  C   UNL     1      29.991  42.142  17.113 -0.26 -0.02    +0.087 C  ATOM      6  C   UNL     1      30.151  40.625  17.046 -0.39 -0.01    +0.041 C  ENDROOTBRANCH   1   7ATOM      7  N   UNL     1      30.454  39.347  19.196 -0.17 -0.03    -0.291 N  ATOM      8  C   UNL     1      31.118  38.920  20.321 -0.22 +0.05    +0.295 A  ATOM      9  N   UNL     1      30.355  38.308  21.181 -0.25 -0.01    -0.195 NA ATOM     10  C   UNL     1      29.114  38.333  20.604 -0.19 +0.00    +0.092 A  ATOM     11  C   UNL     1      29.132  38.985  19.363 -0.25 +0.01    +0.072 A  ATOM     12  C   UNL     1      27.910  37.806  21.104 -0.24 -0.01    +0.031 A  ATOM     13  C   UNL     1      27.962  39.134  18.608 -0.24 +0.01    +0.029 A  ATOM     14  C   UNL     1      26.743  37.948  20.351 -0.29 -0.00    +0.002 A  ATOM     15  C   UNL     1      26.772  38.604  19.124 -0.24 -0.00    +0.002 A  BRANCH   8  16ATOM     16  O   UNL     1      32.404  39.091  20.550 -0.93 -0.26    -0.480 OA ATOM     17  H   UNL     1      32.484  38.726  21.450 +0.16 +0.13    +0.296 HD ENDBRANCH   8  16ENDBRANCH   1   7BRANCH   4  18ATOM     18  C   UNL     1      32.114  42.853  16.089 -0.24 -0.06    +0.120 C  BRANCH  18  19ATOM     19  C   UNL     1      33.461  43.505  16.319 -0.31 +0.02    -0.034 A  ATOM     20  C   UNL     1      33.576  44.896  16.443 -0.32 -0.00    +0.006 A  ATOM     21  C   UNL     1      34.619  42.721  16.413 -0.42 -0.00    +0.006 A  ATOM     22  C   UNL     1      34.824  45.488  16.653 -0.32 -0.01    +0.009 A  ATOM     23  C   UNL     1      35.866  43.317  16.614 -0.40 -0.00    +0.009 A  ATOM     24  C   UNL     1      35.988  44.708  16.732 -0.31 +0.01    -0.016 A  BRANCH  24  25ATOM     25  C   UNL     1      37.301  45.332  16.953 -0.35 -0.00    +0.009 A  ATOM     26  C   UNL     1      37.958  45.129  18.176 -0.37 -0.00    +0.021 A  ATOM     27  C   UNL     1      37.973  46.104  15.991 -0.32 -0.03    +0.079 A  ATOM     28  C   UNL     1      39.229  45.667  18.408 -0.42 -0.00    +0.001 A  ATOM     29  N   UNL     1      39.218  46.623  16.199 -0.24 +0.07    -0.247 NA ATOM     30  C   UNL     1      39.906  45.473  19.626 -0.40 -0.00    +0.010 A  ATOM     31  C   UNL     1      39.826  46.412  17.377 -0.42 -0.01    +0.071 A  ATOM     32  C   UNL     1      41.174  46.017  19.823 -0.41 +0.00    +0.001 A  ATOM     33  C   UNL     1      41.091  46.943  17.597 -0.47 -0.00    +0.029 A  ATOM     34  C   UNL     1      41.769  46.754  18.805 -0.53 +0.00    +0.002 A  BRANCH  27  35ATOM     35  C   UNL     1      37.416  46.439  14.667 -0.41 -0.00    +0.001 A  ATOM     36  C   UNL     1      37.126  47.774  14.333 -0.51 -0.01    +0.010 A  ATOM     37  C   UNL     1      37.137  45.448  13.710 -0.45 -0.00    +0.010 A  ATOM     38  C   UNL     1      36.600  48.108  13.081 -0.62 -0.00    +0.001 A  ATOM     39  C   UNL     1      36.610  45.779  12.458 -0.60 -0.00    +0.001 A  ATOM     40  C   UNL     1      36.347  47.111  12.143 -0.69 -0.00    +0.000 A  ENDBRANCH  27  35ENDBRANCH  24  25ENDBRANCH  18  19ENDBRANCH   4  18TORSDOF 6TERENDMDL