MODEL        2USER    Run = 2USERUSER    Estimated Free Energy of Binding    =  -6.79 kcal/mol  [=(1)+(2)+(3)-(4)]USERUSER    (1) Final Intermolecular Energy     = -11.26 kcal/molUSER        vdW + Hbond + desolv Energy     = -11.73 kcal/molUSER        Electrostatic Energy            =  -0.19 kcal/molUSER        Moving Ligand-Fixed Receptor    = -11.93 kcal/molUSER        Moving Ligand-Moving Receptor   =  +0.66 kcal/molUSER    (2) Final Total Internal Energy     =  -2.58 kcal/molUSER    (3) Torsional Free Energy           =  +4.47 kcal/molUSER    (4) Unbound System's Energy         =  -2.58 kcal/molUSERUSERREMARK SMILES COc1ccc(O)c(C(=O)c2ccc(C(=O)O[C@@H]3CCCNC[C@H]3NC(=O)c3ccncc3)cc2)c1FREMARK SMILES IDX 17 1 15 2 16 3 14 4 11 5 12 6 35 7 13 8 34 9 9 10 10 11 8 12REMARK SMILES IDX 3 13 4 14 36 15 5 16 6 17 37 18 2 19 1 20 7 21 18 23 24 25REMARK SMILES IDX 23 26 22 27 21 29 20 30 19 31 25 33 26 34 27 36 28 37 29 38REMARK SMILES IDX 33 39 30 40 32 41 31 42REMARK H PARENT 7 22 22 28 25 35REMARK Flexibility Score:   99.900USER                              x       y       z     vdW  Elec       q    TypeUSER                           _______ _______ _______ _____ _____    ______ ____ROOTATOM      1  O   UNL     1      38.541  47.513  16.409 -0.15 +0.22    -0.457 OA ENDROOTBRANCH   1   2ATOM      2  C   UNL     1      39.878  47.744  16.359 -0.31 -0.09    +0.338 C  ATOM      3  O   UNL     1      40.489  48.322  15.472 -0.41 +0.05    -0.246 OA BRANCH   2   4ATOM      4  C   UNL     1      40.520  47.225  17.593 -0.46 -0.01    +0.060 A  ATOM      5  C   UNL     1      41.802  46.278  19.903 -0.41 +0.00    +0.023 A  ATOM      6  C   UNL     1      40.538  45.787  19.549 -0.42 +0.00    +0.013 A  ATOM      7  C   UNL     1      42.422  47.241  19.093 -0.53 +0.00    +0.013 A  ATOM      8  C   UNL     1      39.899  46.260  18.397 -0.44 -0.00    +0.016 A  ATOM      9  C   UNL     1      41.788  47.706  17.937 -0.49 -0.00    +0.016 A  BRANCH   5  10ATOM     10  C   UNL     1      42.513  45.829  21.132 -0.23 +0.05    +0.199 C  ATOM     11  O   UNL     1      42.814  44.651  21.292 -0.12 -0.09    -0.288 OA BRANCH  10  12ATOM     12  C   UNL     1      42.867  46.790  22.184 -0.25 +0.02    +0.104 A  ATOM     13  C   UNL     1      42.141  48.321  23.918 -0.28 +0.03    +0.155 A  ATOM     14  C   UNL     1      43.479  48.664  24.154 -0.29 +0.01    +0.053 A  ATOM     15  C   UNL     1      41.846  47.384  22.921 -0.16 +0.02    +0.179 A  ATOM     16  C   UNL     1      44.507  48.054  23.423 -0.24 +0.01    +0.051 A  ATOM     17  C   UNL     1      44.199  47.111  22.444 -0.24 +0.05    +0.130 A  ATOM     18  F   UNL     1      40.570  47.023  22.708 -0.03 -0.02    -0.202 F  BRANCH  13  19ATOM     19  O   UNL     1      41.063  48.812  24.605 -0.16 -0.09    -0.494 OA ATOM     20  C   UNL     1      41.263  49.175  25.965 -0.21 +0.04    +0.278 C  ENDBRANCH  13  19BRANCH  17  21ATOM     21  O   UNL     1      45.197  46.498  21.744 -0.56 -0.71    -0.507 OA ATOM     22  H   UNL     1      44.902  45.625  21.438 +0.12 +0.43    +0.293 HD ENDBRANCH  17  21ENDBRANCH  10  12ENDBRANCH   5  10ENDBRANCH   2   4ENDBRANCH   1   2BRANCH   1  23ATOM     23  C   UNL     1      37.987  46.676  15.360 -0.32 -0.09    +0.200 CG0ATOM     24  G   UNL     1      38.275  47.372  14.031 +0.00 +0.00    +0.000 G0 BRANCH  23  25ATOM     25  C   UNL     1      36.487  46.495  15.670 -0.34 -0.10    +0.137 C  BRANCH  25  26ATOM     26  C   UNL     1      35.694  45.741  14.583 -0.38 -0.07    +0.109 C  BRANCH  26  27ATOM     27  N   UNL     1      35.189  46.594  13.505 -0.27 +0.23    -0.315 NA ATOM     28  H   UNL     1      34.769  47.423  13.925 +0.07 -0.13    +0.122 HD BRANCH  27  29ATOM     29  C   UNL     1      36.176  47.023  12.510 -0.68 -0.04    +0.081 C  BRANCH  29  30ATOM     30  C   UNL     1      37.656  46.724  12.784 -0.53 -0.01    +0.019 C  BRANCH  30  31ATOM     31  C   UNL     1      38.267  47.373  14.031 -0.52 -0.02    +0.049 CG0ATOM     32  G   UNL     1      37.985  46.679  15.364 +0.00 +0.00    +0.000 G0 ENDBRANCH  30  31ENDBRANCH  29  30ENDBRANCH  27  29ENDBRANCH  26  27ENDBRANCH  25  26BRANCH  25  33ATOM     33  N   UNL     1      36.342  45.815  16.965 -0.13 +0.19    -0.344 N  ATOM     34  C   UNL     1      36.659  44.491  17.138 -0.22 -0.08    +0.251 C  ATOM     35  H   UNL     1      36.302  46.418  17.776 +0.09 -0.09    +0.164 HD ATOM     36  O   UNL     1      37.038  43.754  16.237 -0.26 +0.08    -0.269 OA BRANCH  34  37ATOM     37  C   UNL     1      36.530  43.970  18.520 -0.30 -0.01    +0.042 A  ATOM     38  C   UNL     1      37.451  44.387  19.479 -0.34 -0.00    +0.034 A  ATOM     39  C   UNL     1      35.538  43.052  18.858 -0.35 -0.01    +0.034 A  ATOM     40  C   UNL     1      37.323  43.881  20.759 -0.32 -0.00    +0.112 A  ATOM     41  C   UNL     1      35.501  42.601  20.165 -0.38 -0.00    +0.112 A  ATOM     42  N   UNL     1      36.366  43.001  21.123 -0.26 -0.01    -0.265 NA ENDBRANCH  34  37ENDBRANCH  25  33ENDBRANCH  23  25ENDBRANCH   1  23TORSDOF 9TERENDMDL