MODEL        6USER    Run = 6USERUSER    Estimated Free Energy of Binding    = -12.82 kcal/mol  [=(1)+(2)+(3)-(4)]USERUSER    (1) Final Intermolecular Energy     = -15.21 kcal/molUSER        vdW + Hbond + desolv Energy     = -15.08 kcal/molUSER        Electrostatic Energy            =  -0.13 kcal/molUSER        Moving Ligand-Fixed Receptor    = -15.21 kcal/molUSER        Moving Ligand-Moving Receptor   =  +0.00 kcal/molUSER    (2) Final Total Internal Energy     =  -2.59 kcal/molUSER    (3) Torsional Free Energy           =  +2.39 kcal/molUSER    (4) Unbound System's Energy         =  -2.59 kcal/molUSERUSERREMARK SMILES N#Cc1cnc(-c2ccc(CNCc3ccc(-c4csnn4)cc3)cc2)c(-c2ccccc2)c1REMARK SMILES IDX 11 1 10 2 7 3 8 4 26 5 9 6 25 7 6 8 3 9 4 10 34 11 5 12REMARK SMILES IDX 27 13 2 14 1 15 28 16 29 17 33 18 30 19 32 20 31 21 12 22REMARK SMILES IDX 13 24 14 25 15 26 24 27 16 28 23 29 17 30 18 31 19 32 22 33REMARK SMILES IDX 20 34 21 35REMARK H PARENT 12 23USER                              x       y       z     vdW  Elec       q    TypeUSER                           _______ _______ _______ _____ _____    ______ ____ROOTATOM      1  C   UNL     1      36.189  43.256  20.396 -0.42 -0.00    +0.117 C  ENDROOTBRANCH   1   2ATOM      2  C   UNL     1      35.335  43.784  19.267 -0.36 +0.01    -0.034 A  ATOM      3  C   UNL     1      33.755  44.759  17.118 -0.32 -0.00    +0.001 A  ATOM      4  C   UNL     1      34.243  45.622  18.115 -0.44 -0.01    +0.011 A  ATOM      5  C   UNL     1      34.062  43.394  17.232 -0.33 -0.00    +0.011 A  ATOM      6  C   UNL     1      35.027  45.145  19.172 -0.30 -0.00    +0.006 A  ATOM      7  C   UNL     1      34.847  42.913  18.285 -0.37 -0.00    +0.006 A  BRANCH   3   8ATOM      8  C   UNL     1      32.931  45.289  16.012 -0.26 -0.06    +0.078 A  ATOM      9  C   UNL     1      31.149  46.185  14.096 -0.52 -0.05    +0.071 A  ATOM     10  C   UNL     1      30.740  45.713  15.328 -0.36 -0.06    +0.131 A  ATOM     11  C   UNL     1      32.517  46.216  13.830 -0.13 -0.03    +0.032 A  ATOM     12  N   UNL     1      31.593  45.275  16.282 -0.67 +0.10    -0.254 NA ATOM     13  C   UNL     1      33.447  45.769  14.790 -0.14 -0.01    +0.009 A  BRANCH   9  14ATOM     14  C   UNL     1      30.194  46.636  13.136 -0.57 -0.05    +0.101 C  ATOM     15  N   UNL     1      29.417  47.000  12.356 -0.76 +0.09    -0.192 NA ENDBRANCH   9  14BRANCH  13  16ATOM     16  C   UNL     1      34.885  45.862  14.481 -0.34 +0.01    -0.016 A  ATOM     17  C   UNL     1      35.387  46.932  13.719 -0.42 -0.01    +0.009 A  ATOM     18  C   UNL     1      35.792  44.899  14.949 -0.34 -0.00    +0.009 A  ATOM     19  C   UNL     1      36.750  47.029  13.427 -0.56 -0.00    +0.001 A  ATOM     20  C   UNL     1      37.155  44.994  14.656 -0.38 -0.00    +0.001 A  ATOM     21  C   UNL     1      37.633  46.058  13.895 -0.44 -0.00    +0.000 A  ENDBRANCH  13  16ENDBRANCH   3   8ENDBRANCH   1   2BRANCH   1  22ATOM     22  N   UNL     1      37.129  44.282  20.848 -0.20 -0.00    -0.309 NA ATOM     23  H   UNL     1      37.104  44.308  21.867 +0.06 +0.01    +0.123 HD BRANCH  22  24ATOM     24  C   UNL     1      38.498  44.006  20.414 -0.26 -0.00    +0.117 C  BRANCH  24  25ATOM     25  C   UNL     1      39.018  44.999  19.401 -0.37 +0.00    -0.034 A  ATOM     26  C   UNL     1      40.265  45.614  19.574 -0.41 +0.00    +0.006 A  ATOM     27  C   UNL     1      38.253  45.338  18.278 -0.38 -0.00    +0.006 A  ATOM     28  C   UNL     1      40.739  46.541  18.639 -0.47 -0.00    +0.011 A  ATOM     29  C   UNL     1      38.726  46.264  17.344 -0.40 -0.00    +0.011 A  ATOM     30  C   UNL     1      39.978  46.874  17.508 -0.48 -0.00    +0.003 A  BRANCH  30  31ATOM     31  C   UNL     1      40.445  47.835  16.513 -0.46 -0.02    +0.105 A  ATOM     32  C   UNL     1      39.971  47.918  15.215 -0.45 -0.03    +0.118 A  ATOM     33  N   UNL     1      41.418  48.782  16.829 -1.00 -0.00    -0.138 NA ATOM     34  S   UNL     1      40.808  49.201  14.441 -0.79 +0.01    -0.020 S  ATOM     35  N   UNL     1      41.703  49.565  15.804 -1.05 -0.00    -0.091 NA ENDBRANCH  30  31ENDBRANCH  24  25ENDBRANCH  22  24ENDBRANCH   1  22TORSDOF 8TERENDMDL