MODEL        2USER    Run = 2USERUSER    Estimated Free Energy of Binding    =  -7.11 kcal/mol  [=(1)+(2)+(3)-(4)]USERUSER    (1) Final Intermolecular Energy     = -11.58 kcal/molUSER        vdW + Hbond + desolv Energy     = -12.20 kcal/molUSER        Electrostatic Energy            =  -0.04 kcal/molUSER        Moving Ligand-Fixed Receptor    = -12.23 kcal/molUSER        Moving Ligand-Moving Receptor   =  +0.66 kcal/molUSER    (2) Final Total Internal Energy     =  -2.79 kcal/molUSER    (3) Torsional Free Energy           =  +4.47 kcal/molUSER    (4) Unbound System's Energy         =  -2.79 kcal/molUSERUSERREMARK SMILES COc1ccc(O)c(C(=O)c2ccc(CO[C@@H]3CCCNC[C@@H]3NC(=O)c3ccncc3)cc2)c1FREMARK SMILES IDX 16 1 15 2 14 3 11 4 12 5 34 6 13 7 33 8 9 9 10 10 8 11 3 12REMARK SMILES IDX 4 13 35 14 5 15 6 16 36 17 2 18 1 19 7 20 17 22 18 23 23 25REMARK SMILES IDX 22 26 21 27 20 29 19 30 24 32 25 33 26 35 27 36 28 37 32 38REMARK SMILES IDX 29 39 31 40 30 41REMARK H PARENT 7 21 21 28 24 34REMARK Flexibility Score:   99.900USER                              x       y       z     vdW  Elec       q    TypeUSER                           _______ _______ _______ _____ _____    ______ ____ROOTATOM      1  O   UNL     1      36.152  46.187  16.463 -0.17 +0.27    -0.371 OA ENDROOTBRANCH   1   2ATOM      2  C   UNL     1      36.272  44.778  16.648 -0.25 -0.08    +0.196 C  BRANCH   2   3ATOM      3  C   UNL     1      34.907  44.227  16.968 -0.30 +0.01    -0.022 A  ATOM      4  C   UNL     1      32.354  43.197  17.532 -0.30 -0.01    +0.023 A  ATOM      5  C   UNL     1      33.214  42.504  16.673 -0.26 -0.01    +0.012 A  ATOM      6  C   UNL     1      32.782  44.385  18.133 -0.33 -0.00    +0.012 A  ATOM      7  C   UNL     1      34.479  43.022  16.390 -0.40 -0.00    +0.007 A  ATOM      8  C   UNL     1      34.049  44.900  17.848 -0.35 -0.00    +0.007 A  BRANCH   4   9ATOM      9  C   UNL     1      31.015  42.669  17.889 -0.19 -0.03    +0.199 C  ATOM     10  O   UNL     1      30.080  43.460  18.039 -0.09 +0.02    -0.288 OA BRANCH   9  11ATOM     11  C   UNL     1      30.748  41.238  18.141 -0.17 -0.01    +0.104 A  ATOM     12  C   UNL     1      31.180  39.156  19.335 -0.31 +0.02    +0.155 A  ATOM     13  C   UNL     1      30.186  38.522  18.586 -0.37 +0.01    +0.053 A  ATOM     14  C   UNL     1      31.457  40.510  19.098 -0.20 +0.01    +0.179 A  ATOM     15  C   UNL     1      29.494  39.231  17.601 -0.29 +0.02    +0.051 A  ATOM     16  C   UNL     1      29.784  40.574  17.372 -0.25 -0.01    +0.130 A  ATOM     17  F   UNL     1      32.439  41.099  19.800 -0.07 -0.04    -0.202 F  BRANCH  12  18ATOM     18  O   UNL     1      31.934  38.563  20.311 -0.61 -0.14    -0.494 OA ATOM     19  C   UNL     1      31.376  38.496  21.618 -0.29 +0.03    +0.278 C  ENDBRANCH  12  18BRANCH  16  20ATOM     20  O   UNL     1      29.081  41.186  16.369 -0.08 +0.10    -0.507 OA ATOM     21  H   UNL     1      29.095  42.157  16.539 +0.18 -0.09    +0.293 HD ENDBRANCH  16  20ENDBRANCH   9  11ENDBRANCH   4   9ENDBRANCH   2   3ENDBRANCH   1   2BRANCH   1  22ATOM     22  C   UNL     1      36.285  46.598  15.085 -0.35 -0.11    +0.142 C  BRANCH  22  23ATOM     23  C   UNL     1      36.398  45.285  14.297 -0.44 -0.02    +0.035 CG0ATOM     24  G   UNL     1      36.984  45.308  12.890 +0.00 +0.00    +0.000 G0 ENDBRANCH  22  23BRANCH  22  25ATOM     25  C   UNL     1      37.480  47.572  14.954 -0.44 -0.08    +0.125 C  BRANCH  25  26ATOM     26  C   UNL     1      37.858  47.792  13.468 -0.50 -0.03    +0.108 C  BRANCH  26  27ATOM     27  N   UNL     1      36.768  47.734  12.497 -0.87 +0.11    -0.315 NA ATOM     28  H   UNL     1      36.976  48.388  11.740 -0.17 -0.01    +0.122 HD BRANCH  27  29ATOM     29  C   UNL     1      36.497  46.405  11.968 -0.68 -0.03    +0.081 C  BRANCH  29  30ATOM     30  C   UNL     1      36.986  45.297  12.889 -0.57 -0.01    +0.018 CG0ATOM     31  G   UNL     1      36.400  45.286  14.297 +0.00 +0.00    +0.000 G0 ENDBRANCH  29  30ENDBRANCH  27  29ENDBRANCH  26  27ENDBRANCH  25  26BRANCH  25  32ATOM     32  N   UNL     1      38.603  47.153  15.806 -0.18 +0.14    -0.345 N  ATOM     33  C   UNL     1      39.615  48.029  16.141 -0.37 -0.09    +0.251 C  ATOM     34  H   UNL     1      38.361  46.469  16.513 +0.11 -0.06    +0.164 HD ATOM     35  O   UNL     1      39.715  49.159  15.682 -0.40 +0.12    -0.269 OA BRANCH  33  36ATOM     36  C   UNL     1      40.596  47.546  17.149 -0.49 -0.01    +0.042 A  ATOM     37  C   UNL     1      40.491  46.228  17.596 -0.46 -0.00    +0.034 A  ATOM     38  C   UNL     1      41.583  48.376  17.680 -0.21 -0.00    +0.034 A  ATOM     39  C   UNL     1      41.394  45.790  18.547 -0.39 +0.00    +0.112 A  ATOM     40  C   UNL     1      42.437  47.842  18.629 -0.37 +0.00    +0.112 A  ATOM     41  N   UNL     1      42.367  46.568  19.068 -0.31 -0.04    -0.265 NA ENDBRANCH  33  36ENDBRANCH  25  32ENDBRANCH  22  25ENDBRANCH   1  22TORSDOF 9TERENDMDL