MODEL        4USER    Run = 4USERUSER    Estimated Free Energy of Binding    =  -8.02 kcal/mol  [=(1)+(2)+(3)-(4)]USERUSER    (1) Final Intermolecular Energy     = -12.49 kcal/molUSER        vdW + Hbond + desolv Energy     = -12.90 kcal/molUSER        Electrostatic Energy            =  -0.07 kcal/molUSER        Moving Ligand-Fixed Receptor    = -12.97 kcal/molUSER        Moving Ligand-Moving Receptor   =  +0.48 kcal/molUSER    (2) Final Total Internal Energy     =  -2.08 kcal/molUSER    (3) Torsional Free Energy           =  +4.47 kcal/molUSER    (4) Unbound System's Energy         =  -2.08 kcal/molUSERUSERREMARK SMILES COc1ccc(O)c(C(=O)c2ccc(CN[C@@H]3CCCNC[C@H]3NC(=O)c3ccncc3)cc2)c1FREMARK SMILES IDX 16 1 15 3 14 4 11 5 12 6 34 7 13 8 33 9 9 10 10 11 8 12 3 13REMARK SMILES IDX 4 14 35 15 5 16 6 17 36 18 2 19 1 20 7 21 17 23 18 24 23 26REMARK SMILES IDX 22 27 21 28 20 30 19 31 24 33 25 34 26 36 27 37 28 38 32 39REMARK SMILES IDX 29 40 31 41 30 42REMARK H PARENT 16 2 7 22 21 29 24 35REMARK Flexibility Score:   99.900USER                              x       y       z     vdW  Elec       q    TypeUSER                           _______ _______ _______ _____ _____    ______ ____ROOTATOM      1  N   UNL     1      37.409  45.507  18.406 -0.15 +0.07    -0.308 NA ATOM      2  H   UNL     1      37.110  45.283  17.454 +0.08 -0.04    +0.123 HD ENDROOTBRANCH   1   3ATOM      3  C   UNL     1      36.780  44.559  19.329 -0.31 -0.02    +0.117 C  BRANCH   3   4ATOM      4  C   UNL     1      35.536  43.910  18.776 -0.33 +0.01    -0.034 A  ATOM      5  C   UNL     1      33.204  42.718  17.750 -0.33 -0.01    +0.023 A  ATOM      6  C   UNL     1      33.107  43.780  18.655 -0.37 -0.00    +0.012 A  ATOM      7  C   UNL     1      34.464  42.236  17.379 -0.41 -0.00    +0.012 A  ATOM      8  C   UNL     1      34.267  44.376  19.156 -0.40 -0.00    +0.006 A  ATOM      9  C   UNL     1      35.622  42.832  17.884 -0.32 -0.00    +0.006 A  BRANCH   5  10ATOM     10  C   UNL     1      32.003  42.027  17.222 -0.23 -0.07    +0.199 C  ATOM     11  O   UNL     1      31.469  42.455  16.197 -0.21 +0.14    -0.288 OA BRANCH  10  12ATOM     12  C   UNL     1      31.440  40.801  17.828 -0.30 -0.02    +0.104 A  ATOM     13  C   UNL     1      31.347  39.143  19.613 -0.32 +0.02    +0.155 A  ATOM     14  C   UNL     1      30.341  38.463  18.926 -0.38 +0.01    +0.053 A  ATOM     15  C   UNL     1      31.884  40.314  19.058 -0.25 +0.01    +0.179 A  ATOM     16  C   UNL     1      29.863  38.961  17.710 -0.27 +0.02    +0.051 A  ATOM     17  C   UNL     1      30.398  40.130  17.176 -0.26 -0.01    +0.130 A  ATOM     18  F   UNL     1      32.825  40.981  19.748 -0.03 -0.05    -0.202 F  BRANCH  13  19ATOM     19  O   UNL     1      31.878  38.765  20.818 -0.90 -0.15    -0.494 OA ATOM     20  C   UNL     1      31.228  37.709  21.514 -0.37 +0.02    +0.278 C  ENDBRANCH  13  19BRANCH  17  21ATOM     21  O   UNL     1      29.849  40.569  16.001 -0.19 +0.09    -0.507 OA ATOM     22  H   UNL     1      30.588  40.751  15.374 -0.24 -0.14    +0.293 HD ENDBRANCH  17  21ENDBRANCH  10  12ENDBRANCH   5  10ENDBRANCH   3   4ENDBRANCH   1   3BRANCH   1  23ATOM     23  C   UNL     1      38.897  45.485  18.446 -0.42 -0.01    +0.077 C  BRANCH  23  24ATOM     24  C   UNL     1      39.319  45.869  19.870 -0.33 -0.00    +0.022 CG0ATOM     25  G   UNL     1      40.748  45.487  20.252 +0.00 +0.00    +0.000 G0 ENDBRANCH  23  24BRANCH  23  26ATOM     26  C   UNL     1      39.471  46.436  17.349 -0.43 -0.02    +0.113 C  BRANCH  26  27ATOM     27  C   UNL     1      40.916  46.048  16.948 -0.31 -0.01    +0.107 C  BRANCH  27  28ATOM     28  N   UNL     1      41.786  45.446  17.953 -0.16 -0.01    -0.315 NA ATOM     29  H   UNL     1      42.746  45.438  17.600 -0.25 +0.00    +0.122 HD BRANCH  28  30ATOM     30  C   UNL     1      41.791  46.038  19.283 -0.45 +0.01    +0.081 C  BRANCH  30  31ATOM     31  C   UNL     1      40.749  45.493  20.255 -0.43 +0.00    +0.017 CG0ATOM     32  G   UNL     1      39.320  45.872  19.870 +0.00 +0.00    +0.000 G0 ENDBRANCH  30  31ENDBRANCH  28  30ENDBRANCH  27  28ENDBRANCH  26  27BRANCH  26  33ATOM     33  N   UNL     1      38.600  46.397  16.157 -0.15 +0.11    -0.346 N  ATOM     34  C   UNL     1      38.471  47.487  15.324 -0.34 -0.11    +0.251 C  ATOM     35  H   UNL     1      38.170  45.514  15.923 +0.11 -0.05    +0.164 HD ATOM     36  O   UNL     1      38.981  48.576  15.558 -0.36 +0.14    -0.269 OA BRANCH  34  37ATOM     37  C   UNL     1      37.640  47.304  14.106 -0.47 -0.02    +0.042 A  ATOM     38  C   UNL     1      37.549  46.023  13.561 -0.43 -0.01    +0.034 A  ATOM     39  C   UNL     1      36.934  48.356  13.521 -0.54 -0.02    +0.034 A  ATOM     40  C   UNL     1      36.775  45.851  12.430 -0.50 -0.04    +0.112 A  ATOM     41  C   UNL     1      36.185  48.078  12.391 -0.49 -0.05    +0.112 A  ATOM     42  N   UNL     1      36.099  46.855  11.829 -0.48 +0.14    -0.265 NA ENDBRANCH  34  37ENDBRANCH  26  33ENDBRANCH  23  26ENDBRANCH   1  23TORSDOF 9TERENDMDL