MODEL        8USER    Run = 8USERUSER    Estimated Free Energy of Binding    =  -8.48 kcal/mol  [=(1)+(2)+(3)-(4)]USERUSER    (1) Final Intermolecular Energy     = -10.27 kcal/molUSER        vdW + Hbond + desolv Energy     = -10.11 kcal/molUSER        Electrostatic Energy            =  -0.16 kcal/molUSER        Moving Ligand-Fixed Receptor    = -10.27 kcal/molUSER        Moving Ligand-Moving Receptor   =  +0.00 kcal/molUSER    (2) Final Total Internal Energy     =  -1.18 kcal/molUSER    (3) Torsional Free Energy           =  +1.79 kcal/molUSER    (4) Unbound System's Energy         =  -1.18 kcal/molUSERUSERREMARK SMILES CNC1=C(NCc2ccnc(F)c2)C(Nc2cccc(OC)c2F)=NC1=OREMARK SMILES IDX 3 1 4 2 14 3 15 4 25 5 26 6 27 7 2 9 1 10 5 12 6 14 7 15REMARK SMILES IDX 8 16 13 17 9 18 11 19 10 20 12 21 16 22 17 23 23 24 18 25REMARK SMILES IDX 20 26 19 27 24 28 21 29 22 30REMARK H PARENT 15 8 2 11 5 13USER                              x       y       z     vdW  Elec       q    TypeUSER                           _______ _______ _______ _____ _____    ______ ____ROOTATOM      1  C   UNL     1      41.458  47.379  17.878 -0.47 -0.01    +0.129 C  ATOM      2  C   UNL     1      40.449  46.506  17.967 -0.48 -0.01    +0.107 C  ATOM      3  C   UNL     1      39.454  46.942  16.943 -0.41 -0.04    +0.160 C  ATOM      4  N   UNL     1      38.338  46.183  16.704 -0.17 +0.11    -0.336 N  ATOM      5  N   UNL     1      39.805  48.044  16.355 -0.37 +0.06    -0.188 NA ATOM      6  C   UNL     1      41.027  48.402  16.864 -0.34 -0.03    +0.297 C  ATOM      7  O   UNL     1      41.666  49.400  16.565 -1.04 -0.04    -0.265 OA ATOM      8  H   UNL     1      38.363  45.250  17.107 +0.11 -0.04    +0.168 HD ENDROOTBRANCH   1   9ATOM      9  N   UNL     1      42.643  47.406  18.596 -0.30 -0.02    -0.382 N  ATOM     10  C   UNL     1      42.771  46.992  19.977 -0.43 +0.03    +0.140 C  ATOM     11  H   UNL     1      43.479  47.306  18.033 -0.44 -0.00    +0.160 HD ENDBRANCH   1   9BRANCH   2  12ATOM     12  N   UNL     1      40.282  45.370  18.744 -0.19 +0.01    -0.376 N  ATOM     13  H   UNL     1      41.138  44.814  18.714 +0.10 +0.01    +0.161 HD BRANCH  12  14ATOM     14  C   UNL     1      39.813  45.476  20.123 -0.34 +0.00    +0.149 C  BRANCH  14  15ATOM     15  C   UNL     1      38.540  44.688  20.267 -0.35 +0.00    -0.023 A  ATOM     16  C   UNL     1      37.574  44.696  19.255 -0.33 -0.00    +0.026 A  ATOM     17  C   UNL     1      38.302  43.903  21.398 -0.30 +0.00    +0.066 A  ATOM     18  C   UNL     1      36.424  43.939  19.422 -0.30 -0.01    +0.115 A  ATOM     19  C   UNL     1      37.120  43.183  21.471 -0.27 +0.01    +0.213 A  ATOM     20  N   UNL     1      36.175  43.183  20.512 -0.28 +0.00    -0.228 NA ATOM     21  F   UNL     1      36.900  42.434  22.561 -0.14 -0.01    -0.185 F  ENDBRANCH  14  15ENDBRANCH  12  14ENDBRANCH   2  12BRANCH   4  22ATOM     22  C   UNL     1      37.306  46.348  15.763 -0.33 -0.04    +0.080 A  ATOM     23  C   UNL     1      35.973  46.002  15.983 -0.34 -0.02    +0.029 A  ATOM     24  C   UNL     1      37.646  46.846  14.491 -0.30 -0.08    +0.188 A  ATOM     25  C   UNL     1      35.015  46.172  14.977 -0.31 -0.01    +0.006 A  ATOM     26  C   UNL     1      36.702  47.022  13.471 -0.43 -0.08    +0.156 A  ATOM     27  C   UNL     1      35.375  46.682  13.727 -0.43 -0.04    +0.050 A  ATOM     28  F   UNL     1      38.935  47.161  14.261 -0.12 +0.05    -0.201 F  BRANCH  26  29ATOM     29  O   UNL     1      37.186  47.521  12.292 -0.86 +0.11    -0.494 OA ATOM     30  C   UNL     1      37.273  46.621  11.195 -0.27 -0.08    +0.278 C  ENDBRANCH  26  29ENDBRANCH   4  22TORSDOF 6TERENDMDL