REMARK SMILES N[C@H]1C(=CS(N)(=O)=O)C=C1Nc1nc2ccccc2nc1N1CCN(CC(=O)N2CCOCC2)CC1
REMARK SMILES IDX 11 1 10 3 2 4 3 5 9 6 1 7 4 10 5 11 7 12 8 13 6 14 12 17
REMARK SMILES IDX 13 18 21 19 14 20 20 21 15 22 19 23 16 24 18 25 17 26 22 27
REMARK SMILES IDX 23 28 36 29 24 30 35 31 25 32 26 33 27 34 29 35 30 36 34 37
REMARK SMILES IDX 31 38 33 39 32 40 28 41
REMARK H PARENT 11 2 1 8 1 9 6 15 6 16
ROOT
ATOM      1  N   UNL     1       2.418  -0.986  -0.469  1.00  0.00    -0.339 N 
ATOM      2  H   UNL     1       1.462  -1.307  -0.639  1.00  0.00     0.168 HD
ENDROOT
BRANCH   1   3
ATOM      3  C   UNL     1       3.463  -1.751  -0.667  1.00  0.00     0.038 C 
ATOM      4  C   UNL     1       4.976  -1.415  -0.717  1.00  0.00     0.129 C 
ATOM      5  C   UNL     1       5.143  -2.894  -0.909  1.00  0.00    -0.011 C 
ATOM      6  C   UNL     1       3.717  -3.071  -0.910  1.00  0.00     0.030 C 
BRANCH   4   7
ATOM      7  N   UNL     1       5.460  -0.986   0.601  1.00  0.00    -0.319 NA
ATOM      8  H   UNL     1       4.922  -1.440   1.343  1.00  0.00     0.119 HD
ATOM      9  H   UNL     1       5.167  -0.003   0.710  1.00  0.00     0.119 HD
ENDBRANCH   4   7
BRANCH   5  10
ATOM     10  C   UNL     1       6.181  -3.723  -1.050  1.00  0.00     0.128 C 
BRANCH  10  11
ATOM     11  S   UNL     1       7.795  -3.106  -1.050  1.00  0.00     0.231 S 
ATOM     12  O   UNL     1       8.695  -4.234  -0.946  1.00  0.00    -0.208 OA
ATOM     13  O   UNL     1       7.938  -2.133  -2.110  1.00  0.00    -0.208 OA
BRANCH  11  14
ATOM     14  N   UNL     1       7.987  -2.272   0.396  1.00  0.00    -0.225 NA
ATOM     15  H   UNL     1       7.206  -1.618   0.557  1.00  0.00     0.137 HD
ATOM     16  H   UNL     1       8.159  -2.901   1.175  1.00  0.00     0.137 HD
ENDBRANCH  11  14
ENDBRANCH  10  11
ENDBRANCH   5  10
ENDBRANCH   1   3
BRANCH   1  17
ATOM     17  C   UNL     1       2.376   0.418  -0.243  1.00  0.00     0.174 A 
ATOM     18  N   UNL     1       3.518   1.138  -0.133  1.00  0.00    -0.225 NA
ATOM     19  C   UNL     1       1.098   1.034  -0.119  1.00  0.00     0.172 A 
ATOM     20  C   UNL     1       3.385   2.463   0.059  1.00  0.00     0.091 A 
ATOM     21  N   UNL     1       0.974   2.365   0.080  1.00  0.00    -0.225 NA
ATOM     22  C   UNL     1       4.525   3.252   0.156  1.00  0.00     0.031 A 
ATOM     23  C   UNL     1       2.112   3.077   0.167  1.00  0.00     0.091 A 
ATOM     24  C   UNL     1       4.440   4.630   0.362  1.00  0.00     0.002 A 
ATOM     25  C   UNL     1       2.041   4.449   0.371  1.00  0.00     0.031 A 
ATOM     26  C   UNL     1       3.193   5.231   0.470  1.00  0.00     0.002 A 
BRANCH  19  27
ATOM     27  N   UNL     1      -0.065   0.213  -0.202  1.00  0.00    -0.351 N 
ATOM     28  C   UNL     1      -1.151   0.877  -0.965  1.00  0.00     0.134 C 
ATOM     29  C   UNL     1      -0.461  -0.200   1.168  1.00  0.00     0.134 C 
ATOM     30  C   UNL     1      -2.206   1.572  -0.070  1.00  0.00     0.106 C 
ATOM     31  C   UNL     1      -1.980  -0.474   1.260  1.00  0.00     0.106 C 
ATOM     32  N   UNL     1      -2.759   0.751   1.025  1.00  0.00    -0.291 NA
BRANCH  32  33
ATOM     33  C   UNL     1      -4.215   0.539   0.959  1.00  0.00     0.185 C 
BRANCH  33  34
ATOM     34  C   UNL     1      -4.726  -0.242  -0.270  1.00  0.00     0.236 C 
ATOM     35  N   UNL     1      -6.097  -0.505  -0.312  1.00  0.00    -0.337 N 
ATOM     36  C   UNL     1      -6.627  -1.114  -1.537  1.00  0.00     0.148 C 
ATOM     37  C   UNL     1      -7.089   0.246   0.467  1.00  0.00     0.148 C 
ATOM     38  C   UNL     1      -7.955  -1.832  -1.291  1.00  0.00     0.181 C 
ATOM     39  C   UNL     1      -8.404  -0.528   0.615  1.00  0.00     0.181 C 
ATOM     40  O   UNL     1      -8.902  -0.958  -0.658  1.00  0.00    -0.378 OA
ATOM     41  O   UNL     1      -3.978  -0.635  -1.168  1.00  0.00    -0.273 OA
ENDBRANCH  33  34
ENDBRANCH  32  33
ENDBRANCH  19  27
ENDBRANCH   1  17
TORSDOF 9
