REMARK SMILES COc1ccc(C)c(N2Cc3c(C)nc(N4CC[C@H](NC(C)=O)C4)nc3[C@@H]2C(N)=O)c1F
REMARK SMILES IDX 9 1 10 2 11 3 12 4 13 5 14 6 15 7 25 8 26 9 27 10 8 11 3 12
REMARK SMILES IDX 4 13 31 14 5 15 6 16 32 17 7 18 2 19 1 20 28 21 29 22 30 23
REMARK SMILES IDX 16 26 17 27 24 28 18 29 19 30 20 31 21 32 22 34 23 35
REMARK H PARENT 29 24 29 25 20 33
ROOT
ATOM      1  N   UNL     1       2.381   1.562   0.706  1.00  0.00    -0.347 N 
ATOM      2  C   UNL     1       1.987   1.077   2.057  1.00  0.00     0.157 C 
ATOM      3  C   UNL     1       0.626   0.515   1.877  1.00  0.00     0.017 A 
ATOM      4  C   UNL     1      -0.191  -0.164   2.734  1.00  0.00     0.048 A 
ATOM      5  C   UNL     1       0.226  -0.485   4.134  1.00  0.00     0.067 C 
ATOM      6  N   UNL     1      -1.414  -0.583   2.335  1.00  0.00    -0.218 NA
ATOM      7  C   UNL     1      -1.822  -0.317   1.075  1.00  0.00     0.225 A 
ATOM      8  N   UNL     1      -1.065   0.345   0.182  1.00  0.00    -0.215 NA
ATOM      9  C   UNL     1       0.142   0.743   0.614  1.00  0.00     0.083 A 
ATOM     10  C   UNL     1       1.158   1.518  -0.199  1.00  0.00     0.222 C 
ENDROOT
BRANCH   1  11
ATOM     11  C   UNL     1       3.545   0.959   0.179  1.00  0.00     0.081 A 
ATOM     12  C   UNL     1       4.925  -1.010  -0.365  1.00  0.00     0.156 A 
ATOM     13  C   UNL     1       5.885  -0.176  -0.931  1.00  0.00     0.050 A 
ATOM     14  C   UNL     1       3.769  -0.436   0.179  1.00  0.00     0.188 A 
ATOM     15  C   UNL     1       5.686   1.208  -0.952  1.00  0.00     0.009 A 
ATOM     16  C   UNL     1       4.529   1.785  -0.402  1.00  0.00    -0.024 A 
ATOM     17  F   UNL     1       2.834  -1.250   0.705  1.00  0.00    -0.201 F 
ATOM     18  C   UNL     1       4.357   3.280  -0.451  1.00  0.00     0.047 C 
BRANCH  12  19
ATOM     19  O   UNL     1       5.003  -2.376  -0.287  1.00  0.00    -0.494 OA
ATOM     20  C   UNL     1       6.138  -2.995  -0.876  1.00  0.00     0.278 C 
ENDBRANCH  12  19
ENDBRANCH   1  11
BRANCH  10  21
ATOM     21  C   UNL     1       1.374   0.998  -1.636  1.00  0.00     0.246 C 
ATOM     22  N   UNL     1       1.086  -0.312  -1.909  1.00  0.00    -0.368 N 
ATOM     23  O   UNL     1       1.832   1.703  -2.538  1.00  0.00    -0.272 OA
ATOM     24  H   UNL     1       0.415  -0.811  -1.332  1.00  0.00     0.159 HD
ATOM     25  H   UNL     1       1.149  -0.587  -2.880  1.00  0.00     0.159 HD
ENDBRANCH  10  21
BRANCH   7  26
ATOM     26  N   UNL     1      -3.051  -0.780   0.671  1.00  0.00    -0.339 N 
ATOM     27  C   UNL     1      -3.995  -1.228   1.679  1.00  0.00     0.122 C 
ATOM     28  C   UNL     1      -3.730  -0.103  -0.431  1.00  0.00     0.144 C 
ATOM     29  C   UNL     1      -5.261  -1.465   0.865  1.00  0.00     0.048 C 
ATOM     30  C   UNL     1      -5.236  -0.314  -0.138  1.00  0.00     0.103 C 
BRANCH  30  31
ATOM     31  N   UNL     1      -6.037  -0.595  -1.318  1.00  0.00    -0.352 N 
ATOM     32  C   UNL     1      -6.340   0.411  -2.208  1.00  0.00     0.217 C 
ATOM     33  H   UNL     1      -6.077  -1.551  -1.649  1.00  0.00     0.163 HD
ATOM     34  C   UNL     1      -7.077  -0.046  -3.438  1.00  0.00     0.114 C 
ATOM     35  O   UNL     1      -6.050   1.588  -2.019  1.00  0.00    -0.275 OA
ENDBRANCH  30  31
ENDBRANCH   7  26
TORSDOF 5
