REMARK SMILES CNC1=C(NCc2ccnc(F)c2)C(Nc2cccc(OC)c2F)=NC1=O
REMARK SMILES IDX 3 1 4 2 14 3 15 4 25 5 26 6 27 7 2 9 1 10 5 12 6 14 7 15
REMARK SMILES IDX 8 16 13 17 9 18 11 19 10 20 12 21 16 22 17 23 23 24 18 25
REMARK SMILES IDX 20 26 19 27 24 28 21 29 22 30
REMARK H PARENT 15 8 2 11 5 13
ROOT
ATOM      1  C   UNL     1      -1.487   2.993   0.031  1.00  0.00     0.129 C 
ATOM      2  C   UNL     1      -1.188   1.691  -0.023  1.00  0.00     0.107 C 
ATOM      3  C   UNL     1       0.293   1.629  -0.202  1.00  0.00     0.160 C 
ATOM      4  N   UNL     1       0.936   0.419  -0.186  1.00  0.00    -0.336 N 
ATOM      5  N   UNL     1       0.821   2.807  -0.336  1.00  0.00    -0.188 NA
ATOM      6  C   UNL     1      -0.194   3.721  -0.213  1.00  0.00     0.297 C 
ATOM      7  O   UNL     1      -0.083   4.934  -0.304  1.00  0.00    -0.265 OA
ATOM      8  H   UNL     1       0.375  -0.358   0.153  1.00  0.00     0.168 HD
ENDROOT
BRANCH   1   9
ATOM      9  N   UNL     1      -2.725   3.589   0.211  1.00  0.00    -0.382 N 
ATOM     10  C   UNL     1      -2.989   4.999   0.016  1.00  0.00     0.140 C 
ATOM     11  H   UNL     1      -3.515   2.974   0.057  1.00  0.00     0.160 HD
ENDBRANCH   1   9
BRANCH   2  12
ATOM     12  N   UNL     1      -1.978   0.560   0.116  1.00  0.00    -0.376 N 
ATOM     13  H   UNL     1      -2.886   0.829   0.497  1.00  0.00     0.161 HD
BRANCH  12  14
ATOM     14  C   UNL     1      -2.168  -0.356  -1.006  1.00  0.00     0.149 C 
BRANCH  14  15
ATOM     15  C   UNL     1      -2.884  -1.585  -0.516  1.00  0.00    -0.023 A 
ATOM     16  C   UNL     1      -2.196  -2.586   0.178  1.00  0.00     0.026 A 
ATOM     17  C   UNL     1      -4.258  -1.745  -0.713  1.00  0.00     0.066 A 
ATOM     18  C   UNL     1      -2.901  -3.692   0.628  1.00  0.00     0.115 A 
ATOM     19  C   UNL     1      -4.870  -2.888  -0.225  1.00  0.00     0.213 A 
ATOM     20  N   UNL     1      -4.226  -3.866   0.439  1.00  0.00    -0.228 NA
ATOM     21  F   UNL     1      -6.189  -3.034  -0.420  1.00  0.00    -0.185 F 
ENDBRANCH  14  15
ENDBRANCH  12  14
ENDBRANCH   2  12
BRANCH   4  22
ATOM     22  C   UNL     1       2.306   0.112  -0.270  1.00  0.00     0.080 A 
ATOM     23  C   UNL     1       3.306   1.037  -0.568  1.00  0.00     0.029 A 
ATOM     24  C   UNL     1       2.693  -1.230  -0.097  1.00  0.00     0.188 A 
ATOM     25  C   UNL     1       4.644   0.637  -0.663  1.00  0.00     0.006 A 
ATOM     26  C   UNL     1       4.026  -1.650  -0.189  1.00  0.00     0.156 A 
ATOM     27  C   UNL     1       5.005  -0.700  -0.472  1.00  0.00     0.050 A 
ATOM     28  F   UNL     1       1.731  -2.135   0.168  1.00  0.00    -0.201 F 
BRANCH  26  29
ATOM     29  O   UNL     1       4.244  -2.987   0.010  1.00  0.00    -0.494 OA
ATOM     30  C   UNL     1       5.589  -3.441  -0.059  1.00  0.00     0.278 C 
ENDBRANCH  26  29
ENDBRANCH   4  22
TORSDOF 6
