MODEL        9USER    Run = 9USERUSER    Estimated Free Energy of Binding    = -12.43 kcal/mol  [=(1)+(2)+(3)-(4)]USERUSER    (1) Final Intermolecular Energy     = -14.52 kcal/molUSER        vdW + Hbond + desolv Energy     = -14.44 kcal/molUSER        Electrostatic Energy            =  -0.08 kcal/molUSER        Moving Ligand-Fixed Receptor    = -14.52 kcal/molUSER        Moving Ligand-Moving Receptor   =  +0.00 kcal/molUSER    (2) Final Total Internal Energy     =  -2.26 kcal/molUSER    (3) Torsional Free Energy           =  +2.09 kcal/molUSER    (4) Unbound System's Energy         =  -2.26 kcal/molUSERUSERREMARK SMILES CN(C)c1ccc2nc(-c3ccc(CN4CCC(n5c(O)nc6ccccc65)CC4)cc3)c(-c3ccncc3)nc2c1REMARK SMILES IDX 14 1 13 2 10 3 11 4 32 5 12 6 31 7 9 8 4 9 5 10 42 11 6 12REMARK SMILES IDX 41 13 7 14 40 15 8 16 33 17 2 18 1 19 3 20 34 21 35 22 39 23REMARK SMILES IDX 36 24 38 25 37 26 15 27 16 28 30 29 17 30 29 31 18 32 19 33REMARK SMILES IDX 20 34 28 35 22 36 27 37 23 38 26 39 24 40 25 41 21 42REMARK H PARENT 21 43USER                              x       y       z     vdW  Elec       q    TypeUSER                           _______ _______ _______ _____ _____    ______ ____ROOTATOM      1  C   UNL     1      37.003  45.927  13.771 -0.43 -0.05    +0.120 C  ENDROOTBRANCH   1   2ATOM      2  C   UNL     1      36.235  45.064  14.750 -0.35 +0.02    -0.034 A  ATOM      3  C   UNL     1      34.782  43.416  16.547 -0.38 -0.00    +0.002 A  ATOM      4  C   UNL     1      36.160  43.233  16.347 -0.42 -0.00    +0.011 A  ATOM      5  C   UNL     1      34.155  44.463  15.852 -0.30 -0.01    +0.011 A  ATOM      6  C   UNL     1      36.876  44.039  15.455 -0.33 -0.00    +0.006 A  ATOM      7  C   UNL     1      34.867  45.274  14.963 -0.29 -0.00    +0.006 A  BRANCH   3   8ATOM      8  C   UNL     1      34.007  42.558  17.463 -0.32 -0.03    +0.097 A  ATOM      9  C   UNL     1      30.449  39.541  19.264 -0.28 +0.00    +0.038 A  ATOM     10  C   UNL     1      30.224  39.730  17.894 -0.34 +0.00    +0.028 A  ATOM     11  C   UNL     1      31.578  40.198  19.788 -0.25 +0.01    +0.056 A  ATOM     12  C   UNL     1      31.060  40.536  17.112 -0.25 -0.01    +0.033 A  ATOM     13  C   UNL     1      32.423  41.005  19.027 -0.31 +0.00    +0.092 A  ATOM     14  C   UNL     1      32.156  41.178  17.658 -0.30 -0.03    +0.090 A  ATOM     15  N   UNL     1      33.481  41.599  19.608 -0.21 -0.03    -0.244 NA ATOM     16  N   UNL     1      32.939  41.946  16.878 -0.05 +0.13    -0.244 NA ATOM     17  C   UNL     1      34.290  42.366  18.824 -0.34 -0.01    +0.097 A  BRANCH   9  18ATOM     18  N   UNL     1      29.633  38.719  20.046 -0.09 -0.03    -0.378 N  ATOM     19  C   UNL     1      30.221  37.982  21.165 -0.33 +0.01    +0.143 C  ATOM     20  C   UNL     1      28.211  39.032  20.172 -0.18 -0.00    +0.143 C  ENDBRANCH   9  18BRANCH  17  21ATOM     21  C   UNL     1      35.454  42.917  19.541 -0.43 -0.00    +0.005 A  ATOM     22  C   UNL     1      36.153  42.131  20.467 -0.46 -0.00    +0.030 A  ATOM     23  C   UNL     1      35.924  44.217  19.311 -0.36 -0.00    +0.030 A  ATOM     24  C   UNL     1      37.243  42.673  21.129 -0.30 +0.00    +0.111 A  ATOM     25  C   UNL     1      37.023  44.671  20.024 -0.12 -0.01    +0.111 A  ATOM     26  N   UNL     1      37.686  43.931  20.936 -0.21 -0.00    -0.265 NA ENDBRANCH  17  21ENDBRANCH   3   8ENDBRANCH   1   2BRANCH   1  27ATOM     27  N   UNL     1      36.885  47.369  14.042 -0.26 +0.17    -0.299 NA ATOM     28  C   UNL     1      38.065  48.114  13.581 -0.44 -0.03    +0.087 C  ATOM     29  C   UNL     1      36.581  47.686  15.446 -0.31 -0.09    +0.087 C  ATOM     30  C   UNL     1      39.309  47.897  14.443 -0.52 -0.01    +0.041 C  ATOM     31  C   UNL     1      37.751  47.451  16.401 -0.24 -0.03    +0.041 C  ATOM     32  C   UNL     1      39.003  48.192  15.916 -0.46 -0.04    +0.095 C  BRANCH  32  33ATOM     33  N   UNL     1      40.155  47.979  16.781 -0.30 +0.07    -0.291 N  ATOM     34  C   UNL     1      41.254  48.793  16.833 -0.12 -0.01    +0.295 A  ATOM     35  C   UNL     1      40.372  46.959  17.685 -0.45 -0.01    +0.072 A  ATOM     36  N   UNL     1      42.155  48.397  17.687 -0.50 -0.01    -0.195 NA ATOM     37  C   UNL     1      39.635  45.835  18.084 -0.43 -0.00    +0.029 A  ATOM     38  C   UNL     1      41.625  47.253  18.232 -0.45 -0.00    +0.092 A  ATOM     39  C   UNL     1      40.196  45.005  19.061 -0.43 -0.00    +0.002 A  ATOM     40  C   UNL     1      42.170  46.407  19.211 -0.44 +0.00    +0.031 A  ATOM     41  C   UNL     1      41.443  45.284  19.618 -0.39 +0.00    +0.002 A  BRANCH  34  42ATOM     42  O   UNL     1      41.420  49.877  16.104 -0.88 +0.04    -0.480 OA ATOM     43  H   UNL     1      41.436  50.567  16.792 -0.19 -0.06    +0.296 HD ENDBRANCH  34  42ENDBRANCH  32  33ENDBRANCH   1  27TORSDOF 7TERENDMDL