REMARK SMILES CN(C)c1ccc2nc(-c3ccc(CN4CCC(n5c(O)nc6ccccc65)CC4)cc3)c(-c3ccncc3)nc2c1
REMARK SMILES IDX 14 1 13 2 10 3 11 4 32 5 12 6 31 7 9 8 4 9 5 10 42 11 6 12
REMARK SMILES IDX 41 13 7 14 40 15 8 16 33 17 2 18 1 19 3 20 34 21 35 22 39 23
REMARK SMILES IDX 36 24 38 25 37 26 15 27 16 28 30 29 17 30 29 31 18 32 19 33
REMARK SMILES IDX 20 34 28 35 22 36 27 37 23 38 26 39 24 40 25 41 21 42
REMARK H PARENT 21 43
ROOT
ATOM      1  C   UNL     1       2.668  -0.846  -1.562  1.00  0.00     0.120 C 
ENDROOT
BRANCH   1   2
ATOM      2  C   UNL     1       1.200  -0.671  -1.237  1.00  0.00    -0.034 A 
ATOM      3  C   UNL     1      -1.560  -0.391  -0.635  1.00  0.00     0.002 A 
ATOM      4  C   UNL     1      -0.607  -0.548   0.385  1.00  0.00     0.011 A 
ATOM      5  C   UNL     1      -1.097  -0.344  -1.960  1.00  0.00     0.011 A 
ATOM      6  C   UNL     1       0.753  -0.695   0.089  1.00  0.00     0.006 A 
ATOM      7  C   UNL     1       0.261  -0.486  -2.260  1.00  0.00     0.006 A 
BRANCH   3   8
ATOM      8  C   UNL     1      -3.000  -0.262  -0.343  1.00  0.00     0.097 A 
ATOM      9  C   UNL     1      -7.659   1.544  -0.160  1.00  0.00     0.038 A 
ATOM     10  C   UNL     1      -6.890   2.375  -0.984  1.00  0.00     0.028 A 
ATOM     11  C   UNL     1      -6.982   0.438   0.386  1.00  0.00     0.056 A 
ATOM     12  C   UNL     1      -5.533   2.125  -1.226  1.00  0.00     0.033 A 
ATOM     13  C   UNL     1      -5.633   0.171   0.158  1.00  0.00     0.092 A 
ATOM     14  C   UNL     1      -4.892   1.036  -0.666  1.00  0.00     0.090 A 
ATOM     15  N   UNL     1      -5.061  -0.909   0.722  1.00  0.00    -0.244 NA
ATOM     16  N   UNL     1      -3.587   0.825  -0.918  1.00  0.00    -0.244 NA
ATOM     17  C   UNL     1      -3.744  -1.142   0.459  1.00  0.00     0.097 A 
BRANCH   9  18
ATOM     18  N   UNL     1      -9.019   1.773   0.067  1.00  0.00    -0.378 N 
ATOM     19  C   UNL     1      -9.703   1.034   1.128  1.00  0.00     0.143 C 
ATOM     20  C   UNL     1      -9.592   3.076  -0.268  1.00  0.00     0.143 C 
ENDBRANCH   9  18
BRANCH  17  21
ATOM     21  C   UNL     1      -3.232  -2.382   1.069  1.00  0.00     0.005 A 
ATOM     22  C   UNL     1      -3.439  -2.639   2.431  1.00  0.00     0.030 A 
ATOM     23  C   UNL     1      -2.555  -3.356   0.323  1.00  0.00     0.030 A 
ATOM     24  C   UNL     1      -2.946  -3.811   2.982  1.00  0.00     0.111 A 
ATOM     25  C   UNL     1      -2.097  -4.497   0.964  1.00  0.00     0.111 A 
ATOM     26  N   UNL     1      -2.269  -4.741   2.279  1.00  0.00    -0.265 NA
ENDBRANCH  17  21
ENDBRANCH   3   8
ENDBRANCH   1   2
BRANCH   1  27
ATOM     27  N   UNL     1       3.259   0.311  -2.254  1.00  0.00    -0.299 NA
ATOM     28  C   UNL     1       4.580  -0.000  -2.817  1.00  0.00     0.087 C 
ATOM     29  C   UNL     1       3.313   1.529  -1.432  1.00  0.00     0.087 C 
ATOM     30  C   UNL     1       5.684  -0.131  -1.767  1.00  0.00     0.041 C 
ATOM     31  C   UNL     1       4.355   1.477  -0.315  1.00  0.00     0.041 C 
ATOM     32  C   UNL     1       5.735   1.118  -0.879  1.00  0.00     0.095 C 
BRANCH  32  33
ATOM     33  N   UNL     1       6.760   1.030   0.152  1.00  0.00    -0.291 N 
ATOM     34  C   UNL     1       7.858   1.843   0.232  1.00  0.00     0.295 A 
ATOM     35  C   UNL     1       6.837   0.151   1.213  1.00  0.00     0.072 A 
ATOM     36  N   UNL     1       8.632   1.573   1.246  1.00  0.00    -0.195 NA
ATOM     37  C   UNL     1       6.032  -0.904   1.666  1.00  0.00     0.029 A 
ATOM     38  C   UNL     1       8.013   0.520   1.873  1.00  0.00     0.092 A 
ATOM     39  C   UNL     1       6.444  -1.585   2.817  1.00  0.00     0.002 A 
ATOM     40  C   UNL     1       8.409  -0.177   3.026  1.00  0.00     0.031 A 
ATOM     41  C   UNL     1       7.613  -1.230   3.489  1.00  0.00     0.002 A 
BRANCH  34  42
ATOM     42  O   UNL     1       8.139   2.811  -0.615  1.00  0.00    -0.480 OA
ATOM     43  H   UNL     1       8.969   3.157  -0.239  1.00  0.00     0.296 HD
ENDBRANCH  34  42
ENDBRANCH  32  33
ENDBRANCH   1  27
TORSDOF 7
