MODEL        7USER    Run = 7USERUSER    Estimated Free Energy of Binding    =  -9.02 kcal/mol  [=(1)+(2)+(3)-(4)]USERUSER    (1) Final Intermolecular Energy     = -10.51 kcal/molUSER        vdW + Hbond + desolv Energy     = -10.36 kcal/molUSER        Electrostatic Energy            =  -0.15 kcal/molUSER        Moving Ligand-Fixed Receptor    = -10.51 kcal/molUSER        Moving Ligand-Moving Receptor   =  +0.00 kcal/molUSER    (2) Final Total Internal Energy     =  -1.75 kcal/molUSER    (3) Torsional Free Energy           =  +1.49 kcal/molUSER    (4) Unbound System's Energy         =  -1.75 kcal/molUSERUSERREMARK SMILES COc1ccc(C)c(N2Cc3c(C)nc(N4CC[C@H](NC(C)=O)C4)nc3[C@@H]2C(N)=O)c1FREMARK SMILES IDX 9 1 10 2 11 3 12 4 13 5 14 6 15 7 25 8 26 9 27 10 8 11 3 12REMARK SMILES IDX 4 13 31 14 5 15 6 16 32 17 7 18 2 19 1 20 28 21 29 22 30 23REMARK SMILES IDX 16 26 17 27 24 28 18 29 19 30 20 31 21 32 22 34 23 35REMARK H PARENT 29 24 29 25 20 33USER                              x       y       z     vdW  Elec       q    TypeUSER                           _______ _______ _______ _____ _____    ______ ____ROOTATOM      1  N   UNL     1      39.173  43.613  21.255 +0.01 -0.01    -0.347 N  ATOM      2  C   UNL     1      40.487  44.309  21.322 -0.26 +0.01    +0.157 C  ATOM      3  C   UNL     1      40.469  45.267  20.190 -0.38 +0.00    +0.017 A  ATOM      4  C   UNL     1      41.348  46.242  19.818 -0.38 +0.00    +0.048 A  ATOM      5  C   UNL     1      42.592  46.523  20.600 -0.39 +0.02    +0.067 C  ATOM      6  N   UNL     1      41.114  47.002  18.724 -0.34 +0.01    -0.218 NA ATOM      7  C   UNL     1      39.997  46.782  17.996 -0.27 -0.03    +0.225 A  ATOM      8  N   UNL     1      39.090  45.839  18.310 -0.29 +0.03    -0.215 NA ATOM      9  C   UNL     1      39.357  45.106  19.403 -0.35 -0.00    +0.083 A  ATOM     10  C   UNL     1      38.499  43.979  19.939 -0.15 -0.01    +0.222 C  ENDROOTBRANCH   1  11ATOM     11  C   UNL     1      38.368  43.760  22.407 -0.28 +0.00    +0.081 A  ATOM     12  C   UNL     1      37.443  45.088  24.266 -0.14 +0.03    +0.156 A  ATOM     13  C   UNL     1      36.704  43.985  24.682 -0.21 +0.01    +0.050 A  ATOM     14  C   UNL     1      38.262  44.965  23.136 -0.21 +0.02    +0.188 A  ATOM     15  C   UNL     1      36.784  42.781  23.975 -0.37 +0.00    +0.009 A  ATOM     16  C   UNL     1      37.608  42.655  22.844 -0.39 -0.00    -0.024 A  ATOM     17  F   UNL     1      38.957  46.043  22.726 -0.11 -0.02    -0.201 F  ATOM     18  C   UNL     1      37.659  41.340  22.112 -0.43 +0.00    +0.047 C  BRANCH  12  19ATOM     19  O   UNL     1      37.448  46.318  24.871 -0.64 -0.11    -0.494 OA ATOM     20  C   UNL     1      37.372  46.343  26.290 -0.24 -0.02    +0.278 C  ENDBRANCH  12  19ENDBRANCH   1  11BRANCH  10  21ATOM     21  C   UNL     1      36.987  44.281  19.992 -0.26 -0.02    +0.246 C  ATOM     22  N   UNL     1      36.466  45.175  19.096 +0.05 +0.07    -0.368 N  ATOM     23  O   UNL     1      36.236  43.781  20.833 -0.31 -0.00    -0.272 OA ATOM     24  H   UNL     1      36.939  45.336  18.212 +0.10 -0.04    +0.159 HD ATOM     25  H   UNL     1      35.459  45.272  19.101 +0.09 -0.04    +0.159 HD ENDBRANCH  10  21BRANCH   7  26ATOM     26  N   UNL     1      39.752  47.585  16.909 -0.23 +0.09    -0.339 N  ATOM     27  C   UNL     1      40.864  48.286  16.293 -0.53 -0.02    +0.122 C  ATOM     28  C   UNL     1      38.784  47.139  15.909 -0.40 -0.05    +0.144 C  ATOM     29  C   UNL     1      40.228  48.885  15.045 -0.62 -0.02    +0.048 C  ATOM     30  C   UNL     1      39.277  47.780  14.589 -0.49 -0.03    +0.103 C  BRANCH  30  31ATOM     31  N   UNL     1      38.212  48.287  13.740 -0.24 +0.12    -0.352 N  ATOM     32  C   UNL     1      37.299  47.422  13.179 -0.47 -0.08    +0.217 C  ATOM     33  H   UNL     1      37.947  49.259  13.838 -0.34 -0.10    +0.163 HD ATOM     34  C   UNL     1      36.188  48.094  12.419 -0.57 -0.05    +0.114 C  ATOM     35  O   UNL     1      37.382  46.201  13.273 -0.32 +0.10    -0.275 OA ENDBRANCH  30  31ENDBRANCH   7  26TORSDOF 5TERENDMDL