MODEL        10USER    Run = 10USERUSER    Estimated Free Energy of Binding    = -10.64 kcal/mol  [=(1)+(2)+(3)-(4)]USERUSER    (1) Final Intermolecular Energy     = -13.33 kcal/molUSER        vdW + Hbond + desolv Energy     = -13.28 kcal/molUSER        Electrostatic Energy            =  -0.05 kcal/molUSER        Moving Ligand-Fixed Receptor    = -13.33 kcal/molUSER        Moving Ligand-Moving Receptor   =  +0.00 kcal/molUSER    (2) Final Total Internal Energy     =  -3.14 kcal/molUSER    (3) Torsional Free Energy           =  +2.68 kcal/molUSER    (4) Unbound System's Energy         =  -3.14 kcal/molUSERUSERREMARK SMILES N[C@H]1C(=CS(N)(=O)=O)C=C1Nc1nc2ccccc2nc1N1CCN(CC(=O)N2CCOCC2)CC1REMARK SMILES IDX 11 1 10 3 2 4 3 5 9 6 1 7 4 10 5 11 7 12 8 13 6 14 12 17REMARK SMILES IDX 13 18 21 19 14 20 20 21 15 22 19 23 16 24 18 25 17 26 22 27REMARK SMILES IDX 23 28 36 29 24 30 35 31 25 32 26 33 27 34 29 35 30 36 34 37REMARK SMILES IDX 31 38 33 39 32 40 28 41REMARK H PARENT 11 2 1 8 1 9 6 15 6 16USER                              x       y       z     vdW  Elec       q    TypeUSER                           _______ _______ _______ _____ _____    ______ ____ROOTATOM      1  N   UNL     1      38.092  44.786  17.584 -0.15 +0.07    -0.339 N  ATOM      2  H   UNL     1      38.788  44.060  17.771 +0.11 -0.02    +0.168 HD ENDROOTBRANCH   1   3ATOM      3  C   UNL     1      38.410  45.951  17.076 -0.43 -0.01    +0.038 C  ATOM      4  C   UNL     1      39.578  46.918  17.398 -0.42 -0.03    +0.129 C  ATOM      5  C   UNL     1      39.000  47.744  16.287 -0.51 +0.00    -0.011 C  ATOM      6  C   UNL     1      37.926  46.804  16.125 -0.44 -0.01    +0.030 C  BRANCH   4   7ATOM      7  N   UNL     1      40.867  46.328  17.015 -0.20 +0.03    -0.319 NA ATOM      8  H   UNL     1      41.413  46.993  16.463 -0.32 -0.01    +0.119 HD ATOM      9  H   UNL     1      40.655  45.605  16.311 +0.07 -0.00    +0.119 HD ENDBRANCH   4   7BRANCH   5  10ATOM     10  C   UNL     1      39.322  48.897  15.693 -0.47 -0.06    +0.128 C  BRANCH  10  11ATOM     11  S   UNL     1      40.980  49.342  15.494 -0.70 -0.05    +0.231 S  ATOM     12  O   UNL     1      41.536  48.505  14.454 -0.42 +0.01    -0.208 OA ATOM     13  O   UNL     1      41.086  50.783  15.429 -0.63 +0.08    -0.208 OA BRANCH  11  14ATOM     14  N   UNL     1      41.773  48.865  16.896 -0.82 -0.03    -0.225 NA ATOM     15  H   UNL     1      41.130  48.847  17.702 +0.07 -0.01    +0.137 HD ATOM     16  H   UNL     1      42.286  47.998  16.764 -0.44 -0.01    +0.137 HD ENDBRANCH  11  14ENDBRANCH  10  11ENDBRANCH   5  10ENDBRANCH   1   3BRANCH   1  17ATOM     17  C   UNL     1      36.802  44.209  17.741 -0.20 -0.04    +0.174 A  ATOM     18  N   UNL     1      35.853  44.360  16.787 -0.17 +0.09    -0.225 NA ATOM     19  C   UNL     1      36.538  43.485  18.939 -0.16 -0.03    +0.172 A  ATOM     20  C   UNL     1      34.668  43.762  17.008 -0.27 -0.04    +0.091 A  ATOM     21  N   UNL     1      35.342  42.893  19.155 -0.23 +0.03    -0.225 NA ATOM     22  C   UNL     1      33.666  43.867  16.050 -0.30 -0.02    +0.031 A  ATOM     23  C   UNL     1      34.412  43.029  18.194 -0.29 -0.02    +0.091 A  ATOM     24  C   UNL     1      32.418  43.271  16.235 -0.33 -0.00    +0.002 A  ATOM     25  C   UNL     1      33.165  42.441  18.366 -0.35 -0.01    +0.031 A  ATOM     26  C   UNL     1      32.166  42.555  17.398 -0.32 -0.00    +0.002 A  BRANCH  19  27ATOM     27  N   UNL     1      37.566  43.398  19.923 -0.07 +0.02    -0.351 N  ATOM     28  C   UNL     1      37.250  42.382  20.957 -0.27 +0.00    +0.134 C  ATOM     29  C   UNL     1      37.820  44.754  20.474 -0.26 -0.00    +0.134 C  ATOM     30  C   UNL     1      36.632  42.975  22.246 -0.36 +0.01    +0.106 C  ATOM     31  C   UNL     1      38.357  44.686  21.922 -0.34 +0.01    +0.106 C  ATOM     32  N   UNL     1      37.355  44.119  22.837 -0.19 -0.03    -0.291 NA BRANCH  32  33ATOM     33  C   UNL     1      37.846  43.894  24.207 -0.24 +0.01    +0.185 C  BRANCH  33  34ATOM     34  C   UNL     1      37.017  44.546  25.334 -0.24 +0.01    +0.236 C  ATOM     35  N   UNL     1      36.347  43.674  26.196 -0.17 +0.03    -0.337 N  ATOM     36  C   UNL     1      35.676  44.264  27.359 -0.35 -0.04    +0.148 C  ATOM     37  C   UNL     1      36.710  42.262  26.360 -0.38 -0.02    +0.148 C  ATOM     38  C   UNL     1      34.570  43.357  27.903 -0.50 -0.04    +0.181 C  ATOM     39  C   UNL     1      35.561  41.443  26.960 -0.52 -0.06    +0.181 C  ATOM     40  O   UNL     1      35.072  42.039  28.169 -0.31 +0.17    -0.378 OA ATOM     41  O   UNL     1      36.926  45.768  25.472 -0.78 -0.01    -0.273 OA ENDBRANCH  33  34ENDBRANCH  32  33ENDBRANCH  19  27ENDBRANCH   1  17TORSDOF 9TERENDMDL