MODEL        7USER    Run = 7USERUSER    Estimated Free Energy of Binding    =  -9.06 kcal/mol  [=(1)+(2)+(3)-(4)]USERUSER    (1) Final Intermolecular Energy     = -10.85 kcal/molUSER        vdW + Hbond + desolv Energy     = -10.52 kcal/molUSER        Electrostatic Energy            =  -0.33 kcal/molUSER        Moving Ligand-Fixed Receptor    = -10.85 kcal/molUSER        Moving Ligand-Moving Receptor   =  +0.00 kcal/molUSER    (2) Final Total Internal Energy     =  -1.19 kcal/molUSER    (3) Torsional Free Energy           =  +1.79 kcal/molUSER    (4) Unbound System's Energy         =  -1.19 kcal/molUSERUSERREMARK SMILES COc1ccc(O)c(C(=O)c2ccc(C(=O)N[C@@H]3CCCNC3)cc2)c1FREMARK SMILES IDX 11 1 12 2 13 3 14 4 24 5 25 6 9 7 10 8 8 9 3 10 4 11 26 12REMARK SMILES IDX 5 13 6 14 27 15 2 16 1 17 7 18 15 20 17 21 16 22 18 24 19 25REMARK SMILES IDX 23 26 20 27 22 28 21 29REMARK H PARENT 7 19 17 23 22 30USER                              x       y       z     vdW  Elec       q    TypeUSER                           _______ _______ _______ _____ _____    ______ ____ROOTATOM      1  C   UNL     1      42.089  47.004  19.162 -0.50 +0.00    +0.023 A  ATOM      2  C   UNL     1      42.143  48.122  18.318 -0.37 -0.00    +0.013 A  ATOM      3  C   UNL     1      41.387  48.150  17.139 -0.48 -0.00    +0.014 A  ATOM      4  C   UNL     1      40.571  47.065  16.802 -0.47 -0.01    +0.039 A  ATOM      5  C   UNL     1      40.526  45.943  17.635 -0.47 -0.00    +0.014 A  ATOM      6  C   UNL     1      41.275  45.917  18.816 -0.47 +0.00    +0.013 A  ENDROOTBRANCH   1   7ATOM      7  C   UNL     1      42.859  46.930  20.435 -0.35 +0.05    +0.199 C  ATOM      8  O   UNL     1      44.084  47.005  20.436 -0.45 -0.22    -0.288 OA BRANCH   7   9ATOM      9  C   UNL     1      42.169  46.776  21.722 -0.23 +0.02    +0.104 A  ATOM     10  C   UNL     1      40.814  45.404  23.194 -0.12 +0.01    +0.155 A  ATOM     11  C   UNL     1      40.900  46.395  24.177 -0.15 +0.00    +0.053 A  ATOM     12  C   UNL     1      41.459  45.604  21.968 -0.17 +0.02    +0.179 A  ATOM     13  C   UNL     1      41.616  47.574  23.933 -0.24 +0.01    +0.051 A  ATOM     14  C   UNL     1      42.248  47.762  22.705 -0.17 +0.02    +0.130 A  ATOM     15  F   UNL     1      41.361  44.667  21.010 -0.08 -0.02    -0.202 F  BRANCH  10  16ATOM     16  O   UNL     1      40.125  44.228  23.314 +0.00 -0.02    -0.494 OA ATOM     17  C   UNL     1      38.892  44.114  22.616 -0.18 +0.01    +0.278 C  ENDBRANCH  10  16BRANCH  14  18ATOM     18  O   UNL     1      42.936  48.916  22.462 -0.63 -0.11    -0.507 OA ATOM     19  H   UNL     1      43.582  48.770  21.749 -0.43 -0.04    +0.293 HD ENDBRANCH  14  18ENDBRANCH   7   9ENDBRANCH   1   7BRANCH   4  20ATOM     20  C   UNL     1      39.752  47.060  15.560 -0.36 -0.05    +0.251 C  ATOM     21  N   UNL     1      38.383  47.102  15.737 -0.16 +0.15    -0.348 N  ATOM     22  O   UNL     1      40.291  46.986  14.463 -0.29 +0.03    -0.269 OA ATOM     23  H   UNL     1      38.018  46.870  16.652 +0.10 -0.08    +0.164 HD BRANCH  21  24ATOM     24  C   UNL     1      37.481  46.947  14.603 -0.43 -0.05    +0.096 C  ATOM     25  C   UNL     1      37.685  45.586  13.937 -0.48 -0.01    +0.027 C  ATOM     26  C   UNL     1      37.656  48.087  13.565 -0.50 -0.04    +0.105 C  ATOM     27  C   UNL     1      36.753  45.402  12.734 -0.59 -0.01    +0.017 C  ATOM     28  N   UNL     1      37.250  47.746  12.192 -0.95 +0.05    -0.315 NA ATOM     29  C   UNL     1      36.213  46.722  12.175 -0.69 -0.04    +0.081 C  ATOM     30  H   UNL     1      36.918  48.591  11.726 -0.23 -0.01    +0.122 HD ENDBRANCH  21  24ENDBRANCH   4  20TORSDOF 6TERENDMDL