MODEL        8USER    Run = 8USERUSER    Estimated Free Energy of Binding    =  -9.95 kcal/mol  [=(1)+(2)+(3)-(4)]USERUSER    (1) Final Intermolecular Energy     = -12.34 kcal/molUSER        vdW + Hbond + desolv Energy     = -12.45 kcal/molUSER        Electrostatic Energy            =  +0.11 kcal/molUSER        Moving Ligand-Fixed Receptor    = -12.34 kcal/molUSER        Moving Ligand-Moving Receptor   =  +0.00 kcal/molUSER    (2) Final Total Internal Energy     =  -2.83 kcal/molUSER    (3) Torsional Free Energy           =  +2.39 kcal/molUSER    (4) Unbound System's Energy         =  -2.83 kcal/molUSERUSERREMARK SMILES COc1ccc(O)c(C(=O)c2ccc(C(=O)N[C@@H]3CCNC[C@@H]3NC(=O)c3ccncc3)cc2)c1FREMARK SMILES IDX 11 1 12 2 13 3 14 4 33 5 34 6 9 7 10 8 8 9 3 10 4 11 35 12REMARK SMILES IDX 5 13 6 14 36 15 2 16 1 17 7 18 15 20 17 21 16 22 18 24 19 25REMARK SMILES IDX 23 26 20 27 22 28 21 29 24 31 25 32 26 34 27 35 28 36 32 37REMARK SMILES IDX 29 38 31 39 30 40REMARK H PARENT 7 19 17 23 21 30 24 33USER                              x       y       z     vdW  Elec       q    TypeUSER                           _______ _______ _______ _____ _____    ______ ____ROOTATOM      1  C   UNL     1      36.759  43.451  20.363 -0.39 -0.00    +0.023 A  ATOM      2  C   UNL     1      35.458  43.677  19.902 -0.41 -0.00    +0.013 A  ATOM      3  C   UNL     1      35.242  44.466  18.769 -0.36 -0.00    +0.014 A  ATOM      4  C   UNL     1      36.327  45.032  18.088 -0.31 -0.01    +0.039 A  ATOM      5  C   UNL     1      37.632  44.773  18.528 -0.36 -0.00    +0.014 A  ATOM      6  C   UNL     1      37.849  43.978  19.659 -0.31 -0.00    +0.013 A  ENDROOTBRANCH   1   7ATOM      7  C   UNL     1      36.946  42.588  21.553 -0.38 +0.01    +0.199 C  ATOM      8  O   UNL     1      37.141  41.383  21.388 -0.40 -0.01    -0.288 OA BRANCH   7   9ATOM      9  C   UNL     1      36.966  43.109  22.939 -0.32 +0.01    +0.104 A  ATOM     10  C   UNL     1      37.391  44.887  24.555 -0.21 +0.02    +0.155 A  ATOM     11  C   UNL     1      37.003  44.035  25.592 -0.31 -0.00    +0.053 A  ATOM     12  C   UNL     1      37.360  44.415  23.234 -0.21 +0.02    +0.179 A  ATOM     13  C   UNL     1      36.575  42.736  25.305 -0.36 -0.00    +0.051 A  ATOM     14  C   UNL     1      36.544  42.284  23.989 -0.31 +0.01    +0.130 A  ATOM     15  F   UNL     1      37.700  45.257  22.244 -0.11 -0.02    -0.202 F  BRANCH  10  16ATOM     16  O   UNL     1      37.815  46.180  24.708 -0.54 -0.09    -0.494 OA ATOM     17  C   UNL     1      37.314  46.902  25.827 -0.25 +0.00    +0.278 C  ENDBRANCH  10  16BRANCH  14  18ATOM     18  O   UNL     1      36.084  41.008  23.795 -0.02 +0.06    -0.507 OA ATOM     19  H   UNL     1      36.400  40.703  22.913 +0.20 -0.00    +0.293 HD ENDBRANCH  14  18ENDBRANCH   7   9ENDBRANCH   1   7BRANCH   4  20ATOM     20  C   UNL     1      36.055  45.876  16.892 -0.24 -0.15    +0.251 C  ATOM     21  N   UNL     1      36.416  45.332  15.674 -0.11 +0.17    -0.347 N  ATOM     22  O   UNL     1      35.574  46.994  17.019 -0.27 +0.32    -0.269 OA ATOM     23  H   UNL     1      37.111  44.594  15.692 +0.11 -0.06    +0.164 HD BRANCH  21  24ATOM     24  C   UNL     1      36.374  46.125  14.442 -0.40 -0.06    +0.107 C  ATOM     25  C   UNL     1      37.116  45.450  13.285 -0.52 -0.01    +0.042 C  ATOM     26  C   UNL     1      36.955  47.549  14.672 -0.44 -0.08    +0.118 C  ATOM     27  C   UNL     1      36.919  46.244  11.990 -0.65 -0.03    +0.083 C  ATOM     28  C   UNL     1      37.535  48.149  13.369 -0.40 -0.03    +0.108 C  ATOM     29  N   UNL     1      36.844  47.699  12.161 -0.94 +0.10    -0.315 NA ATOM     30  H   UNL     1      35.866  47.988  12.202 -0.01 -0.07    +0.122 HD BRANCH  26  31ATOM     31  N   UNL     1      37.986  47.535  15.721 -0.19 +0.20    -0.346 N  ATOM     32  C   UNL     1      39.266  47.091  15.472 -0.35 -0.07    +0.251 C  ATOM     33  H   UNL     1      37.677  47.717  16.667 +0.10 -0.12    +0.164 HD ATOM     34  O   UNL     1      39.670  46.805  14.351 -0.31 +0.05    -0.269 OA BRANCH  32  35ATOM     35  C   UNL     1      40.183  47.009  16.637 -0.47 -0.01    +0.042 A  ATOM     36  C   UNL     1      40.275  45.868  17.434 -0.43 -0.00    +0.034 A  ATOM     37  C   UNL     1      40.985  48.115  16.918 -0.52 -0.00    +0.034 A  ATOM     38  C   UNL     1      41.156  45.897  18.501 -0.40 +0.00    +0.112 A  ATOM     39  C   UNL     1      41.830  48.044  18.008 -0.34 -0.00    +0.112 A  ATOM     40  N   UNL     1      41.924  46.963  18.812 -0.35 -0.01    -0.265 NA ENDBRANCH  32  35ENDBRANCH  26  31ENDBRANCH  21  24ENDBRANCH   4  20TORSDOF 8TERENDMDL