REMARK SMILES CO[C@H]1CC=C(F)C=C1[C@@H]1c2cc(-c3n[nH]c4cc(F)c(F)cc34)[nH]c21
REMARK SMILES IDX 3 1 4 2 5 3 6 4 7 5 8 6 9 7 2 8 1 9 10 10 11 11 26 12 12 13
REMARK SMILES IDX 25 14 13 15 14 17 15 18 24 19 16 20 23 21 17 22 21 23 18 24
REMARK SMILES IDX 19 25 22 27 20 28
REMARK H PARENT 25 16 16 26
ROOT
ATOM      1  C   UNL     1      -3.612  -1.184  -0.214  1.00  0.00     0.149 C 
ATOM      2  C   UNL     1      -4.273  -1.707  -1.518  1.00  0.00     0.067 C 
ATOM      3  C   UNL     1      -4.529  -0.661  -2.565  1.00  0.00     0.015 C 
ATOM      4  C   UNL     1      -3.964   0.547  -2.497  1.00  0.00     0.119 C 
ATOM      5  F   UNL     1      -4.194   1.453  -3.469  1.00  0.00    -0.207 F 
ATOM      6  C   UNL     1      -3.068   0.916  -1.438  1.00  0.00     0.042 C 
ATOM      7  C   UNL     1      -2.862   0.137  -0.356  1.00  0.00    -0.025 C 
ENDROOT
BRANCH   1   8
ATOM      8  O   UNL     1      -4.624  -0.967   0.785  1.00  0.00    -0.377 OA
ATOM      9  C   UNL     1      -4.854  -2.115   1.592  1.00  0.00     0.195 C 
ENDBRANCH   1   8
BRANCH   7  10
ATOM     10  C   UNL     1      -1.986   0.502   0.771  1.00  0.00     0.097 C 
ATOM     11  C   UNL     1      -0.663   1.024   0.507  1.00  0.00    -0.012 A 
ATOM     12  C   UNL     1      -0.810  -0.318   1.032  1.00  0.00     0.031 A 
ATOM     13  C   UNL     1       0.694   1.229   0.362  1.00  0.00     0.035 A 
ATOM     14  N   UNL     1       0.452  -0.767   1.145  1.00  0.00    -0.356 N 
ATOM     15  C   UNL     1       1.387   0.126   0.753  1.00  0.00     0.067 A 
ATOM     16  H   UNL     1       0.705  -1.683   1.488  1.00  0.00     0.166 HD
BRANCH  15  17
ATOM     17  C   UNL     1       2.909  -0.167   0.789  1.00  0.00     0.116 A 
ATOM     18  N   UNL     1       3.325  -1.362   1.230  1.00  0.00    -0.173 NA
ATOM     19  C   UNL     1       3.991   0.673   0.410  1.00  0.00     0.032 A 
ATOM     20  N   UNL     1       4.661  -1.291   1.136  1.00  0.00    -0.277 N 
ATOM     21  C   UNL     1       4.158   1.975  -0.101  1.00  0.00     0.055 A 
ATOM     22  C   UNL     1       5.128  -0.099   0.652  1.00  0.00     0.069 A 
ATOM     23  C   UNL     1       5.453   2.439  -0.345  1.00  0.00     0.159 A 
ATOM     24  C   UNL     1       6.431   0.352   0.412  1.00  0.00     0.070 A 
ATOM     25  C   UNL     1       6.564   1.645  -0.093  1.00  0.00     0.160 A 
ATOM     26  H   UNL     1       5.205  -2.098   1.420  1.00  0.00     0.190 HD
ATOM     27  F   UNL     1       5.615   3.678  -0.832  1.00  0.00    -0.204 F 
ATOM     28  F   UNL     1       7.794   2.119  -0.338  1.00  0.00    -0.204 F 
ENDBRANCH  15  17
ENDBRANCH   7  10
TORSDOF 3
