REMARK SMILES Nc1ccc2nc(-c3ccccc3)c(-c3ccc(CN4CCC(n5c(O)nc6ccccc65)CC4)cc3)nc2c1
REMARK SMILES IDX 19 1 18 2 15 3 16 4 37 5 17 6 36 7 14 8 2 9 3 10 40 11 4 12
REMARK SMILES IDX 39 13 5 14 38 15 6 16 7 17 1 18 8 21 9 22 13 23 10 24 12 25
REMARK SMILES IDX 11 26 20 27 21 28 35 29 22 30 34 31 23 32 24 33 25 34 33 35
REMARK SMILES IDX 27 36 32 37 28 38 31 39 29 40 30 41 26 42
REMARK H PARENT 1 19 1 20 26 43
ROOT
ATOM      1  C   UNL     1       1.194  -2.053  -0.522  1.00  0.00     0.120 C 
ENDROOT
BRANCH   1   2
ATOM      2  C   UNL     1      -0.171  -1.409  -0.411  1.00  0.00    -0.034 A 
ATOM      3  C   UNL     1      -2.748  -0.251  -0.171  1.00  0.00     0.002 A 
ATOM      4  C   UNL     1      -2.188  -0.520  -1.432  1.00  0.00     0.011 A 
ATOM      5  C   UNL     1      -1.975  -0.537   0.967  1.00  0.00     0.011 A 
ATOM      6  C   UNL     1      -0.920  -1.099  -1.552  1.00  0.00     0.006 A 
ATOM      7  C   UNL     1      -0.706  -1.111   0.849  1.00  0.00     0.006 A 
BRANCH   3   8
ATOM      8  C   UNL     1      -4.101   0.324  -0.059  1.00  0.00     0.097 A 
ATOM      9  C   UNL     1      -6.912   3.942  -1.323  1.00  0.00     0.034 A 
ATOM     10  C   UNL     1      -7.902   3.447  -0.481  1.00  0.00     0.028 A 
ATOM     11  C   UNL     1      -5.681   3.282  -1.360  1.00  0.00     0.056 A 
ATOM     12  C   UNL     1      -7.696   2.260   0.225  1.00  0.00     0.033 A 
ATOM     13  C   UNL     1      -5.462   2.098  -0.664  1.00  0.00     0.091 A 
ATOM     14  C   UNL     1      -6.495   1.571   0.139  1.00  0.00     0.090 A 
ATOM     15  N   UNL     1      -4.271   1.479  -0.762  1.00  0.00    -0.244 NA
ATOM     16  N   UNL     1      -6.340   0.423   0.822  1.00  0.00    -0.244 NA
ATOM     17  C   UNL     1      -5.143  -0.218   0.711  1.00  0.00     0.097 A 
BRANCH   9  18
ATOM     18  N   UNL     1      -7.067   5.185  -1.941  1.00  0.00    -0.399 N 
ATOM     19  H   UNL     1      -6.468   5.326  -2.748  1.00  0.00     0.156 HD
ATOM     20  H   UNL     1      -8.031   5.443  -2.129  1.00  0.00     0.156 HD
ENDBRANCH   9  18
BRANCH  17  21
ATOM     21  C   UNL     1      -5.082  -1.503   1.435  1.00  0.00     0.002 A 
ATOM     22  C   UNL     1      -5.453  -1.577   2.789  1.00  0.00     0.010 A 
ATOM     23  C   UNL     1      -4.676  -2.692   0.802  1.00  0.00     0.010 A 
ATOM     24  C   UNL     1      -5.388  -2.784   3.492  1.00  0.00     0.001 A 
ATOM     25  C   UNL     1      -4.608  -3.900   1.503  1.00  0.00     0.001 A 
ATOM     26  C   UNL     1      -4.959  -3.943   2.849  1.00  0.00     0.000 A 
ENDBRANCH  17  21
ENDBRANCH   3   8
ENDBRANCH   1   2
BRANCH   1  27
ATOM     27  N   UNL     1       2.283  -1.157  -0.101  1.00  0.00    -0.299 NA
ATOM     28  C   UNL     1       2.472  -0.048  -1.048  1.00  0.00     0.087 C 
ATOM     29  C   UNL     1       3.520  -1.893   0.141  1.00  0.00     0.087 C 
ATOM     30  C   UNL     1       3.878   0.558  -1.029  1.00  0.00     0.041 C 
ATOM     31  C   UNL     1       4.489  -0.996   0.911  1.00  0.00     0.041 C 
ATOM     32  C   UNL     1       4.538   0.439   0.348  1.00  0.00     0.095 C 
BRANCH  32  33
ATOM     33  N   UNL     1       5.884   1.006   0.355  1.00  0.00    -0.291 N 
ATOM     34  C   UNL     1       6.296   2.154   1.001  1.00  0.00     0.295 A 
ATOM     35  C   UNL     1       6.995   0.481  -0.286  1.00  0.00     0.072 A 
ATOM     36  N   UNL     1       7.583   2.357   0.868  1.00  0.00    -0.195 NA
ATOM     37  C   UNL     1       7.206  -0.633  -1.113  1.00  0.00     0.029 A 
ATOM     38  C   UNL     1       8.034   1.340   0.071  1.00  0.00     0.092 A 
ATOM     39  C   UNL     1       8.509  -0.864  -1.570  1.00  0.00     0.002 A 
ATOM     40  C   UNL     1       9.335   1.092  -0.396  1.00  0.00     0.031 A 
ATOM     41  C   UNL     1       9.560  -0.017  -1.218  1.00  0.00     0.002 A 
BRANCH  34  42
ATOM     42  O   UNL     1       5.539   2.992   1.691  1.00  0.00    -0.480 OA
ATOM     43  H   UNL     1       4.603   2.800   1.545  1.00  0.00     0.296 HD
ENDBRANCH  34  42
ENDBRANCH  32  33
ENDBRANCH   1  27
TORSDOF 7
