MODEL        10USER    Run = 10USERUSER    Estimated Free Energy of Binding    = -12.45 kcal/mol  [=(1)+(2)+(3)-(4)]USERUSER    (1) Final Intermolecular Energy     = -14.54 kcal/molUSER        vdW + Hbond + desolv Energy     = -14.41 kcal/molUSER        Electrostatic Energy            =  -0.14 kcal/molUSER        Moving Ligand-Fixed Receptor    = -14.54 kcal/molUSER        Moving Ligand-Moving Receptor   =  +0.00 kcal/molUSER    (2) Final Total Internal Energy     =  -1.97 kcal/molUSER    (3) Torsional Free Energy           =  +2.09 kcal/molUSER    (4) Unbound System's Energy         =  -1.97 kcal/molUSERUSERREMARK SMILES Nc1ccc2nc(-c3ccccc3)c(-c3ccc(CN4CCC(n5c(O)nc6ccccc65)CC4)cc3)nc2c1REMARK SMILES IDX 19 1 18 2 15 3 16 4 37 5 17 6 36 7 14 8 2 9 3 10 40 11 4 12REMARK SMILES IDX 39 13 5 14 38 15 6 16 7 17 1 18 8 21 9 22 13 23 10 24 12 25REMARK SMILES IDX 11 26 20 27 21 28 35 29 22 30 34 31 23 32 24 33 25 34 33 35REMARK SMILES IDX 27 36 32 37 28 38 31 39 29 40 30 41 26 42REMARK H PARENT 1 19 1 20 26 43USER                              x       y       z     vdW  Elec       q    TypeUSER                           _______ _______ _______ _____ _____    ______ ____ROOTATOM      1  C   UNL     1      34.107  42.847  17.777 -0.34 -0.04    +0.120 C  ENDROOTBRANCH   1   2ATOM      2  C   UNL     1      34.960  42.881  19.026 -0.38 +0.00    -0.034 A  ATOM      3  C   UNL     1      36.524  42.900  21.391 -0.45 +0.00    +0.002 A  ATOM      4  C   UNL     1      35.821  44.045  20.977 -0.09 +0.00    +0.011 A  ATOM      5  C   UNL     1      36.460  41.758  20.576 -0.47 -0.00    +0.011 A  ATOM      6  C   UNL     1      35.042  44.035  19.815 -0.40 -0.00    +0.006 A  ATOM      7  C   UNL     1      35.687  41.747  19.411 -0.08 -0.00    +0.006 A  BRANCH   3   8ATOM      8  C   UNL     1      37.310  42.914  22.639 -0.35 +0.01    +0.097 A  ATOM      9  C   UNL     1      37.344  41.699  27.234 -0.44 -0.01    +0.034 A  ATOM     10  C   UNL     1      38.552  42.371  27.386 -0.32 -0.00    +0.028 A  ATOM     11  C   UNL     1      36.717  41.738  25.986 -0.36 -0.01    +0.056 A  ATOM     12  C   UNL     1      39.165  42.976  26.287 -0.20 -0.00    +0.033 A  ATOM     13  C   UNL     1      37.315  42.335  24.881 -0.32 -0.00    +0.091 A  ATOM     14  C   UNL     1      38.570  42.960  25.033 -0.20 +0.00    +0.090 A  ATOM     15  N   UNL     1      36.687  42.313  23.691 -0.29 -0.02    -0.244 NA ATOM     16  N   UNL     1      39.198  43.540  23.995 -0.10 -0.01    -0.244 NA ATOM     17  C   UNL     1      38.576  43.504  22.784 -0.24 +0.01    +0.097 A  BRANCH   9  18ATOM     18  N   UNL     1      36.672  41.193  28.348 -0.02 +0.17    -0.399 N  ATOM     19  H   UNL     1      37.266  41.035  29.156 -0.46 -0.07    +0.156 HD ATOM     20  H   UNL     1      35.822  41.693  28.589 -0.44 -0.10    +0.156 HD ENDBRANCH   9  18BRANCH  17  21ATOM     21  C   UNL     1      39.364  44.100  21.687 -0.29 +0.00    +0.002 A  ATOM     22  C   UNL     1      40.737  43.824  21.563 -0.27 +0.00    +0.010 A  ATOM     23  C   UNL     1      38.776  44.941  20.725 -0.35 +0.00    +0.010 A  ATOM     24  C   UNL     1      41.499  44.392  20.538 -0.34 +0.00    +0.001 A  ATOM     25  C   UNL     1      39.537  45.513  19.700 -0.39 -0.00    +0.001 A  ATOM     26  C   UNL     1      40.899  45.241  19.611 -0.42 +0.00    +0.000 A  ENDBRANCH  17  21ENDBRANCH   3   8ENDBRANCH   1   2BRANCH   1  27ATOM     27  N   UNL     1      34.664  43.661  16.684 -0.14 +0.12    -0.299 NA ATOM     28  C   UNL     1      35.957  43.138  16.220 -0.44 -0.03    +0.087 C  ATOM     29  C   UNL     1      34.739  45.072  17.051 -0.32 -0.05    +0.087 C  ATOM     30  C   UNL     1      36.851  44.185  15.549 -0.38 -0.01    +0.041 C  ATOM     31  C   UNL     1      34.968  45.902  15.789 -0.34 -0.04    +0.041 C  ATOM     32  C   UNL     1      36.035  45.284  14.862 -0.37 -0.05    +0.095 C  BRANCH  32  33ATOM     33  N   UNL     1      36.894  46.287  14.238 -0.19 +0.14    -0.291 N  ATOM     34  C   UNL     1      36.772  46.805  12.964 -0.36 -0.13    +0.295 A  ATOM     35  C   UNL     1      37.988  46.905  14.823 -0.38 -0.03    +0.072 A  ATOM     36  N   UNL     1      37.660  47.738  12.727 -0.96 +0.03    -0.195 NA ATOM     37  C   UNL     1      38.624  46.783  16.068 -0.40 -0.01    +0.029 A  ATOM     38  C   UNL     1      38.426  47.811  13.858 -0.42 -0.03    +0.092 A  ATOM     39  C   UNL     1      39.723  47.614  16.319 -0.51 -0.00    +0.002 A  ATOM     40  C   UNL     1      39.529  48.638  14.128 -0.27 -0.01    +0.031 A  ATOM     41  C   UNL     1      40.170  48.529  15.366 -0.58 -0.00    +0.002 A  BRANCH  34  42ATOM     42  O   UNL     1      35.888  46.451  12.045 -0.32 +0.25    -0.480 OA ATOM     43  H   UNL     1      35.000  46.726  12.307 -0.02 -0.23    +0.296 HD ENDBRANCH  34  42ENDBRANCH  32  33ENDBRANCH   1  27TORSDOF 7TERENDMDL