MODEL        8USER    Run = 8USERUSER    Estimated Free Energy of Binding    =  -7.28 kcal/mol  [=(1)+(2)+(3)-(4)]USERUSER    (1) Final Intermolecular Energy     = -11.46 kcal/molUSER        vdW + Hbond + desolv Energy     = -11.27 kcal/molUSER        Electrostatic Energy            =  -0.31 kcal/molUSER        Moving Ligand-Fixed Receptor    = -11.57 kcal/molUSER        Moving Ligand-Moving Receptor   =  +0.11 kcal/molUSER    (2) Final Total Internal Energy     =  -2.06 kcal/molUSER    (3) Torsional Free Energy           =  +4.18 kcal/molUSER    (4) Unbound System's Energy         =  -2.06 kcal/molUSERUSERREMARK SMILES COc1ccc(O)c(C(=O)c2ccc(CN[C@@H]3CCCNC[C@H]3N)cc2)c1FREMARK SMILES IDX 15 1 14 2 11 3 12 4 26 5 13 6 25 7 9 8 10 9 8 10 3 11 4 12REMARK SMILES IDX 27 13 5 14 6 15 28 16 2 17 1 18 7 19 16 21 17 23 18 24 19 25REMARK SMILES IDX 23 27 22 28 21 29 20 31 24 33REMARK H PARENT 7 20 16 22 21 30 24 34 24 35REMARK Flexibility Score:   49.900USER                              x       y       z     vdW  Elec       q    TypeUSER                           _______ _______ _______ _____ _____    ______ ____ROOTATOM      1  C   UNL     1      35.862  43.618  20.206 -0.41 -0.01    +0.117 C  ENDROOTBRANCH   1   2ATOM      2  C   UNL     1      37.045  44.183  19.454 -0.35 +0.00    -0.034 A  ATOM      3  C   UNL     1      39.216  45.282  18.052 -0.40 -0.00    +0.023 A  ATOM      4  C   UNL     1      39.143  45.408  19.442 -0.39 -0.00    +0.012 A  ATOM      5  C   UNL     1      38.220  44.583  17.362 -0.29 -0.00    +0.012 A  ATOM      6  C   UNL     1      38.059  44.869  20.138 -0.29 -0.00    +0.006 A  ATOM      7  C   UNL     1      37.138  44.043  18.061 -0.27 -0.00    +0.006 A  BRANCH   3   8ATOM      8  C   UNL     1      40.396  45.845  17.354 -0.35 -0.02    +0.199 C  ATOM      9  O   UNL     1      41.497  45.319  17.524 -0.29 -0.01    -0.288 OA BRANCH   8  10ATOM     10  C   UNL     1      40.312  46.982  16.412 -0.42 -0.02    +0.104 A  ATOM     11  C   UNL     1      39.329  48.092  14.476 -0.37 -0.05    +0.155 A  ATOM     12  C   UNL     1      40.211  49.161  14.644 -0.36 -0.02    +0.053 A  ATOM     13  C   UNL     1      39.384  47.012  15.370 -0.34 -0.05    +0.179 A  ATOM     14  C   UNL     1      41.123  49.156  15.703 -0.58 -0.01    +0.051 A  ATOM     15  C   UNL     1      41.161  48.082  16.588 -0.35 -0.01    +0.130 A  ATOM     16  F   UNL     1      38.502  46.010  15.223 -0.08 +0.06    -0.202 F  BRANCH  11  17ATOM     17  O   UNL     1      38.382  47.993  13.492 -0.44 +0.12    -0.494 OA ATOM     18  C   UNL     1      37.025  48.190  13.870 -0.39 -0.16    +0.278 C  ENDBRANCH  11  17BRANCH  15  19ATOM     19  O   UNL     1      42.061  48.173  17.617 -0.41 -0.01    -0.507 OA ATOM     20  H   UNL     1      42.509  47.299  17.702 -0.32 -0.05    +0.293 HD ENDBRANCH  15  19ENDBRANCH   8  10ENDBRANCH   3   8ENDBRANCH   1   2BRANCH   1  21ATOM     21  N   UNL     1      34.568  44.069  19.685 -0.22 +0.05    -0.308 NA ATOM     22  H   UNL     1      34.499  45.073  19.853 -0.12 -0.04    +0.123 HD BRANCH  21  23ATOM     23  C   UNL     1      34.354  43.807  18.243 -0.33 -0.02    +0.072 C  BRANCH  23  24ATOM     24  C   UNL     1      33.024  44.477  17.814 -0.37 -0.01    +0.022 C  BRANCH  24  25ATOM     25  C   UNL     1      31.758  43.827  18.373 -0.32 -0.00    +0.017 CG0ATOM     26  G   UNL     1      31.288  42.575  17.628 +0.00 +0.00    +0.000 G0 ENDBRANCH  24  25ENDBRANCH  23  24BRANCH  23  27ATOM     27  C   UNL     1      34.421  42.293  17.875 -0.42 -0.02    +0.081 C  BRANCH  27  28ATOM     28  C   UNL     1      33.292  41.447  18.525 -0.35 -0.01    +0.101 C  BRANCH  28  29ATOM     29  N   UNL     1      32.076  41.354  17.714 -0.15 +0.09    -0.315 NA ATOM     30  H   UNL     1      32.313  41.021  16.784 -0.41 -0.08    +0.122 HD BRANCH  29  31ATOM     31  C   UNL     1      31.287  42.576  17.628 -0.29 -0.02    +0.081 CG0ATOM     32  G   UNL     1      31.757  43.827  18.375 +0.00 +0.00    +0.000 G0 ENDBRANCH  29  31ENDBRANCH  28  29ENDBRANCH  27  28BRANCH  27  33ATOM     33  N   UNL     1      34.459  42.107  16.404 -0.18 +0.17    -0.325 NA ATOM     34  H   UNL     1      33.540  41.837  16.066 -0.52 -0.09    +0.119 HD ATOM     35  H   UNL     1      35.090  41.335  16.188 -0.47 -0.08    +0.119 HD ENDBRANCH  27  33ENDBRANCH  23  27ENDBRANCH  21  23ENDBRANCH   1  21TORSDOF 8TERENDMDL