MODEL        8USER    Run = 8USERUSER    Estimated Free Energy of Binding    =  -8.52 kcal/mol  [=(1)+(2)+(3)-(4)]USERUSER    (1) Final Intermolecular Energy     =  -9.42 kcal/molUSER        vdW + Hbond + desolv Energy     =  -9.32 kcal/molUSER        Electrostatic Energy            =  -0.10 kcal/molUSER        Moving Ligand-Fixed Receptor    =  -9.42 kcal/molUSER        Moving Ligand-Moving Receptor   =  +0.00 kcal/molUSER    (2) Final Total Internal Energy     =  -0.79 kcal/molUSER    (3) Torsional Free Energy           =  +0.89 kcal/molUSER    (4) Unbound System's Energy         =  -0.79 kcal/molUSERUSERREMARK SMILES CO[C@H]1CC=C(F)C=C1[C@H]1c2cc(-c3n[nH]c4ccccc34)[nH]c21REMARK SMILES IDX 3 1 4 2 5 3 6 4 7 5 8 6 9 7 2 8 1 9 10 10 11 11 24 12 12 13REMARK SMILES IDX 23 14 13 15 14 17 15 18 22 19 16 20 21 21 17 22 20 23 18 24REMARK SMILES IDX 19 25REMARK H PARENT 23 16 16 26USER                              x       y       z     vdW  Elec       q    TypeUSER                           _______ _______ _______ _____ _____    ______ ____ROOTATOM      1  C   UNL     1      37.469  47.392  13.789 -0.48 -0.06    +0.149 C  ATOM      2  C   UNL     1      36.879  47.571  12.364 -0.63 -0.02    +0.067 C  ATOM      3  C   UNL     1      36.723  46.291  11.593 -0.69 -0.01    +0.015 C  ATOM      4  C   UNL     1      36.718  45.107  12.214 -0.51 -0.04    +0.119 C  ATOM      5  F   UNL     1      36.538  43.976  11.505 -0.17 +0.06    -0.207 F  ATOM      6  C   UNL     1      36.813  44.997  13.643 -0.47 -0.02    +0.042 C  ATOM      7  C   UNL     1      37.171  46.036  14.427 -0.46 +0.01    -0.025 C  ENDROOTBRANCH   1   8ATOM      8  O   UNL     1      38.898  47.528  13.723 -0.27 +0.08    -0.377 OA ATOM      9  C   UNL     1      39.379  48.658  14.434 -0.31 -0.08    +0.195 C  ENDBRANCH   1   8BRANCH   7  10ATOM     10  C   UNL     1      37.219  45.986  15.900 -0.36 -0.05    +0.097 C  ATOM     11  C   UNL     1      38.392  45.467  16.569 -0.35 +0.00    -0.012 A  ATOM     12  C   UNL     1      38.120  46.890  16.598 -0.36 -0.01    +0.031 A  ATOM     13  C   UNL     1      39.559  45.290  17.285 -0.17 -0.00    +0.035 A  ATOM     14  N   UNL     1      39.135  47.406  17.312 -0.13 +0.12    -0.356 N  ATOM     15  C   UNL     1      40.020  46.482  17.751 -0.43 -0.01    +0.067 A  ATOM     16  H   UNL     1      39.255  48.390  17.509 +0.16 -0.08    +0.166 HD BRANCH  15  17ATOM     17  C   UNL     1      41.267  46.838  18.599 -0.42 -0.00    +0.116 A  ATOM     18  N   UNL     1      42.065  47.835  18.187 -0.49 +0.00    -0.173 NA ATOM     19  C   UNL     1      41.725  46.246  19.809 -0.41 +0.00    +0.029 A  ATOM     20  N   UNL     1      43.026  47.876  19.122 -0.33 -0.01    -0.277 N  ATOM     21  C   UNL     1      41.320  45.212  20.676 -0.34 +0.00    +0.013 A  ATOM     22  C   UNL     1      42.882  46.955  20.123 -0.40 +0.02    +0.066 A  ATOM     23  C   UNL     1      42.085  44.933  21.815 -0.27 +0.00    +0.001 A  ATOM     24  C   UNL     1      43.662  46.693  21.255 -0.31 +0.01    +0.028 A  ATOM     25  C   UNL     1      43.238  45.664  22.098 -0.24 +0.00    +0.002 A  ATOM     26  H   UNL     1      43.763  48.564  19.022 -0.49 -0.03    +0.190 HD ENDBRANCH  15  17ENDBRANCH   7  10TORSDOF 3TERENDMDL