MODEL        4USER    Run = 4USERUSER    Estimated Free Energy of Binding    =  -8.71 kcal/mol  [=(1)+(2)+(3)-(4)]USERUSER    (1) Final Intermolecular Energy     = -10.50 kcal/molUSER        vdW + Hbond + desolv Energy     =  -9.83 kcal/molUSER        Electrostatic Energy            =  -0.67 kcal/molUSER        Moving Ligand-Fixed Receptor    = -10.50 kcal/molUSER        Moving Ligand-Moving Receptor   =  +0.00 kcal/molUSER    (2) Final Total Internal Energy     =  -1.35 kcal/molUSER    (3) Torsional Free Energy           =  +1.79 kcal/molUSER    (4) Unbound System's Energy         =  -1.35 kcal/molUSERUSERREMARK SMILES O=C(N[C@@H]1CCCNC1)c1ccc(C(=O)c2c(O)ccc(O)c2F)cc1REMARK SMILES IDX 10 1 11 2 12 3 13 4 25 5 26 6 2 7 3 8 1 9 4 11 5 12 9 13REMARK SMILES IDX 6 14 8 15 7 16 14 18 15 19 16 20 17 21 23 22 19 23 21 24REMARK SMILES IDX 20 25 24 26 18 27 22 29REMARK H PARENT 3 10 8 17 18 28 22 30USER                              x       y       z     vdW  Elec       q    TypeUSER                           _______ _______ _______ _____ _____    ______ ____ROOTATOM      1  C   UNL     1      28.200  34.343  22.420 -0.39 -0.00    +0.039 A  ATOM      2  C   UNL     1      27.319  34.297  21.332 -0.33 -0.01    +0.014 A  ATOM      3  C   UNL     1      27.164  35.411  20.504 -0.31 -0.01    +0.013 A  ATOM      4  C   UNL     1      27.913  36.569  20.744 -0.32 -0.01    +0.023 A  ATOM      5  C   UNL     1      28.791  36.623  21.833 -0.34 -0.00    +0.013 A  ATOM      6  C   UNL     1      28.941  35.507  22.664 -0.37 +0.00    +0.014 A  ENDROOTBRANCH   1   7ATOM      7  C   UNL     1      28.336  33.130  23.274 -0.30 +0.11    +0.251 C  ATOM      8  N   UNL     1      29.417  32.315  23.004 -0.18 -0.08    -0.348 N  ATOM      9  O   UNL     1      27.527  32.919  24.169 -0.71 -0.29    -0.269 OA ATOM     10  H   UNL     1      30.171  32.714  22.463 +0.15 +0.02    +0.164 HD BRANCH   8  11ATOM     11  C   UNL     1      29.742  31.175  23.867 -0.51 +0.04    +0.096 C  ATOM     12  C   UNL     1      31.205  31.270  24.344 -0.55 +0.01    +0.027 C  ATOM     13  C   UNL     1      29.472  29.824  23.151 -0.53 -0.01    +0.105 C  ATOM     14  C   UNL     1      32.127  30.481  23.418 -0.66 +0.00    +0.017 C  ATOM     15  N   UNL     1      30.326  28.745  23.652 -0.59 +0.01    -0.315 NA ATOM     16  C   UNL     1      31.741  28.998  23.380 -0.38 +0.01    +0.081 C  ATOM     17  H   UNL     1      30.047  27.858  23.233 -0.41 -0.07    +0.122 HD ENDBRANCH   8  11ENDBRANCH   1   7BRANCH   4  18ATOM     18  C   UNL     1      27.707  37.737  19.860 -0.23 -0.01    +0.199 C  ATOM     19  O   UNL     1      28.482  37.915  18.919 -0.17 -0.10    -0.288 OA BRANCH  18  20ATOM     20  C   UNL     1      26.579  38.680  20.022 -0.22 -0.03    +0.104 A  ATOM     21  C   UNL     1      25.991  39.257  18.886 -0.21 -0.02    +0.130 A  ATOM     22  C   UNL     1      26.096  39.044  21.277 -0.24 -0.07    +0.179 A  ATOM     23  C   UNL     1      24.910  40.132  19.004 -0.25 -0.01    +0.051 A  ATOM     24  C   UNL     1      25.021  39.925  21.395 -0.30 -0.05    +0.152 A  ATOM     25  C   UNL     1      24.418  40.464  20.266 -0.34 -0.01    +0.053 A  ATOM     26  F   UNL     1      26.655  38.579  22.406 -0.09 +0.07    -0.202 F  BRANCH  21  27ATOM     27  O   UNL     1      26.433  39.007  17.613 -0.19 -0.21    -0.507 OA ATOM     28  H   UNL     1      27.398  39.202  17.582 +0.15 +0.13    +0.293 HD ENDBRANCH  21  27BRANCH  24  29ATOM     29  O   UNL     1      24.538  40.283  22.622 -0.61 +0.11    -0.505 OA ATOM     30  H   UNL     1      24.643  39.516  23.217 -0.40 -0.18    +0.293 HD ENDBRANCH  24  29ENDBRANCH  18  20ENDBRANCH   4  18TORSDOF 6TERENDMDL