MODEL        10USER    Run = 10USERUSER    Estimated Free Energy of Binding    =  -8.50 kcal/mol  [=(1)+(2)+(3)-(4)]USERUSER    (1) Final Intermolecular Energy     = -10.29 kcal/molUSER        vdW + Hbond + desolv Energy     = -10.07 kcal/molUSER        Electrostatic Energy            =  -0.23 kcal/molUSER        Moving Ligand-Fixed Receptor    = -10.29 kcal/molUSER        Moving Ligand-Moving Receptor   =  +0.00 kcal/molUSER    (2) Final Total Internal Energy     =  -1.43 kcal/molUSER    (3) Torsional Free Energy           =  +1.79 kcal/molUSER    (4) Unbound System's Energy         =  -1.43 kcal/molUSERUSERREMARK SMILES COc1ccc(O)c(C(=O)c2ccc(C(=O)N[C@@H]3CCCN(C)C3)cc2)c1FREMARK SMILES IDX 11 1 12 2 13 3 14 4 25 5 26 6 9 7 10 8 8 9 3 10 4 11 27 12REMARK SMILES IDX 5 13 6 14 28 15 2 16 1 17 7 18 15 20 17 21 16 22 18 24 19 25REMARK SMILES IDX 24 26 20 27 22 28 21 29 23 30REMARK H PARENT 7 19 17 23USER                              x       y       z     vdW  Elec       q    TypeUSER                           _______ _______ _______ _____ _____    ______ ____ROOTATOM      1  C   UNL     1      35.915  44.649  15.556 -0.34 -0.01    +0.023 A  ATOM      2  C   UNL     1      36.167  43.278  15.673 -0.44 -0.00    +0.013 A  ATOM      3  C   UNL     1      35.390  42.501  16.537 -0.45 -0.01    +0.014 A  ATOM      4  C   UNL     1      34.344  43.082  17.269 -0.34 -0.01    +0.039 A  ATOM      5  C   UNL     1      34.092  44.454  17.145 -0.30 -0.01    +0.014 A  ATOM      6  C   UNL     1      34.870  45.231  16.281 -0.31 -0.01    +0.013 A  ENDROOTBRANCH   1   7ATOM      7  C   UNL     1      36.688  45.507  14.627 -0.31 -0.09    +0.199 C  ATOM      8  O   UNL     1      36.477  45.411  13.416 -0.30 +0.12    -0.288 OA BRANCH   7   9ATOM      9  C   UNL     1      37.749  46.437  15.073 -0.33 -0.04    +0.104 A  ATOM     10  C   UNL     1      39.381  47.188  16.722 -0.35 -0.05    +0.155 A  ATOM     11  C   UNL     1      39.768  48.220  15.865 -0.50 -0.02    +0.053 A  ATOM     12  C   UNL     1      38.366  46.308  16.318 -0.27 -0.06    +0.179 A  ATOM     13  C   UNL     1      39.134  48.379  14.630 -0.49 -0.02    +0.051 A  ATOM     14  C   UNL     1      38.122  47.503  14.245 -0.40 -0.05    +0.130 A  ATOM     15  F   UNL     1      37.975  45.343  17.167 -0.08 +0.05    -0.202 F  BRANCH  10  16ATOM     16  O   UNL     1      39.914  46.944  17.960 -0.19 +0.08    -0.494 OA ATOM     17  C   UNL     1      40.888  45.912  18.059 -0.34 -0.01    +0.278 C  ENDBRANCH  10  16BRANCH  14  18ATOM     18  O   UNL     1      37.531  47.749  13.036 -0.72 +0.13    -0.507 OA ATOM     19  H   UNL     1      37.071  46.925  12.752 +0.24 -0.10    +0.293 HD ENDBRANCH  14  18ENDBRANCH   7   9ENDBRANCH   1   7BRANCH   4  20ATOM     20  C   UNL     1      33.550  42.204  18.174 -0.28 -0.06    +0.251 C  ATOM     21  N   UNL     1      32.868  41.162  17.584 -0.18 +0.13    -0.348 N  ATOM     22  O   UNL     1      33.544  42.413  19.382 -0.50 -0.00    -0.269 OA ATOM     23  H   UNL     1      32.938  41.000  16.589 -0.38 -0.15    +0.164 HD BRANCH  21  24ATOM     24  C   UNL     1      32.018  40.271  18.367 -0.43 -0.01    +0.096 C  ATOM     25  C   UNL     1      32.429  38.813  18.163 -0.44 -0.00    +0.027 C  ATOM     26  C   UNL     1      30.514  40.465  18.031 -0.30 -0.01    +0.109 C  ATOM     27  C   UNL     1      31.558  37.869  18.998 -0.57 +0.00    +0.018 C  ATOM     28  N   UNL     1      29.684  39.259  18.237 -0.16 -0.06    -0.304 NA ATOM     29  C   UNL     1      30.183  38.454  19.349 -0.40 +0.02    +0.084 C  ATOM     30  C   UNL     1      28.282  39.625  18.423 -0.24 +0.02    +0.105 C  ENDBRANCH  21  24ENDBRANCH   4  20TORSDOF 6TERENDMDL