MODEL        6USER    Run = 6USERUSER    Estimated Free Energy of Binding    =  -6.55 kcal/mol  [=(1)+(2)+(3)-(4)]USERUSER    (1) Final Intermolecular Energy     = -10.72 kcal/molUSER        vdW + Hbond + desolv Energy     = -10.72 kcal/molUSER        Electrostatic Energy            =  -0.43 kcal/molUSER        Moving Ligand-Fixed Receptor    = -11.15 kcal/molUSER        Moving Ligand-Moving Receptor   =  +0.42 kcal/molUSER    (2) Final Total Internal Energy     =  -1.85 kcal/molUSER    (3) Torsional Free Energy           =  +4.18 kcal/molUSER    (4) Unbound System's Energy         =  -1.85 kcal/molUSERUSERREMARK SMILES COc1ccc(O)c(C(=O)c2ccc(C(=O)N[C@@H]3CC[C@@H](O)NC[C@H]3N)cc2)c1FREMARK SMILES IDX 15 1 16 2 17 3 14 5 11 6 12 7 28 8 13 9 27 10 9 11 10 12REMARK SMILES IDX 8 13 3 14 4 15 29 16 5 17 6 18 30 19 2 20 1 21 7 22 18 24REMARK SMILES IDX 19 25 20 26 21 27 22 28 23 30 24 32 25 34 26 36REMARK H PARENT 17 4 7 23 22 29 23 31 26 37 26 38REMARK Flexibility Score:   49.900USER                              x       y       z     vdW  Elec       q    TypeUSER                           _______ _______ _______ _____ _____    ______ ____ROOTATOM      1  C   UNL     1      38.117  45.968  17.675 -0.25 -0.07    +0.251 C  ATOM      2  O   UNL     1      37.056  45.371  17.819 -0.23 +0.08    -0.269 OA ATOM      3  N   UNL     1      38.371  46.838  16.635 -0.17 +0.14    -0.348 N  ATOM      4  H   UNL     1      39.266  47.301  16.573 +0.11 -0.05    +0.164 HD ENDROOTBRANCH   1   5ATOM      5  C   UNL     1      39.204  45.795  18.676 -0.39 -0.00    +0.039 A  ATOM      6  C   UNL     1      41.320  45.530  20.497 -0.35 +0.00    +0.023 A  ATOM      7  C   UNL     1      40.055  45.016  20.808 -0.34 +0.00    +0.013 A  ATOM      8  C   UNL     1      41.532  46.166  19.269 -0.46 +0.00    +0.013 A  ATOM      9  C   UNL     1      38.995  45.157  19.905 -0.37 -0.00    +0.014 A  ATOM     10  C   UNL     1      40.473  46.308  18.368 -0.47 -0.00    +0.014 A  BRANCH   6  11ATOM     11  C   UNL     1      42.421  45.319  21.466 -0.21 +0.05    +0.199 C  ATOM     12  O   UNL     1      42.825  44.172  21.662 -0.20 -0.07    -0.288 OA BRANCH  11  13ATOM     13  C   UNL     1      43.103  46.426  22.170 -0.23 +0.03    +0.104 A  ATOM     14  C   UNL     1      43.055  48.527  23.407 -0.27 +0.04    +0.155 A  ATOM     15  C   UNL     1      44.450  48.511  23.481 -0.22 +0.01    +0.053 A  ATOM     16  C   UNL     1      42.394  47.476  22.755 -0.20 +0.03    +0.179 A  ATOM     17  C   UNL     1      45.169  47.448  22.927 -0.23 +0.02    +0.051 A  ATOM     18  C   UNL     1      44.498  46.408  22.291 -0.18 +0.08    +0.130 A  ATOM     19  F   UNL     1      41.051  47.481  22.722 -0.00 -0.02    -0.202 F  BRANCH  14  20ATOM     20  O   UNL     1      42.245  49.500  23.927 -0.70 -0.19    -0.494 OA ATOM     21  C   UNL     1      41.685  49.265  25.213 -0.23 +0.05    +0.278 C  ENDBRANCH  14  20BRANCH  18  22ATOM     22  O   UNL     1      45.274  45.390  21.803 -0.14 -0.69    -0.507 OA ATOM     23  H   UNL     1      44.881  44.540  22.108 +0.10 +0.20    +0.293 HD ENDBRANCH  18  22ENDBRANCH  11  13ENDBRANCH   6  11ENDBRANCH   1   5BRANCH   3  24ATOM     24  C   UNL     1      37.409  47.040  15.535 -0.41 -0.06    +0.100 C  BRANCH  24  25ATOM     25  C   UNL     1      37.074  45.684  14.887 -0.42 -0.01    +0.030 C  BRANCH  25  26ATOM     26  C   UNL     1      37.527  45.529  13.429 -0.46 -0.02    +0.050 C  BRANCH  26  27ATOM     27  C   UNL     1      36.677  46.284  12.386 -0.55 -0.07    +0.182 C  BRANCH  27  28ATOM     28  O   UNL     1      35.342  46.317  12.847 -0.32 +0.24    -0.379 OA ATOM     29  H   UNL     1      34.812  46.407  12.035 -0.16 -0.17    +0.212 HD ENDBRANCH  27  28BRANCH  27  30ATOM     30  N   UNL     1      37.060  47.659  12.190 -0.97 +0.07    -0.291 NA ATOM     31  H   UNL     1      38.023  47.670  11.852 +0.06 +0.02    +0.125 HD BRANCH  30  32ATOM     32  C   UNL     1      36.997  48.474  13.410 -0.50 -0.05    +0.104 CG0ATOM     33  G   UNL     1      37.962  48.114  14.564 +0.00 +0.00    +0.000 G0 ENDBRANCH  30  32ENDBRANCH  27  30ENDBRANCH  26  27ENDBRANCH  25  26ENDBRANCH  24  25BRANCH  24  34ATOM     34  C   UNL     1      37.966  48.113  14.560 -0.54 -0.05    +0.087 CG0ATOM     35  G   UNL     1      36.999  48.474  13.409 +0.00 +0.00    +0.000 G0 BRANCH  34  36ATOM     36  N   UNL     1      38.346  49.332  15.300 -0.06 +0.26    -0.325 NA ATOM     37  H   UNL     1      39.144  49.770  14.840 -0.35 -0.11    +0.119 HD ATOM     38  H   UNL     1      37.581  50.003  15.293 -0.40 -0.12    +0.119 HD ENDBRANCH  34  36ENDBRANCH  24  34ENDBRANCH   3  24TORSDOF 8TERENDMDL