MODEL        3USER    Run = 3USERUSER    Estimated Free Energy of Binding    =  -9.17 kcal/mol  [=(1)+(2)+(3)-(4)]USERUSER    (1) Final Intermolecular Energy     = -10.96 kcal/molUSER        vdW + Hbond + desolv Energy     = -10.05 kcal/molUSER        Electrostatic Energy            =  -0.91 kcal/molUSER        Moving Ligand-Fixed Receptor    = -10.96 kcal/molUSER        Moving Ligand-Moving Receptor   =  +0.00 kcal/molUSER    (2) Final Total Internal Energy     =  -1.04 kcal/molUSER    (3) Torsional Free Energy           =  +1.79 kcal/molUSER    (4) Unbound System's Energy         =  -1.04 kcal/molUSERUSERREMARK SMILES COc1ccc(O)c(C(=O)c2ccc(C(=O)N[C@@H]3CCCNC3)cn2)c1FREMARK SMILES IDX 11 1 12 2 13 3 14 4 24 5 25 6 9 7 10 8 8 9 3 10 4 11 26 12REMARK SMILES IDX 5 13 6 14 27 15 2 16 1 17 7 18 15 20 17 21 16 22 18 24 19 25REMARK SMILES IDX 23 26 20 27 22 28 21 29REMARK H PARENT 7 19 17 23 22 30USER                              x       y       z     vdW  Elec       q    TypeUSER                           _______ _______ _______ _____ _____    ______ ____ROOTATOM      1  C   UNL     1      27.436  36.603  20.728 -0.25 -0.05    +0.111 A  ATOM      2  C   UNL     1      27.181  35.338  20.209 -0.30 -0.02    +0.033 A  ATOM      3  C   UNL     1      27.438  34.224  21.010 -0.35 -0.01    +0.018 A  ATOM      4  C   UNL     1      27.923  34.411  22.307 -0.37 -0.01    +0.058 A  ATOM      5  C   UNL     1      28.145  35.715  22.737 -0.25 -0.00    +0.125 A  ATOM      6  N   UNL     1      27.897  36.817  21.985 -0.17 +0.06    -0.252 NA ENDROOTBRANCH   1   7ATOM      7  C   UNL     1      27.130  37.803  19.908 -0.22 -0.05    +0.218 C  ATOM      8  O   UNL     1      27.888  38.145  18.998 -0.13 -0.07    -0.287 OA BRANCH   7   9ATOM      9  C   UNL     1      25.888  38.574  20.104 -0.22 -0.05    +0.105 A  ATOM     10  C   UNL     1      24.537  40.146  21.384 -0.32 -0.05    +0.155 A  ATOM     11  C   UNL     1      23.501  40.000  20.458 -0.27 -0.02    +0.053 A  ATOM     12  C   UNL     1      25.729  39.434  21.192 -0.25 -0.06    +0.180 A  ATOM     13  C   UNL     1      23.667  39.172  19.343 -0.33 -0.03    +0.051 A  ATOM     14  C   UNL     1      24.861  38.479  19.160 -0.21 -0.09    +0.130 A  ATOM     15  F   UNL     1      26.748  39.632  22.046 +0.12 +0.02    -0.202 F  BRANCH  10  16ATOM     16  O   UNL     1      24.504  40.955  22.488 -0.65 +0.06    -0.494 OA ATOM     17  C   UNL     1      24.191  42.327  22.283 -0.51 -0.07    +0.278 C  ENDBRANCH  10  16BRANCH  14  18ATOM     18  O   UNL     1      24.965  37.726  18.020 -0.45 +0.16    -0.507 OA ATOM     19  H   UNL     1      24.506  36.872  18.181 -0.34 -0.39    +0.293 HD ENDBRANCH  14  18ENDBRANCH   7   9ENDBRANCH   1   7BRANCH   4  20ATOM     20  C   UNL     1      28.230  33.294  23.235 -0.30 +0.10    +0.253 C  ATOM     21  N   UNL     1      29.361  32.554  22.957 -0.17 -0.08    -0.348 N  ATOM     22  O   UNL     1      27.478  33.055  24.172 -0.71 -0.30    -0.269 OA ATOM     23  H   UNL     1      29.677  32.553  21.995 +0.11 -0.01    +0.164 HD BRANCH  21  24ATOM     24  C   UNL     1      29.616  31.295  23.663 -0.50 +0.03    +0.096 C  ATOM     25  C   UNL     1      30.999  31.334  24.333 -0.49 +0.01    +0.027 C  ATOM     26  C   UNL     1      29.522  30.118  22.669 -0.48 -0.02    +0.105 C  ATOM     27  C   UNL     1      32.032  30.461  23.618 -0.67 +0.00    +0.017 C  ATOM     28  N   UNL     1      30.536  30.223  21.606 -0.35 +0.08    -0.315 NA ATOM     29  C   UNL     1      31.883  30.520  22.100 -0.57 -0.00    +0.081 C  ATOM     30  H   UNL     1      30.543  29.355  21.068 -0.46 -0.05    +0.122 HD ENDBRANCH  21  24ENDBRANCH   4  20TORSDOF 6TERENDMDL