REMARK SMILES O=C(N[C@@H]1CCCNC1)c1ccc(C(=O)c2c(O)ccc(O)c2F)cc1
REMARK SMILES IDX 10 1 11 2 12 3 13 4 25 5 26 6 2 7 3 8 1 9 4 11 5 12 9 13
REMARK SMILES IDX 6 14 8 15 7 16 14 18 15 19 16 20 17 21 23 22 19 23 21 24
REMARK SMILES IDX 20 25 24 26 18 27 22 29
REMARK H PARENT 3 10 8 17 18 28 22 30
ROOT
ATOM      1  C   UNL     1       0.265   0.345  -1.308  1.00  0.00     0.039 A 
ATOM      2  C   UNL     1      -0.613   0.631  -2.361  1.00  0.00     0.014 A 
ATOM      3  C   UNL     1      -1.956   0.255  -2.280  1.00  0.00     0.013 A 
ATOM      4  C   UNL     1      -2.433  -0.386  -1.131  1.00  0.00     0.023 A 
ATOM      5  C   UNL     1      -1.559  -0.679  -0.077  1.00  0.00     0.013 A 
ATOM      6  C   UNL     1      -0.213  -0.305  -0.162  1.00  0.00     0.014 A 
ENDROOT
BRANCH   1   7
ATOM      7  C   UNL     1       1.687   0.769  -1.436  1.00  0.00     0.251 C 
ATOM      8  N   UNL     1       2.615  -0.004  -0.766  1.00  0.00    -0.348 N 
ATOM      9  O   UNL     1       1.976   1.738  -2.127  1.00  0.00    -0.269 OA
ATOM     10  H   UNL     1       2.323  -0.927  -0.477  1.00  0.00     0.164 HD
BRANCH   8  11
ATOM     11  C   UNL     1       4.054   0.222  -0.934  1.00  0.00     0.096 C 
ATOM     12  C   UNL     1       4.852  -0.895  -0.233  1.00  0.00     0.027 C 
ATOM     13  C   UNL     1       4.474   1.624  -0.413  1.00  0.00     0.105 C 
ATOM     14  C   UNL     1       5.230  -0.480   1.186  1.00  0.00     0.017 C 
ATOM     15  N   UNL     1       5.869   1.659   0.033  1.00  0.00    -0.315 NA
ATOM     16  C   UNL     1       6.096   0.785   1.184  1.00  0.00     0.081 C 
ATOM     17  H   UNL     1       6.134   2.615   0.267  1.00  0.00     0.122 HD
ENDBRANCH   8  11
ENDBRANCH   1   7
BRANCH   4  18
ATOM     18  C   UNL     1      -3.856  -0.790  -1.089  1.00  0.00     0.199 C 
ATOM     19  O   UNL     1      -4.364  -1.283  -2.097  1.00  0.00    -0.288 OA
BRANCH  18  20
ATOM     20  C   UNL     1      -4.689  -0.676   0.128  1.00  0.00     0.104 A 
ATOM     21  C   UNL     1      -5.737  -1.585   0.336  1.00  0.00     0.130 A 
ATOM     22  C   UNL     1      -4.487   0.333   1.068  1.00  0.00     0.179 A 
ATOM     23  C   UNL     1      -6.526  -1.518   1.486  1.00  0.00     0.051 A 
ATOM     24  C   UNL     1      -5.282   0.404   2.212  1.00  0.00     0.152 A 
ATOM     25  C   UNL     1      -6.294  -0.521   2.433  1.00  0.00     0.053 A 
ATOM     26  F   UNL     1      -3.544   1.273   0.897  1.00  0.00    -0.202 F 
BRANCH  21  27
ATOM     27  O   UNL     1      -6.050  -2.575  -0.558  1.00  0.00    -0.507 OA
ATOM     28  H   UNL     1      -5.580  -2.382  -1.402  1.00  0.00     0.293 HD
ENDBRANCH  21  27
BRANCH  24  29
ATOM     29  O   UNL     1      -5.088   1.387   3.141  1.00  0.00    -0.505 OA
ATOM     30  H   UNL     1      -4.380   1.972   2.810  1.00  0.00     0.293 HD
ENDBRANCH  24  29
ENDBRANCH  18  20
ENDBRANCH   4  18
TORSDOF 6
