MODEL        8USER    Run = 8USERUSER    Estimated Free Energy of Binding    =  -9.92 kcal/mol  [=(1)+(2)+(3)-(4)]USERUSER    (1) Final Intermolecular Energy     = -11.41 kcal/molUSER        vdW + Hbond + desolv Energy     = -11.31 kcal/molUSER        Electrostatic Energy            =  -0.11 kcal/molUSER        Moving Ligand-Fixed Receptor    = -11.41 kcal/molUSER        Moving Ligand-Moving Receptor   =  +0.00 kcal/molUSER    (2) Final Total Internal Energy     =  -0.59 kcal/molUSER    (3) Torsional Free Energy           =  +1.49 kcal/molUSER    (4) Unbound System's Energy         =  -0.59 kcal/molUSERUSERREMARK SMILES Oc1nc2ccccc2n1C1CCN(Cc2ccc(-c3ncccn3)cc2)CC1REMARK SMILES IDX 11 1 12 2 13 3 14 4 28 5 29 6 10 7 2 8 3 9 4 10 9 11 5 12REMARK SMILES IDX 8 13 6 14 7 15 1 16 15 18 16 19 17 20 27 21 18 22 26 23REMARK SMILES IDX 19 24 20 25 21 26 25 27 22 28 24 29 23 30REMARK H PARENT 1 17USER                              x       y       z     vdW  Elec       q    TypeUSER                           _______ _______ _______ _____ _____    ______ ____ROOTATOM      1  C   UNL     1      40.577  46.248  17.547 -0.48 -0.01    +0.095 C  ATOM      2  C   UNL     1      41.311  46.926  18.712 -0.53 -0.00    +0.041 C  ATOM      3  C   UNL     1      41.553  45.906  19.819 -0.41 +0.01    +0.087 C  ATOM      4  N   UNL     1      40.307  45.399  20.402 -0.19 -0.01    -0.299 NA ATOM      5  C   UNL     1      39.150  45.444  19.497 -0.40 -0.00    +0.087 C  ATOM      6  C   UNL     1      39.505  45.251  18.024 -0.44 -0.00    +0.041 C  ENDROOTBRANCH   1   7ATOM      7  N   UNL     1      40.097  47.214  16.569 -0.28 +0.06    -0.291 N  ATOM      8  C   UNL     1      40.683  48.403  16.235 -0.32 -0.05    +0.295 A  ATOM      9  N   UNL     1      40.033  49.063  15.317 -0.41 +0.08    -0.195 NA ATOM     10  C   UNL     1      38.958  48.263  15.020 -0.46 -0.04    +0.092 A  ATOM     11  C   UNL     1      38.967  47.094  15.784 -0.40 -0.02    +0.072 A  ATOM     12  C   UNL     1      37.924  48.476  14.096 -0.50 -0.02    +0.031 A  ATOM     13  C   UNL     1      37.976  46.110  15.660 -0.36 -0.01    +0.029 A  ATOM     14  C   UNL     1      36.925  47.505  13.962 -0.53 -0.00    +0.002 A  ATOM     15  C   UNL     1      36.954  46.343  14.732 -0.40 -0.00    +0.002 A  BRANCH   8  16ATOM     16  O   UNL     1      41.793  48.870  16.766 -0.74 -0.08    -0.480 OA ATOM     17  H   UNL     1      42.352  48.072  16.775 -0.29 +0.00    +0.296 HD ENDBRANCH   8  16ENDBRANCH   1   7BRANCH   4  18ATOM     18  C   UNL     1      40.513  44.085  21.031 -0.26 +0.01    +0.120 C  BRANCH  18  19ATOM     19  C   UNL     1      39.542  43.787  22.154 -0.25 -0.00    -0.034 A  ATOM     20  C   UNL     1      39.968  43.796  23.486 -0.21 +0.00    +0.006 A  ATOM     21  C   UNL     1      38.191  43.534  21.886 -0.33 +0.00    +0.006 A  ATOM     22  C   UNL     1      39.064  43.542  24.524 -0.20 +0.00    +0.012 A  ATOM     23  C   UNL     1      37.292  43.282  22.929 -0.38 +0.00    +0.012 A  ATOM     24  C   UNL     1      37.705  43.278  24.274 -0.31 +0.00    +0.019 A  BRANCH  24  25ATOM     25  C   UNL     1      36.753  43.011  25.374 -0.27 -0.00    +0.159 A  ATOM     26  N   UNL     1      36.409  44.040  26.177 -0.23 +0.02    -0.237 NA ATOM     27  N   UNL     1      36.283  41.753  25.514 -0.29 +0.04    -0.237 NA ATOM     28  C   UNL     1      35.543  43.767  27.170 -0.40 -0.02    +0.115 A  ATOM     29  C   UNL     1      35.420  41.540  26.525 -0.46 -0.03    +0.115 A  ATOM     30  C   UNL     1      35.010  42.521  27.393 -0.56 -0.01    +0.040 A  ENDBRANCH  24  25ENDBRANCH  18  19ENDBRANCH   4  18TORSDOF 5TERENDMDL