MODEL        7USER    Run = 7USERUSER    Estimated Free Energy of Binding    =  -8.73 kcal/mol  [=(1)+(2)+(3)-(4)]USERUSER    (1) Final Intermolecular Energy     =  -9.63 kcal/molUSER        vdW + Hbond + desolv Energy     =  -9.50 kcal/molUSER        Electrostatic Energy            =  -0.12 kcal/molUSER        Moving Ligand-Fixed Receptor    =  -9.63 kcal/molUSER        Moving Ligand-Moving Receptor   =  +0.00 kcal/molUSER    (2) Final Total Internal Energy     =  -0.96 kcal/molUSER    (3) Torsional Free Energy           =  +0.89 kcal/molUSER    (4) Unbound System's Energy         =  -0.96 kcal/molUSERUSERREMARK SMILES CO[C@H]1CC=C(Cl)C=C1[C@@H]1c2cc(-c3n[nH]c4cc(F)ccc34)[nH]c21REMARK SMILES IDX 3 1 4 2 5 3 6 4 7 5 8 6 9 7 2 8 1 9 10 10 11 11 25 12 12 13REMARK SMILES IDX 24 14 13 15 14 17 15 18 23 19 16 20 22 21 17 22 21 23 18 24REMARK SMILES IDX 19 25 20 27REMARK H PARENT 24 16 16 26USER                              x       y       z     vdW  Elec       q    TypeUSER                           _______ _______ _______ _____ _____    ______ ____ROOTATOM      1  C   UNL     1      38.643  48.090  15.669 -0.44 -0.08    +0.148 C  ATOM      2  C   UNL     1      37.669  49.129  15.058 -0.40 -0.06    +0.065 C  ATOM      3  C   UNL     1      36.992  48.692  13.788 -0.59 +0.00    -0.004 C  ATOM      4  C   UNL     1      36.975  47.410  13.404 -0.62 -0.02    +0.037 C  ATOM      5  Cl  UNL     1      36.167  46.942  11.955 -0.92 +0.04    -0.085 Cl ATOM      6  C   UNL     1      37.585  46.377  14.204 -0.48 -0.01    +0.023 C  ATOM      7  C   UNL     1      38.364  46.646  15.274 -0.46 +0.01    -0.026 C  ENDROOTBRANCH   1   8ATOM      8  O   UNL     1      39.986  48.374  15.240 -0.28 +0.11    -0.377 OA ATOM      9  C   UNL     1      40.460  49.628  15.710 -0.51 -0.07    +0.195 C  ENDBRANCH   1   8BRANCH   7  10ATOM     10  C   UNL     1      39.039  45.616  16.083 -0.19 -0.02    +0.097 C  ATOM     11  C   UNL     1      39.149  45.791  17.515 -0.41 +0.00    -0.012 A  ATOM     12  C   UNL     1      40.327  45.937  16.684 -0.34 -0.00    +0.031 A  ATOM     13  C   UNL     1      39.567  46.014  18.810 -0.38 -0.00    +0.035 A  ATOM     14  N   UNL     1      41.309  46.227  17.554 -0.18 +0.02    -0.356 N  ATOM     15  C   UNL     1      40.900  46.287  18.841 -0.43 -0.00    +0.067 A  ATOM     16  H   UNL     1      42.273  46.390  17.298 -0.33 -0.05    +0.166 HD BRANCH  15  17ATOM     17  C   UNL     1      41.854  46.608  20.020 -0.32 +0.01    +0.116 A  ATOM     18  N   UNL     1      42.983  47.285  19.770 -0.41 -0.04    -0.173 NA ATOM     19  C   UNL     1      41.715  46.283  21.397 -0.29 +0.00    +0.029 A  ATOM     20  N   UNL     1      43.563  47.393  20.974 -0.20 -0.08    -0.277 N  ATOM     21  C   UNL     1      40.782  45.613  22.216 -0.24 +0.00    +0.016 A  ATOM     22  C   UNL     1      42.858  46.815  21.993 -0.28 +0.02    +0.069 A  ATOM     23  C   UNL     1      41.030  45.505  23.592 -0.14 +0.00    +0.040 A  ATOM     24  C   UNL     1      43.127  46.718  23.363 -0.16 +0.01    +0.067 A  ATOM     25  C   UNL     1      42.184  46.050  24.141 -0.07 +0.01    +0.125 A  ATOM     26  H   UNL     1      44.451  47.877  21.037 -0.44 +0.06    +0.190 HD ATOM     27  F   UNL     1      42.397  45.933  25.459 +0.01 -0.01    -0.207 F  ENDBRANCH  15  17ENDBRANCH   7  10TORSDOF 3TERENDMDL