REMARK SMILES Oc1nc2ccccc2n1C1CCN(Cc2ccc(-c3ncccn3)cc2)CC1
REMARK SMILES IDX 11 1 12 2 13 3 14 4 28 5 29 6 10 7 2 8 3 9 4 10 9 11 5 12
REMARK SMILES IDX 8 13 6 14 7 15 1 16 15 18 16 19 17 20 27 21 18 22 26 23
REMARK SMILES IDX 19 24 20 25 21 26 25 27 22 28 24 29 23 30
REMARK H PARENT 1 17
ROOT
ATOM      1  C   UNL     1      -2.860   0.410   0.035  1.00  0.00     0.095 C 
ATOM      2  C   UNL     1      -2.358   1.442   1.053  1.00  0.00     0.041 C 
ATOM      3  C   UNL     1      -1.120   2.139   0.498  1.00  0.00     0.087 C 
ATOM      4  N   UNL     1       0.006   1.220   0.304  1.00  0.00    -0.299 NA
ATOM      5  C   UNL     1      -0.383  -0.178   0.075  1.00  0.00     0.087 C 
ATOM      6  C   UNL     1      -1.711  -0.341  -0.662  1.00  0.00     0.041 C 
ENDROOT
BRANCH   1   7
ATOM      7  N   UNL     1      -3.883  -0.460   0.599  1.00  0.00    -0.291 N 
ATOM      8  C   UNL     1      -3.698  -1.451   1.522  1.00  0.00     0.295 A 
ATOM      9  N   UNL     1      -4.800  -2.066   1.852  1.00  0.00    -0.195 NA
ATOM     10  C   UNL     1      -5.772  -1.442   1.111  1.00  0.00     0.092 A 
ATOM     11  C   UNL     1      -5.234  -0.428   0.315  1.00  0.00     0.072 A 
ATOM     12  C   UNL     1      -7.152  -1.693   1.070  1.00  0.00     0.031 A 
ATOM     13  C   UNL     1      -6.026   0.362  -0.529  1.00  0.00     0.029 A 
ATOM     14  C   UNL     1      -7.957  -0.915   0.230  1.00  0.00     0.002 A 
ATOM     15  C   UNL     1      -7.400   0.095  -0.554  1.00  0.00     0.002 A 
BRANCH   8  16
ATOM     16  O   UNL     1      -2.538  -1.783   2.048  1.00  0.00    -0.480 OA
ATOM     17  H   UNL     1      -2.800  -2.501   2.652  1.00  0.00     0.296 HD
ENDBRANCH   8  16
ENDBRANCH   1   7
BRANCH   4  18
ATOM     18  C   UNL     1       0.949   1.743  -0.697  1.00  0.00     0.120 C 
BRANCH  18  19
ATOM     19  C   UNL     1       2.320   1.104  -0.636  1.00  0.00    -0.034 A 
ATOM     20  C   UNL     1       2.923   0.599  -1.792  1.00  0.00     0.006 A 
ATOM     21  C   UNL     1       3.029   1.040   0.570  1.00  0.00     0.006 A 
ATOM     22  C   UNL     1       4.201   0.029  -1.738  1.00  0.00     0.012 A 
ATOM     23  C   UNL     1       4.306   0.469   0.618  1.00  0.00     0.012 A 
ATOM     24  C   UNL     1       4.925  -0.052  -0.534  1.00  0.00     0.019 A 
BRANCH  24  25
ATOM     25  C   UNL     1       6.274  -0.655  -0.481  1.00  0.00     0.159 A 
ATOM     26  N   UNL     1       6.799  -1.132  -1.629  1.00  0.00    -0.237 NA
ATOM     27  N   UNL     1       6.904  -0.696   0.712  1.00  0.00    -0.237 NA
ATOM     28  C   UNL     1       8.027  -1.677  -1.551  1.00  0.00     0.115 A 
ATOM     29  C   UNL     1       8.129  -1.252   0.729  1.00  0.00     0.115 A 
ATOM     30  C   UNL     1       8.747  -1.764  -0.385  1.00  0.00     0.040 A 
ENDBRANCH  24  25
ENDBRANCH  18  19
ENDBRANCH   4  18
TORSDOF 5
