MODEL        6USER    Run = 6USERUSER    Estimated Free Energy of Binding    =  -8.21 kcal/mol  [=(1)+(2)+(3)-(4)]USERUSER    (1) Final Intermolecular Energy     = -10.89 kcal/molUSER        vdW + Hbond + desolv Energy     = -10.78 kcal/molUSER        Electrostatic Energy            =  -0.11 kcal/molUSER        Moving Ligand-Fixed Receptor    = -10.89 kcal/molUSER        Moving Ligand-Moving Receptor   =  +0.00 kcal/molUSER    (2) Final Total Internal Energy     =  -1.61 kcal/molUSER    (3) Torsional Free Energy           =  +2.68 kcal/molUSER    (4) Unbound System's Energy         =  -1.61 kcal/molUSERUSERREMARK SMILES COc1ccc(O)c(C(=O)c2ccc(C(=O)N[C@H]3CCN(CC(F)(F)F)[C@@H](O)C3)cc2)c1FREMARK SMILES IDX 11 1 12 2 13 3 14 4 30 5 31 6 9 7 10 8 8 9 3 10 4 11 32 12REMARK SMILES IDX 5 13 6 14 33 15 2 16 1 17 7 18 15 20 17 21 16 22 18 24 19 25REMARK SMILES IDX 29 26 20 27 27 28 21 29 28 30 22 32 23 33 24 34 25 35 26 36REMARK H PARENT 7 19 17 23 28 31USER                              x       y       z     vdW  Elec       q    TypeUSER                           _______ _______ _______ _____ _____    ______ ____ROOTATOM      1  C   UNL     1      43.116  46.586  20.928 -0.33 +0.01    +0.023 A  ATOM      2  C   UNL     1      43.349  47.381  19.801 -0.36 +0.00    +0.013 A  ATOM      3  C   UNL     1      42.388  47.450  18.789 -0.53 +0.00    +0.014 A  ATOM      4  C   UNL     1      41.181  46.746  18.906 -0.42 -0.00    +0.039 A  ATOM      5  C   UNL     1      40.949  45.955  20.038 -0.37 +0.00    +0.014 A  ATOM      6  C   UNL     1      41.909  45.885  21.051 -0.32 +0.00    +0.013 A  ENDROOTBRANCH   1   7ATOM      7  C   UNL     1      44.088  46.511  22.044 -0.22 +0.11    +0.199 C  ATOM      8  O   UNL     1      44.867  45.557  22.087 -0.38 -0.26    -0.288 OA BRANCH   7   9ATOM      9  C   UNL     1      44.137  47.495  23.146 -0.22 +0.03    +0.104 A  ATOM     10  C   UNL     1      43.052  49.077  24.654 -0.27 +0.04    +0.155 A  ATOM     11  C   UNL     1      44.284  49.343  25.256 -0.26 +0.01    +0.053 A  ATOM     12  C   UNL     1      42.993  48.158  23.596 -0.26 +0.04    +0.179 A  ATOM     13  C   UNL     1      45.441  48.710  24.794 -0.16 +0.01    +0.051 A  ATOM     14  C   UNL     1      45.368  47.806  23.738 -0.15 +0.04    +0.130 A  ATOM     15  F   UNL     1      41.810  47.941  22.997 -0.08 -0.03    -0.202 F  BRANCH  10  16ATOM     16  O   UNL     1      41.858  49.646  25.007 -0.23 -0.12    -0.494 OA ATOM     17  C   UNL     1      40.967  48.861  25.791 -0.21 +0.04    +0.278 C  ENDBRANCH  10  16BRANCH  14  18ATOM     18  O   UNL     1      46.552  47.255  23.325 -0.05 -0.23    -0.507 OA ATOM     19  H   UNL     1      46.429  46.279  23.274 +0.07 +0.16    +0.293 HD ENDBRANCH  14  18ENDBRANCH   7   9ENDBRANCH   1   7BRANCH   4  20ATOM     20  C   UNL     1      40.191  46.854  17.797 -0.35 -0.04    +0.251 C  ATOM     21  N   UNL     1      40.684  47.240  16.565 -0.24 +0.05    -0.349 N  ATOM     22  O   UNL     1      39.013  46.579  17.995 -0.31 +0.06    -0.269 OA ATOM     23  H   UNL     1      41.686  47.224  16.423 -0.31 -0.03    +0.164 HD BRANCH  21  24ATOM     24  C   UNL     1      39.822  47.286  15.386 -0.50 -0.02    +0.087 C  ATOM     25  C   UNL     1      39.018  45.986  15.209 -0.42 -0.01    +0.040 C  ATOM     26  C   UNL     1      38.907  48.512  15.440 -0.53 -0.04    +0.073 C  ATOM     27  C   UNL     1      37.569  46.157  15.659 -0.37 -0.04    +0.089 C  ATOM     28  C   UNL     1      37.701  48.323  14.521 -0.45 -0.11    +0.187 C  ATOM     29  N   UNL     1      36.849  47.214  14.931 -0.22 +0.19    -0.270 NA BRANCH  28  30ATOM     30  O   UNL     1      36.925  49.498  14.582 -0.34 +0.37    -0.378 OA ATOM     31  H   UNL     1      37.581  50.218  14.589 -0.42 -0.24    +0.212 HD ENDBRANCH  28  30BRANCH  29  32ATOM     32  C   UNL     1      36.079  46.652  13.782 -0.40 -0.13    +0.202 C  BRANCH  32  33ATOM     33  C   UNL     1      36.355  47.184  12.358 -0.40 -0.19    +0.401 C  ATOM     34  F   UNL     1      35.624  46.536  11.427 -0.22 +0.10    -0.170 F  ATOM     35  F   UNL     1      37.662  47.087  12.030 -0.23 +0.03    -0.170 F  ATOM     36  F   UNL     1      36.018  48.495  12.285 -0.27 +0.08    -0.170 F  ENDBRANCH  32  33ENDBRANCH  29  32ENDBRANCH  21  24ENDBRANCH   4  20TORSDOF 9TERENDMDL