REMARK SMILES CN1CCN(CCc2ccc(-c3nc4ccc(Cl)cc4[nH]c3=O)cc2)CC1
REMARK SMILES IDX 7 1 6 2 5 3 2 4 3 5 27 6 4 7 26 8 1 9 8 10 9 11 25 12 10 13
REMARK SMILES IDX 24 14 11 15 12 16 13 17 22 18 14 19 21 20 15 21 20 22 16 23
REMARK SMILES IDX 19 24 17 25 23 26 18 28
REMARK H PARENT 21 27
ROOT
ATOM      1  C   UNL     1      -1.873   0.548  -0.108  1.00  0.00     0.051 C 
ENDROOT
BRANCH   1   2
ATOM      2  C   UNL     1      -2.523  -0.837  -0.288  1.00  0.00     0.089 C 
BRANCH   2   3
ATOM      3  N   UNL     1      -3.987  -0.871  -0.387  1.00  0.00    -0.300 NA
ATOM      4  N   UNL     1      -6.378   0.984  -0.579  1.00  0.00    -0.304 NA
ATOM      5  C   UNL     1      -6.024  -0.050  -1.575  1.00  0.00     0.099 C 
ATOM      6  C   UNL     1      -5.446   0.980   0.566  1.00  0.00     0.099 C 
ATOM      7  C   UNL     1      -4.504  -0.308  -1.645  1.00  0.00     0.100 C 
ATOM      8  C   UNL     1      -4.696  -0.353   0.795  1.00  0.00     0.100 C 
ATOM      9  C   UNL     1      -7.766   0.826  -0.152  1.00  0.00     0.105 C 
ENDBRANCH   2   3
ENDBRANCH   1   2
BRANCH   1  10
ATOM     10  C   UNL     1      -0.368   0.444  -0.001  1.00  0.00    -0.047 A 
ATOM     11  C   UNL     1       0.243   0.247   1.243  1.00  0.00     0.004 A 
ATOM     12  C   UNL     1       0.431   0.509  -1.148  1.00  0.00     0.004 A 
ATOM     13  C   UNL     1       1.634   0.133   1.344  1.00  0.00     0.011 A 
ATOM     14  C   UNL     1       1.820   0.396  -1.048  1.00  0.00     0.011 A 
ATOM     15  C   UNL     1       2.433   0.221   0.200  1.00  0.00     0.006 A 
BRANCH  15  16
ATOM     16  C   UNL     1       3.918   0.088   0.251  1.00  0.00     0.136 A 
ATOM     17  N   UNL     1       4.534  -0.430  -0.778  1.00  0.00    -0.240 NA
ATOM     18  C   UNL     1       4.691   0.574   1.494  1.00  0.00     0.274 A 
ATOM     19  C   UNL     1       5.928  -0.581  -0.738  1.00  0.00     0.088 A 
ATOM     20  N   UNL     1       6.049   0.368   1.472  1.00  0.00    -0.319 N 
ATOM     21  C   UNL     1       6.574  -1.140  -1.842  1.00  0.00     0.032 A 
ATOM     22  C   UNL     1       6.694  -0.197   0.371  1.00  0.00     0.069 A 
ATOM     23  C   UNL     1       7.960  -1.313  -1.840  1.00  0.00     0.023 A 
ATOM     24  C   UNL     1       8.078  -0.364   0.386  1.00  0.00     0.049 A 
ATOM     25  C   UNL     1       8.704  -0.925  -0.726  1.00  0.00     0.043 A 
ATOM     26  O   UNL     1       4.143   1.124   2.436  1.00  0.00    -0.267 OA
ATOM     27  H   UNL     1       6.568   0.683   2.280  1.00  0.00     0.170 HD
ATOM     28  Cl  UNL     1      10.412  -1.138  -0.725  1.00  0.00    -0.084 Cl
ENDBRANCH  15  16
ENDBRANCH   1  10
TORSDOF 4
