MODEL        10USER    Run = 10USERUSER    Estimated Free Energy of Binding    =  -9.89 kcal/mol  [=(1)+(2)+(3)-(4)]USERUSER    (1) Final Intermolecular Energy     = -11.09 kcal/molUSER        vdW + Hbond + desolv Energy     = -11.03 kcal/molUSER        Electrostatic Energy            =  -0.06 kcal/molUSER        Moving Ligand-Fixed Receptor    = -11.09 kcal/molUSER        Moving Ligand-Moving Receptor   =  +0.00 kcal/molUSER    (2) Final Total Internal Energy     =  -0.70 kcal/molUSER    (3) Torsional Free Energy           =  +1.19 kcal/molUSER    (4) Unbound System's Energy         =  -0.70 kcal/molUSERUSERREMARK SMILES CN1CCN(CCc2ccc(-c3nc4ccc(Cl)cc4[nH]c3=O)cc2)CC1REMARK SMILES IDX 7 1 6 2 5 3 2 4 3 5 27 6 4 7 26 8 1 9 8 10 9 11 25 12 10 13REMARK SMILES IDX 24 14 11 15 12 16 13 17 22 18 14 19 21 20 15 21 20 22 16 23REMARK SMILES IDX 19 24 17 25 23 26 18 28REMARK H PARENT 21 27USER                              x       y       z     vdW  Elec       q    TypeUSER                           _______ _______ _______ _____ _____    ______ ____ROOTATOM      1  C   UNL     1      43.634  46.335  21.818 -0.30 +0.02    +0.051 C  ENDROOTBRANCH   1   2ATOM      2  C   UNL     1      44.141  47.648  22.446 -0.31 +0.03    +0.089 C  BRANCH   2   3ATOM      3  N   UNL     1      43.168  48.425  23.223 -0.58 -0.07    -0.300 NA ATOM      4  N   UNL     1      41.472  48.244  25.730 -0.11 -0.03    -0.304 NA ATOM      5  C   UNL     1      42.489  49.285  25.467 -0.29 +0.01    +0.099 C  ATOM      6  C   UNL     1      41.338  47.313  24.592 -0.19 +0.01    +0.099 C  ATOM      7  C   UNL     1      43.640  48.774  24.573 -0.30 +0.02    +0.100 C  ATOM      8  C   UNL     1      41.803  47.874  23.228 -0.28 +0.01    +0.100 C  ATOM      9  C   UNL     1      40.195  48.859  26.084 -0.26 +0.01    +0.105 C  ENDBRANCH   2   3ENDBRANCH   1   2BRANCH   1  10ATOM     10  C   UNL     1      42.798  46.597  20.585 -0.35 -0.01    -0.047 A  ATOM     11  C   UNL     1      43.300  47.384  19.542 -0.44 +0.00    +0.004 A  ATOM     12  C   UNL     1      41.526  46.029  20.457 -0.37 +0.00    +0.004 A  ATOM     13  C   UNL     1      42.536  47.615  18.392 -0.44 +0.00    +0.011 A  ATOM     14  C   UNL     1      40.762  46.259  19.310 -0.41 +0.00    +0.011 A  ATOM     15  C   UNL     1      41.255  47.065  18.275 -0.52 -0.00    +0.006 A  BRANCH  15  16ATOM     16  C   UNL     1      40.408  47.266  17.064 -0.41 -0.02    +0.136 A  ATOM     17  N   UNL     1      39.493  46.375  16.788 -0.26 +0.05    -0.240 NA ATOM     18  C   UNL     1      40.613  48.513  16.181 -0.34 -0.05    +0.274 A  ATOM     19  C   UNL     1      38.701  46.538  15.641 -0.36 -0.03    +0.088 A  ATOM     20  N   UNL     1      39.820  48.590  15.061 -0.29 +0.11    -0.319 N  ATOM     21  C   UNL     1      37.730  45.577  15.355 -0.34 -0.01    +0.032 A  ATOM     22  C   UNL     1      38.854  47.626  14.771 -0.45 -0.02    +0.069 A  ATOM     23  C   UNL     1      36.925  45.699  14.220 -0.40 -0.01    +0.023 A  ATOM     24  C   UNL     1      38.057  47.760  13.635 -0.47 -0.02    +0.049 A  ATOM     25  C   UNL     1      37.094  46.789  13.366 -0.50 -0.02    +0.043 A  ATOM     26  O   UNL     1      41.414  49.392  16.458 -1.09 -0.00    -0.267 OA ATOM     27  H   UNL     1      39.944  49.403  14.474 -0.05 -0.09    +0.170 HD ATOM     28  Cl  UNL     1      36.100  46.938  11.968 -0.90 +0.04    -0.084 Cl ENDBRANCH  15  16ENDBRANCH   1  10TORSDOF 4TERENDMDL