MODEL        5USER    Run = 5USERUSER    Estimated Free Energy of Binding    =  -9.58 kcal/mol  [=(1)+(2)+(3)-(4)]USERUSER    (1) Final Intermolecular Energy     = -11.07 kcal/molUSER        vdW + Hbond + desolv Energy     = -10.95 kcal/molUSER        Electrostatic Energy            =  -0.12 kcal/molUSER        Moving Ligand-Fixed Receptor    = -11.07 kcal/molUSER        Moving Ligand-Moving Receptor   =  +0.00 kcal/molUSER    (2) Final Total Internal Energy     =  -1.68 kcal/molUSER    (3) Torsional Free Energy           =  +1.49 kcal/molUSER    (4) Unbound System's Energy         =  -1.68 kcal/molUSERUSERREMARK SMILES C[C@H](O)[C@@H]1CCc2cccc(-c3ccnc(NC(=O)NC4CC4)c3)c2O1REMARK SMILES IDX 4 1 5 2 6 3 7 4 8 5 9 6 10 7 11 8 25 9 26 10 2 11 1 12 3 13REMARK SMILES IDX 12 15 13 16 24 17 14 18 16 19 15 20 17 21 18 22 20 23 19 25REMARK SMILES IDX 21 27 22 28 23 29REMARK H PARENT 3 14 17 24 20 26USER                              x       y       z     vdW  Elec       q    TypeUSER                           _______ _______ _______ _____ _____    ______ ____ROOTATOM      1  C   UNL     1      36.327  45.970  17.537 -0.25 -0.10    +0.202 C  ATOM      2  C   UNL     1      34.901  46.116  17.017 -0.35 -0.05    +0.053 C  ATOM      3  C   UNL     1      34.828  45.725  15.552 -0.35 -0.04    +0.043 C  ATOM      4  C   UNL     1      35.970  46.327  14.785 -0.40 +0.00    -0.005 A  ATOM      5  C   UNL     1      35.918  46.344  13.386 -0.52 -0.00    +0.007 A  ATOM      6  C   UNL     1      36.970  46.878  12.648 -0.64 -0.00    +0.001 A  ATOM      7  C   UNL     1      38.087  47.398  13.302 -0.46 -0.00    +0.012 A  ATOM      8  C   UNL     1      38.178  47.392  14.705 -0.46 -0.01    +0.024 A  ATOM      9  C   UNL     1      37.105  46.837  15.438 -0.31 -0.08    +0.130 A  ATOM     10  O   UNL     1      37.228  46.828  16.809 -0.10 +0.29    -0.487 OA ENDROOTBRANCH   1  11ATOM     11  C   UNL     1      36.911  44.538  17.557 -0.29 -0.04    +0.152 C  ATOM     12  C   UNL     1      36.732  43.828  18.890 -0.34 -0.01    +0.042 C  BRANCH  11  13ATOM     13  O   UNL     1      38.319  44.611  17.295 -0.15 +0.08    -0.390 OA ATOM     14  H   UNL     1      38.507  45.551  17.102 +0.14 -0.05    +0.211 HD ENDBRANCH  11  13ENDBRANCH   1  11BRANCH   8  15ATOM     15  C   UNL     1      39.382  47.943  15.358 -0.52 +0.00    -0.009 A  ATOM     16  C   UNL     1      39.750  47.554  16.647 -0.47 -0.01    +0.029 A  ATOM     17  C   UNL     1      40.192  48.881  14.699 -0.50 -0.02    +0.056 A  ATOM     18  C   UNL     1      40.891  48.100  17.207 -0.40 -0.02    +0.114 A  ATOM     19  C   UNL     1      41.314  49.386  15.342 -0.52 -0.02    +0.134 A  ATOM     20  N   UNL     1      41.678  49.001  16.584 -0.86 -0.03    -0.239 NA BRANCH  19  21ATOM     21  N   UNL     1      42.189  50.315  14.778 -0.43 +0.04    -0.292 N  ATOM     22  C   UNL     1      42.612  50.400  13.476 -0.45 -0.09    +0.320 C  ATOM     23  N   UNL     1      43.536  51.422  13.318 -0.19 +0.14    -0.335 N  ATOM     24  H   UNL     1      42.387  51.079  15.401 -0.13 -0.02    +0.173 HD ATOM     25  O   UNL     1      42.237  49.698  12.545 -0.35 +0.06    -0.248 OA ATOM     26  H   UNL     1      44.031  51.704  14.153 -0.34 -0.06    +0.165 HD BRANCH  23  27ATOM     27  C   UNL     1      44.170  51.674  12.062 -0.40 -0.05    +0.084 C  ATOM     28  C   UNL     1      44.415  53.082  11.595 -0.32 -0.01    +0.027 C  ATOM     29  C   UNL     1      43.387  52.235  10.906 -0.58 -0.02    +0.027 C  ENDBRANCH  23  27ENDBRANCH  19  21ENDBRANCH   8  15TORSDOF 5TERENDMDL