REMARK SMILES COc1ccc(O)c(C(=O)c2ccc(C(=O)N[C@H]3CCN(CC(F)(F)F)[C@@H](O)C3)cc2)c1F
REMARK SMILES IDX 11 1 12 2 13 3 14 4 30 5 31 6 9 7 10 8 8 9 3 10 4 11 32 12
REMARK SMILES IDX 5 13 6 14 33 15 2 16 1 17 7 18 15 20 17 21 16 22 18 24 19 25
REMARK SMILES IDX 29 26 20 27 27 28 21 29 28 30 22 32 23 33 24 34 25 35 26 36
REMARK H PARENT 7 19 17 23 28 31
ROOT
ATOM      1  C   UNL     1       2.951  -0.346  -1.088  1.00  0.00     0.023 A 
ATOM      2  C   UNL     1       2.729  -1.032   0.110  1.00  0.00     0.013 A 
ATOM      3  C   UNL     1       1.440  -1.094   0.647  1.00  0.00     0.014 A 
ATOM      4  C   UNL     1       0.363  -0.493  -0.020  1.00  0.00     0.039 A 
ATOM      5  C   UNL     1       0.588   0.189  -1.222  1.00  0.00     0.014 A 
ATOM      6  C   UNL     1       1.877   0.252  -1.760  1.00  0.00     0.013 A 
ENDROOT
BRANCH   1   7
ATOM      7  C   UNL     1       4.293  -0.285  -1.715  1.00  0.00     0.199 C 
ATOM      8  O   UNL     1       4.379  -0.392  -2.940  1.00  0.00    -0.288 OA
BRANCH   7   9
ATOM      9  C   UNL     1       5.546  -0.159  -0.941  1.00  0.00     0.104 A 
ATOM     10  C   UNL     1       6.799   0.658   0.986  1.00  0.00     0.155 A 
ATOM     11  C   UNL     1       7.949   0.033   0.499  1.00  0.00     0.053 A 
ATOM     12  C   UNL     1       5.607   0.561   0.254  1.00  0.00     0.179 A 
ATOM     13  C   UNL     1       7.909  -0.663  -0.712  1.00  0.00     0.051 A 
ATOM     14  C   UNL     1       6.720  -0.744  -1.432  1.00  0.00     0.130 A 
ATOM     15  F   UNL     1       4.517   1.200   0.711  1.00  0.00    -0.202 F 
BRANCH  10  16
ATOM     16  O   UNL     1       6.720   1.380   2.147  1.00  0.00    -0.494 OA
ATOM     17  C   UNL     1       7.912   1.522   2.910  1.00  0.00     0.278 C 
ENDBRANCH  10  16
BRANCH  14  18
ATOM     18  O   UNL     1       6.774  -1.417  -2.623  1.00  0.00    -0.507 OA
ATOM     19  H   UNL     1       5.948  -1.217  -3.121  1.00  0.00     0.293 HD
ENDBRANCH  14  18
ENDBRANCH   7   9
ENDBRANCH   1   7
BRANCH   4  20
ATOM     20  C   UNL     1      -0.990  -0.589   0.596  1.00  0.00     0.251 C 
ATOM     21  N   UNL     1      -2.067  -0.530  -0.268  1.00  0.00    -0.349 N 
ATOM     22  O   UNL     1      -1.106  -0.742   1.807  1.00  0.00    -0.269 OA
ATOM     23  H   UNL     1      -1.893  -0.637  -1.259  1.00  0.00     0.164 HD
BRANCH  21  24
ATOM     24  C   UNL     1      -3.435  -0.711   0.214  1.00  0.00     0.087 C 
ATOM     25  C   UNL     1      -3.921   0.496   1.035  1.00  0.00     0.040 C 
ATOM     26  C   UNL     1      -4.377  -1.014  -0.954  1.00  0.00     0.073 C 
ATOM     27  C   UNL     1      -4.856   1.388   0.222  1.00  0.00     0.089 C 
ATOM     28  C   UNL     1      -5.825  -0.720  -0.567  1.00  0.00     0.187 C 
ATOM     29  N   UNL     1      -6.054   0.689  -0.271  1.00  0.00    -0.270 NA
BRANCH  28  30
ATOM     30  O   UNL     1      -6.642  -1.060  -1.664  1.00  0.00    -0.378 OA
ATOM     31  H   UNL     1      -6.796  -0.213  -2.119  1.00  0.00     0.212 HD
ENDBRANCH  28  30
BRANCH  29  32
ATOM     32  C   UNL     1      -7.211   0.881   0.652  1.00  0.00     0.202 C 
BRANCH  32  33
ATOM     33  C   UNL     1      -8.578   0.261   0.286  1.00  0.00     0.401 C 
ATOM     34  F   UNL     1      -8.584  -1.079   0.446  1.00  0.00    -0.170 F 
ATOM     35  F   UNL     1      -8.937   0.549  -0.984  1.00  0.00    -0.170 F 
ATOM     36  F   UNL     1      -9.541   0.761   1.100  1.00  0.00    -0.170 F 
ENDBRANCH  32  33
ENDBRANCH  29  32
ENDBRANCH  21  24
ENDBRANCH   4  20
TORSDOF 9
