REMARK SMILES C[C@H](O)[C@@H]1CCc2cccc(-c3ccnc(NC(=O)NC4CC4)c3)c2O1
REMARK SMILES IDX 4 1 5 2 6 3 7 4 8 5 9 6 10 7 11 8 25 9 26 10 2 11 1 12 3 13
REMARK SMILES IDX 12 15 13 16 24 17 14 18 16 19 15 20 17 21 18 22 20 23 19 25
REMARK SMILES IDX 21 27 22 28 23 29
REMARK H PARENT 3 14 17 24 20 26
ROOT
ATOM      1  C   UNL     1      -3.782   0.748  -0.162  1.00  0.00     0.202 C 
ATOM      2  C   UNL     1      -4.938  -0.113   0.338  1.00  0.00     0.053 C 
ATOM      3  C   UNL     1      -4.487  -0.986   1.495  1.00  0.00     0.043 C 
ATOM      4  C   UNL     1      -3.157  -1.617   1.197  1.00  0.00    -0.005 A 
ATOM      5  C   UNL     1      -2.716  -2.684   1.989  1.00  0.00     0.007 A 
ATOM      6  C   UNL     1      -1.480  -3.277   1.748  1.00  0.00     0.001 A 
ATOM      7  C   UNL     1      -0.671  -2.806   0.714  1.00  0.00     0.012 A 
ATOM      8  C   UNL     1      -1.078  -1.732  -0.098  1.00  0.00     0.024 A 
ATOM      9  C   UNL     1      -2.331  -1.136   0.167  1.00  0.00     0.130 A 
ATOM     10  O   UNL     1      -2.696  -0.076  -0.631  1.00  0.00    -0.487 OA
ENDROOT
BRANCH   1  11
ATOM     11  C   UNL     1      -3.221   1.793   0.830  1.00  0.00     0.152 C 
ATOM     12  C   UNL     1      -4.275   2.755   1.358  1.00  0.00     0.042 C 
BRANCH  11  13
ATOM     13  O   UNL     1      -2.223   2.575   0.159  1.00  0.00    -0.390 OA
ATOM     14  H   UNL     1      -1.612   1.933  -0.253  1.00  0.00     0.211 HD
ENDBRANCH  11  13
ENDBRANCH   1  11
BRANCH   8  15
ATOM     15  C   UNL     1      -0.187  -1.258  -1.175  1.00  0.00    -0.009 A 
ATOM     16  C   UNL     1      -0.612  -1.222  -2.505  1.00  0.00     0.029 A 
ATOM     17  C   UNL     1       1.121  -0.833  -0.893  1.00  0.00     0.056 A 
ATOM     18  C   UNL     1       0.264  -0.765  -3.472  1.00  0.00     0.114 A 
ATOM     19  C   UNL     1       1.937  -0.399  -1.929  1.00  0.00     0.134 A 
ATOM     20  N   UNL     1       1.523  -0.352  -3.213  1.00  0.00    -0.239 NA
BRANCH  19  21
ATOM     21  N   UNL     1       3.247   0.050  -1.759  1.00  0.00    -0.292 N 
ATOM     22  C   UNL     1       4.025  -0.010  -0.631  1.00  0.00     0.320 C 
ATOM     23  N   UNL     1       5.251   0.603  -0.839  1.00  0.00    -0.335 N 
ATOM     24  H   UNL     1       3.680   0.301  -2.632  1.00  0.00     0.173 HD
ATOM     25  O   UNL     1       3.721  -0.539   0.431  1.00  0.00    -0.248 OA
ATOM     26  H   UNL     1       5.284   1.288  -1.581  1.00  0.00     0.165 HD
BRANCH  23  27
ATOM     27  C   UNL     1       6.218   0.723   0.208  1.00  0.00     0.084 C 
ATOM     28  C   UNL     1       6.430   2.036   0.909  1.00  0.00     0.027 C 
ATOM     29  C   UNL     1       7.489   1.499  -0.008  1.00  0.00     0.027 C 
ENDBRANCH  23  27
ENDBRANCH  19  21
ENDBRANCH   8  15
TORSDOF 5
