REMARK SMILES O=c1[nH]c2cc(Cl)ccc2nc1-c1ccc(CC(F)(F)F)cc1
REMARK SMILES IDX 13 1 14 2 15 3 16 4 22 5 23 6 12 7 2 8 3 9 4 10 11 11 5 12
REMARK SMILES IDX 10 13 6 14 9 15 8 16 1 17 7 19 17 20 18 21 19 22 20 23 21 24
REMARK H PARENT 3 18
ROOT
ATOM      1  C   UNL     1       0.599  -0.361  -0.222  1.00  0.00     0.006 A 
ATOM      2  C   UNL     1       1.499  -1.359   0.162  1.00  0.00     0.011 A 
ATOM      3  C   UNL     1       2.862  -1.230  -0.125  1.00  0.00     0.005 A 
ATOM      4  C   UNL     1       3.347  -0.099  -0.793  1.00  0.00    -0.039 A 
ATOM      5  C   UNL     1       2.449   0.911  -1.156  1.00  0.00     0.005 A 
ATOM      6  C   UNL     1       1.087   0.782  -0.871  1.00  0.00     0.011 A 
ENDROOT
BRANCH   1   7
ATOM      7  C   UNL     1      -0.860  -0.443   0.075  1.00  0.00     0.136 A 
ATOM      8  C   UNL     1      -1.559  -1.816   0.119  1.00  0.00     0.274 A 
ATOM      9  N   UNL     1      -2.892  -1.800   0.450  1.00  0.00    -0.319 N 
ATOM     10  C   UNL     1      -3.582  -0.608   0.678  1.00  0.00     0.069 A 
ATOM     11  N   UNL     1      -1.519   0.667   0.279  1.00  0.00    -0.240 NA
ATOM     12  C   UNL     1      -4.942  -0.640   0.987  1.00  0.00     0.049 A 
ATOM     13  C   UNL     1      -2.887   0.605   0.582  1.00  0.00     0.088 A 
ATOM     14  C   UNL     1      -5.614   0.562   1.204  1.00  0.00     0.043 A 
ATOM     15  C   UNL     1      -3.579   1.798   0.803  1.00  0.00     0.032 A 
ATOM     16  C   UNL     1      -4.941   1.780   1.113  1.00  0.00     0.023 A 
ATOM     17  O   UNL     1      -0.977  -2.858  -0.142  1.00  0.00    -0.267 OA
ATOM     18  H   UNL     1      -3.363  -2.693   0.481  1.00  0.00     0.170 HD
ATOM     19  Cl  UNL     1      -7.292   0.541   1.586  1.00  0.00    -0.084 Cl
ENDBRANCH   1   7
BRANCH   4  20
ATOM     20  C   UNL     1       4.821   0.043  -1.089  1.00  0.00     0.151 C 
BRANCH  20  21
ATOM     21  C   UNL     1       5.604   0.726   0.018  1.00  0.00     0.393 C 
ATOM     22  F   UNL     1       6.913   0.810  -0.324  1.00  0.00    -0.171 F 
ATOM     23  F   UNL     1       5.540   0.040   1.180  1.00  0.00    -0.171 F 
ATOM     24  F   UNL     1       5.169   1.984   0.244  1.00  0.00    -0.171 F 
ENDBRANCH  20  21
ENDBRANCH   4  20
TORSDOF 3
