MODEL        8USER    Run = 8USERUSER    Estimated Free Energy of Binding    =  -8.47 kcal/mol  [=(1)+(2)+(3)-(4)]USERUSER    (1) Final Intermolecular Energy     =  -9.37 kcal/molUSER        vdW + Hbond + desolv Energy     =  -9.29 kcal/molUSER        Electrostatic Energy            =  -0.08 kcal/molUSER        Moving Ligand-Fixed Receptor    =  -9.37 kcal/molUSER        Moving Ligand-Moving Receptor   =  +0.00 kcal/molUSER    (2) Final Total Internal Energy     =  -0.41 kcal/molUSER    (3) Torsional Free Energy           =  +0.89 kcal/molUSER    (4) Unbound System's Energy         =  -0.41 kcal/molUSERUSERREMARK SMILES O=c1[nH]c2cc(Cl)ccc2nc1-c1ccc(CC(F)(F)F)cc1REMARK SMILES IDX 13 1 14 2 15 3 16 4 22 5 23 6 12 7 2 8 3 9 4 10 11 11 5 12REMARK SMILES IDX 10 13 6 14 9 15 8 16 1 17 7 19 17 20 18 21 19 22 20 23 21 24REMARK H PARENT 3 18USER                              x       y       z     vdW  Elec       q    TypeUSER                           _______ _______ _______ _____ _____    ______ ____ROOTATOM      1  C   UNL     1      39.550  47.395  16.311 -0.49 -0.00    +0.006 A  ATOM      2  C   UNL     1      39.767  48.210  15.196 -0.55 -0.00    +0.011 A  ATOM      3  C   UNL     1      38.806  48.292  14.183 -0.49 -0.00    +0.005 A  ATOM      4  C   UNL     1      37.612  47.566  14.271 -0.48 +0.02    -0.039 A  ATOM      5  C   UNL     1      37.385  46.768  15.398 -0.40 -0.00    +0.005 A  ATOM      6  C   UNL     1      38.345  46.685  16.410 -0.40 -0.00    +0.011 A  ENDROOTBRANCH   1   7ATOM      7  C   UNL     1      40.535  47.286  17.425 -0.41 -0.02    +0.136 A  ATOM      8  C   UNL     1      41.642  48.347  17.578 -0.08 -0.00    +0.274 A  ATOM      9  N   UNL     1      42.472  48.195  18.662 -0.28 -0.00    -0.319 N  ATOM     10  C   UNL     1      42.352  47.116  19.539 -0.41 +0.01    +0.069 A  ATOM     11  N   UNL     1      40.439  46.273  18.246 -0.31 +0.02    -0.240 NA ATOM     12  C   UNL     1      43.235  46.990  20.612 -0.38 +0.02    +0.049 A  ATOM     13  C   UNL     1      41.344  46.170  19.313 -0.40 +0.01    +0.088 A  ATOM     14  C   UNL     1      43.102  45.901  21.472 -0.22 +0.02    +0.043 A  ATOM     15  C   UNL     1      41.228  45.086  20.186 -0.36 +0.00    +0.032 A  ATOM     16  C   UNL     1      42.105  44.948  21.265 -0.28 +0.00    +0.023 A  ATOM     17  O   UNL     1      41.794  49.258  16.779 -1.01 -0.06    -0.267 OA ATOM     18  H   UNL     1      43.204  48.883  18.773 -0.45 -0.01    +0.170 HD ATOM     19  Cl  UNL     1      44.182  45.731  22.801 -0.25 -0.03    -0.084 Cl ENDBRANCH   1   7BRANCH   4  20ATOM     20  C   UNL     1      36.572  47.668  13.181 -0.57 -0.07    +0.151 C  BRANCH  20  21ATOM     21  C   UNL     1      36.697  46.595  12.114 -0.40 -0.15    +0.393 C  ATOM     22  F   UNL     1      35.470  46.269  11.638 -0.25 +0.10    -0.171 F  ATOM     23  F   UNL     1      37.248  45.461  12.600 -0.17 +0.05    -0.171 F  ATOM     24  F   UNL     1      37.436  47.009  11.063 -0.27 +0.04    -0.171 F  ENDBRANCH  20  21ENDBRANCH   4  20TORSDOF 3TERENDMDL