
     RDKit          3D

 39 41  0  0  0  0  0  0  0  0999 V2000
    5.6421   -0.0853   -0.8043 C   0  0  0  0  0  0  0  0  0  0  0  0
    5.3571   -1.4438    0.3616 S   0  0  0  0  0  0  0  0  0  0  0  0
    3.8935   -0.8309    1.1366 C   0  0  0  0  0  0  0  0  0  0  0  0
    3.9558   -0.4598    2.4437 N   0  0  0  0  0  0  0  0  0  0  0  0
    2.8352   -0.0128    3.0504 C   0  0  0  0  0  0  0  0  0  0  0  0
    1.5891    0.1008    2.4495 C   0  0  0  0  0  0  0  0  0  0  0  0
    1.5424   -0.2827    1.1089 C   0  0  0  0  0  0  0  0  0  0  0  0
    2.6746   -0.7478    0.4322 C   0  0  0  0  0  0  0  0  0  0  0  0
    2.3542   -1.0504   -0.8786 N   0  0  0  0  0  0  0  0  0  0  0  0
    1.0722   -0.8041   -0.9955 C   0  0  0  0  0  0  0  0  0  0  0  0
    0.5332   -0.3341    0.1725 N   0  0  0  0  0  0  0  0  0  0  0  0
   -0.8546    0.0508    0.3735 C   0  0  2  0  0  0  0  0  0  0  0  0
   -1.8455   -1.1141    0.1610 C   0  0  0  0  0  0  0  0  0  0  0  0
   -3.0141   -0.5006   -0.6150 C   0  0  2  0  0  0  0  0  0  0  0  0
   -3.8446   -1.5258   -1.3770 C   0  0  0  0  0  0  0  0  0  0  0  0
   -4.4256   -2.4421   -0.4545 O   0  0  0  0  0  0  0  0  0  0  0  0
   -2.3156    0.5102   -1.5171 C   0  0  1  0  0  0  0  0  0  0  0  0
   -3.2512    1.3974   -2.1074 O   0  0  0  0  0  0  0  0  0  0  0  0
   -1.3107    1.1894   -0.5684 C   0  0  1  0  0  0  0  0  0  0  0  0
   -2.0012    2.2029    0.1878 O   0  0  0  0  0  0  0  0  0  0  0  0
   -1.0172    3.0746    0.8188 N   0  0  0  0  0  0  0  0  0  0  0  0
    6.5647   -0.2815   -1.3579 H   0  0  0  0  0  0  0  0  0  0  0  0
    5.7529    0.8653   -0.2671 H   0  0  0  0  0  0  0  0  0  0  0  0
    4.8241   -0.0002   -1.5291 H   0  0  0  0  0  0  0  0  0  0  0  0
    2.9671    0.2594    4.0954 H   0  0  0  0  0  0  0  0  0  0  0  0
    0.7267    0.4600    2.9968 H   0  0  0  0  0  0  0  0  0  0  0  0
    0.4954   -0.9543   -1.9002 H   0  0  0  0  0  0  0  0  0  0  0  0
   -0.9484    0.3783    1.4157 H   0  0  0  0  0  0  0  0  0  0  0  0
   -1.3935   -1.9386   -0.4043 H   0  0  0  0  0  0  0  0  0  0  0  0
   -2.1785   -1.5287    1.1199 H   0  0  0  0  0  0  0  0  0  0  0  0
   -3.6777    0.0180    0.0916 H   0  0  0  0  0  0  0  0  0  0  0  0
   -4.6483   -1.0493   -1.9495 H   0  0  0  0  0  0  0  0  0  0  0  0
   -3.2267   -2.0986   -2.0776 H   0  0  0  0  0  0  0  0  0  0  0  0
   -5.1355   -1.9696    0.0154 H   0  0  0  0  0  0  0  0  0  0  0  0
   -1.7789   -0.0029   -2.3245 H   0  0  0  0  0  0  0  0  0  0  0  0
   -2.7776    2.2089   -2.3717 H   0  0  0  0  0  0  0  0  0  0  0  0
   -0.5057    1.6609   -1.1457 H   0  0  0  0  0  0  0  0  0  0  0  0
   -1.3529    3.0945    1.7846 H   0  0  0  0  0  0  0  0  0  0  0  0
   -1.2764    3.9868    0.4295 H   0  0  0  0  0  0  0  0  0  0  0  0
  1  2  1  0
  2  3  1  0
  3  4  2  0
  4  5  1  0
  5  6  2  0
  6  7  1  0
  7  8  2  0
  8  9  1  0
  9 10  2  0
 10 11  1  0
 11 12  1  0
 12 13  1  0
 13 14  1  0
 14 15  1  0
 15 16  1  0
 14 17  1  0
 17 18  1  0
 17 19  1  0
 19 20  1  0
 20 21  1  0
  8  3  1  0
 19 12  1  0
 11  7  1  0
  1 22  1  0
  1 23  1  0
  1 24  1  0
  5 25  1  0
  6 26  1  0
 10 27  1  0
 12 28  1  1
 13 29  1  0
 13 30  1  0
 14 31  1  1
 15 32  1  0
 15 33  1  0
 16 34  1  0
 17 35  1  6
 18 36  1  0
 19 37  1  6
 21 38  1  0
 21 39  1  0
M  END
$$$$
