
     RDKit          3D

 50 53  0  0  0  0  0  0  0  0999 V2000
   -4.1575    0.4919    2.0356 C   0  0  0  0  0  0  0  0  0  0  0  0
   -4.4881    0.0571    0.6263 C   0  0  0  0  0  0  0  0  0  0  0  0
   -5.7641    0.3315    0.0729 C   0  0  0  0  0  0  0  0  0  0  0  0
   -6.7937    1.0999    0.8303 C   0  0  0  0  0  0  0  0  0  0  0  0
   -6.6057    1.9048    1.7216 O   0  0  0  0  0  0  0  0  0  0  0  0
   -8.0448    0.7987    0.4322 O   0  0  0  0  0  0  0  0  0  0  0  0
   -6.0759   -0.0926   -1.2297 C   0  0  0  0  0  0  0  0  0  0  0  0
   -5.1368   -0.7728   -1.9964 C   0  0  0  0  0  0  0  0  0  0  0  0
   -3.8728   -1.0248   -1.4722 C   0  0  0  0  0  0  0  0  0  0  0  0
   -3.5242   -0.6146   -0.1706 C   0  0  0  0  0  0  0  0  0  0  0  0
   -2.1624   -0.8980    0.2982 C   0  0  0  0  0  0  0  0  0  0  0  0
   -1.7831   -2.1754    0.7163 C   0  0  0  0  0  0  0  0  0  0  0  0
   -0.5435   -2.5119    1.1568 N   0  0  0  0  0  0  0  0  0  0  0  0
    0.3787   -1.5306    1.1903 C   0  0  0  0  0  0  0  0  0  0  0  0
    0.0996   -0.2340    0.7829 C   0  0  0  0  0  0  0  0  0  0  0  0
   -1.1797    0.0940    0.3355 C   0  0  0  0  0  0  0  0  0  0  0  0
    1.1871    0.7535    0.8577 C   0  0  0  0  0  0  0  0  0  0  0  0
    0.9172    1.9464    0.7597 O   0  0  0  0  0  0  0  0  0  0  0  0
    2.4640    0.2504    1.0739 N   0  0  0  0  0  0  0  0  0  0  0  0
    3.5663    1.1788    1.3156 C   0  0  0  0  0  0  0  0  0  0  0  0
    4.6182    1.1980    0.2357 C   0  0  0  0  0  0  0  0  0  0  0  0
    4.3210    1.8052   -0.9919 C   0  0  0  0  0  0  0  0  0  0  0  0
    3.1160    2.3538   -1.1942 F   0  0  0  0  0  0  0  0  0  0  0  0
    5.2452    1.8623   -2.0333 C   0  0  0  0  0  0  0  0  0  0  0  0
    6.5082    1.3071   -1.8665 C   0  0  0  0  0  0  0  0  0  0  0  0
    6.8343    0.6994   -0.6554 C   0  0  0  0  0  0  0  0  0  0  0  0
    5.8992    0.6455    0.3879 C   0  0  0  0  0  0  0  0  0  0  0  0
    6.3997   -0.1386    1.8443 Cl  0  0  0  0  0  0  0  0  0  0  0  0
    2.7295   -1.1781    1.0348 C   0  0  0  0  0  0  0  0  0  0  0  0
    2.9535   -1.7230   -0.3783 C   0  0  0  0  0  0  0  0  0  0  0  0
    1.6345   -1.8629    1.6852 N   0  0  0  0  0  0  0  0  0  0  0  0
   -4.9810    0.2545    2.7171 H   0  0  0  0  0  0  0  0  0  0  0  0
   -3.2876   -0.0281    2.4460 H   0  0  0  0  0  0  0  0  0  0  0  0
   -3.9530    1.5667    2.0590 H   0  0  0  0  0  0  0  0  0  0  0  0
   -8.6102    1.3517    1.0115 H   0  0  0  0  0  0  0  0  0  0  0  0
   -7.0527    0.1167   -1.6612 H   0  0  0  0  0  0  0  0  0  0  0  0
   -5.3841   -1.0933   -3.0054 H   0  0  0  0  0  0  0  0  0  0  0  0
   -3.1426   -1.5407   -2.0952 H   0  0  0  0  0  0  0  0  0  0  0  0
   -2.4972   -2.9962    0.7149 H   0  0  0  0  0  0  0  0  0  0  0  0
   -1.4014    1.1120    0.0235 H   0  0  0  0  0  0  0  0  0  0  0  0
    3.9835    0.9273    2.2958 H   0  0  0  0  0  0  0  0  0  0  0  0
    3.1836    2.2003    1.4337 H   0  0  0  0  0  0  0  0  0  0  0  0
    4.9679    2.3444   -2.9663 H   0  0  0  0  0  0  0  0  0  0  0  0
    7.2362    1.3494   -2.6727 H   0  0  0  0  0  0  0  0  0  0  0  0
    7.8250    0.2678   -0.5274 H   0  0  0  0  0  0  0  0  0  0  0  0
    3.6254   -1.3758    1.6324 H   0  0  0  0  0  0  0  0  0  0  0  0
    2.1220   -1.4864   -1.0511 H   0  0  0  0  0  0  0  0  0  0  0  0
    3.0666   -2.8126   -0.3595 H   0  0  0  0  0  0  0  0  0  0  0  0
    3.8585   -1.3056   -0.8274 H   0  0  0  0  0  0  0  0  0  0  0  0
    1.7010   -2.8732    1.7520 H   0  0  0  0  0  0  0  0  0  0  0  0
  1  2  1  0
  2  3  2  0
  3  4  1  0
  4  5  2  0
  4  6  1  0
  3  7  1  0
  7  8  2  0
  8  9  1  0
  9 10  2  0
 10 11  1  0
 11 12  2  0
 12 13  1  0
 13 14  2  0
 14 15  1  0
 15 16  2  0
 15 17  1  0
 17 18  2  0
 17 19  1  0
 19 20  1  0
 20 21  1  0
 21 22  2  0
 22 23  1  0
 22 24  1  0
 24 25  2  0
 25 26  1  0
 26 27  2  0
 27 28  1  0
 19 29  1  0
 29 30  1  0
 29 31  1  0
 10  2  1  0
 16 11  1  0
 27 21  1  0
 31 14  1  0
  1 32  1  0
  1 33  1  0
  1 34  1  0
  6 35  1  0
  7 36  1  0
  8 37  1  0
  9 38  1  0
 12 39  1  0
 16 40  1  0
 20 41  1  0
 20 42  1  0
 24 43  1  0
 25 44  1  0
 26 45  1  0
 29 46  1  0
 30 47  1  0
 30 48  1  0
 30 49  1  0
 31 50  1  0
M  END
$$$$
