
     RDKit          3D

 48 50  0  0  0  0  0  0  0  0999 V2000
    7.2898    0.5723    3.2339 C   0  0  0  0  0  0  0  0  0  0  0  0
    5.8744    0.1218    2.9754 C   0  0  0  0  0  0  0  0  0  0  0  0
    5.1340   -0.1906    3.9015 O   0  0  0  0  0  0  0  0  0  0  0  0
    5.5586    0.1408    1.6349 N   0  0  0  0  0  0  0  0  0  0  0  0
    4.3258   -0.1640    1.0231 C   0  0  0  0  0  0  0  0  0  0  0  0
    3.1756   -0.5333    1.7145 C   0  0  0  0  0  0  0  0  0  0  0  0
    1.9974   -0.8160    1.0139 C   0  0  0  0  0  0  0  0  0  0  0  0
    1.9481   -0.7517   -0.3876 C   0  0  0  0  0  0  0  0  0  0  0  0
    0.7122   -1.0696   -1.1151 C   0  0  0  0  0  0  0  0  0  0  0  0
    0.6775   -2.0071   -2.1401 C   0  0  0  0  0  0  0  0  0  0  0  0
   -0.4254   -2.3355   -2.8544 N   0  0  0  0  0  0  0  0  0  0  0  0
   -1.5792   -1.7181   -2.5521 C   0  0  0  0  0  0  0  0  0  0  0  0
   -2.7129   -2.0477   -3.2770 C   0  0  0  0  0  0  0  0  0  0  0  0
   -3.9454   -1.4488   -3.0208 C   0  0  0  0  0  0  0  0  0  0  0  0
   -4.0588   -0.4943   -2.0145 C   0  0  0  0  0  0  0  0  0  0  0  0
   -2.9372   -0.1355   -1.2636 C   0  0  0  0  0  0  0  0  0  0  0  0
   -2.9470    0.7815   -0.2407 O   0  0  0  0  0  0  0  0  0  0  0  0
   -4.1320    1.5566   -0.0069 C   0  0  0  0  0  0  0  0  0  0  0  0
   -5.0523    0.8256    0.9803 C   0  0  0  0  0  0  0  0  0  0  0  0
   -4.3745    0.6527    2.2311 O   0  0  0  0  0  0  0  0  0  0  0  0
   -6.3476    1.5993    1.2183 C   0  0  0  0  0  0  0  0  0  0  0  0
   -7.0799    1.7378    0.0063 O   0  0  0  0  0  0  0  0  0  0  0  0
   -1.6851   -0.7511   -1.5299 C   0  0  0  0  0  0  0  0  0  0  0  0
   -0.5036   -0.4442   -0.8196 C   0  0  0  0  0  0  0  0  0  0  0  0
    3.1180   -0.3824   -1.0734 C   0  0  0  0  0  0  0  0  0  0  0  0
    4.2895   -0.0505   -0.3813 C   0  0  0  0  0  0  0  0  0  0  0  0
    5.4987    0.1719   -1.0971 N   0  0  0  0  0  0  0  0  0  0  0  0
    7.6263    0.1806    4.1978 H   0  0  0  0  0  0  0  0  0  0  0  0
    7.9658    0.1976    2.4598 H   0  0  0  0  0  0  0  0  0  0  0  0
    7.3232    1.6644    3.2535 H   0  0  0  0  0  0  0  0  0  0  0  0
    6.2623    0.4486    0.9689 H   0  0  0  0  0  0  0  0  0  0  0  0
    3.1623   -0.6130    2.7967 H   0  0  0  0  0  0  0  0  0  0  0  0
    1.1162   -1.1099    1.5817 H   0  0  0  0  0  0  0  0  0  0  0  0
    1.5712   -2.5553   -2.4286 H   0  0  0  0  0  0  0  0  0  0  0  0
   -2.6340   -2.7938   -4.0643 H   0  0  0  0  0  0  0  0  0  0  0  0
   -4.8169   -1.7313   -3.6065 H   0  0  0  0  0  0  0  0  0  0  0  0
   -5.0388   -0.0611   -1.8419 H   0  0  0  0  0  0  0  0  0  0  0  0
   -4.6232    1.8452   -0.9418 H   0  0  0  0  0  0  0  0  0  0  0  0
   -3.7834    2.4870    0.4581 H   0  0  0  0  0  0  0  0  0  0  0  0
   -5.2884   -0.1752    0.6040 H   0  0  0  0  0  0  0  0  0  0  0  0
   -3.5092    0.2564    2.0133 H   0  0  0  0  0  0  0  0  0  0  0  0
   -6.9710    1.0739    1.9497 H   0  0  0  0  0  0  0  0  0  0  0  0
   -6.1372    2.5951    1.6242 H   0  0  0  0  0  0  0  0  0  0  0  0
   -7.9161    2.1815    0.2346 H   0  0  0  0  0  0  0  0  0  0  0  0
   -0.5353    0.3074   -0.0321 H   0  0  0  0  0  0  0  0  0  0  0  0
    3.1091   -0.3364   -2.1602 H   0  0  0  0  0  0  0  0  0  0  0  0
    5.9902   -0.7170   -1.1982 H   0  0  0  0  0  0  0  0  0  0  0  0
    5.3083    0.5402   -2.0275 H   0  0  0  0  0  0  0  0  0  0  0  0
  1  2  1  0
  2  3  2  0
  2  4  1  0
  4  5  1  0
  5  6  2  0
  6  7  1  0
  7  8  2  0
  8  9  1  0
  9 10  2  0
 10 11  1  0
 11 12  2  0
 12 13  1  0
 13 14  2  0
 14 15  1  0
 15 16  2  0
 16 17  1  0
 17 18  1  0
 18 19  1  0
 19 20  1  0
 19 21  1  0
 21 22  1  0
 16 23  1  0
 23 24  2  0
  8 25  1  0
 25 26  2  0
 26 27  1  0
 26  5  1  0
 24  9  1  0
 23 12  1  0
  1 28  1  0
  1 29  1  0
  1 30  1  0
  4 31  1  0
  6 32  1  0
  7 33  1  0
 10 34  1  0
 13 35  1  0
 14 36  1  0
 15 37  1  0
 18 38  1  0
 18 39  1  0
 19 40  1  0
 20 41  1  0
 21 42  1  0
 21 43  1  0
 22 44  1  0
 24 45  1  0
 25 46  1  0
 27 47  1  0
 27 48  1  0
M  END
$$$$
