
     RDKit          3D

 32 34  0  0  0  0  0  0  0  0999 V2000
   -2.3987    0.7382   -2.1208 C   0  0  0  0  0  0  0  0  0  0  0  0
   -0.9787    0.4852   -1.9222 N   0  0  0  0  0  0  0  0  0  0  0  0
   -0.3040    0.9266   -0.7742 C   0  0  0  0  0  0  0  0  0  0  0  0
   -0.5314    0.6779    0.5370 C   0  0  0  0  0  0  0  0  0  0  0  0
   -1.5171   -0.2694    0.9637 C   0  0  0  0  0  0  0  0  0  0  0  0
   -1.8179   -1.5370    0.4658 C   0  0  0  0  0  0  0  0  0  0  0  0
   -2.8483   -2.0922    1.2594 C   0  0  0  0  0  0  0  0  0  0  0  0
   -3.1298   -1.1512    2.2147 C   0  0  0  0  0  0  0  0  0  0  0  0
   -2.3430   -0.0615    2.0531 O   0  0  0  0  0  0  0  0  0  0  0  0
    0.1026    1.3166    1.5837 N   0  0  0  0  0  0  0  0  0  0  0  0
    1.2856    1.0817    1.9402 N   0  0  0  0  0  0  0  0  0  0  0  0
    2.0554    0.1716    1.1822 C   0  0  0  0  0  0  0  0  0  0  0  0
    2.4914   -1.0435    1.7166 C   0  0  0  0  0  0  0  0  0  0  0  0
    2.0675   -1.5203    3.3236 Cl  0  0  0  0  0  0  0  0  0  0  0  0
    3.2757   -1.9143    0.9644 C   0  0  0  0  0  0  0  0  0  0  0  0
    3.6142   -1.5339   -0.3187 C   0  0  0  0  0  0  0  0  0  0  0  0
    3.2258   -0.3720   -0.8783 N   0  0  0  0  0  0  0  0  0  0  0  0
    2.4604    0.4570   -0.1282 C   0  0  0  0  0  0  0  0  0  0  0  0
    2.1151    1.6500   -0.7828 N   0  0  0  0  0  0  0  0  0  0  0  0
    0.8647    1.8631   -1.0779 C   0  0  0  0  0  0  0  0  0  0  0  0
    0.6024    3.0084   -1.7945 N   0  0  0  0  0  0  0  0  0  0  0  0
   -2.5958    1.8150   -2.1427 H   0  0  0  0  0  0  0  0  0  0  0  0
   -2.7088    0.3155   -3.0812 H   0  0  0  0  0  0  0  0  0  0  0  0
   -3.0154    0.2830   -1.3428 H   0  0  0  0  0  0  0  0  0  0  0  0
   -0.4520    0.7970   -2.7448 H   0  0  0  0  0  0  0  0  0  0  0  0
   -1.3311   -1.9993   -0.3833 H   0  0  0  0  0  0  0  0  0  0  0  0
   -3.3187   -3.0591    1.1526 H   0  0  0  0  0  0  0  0  0  0  0  0
   -3.8234   -1.1066    3.0429 H   0  0  0  0  0  0  0  0  0  0  0  0
    3.6180   -2.8612    1.3664 H   0  0  0  0  0  0  0  0  0  0  0  0
    4.2270   -2.1700   -0.9517 H   0  0  0  0  0  0  0  0  0  0  0  0
   -0.2802    3.4539   -1.5732 H   0  0  0  0  0  0  0  0  0  0  0  0
    1.3883    3.6505   -1.7490 H   0  0  0  0  0  0  0  0  0  0  0  0
  1  2  1  0
  2  3  1  0
  3  4  2  3
  4  5  1  0
  5  6  2  0
  6  7  1  0
  7  8  2  0
  8  9  1  0
  4 10  1  0
 10 11  2  3
 11 12  1  0
 12 13  2  0
 13 14  1  0
 13 15  1  0
 15 16  2  0
 16 17  1  0
 17 18  2  0
 18 19  1  0
 19 20  2  3
 20 21  1  0
 20  3  1  0
  9  5  1  0
 18 12  1  0
  1 22  1  0
  1 23  1  0
  1 24  1  0
  2 25  1  0
  6 26  1  0
  7 27  1  0
  8 28  1  0
 15 29  1  0
 16 30  1  0
 21 31  1  0
 21 32  1  0
M  END
$$$$
