REMARK SMILES COc1ccc(O)c(C(=O)c2ccc(CN3CCC(n4c(O)nc5ccccc54)CC3)cc2C(=O)O)c1F
REMARK SMILES IDX 11 1 12 2 13 3 14 4 32 5 33 6 9 7 10 8 8 9 3 10 4 11 37 12
REMARK SMILES IDX 5 13 6 14 38 15 2 16 1 17 7 18 34 20 35 21 36 22 15 24 16 25
REMARK SMILES IDX 17 26 31 27 18 28 30 29 19 30 20 31 21 32 29 33 23 34 28 35
REMARK SMILES IDX 24 36 27 37 25 38 26 39 22 40
REMARK H PARENT 7 19 36 23 22 41
ROOT
ATOM      1  C   UNL     1       3.241  -0.639   0.370  1.00  0.00     0.037 A 
ATOM      2  C   UNL     1       2.388   0.374   0.823  1.00  0.00     0.013 A 
ATOM      3  C   UNL     1       1.189   0.621   0.154  1.00  0.00     0.006 A 
ATOM      4  C   UNL     1       0.813  -0.157  -0.952  1.00  0.00    -0.033 A 
ATOM      5  C   UNL     1       1.673  -1.179  -1.389  1.00  0.00     0.021 A 
ATOM      6  C   UNL     1       2.887  -1.431  -0.728  1.00  0.00     0.071 A 
ENDROOT
BRANCH   1   7
ATOM      7  C   UNL     1       4.465  -0.888   1.146  1.00  0.00     0.200 C 
ATOM      8  O   UNL     1       4.381  -1.676   2.090  1.00  0.00    -0.288 OA
BRANCH   7   9
ATOM      9  C   UNL     1       5.753  -0.207   0.856  1.00  0.00     0.104 A 
ATOM     10  C   UNL     1       7.119   1.358  -0.432  1.00  0.00     0.155 A 
ATOM     11  C   UNL     1       8.223   1.055   0.367  1.00  0.00     0.053 A 
ATOM     12  C   UNL     1       5.894   0.720  -0.181  1.00  0.00     0.179 A 
ATOM     13  C   UNL     1       8.099   0.127   1.402  1.00  0.00     0.051 A 
ATOM     14  C   UNL     1       6.876  -0.496   1.644  1.00  0.00     0.130 A 
ATOM     15  F   UNL     1       4.847   1.035  -0.961  1.00  0.00    -0.202 F 
BRANCH  10  16
ATOM     16  O   UNL     1       7.116   2.250  -1.472  1.00  0.00    -0.494 OA
ATOM     17  C   UNL     1       8.314   2.980  -1.707  1.00  0.00     0.278 C 
ENDBRANCH  10  16
BRANCH  14  18
ATOM     18  O   UNL     1       6.858  -1.385   2.686  1.00  0.00    -0.507 OA
ATOM     19  H   UNL     1       5.954  -1.776   2.734  1.00  0.00     0.293 HD
ENDBRANCH  14  18
ENDBRANCH   7   9
ENDBRANCH   1   7
BRANCH   6  20
ATOM     20  C   UNL     1       3.790  -2.500  -1.216  1.00  0.00     0.336 C 
ATOM     21  O   UNL     1       4.992  -2.573  -1.045  1.00  0.00    -0.246 OA
BRANCH  20  22
ATOM     22  O   UNL     1       3.130  -3.448  -1.908  1.00  0.00    -0.478 OA
ATOM     23  H   UNL     1       3.831  -4.088  -2.152  1.00  0.00     0.297 HD
ENDBRANCH  20  22
ENDBRANCH   6  20
BRANCH   4  24
ATOM     24  C   UNL     1      -0.470   0.135  -1.708  1.00  0.00     0.120 C 
BRANCH  24  25
ATOM     25  N   UNL     1      -1.641   0.335  -0.834  1.00  0.00    -0.299 NA
ATOM     26  C   UNL     1      -2.067  -0.924  -0.202  1.00  0.00     0.087 C 
ATOM     27  C   UNL     1      -2.739   0.945  -1.595  1.00  0.00     0.087 C 
ATOM     28  C   UNL     1      -3.233  -0.688   0.760  1.00  0.00     0.041 C 
ATOM     29  C   UNL     1      -3.928   1.259  -0.689  1.00  0.00     0.041 C 
ATOM     30  C   UNL     1      -4.399  -0.004   0.038  1.00  0.00     0.095 C 
BRANCH  30  31
ATOM     31  N   UNL     1      -5.540   0.245   0.906  1.00  0.00    -0.291 N 
ATOM     32  C   UNL     1      -5.569   1.049   2.011  1.00  0.00     0.295 A 
ATOM     33  C   UNL     1      -6.815  -0.264   0.751  1.00  0.00     0.072 A 
ATOM     34  N   UNL     1      -6.739   1.099   2.587  1.00  0.00    -0.195 NA
ATOM     35  C   UNL     1      -7.407  -1.124  -0.186  1.00  0.00     0.029 A 
ATOM     36  C   UNL     1      -7.533   0.286   1.815  1.00  0.00     0.092 A 
ATOM     37  C   UNL     1      -8.763  -1.424  -0.014  1.00  0.00     0.002 A 
ATOM     38  C   UNL     1      -8.892  -0.027   1.968  1.00  0.00     0.031 A 
ATOM     39  C   UNL     1      -9.496  -0.888   1.046  1.00  0.00     0.002 A 
BRANCH  32  40
ATOM     40  O   UNL     1      -4.542   1.728   2.477  1.00  0.00    -0.480 OA
ATOM     41  H   UNL     1      -4.940   2.171   3.248  1.00  0.00     0.296 HD
ENDBRANCH  32  40
ENDBRANCH  30  31
ENDBRANCH  24  25
ENDBRANCH   4  24
TORSDOF 10
