MODEL        2USER    Run = 2USERUSER    Estimated Free Energy of Binding    = -10.31 kcal/mol  [=(1)+(2)+(3)-(4)]USERUSER    (1) Final Intermolecular Energy     = -13.30 kcal/molUSER        vdW + Hbond + desolv Energy     = -13.09 kcal/molUSER        Electrostatic Energy            =  -0.20 kcal/molUSER        Moving Ligand-Fixed Receptor    = -13.30 kcal/molUSER        Moving Ligand-Moving Receptor   =  +0.00 kcal/molUSER    (2) Final Total Internal Energy     =  -3.02 kcal/molUSER    (3) Torsional Free Energy           =  +2.98 kcal/molUSER    (4) Unbound System's Energy         =  -3.02 kcal/molUSERUSERREMARK SMILES COc1ccc(O)c(C(=O)c2ccc(CN3CCC(n4c(O)nc5ccccc54)CC3)cc2C(=O)O)c1FREMARK SMILES IDX 11 1 12 2 13 3 14 4 32 5 33 6 9 7 10 8 8 9 3 10 4 11 37 12REMARK SMILES IDX 5 13 6 14 38 15 2 16 1 17 7 18 34 20 35 21 36 22 15 24 16 25REMARK SMILES IDX 17 26 31 27 18 28 30 29 19 30 20 31 21 32 29 33 23 34 28 35REMARK SMILES IDX 24 36 27 37 25 38 26 39 22 40REMARK H PARENT 7 19 36 23 22 41USER                              x       y       z     vdW  Elec       q    TypeUSER                           _______ _______ _______ _____ _____    ______ ____ROOTATOM      1  C   UNL     1      37.383  44.303  26.331 -0.29 -0.00    +0.037 A  ATOM      2  C   UNL     1      38.077  45.178  25.488 -0.26 +0.00    +0.013 A  ATOM      3  C   UNL     1      38.251  44.853  24.143 -0.27 +0.00    +0.006 A  ATOM      4  C   UNL     1      37.709  43.670  23.617 -0.31 -0.00    -0.033 A  ATOM      5  C   UNL     1      37.003  42.806  24.471 -0.38 +0.00    +0.021 A  ATOM      6  C   UNL     1      36.830  43.119  25.830 -0.32 -0.00    +0.071 A  ENDROOTBRANCH   1   7ATOM      7  C   UNL     1      37.186  44.723  27.726 -0.30 -0.03    +0.200 C  ATOM      8  O   UNL     1      37.659  43.998  28.603 -0.27 +0.05    -0.288 OA BRANCH   7   9ATOM      9  C   UNL     1      36.422  45.942  28.099 -0.29 -0.03    +0.104 A  ATOM     10  C   UNL     1      36.101  48.365  28.101 -0.26 -0.02    +0.155 A  ATOM     11  C   UNL     1      34.920  48.209  28.829 -0.34 -0.01    +0.053 A  ATOM     12  C   UNL     1      36.843  47.227  27.745 -0.23 -0.04    +0.179 A  ATOM     13  C   UNL     1      34.491  46.932  29.194 -0.41 -0.01    +0.051 A  ATOM     14  C   UNL     1      35.234  45.811  28.831 -0.24 -0.03    +0.130 A  ATOM     15  F   UNL     1      37.971  47.405  27.039 -0.07 +0.02    -0.202 F  BRANCH  10  16ATOM     16  O   UNL     1      36.622  49.561  27.684 -0.07 -0.01    -0.494 OA ATOM     17  C   UNL     1      37.737  50.072  28.404 -0.13 +0.03    +0.278 C  ENDBRANCH  10  16BRANCH  14  18ATOM     18  O   UNL     1      34.724  44.605  29.232 -0.27 +0.13    -0.507 OA ATOM     19  H   UNL     1      35.480  43.988  29.372 -0.37 -0.13    +0.293 HD ENDBRANCH  14  18ENDBRANCH   7   9ENDBRANCH   1   7BRANCH   6  20ATOM     20  C   UNL     1      36.100  42.186  26.720 -0.29 -0.07    +0.336 C  ATOM     21  O   UNL     1      36.198  40.973  26.742 -0.40 +0.09    -0.246 OA BRANCH  20  22ATOM     22  O   UNL     1      35.265  42.829  27.558 -0.21 +0.13    -0.478 OA ATOM     23  H   UNL     1      35.781  42.903  28.388 -0.24 -0.15    +0.297 HD ENDBRANCH  20  22ENDBRANCH   6  20BRANCH   4  24ATOM     24  C   UNL     1      37.931  43.292  22.164 -0.34 +0.01    +0.120 C  BRANCH  24  25ATOM     25  N   UNL     1      38.496  44.382  21.347 -0.16 -0.01    -0.299 NA ATOM     26  C   UNL     1      38.070  44.283  19.942 -0.35 -0.00    +0.087 C  ATOM     27  C   UNL     1      39.961  44.387  21.459 -0.30 +0.00    +0.087 C  ATOM     28  C   UNL     1      38.602  45.462  19.123 -0.38 -0.00    +0.041 C  ATOM     29  C   UNL     1      40.566  45.570  20.706 -0.37 +0.00    +0.041 C  ATOM     30  C   UNL     1      40.127  45.556  19.239 -0.43 -0.00    +0.095 C  BRANCH  30  31ATOM     31  N   UNL     1      40.689  46.661  18.477 -0.29 +0.02    -0.291 N  ATOM     32  C   UNL     1      41.808  47.383  18.786 -0.25 +0.00    +0.295 A  ATOM     33  C   UNL     1      40.210  47.162  17.283 -0.44 -0.01    +0.072 A  ATOM     34  N   UNL     1      42.089  48.307  17.908 -0.54 -0.01    -0.195 NA ATOM     35  C   UNL     1      39.118  46.836  16.464 -0.42 -0.01    +0.029 A  ATOM     36  C   UNL     1      41.103  48.186  16.960 -0.44 -0.01    +0.092 A  ATOM     37  C   UNL     1      38.945  47.587  15.296 -0.50 -0.00    +0.002 A  ATOM     38  C   UNL     1      40.912  48.925  15.783 -0.59 -0.01    +0.031 A  ATOM     39  C   UNL     1      39.824  48.617  14.959 -0.56 -0.00    +0.002 A  BRANCH  32  40ATOM     40  O   UNL     1      42.559  47.193  19.851 -0.23 -0.07    -0.480 OA ATOM     41  H   UNL     1      42.954  48.076  19.966 -0.27 -0.02    +0.296 HD ENDBRANCH  32  40ENDBRANCH  30  31ENDBRANCH  24  25ENDBRANCH   4  24TORSDOF 10TERENDMDL