MODEL        8USER    Run = 8USERUSER    Estimated Free Energy of Binding    = -11.06 kcal/mol  [=(1)+(2)+(3)-(4)]USERUSER    (1) Final Intermolecular Energy     = -13.15 kcal/molUSER        vdW + Hbond + desolv Energy     = -13.11 kcal/molUSER        Electrostatic Energy            =  -0.04 kcal/molUSER        Moving Ligand-Fixed Receptor    = -13.15 kcal/molUSER        Moving Ligand-Moving Receptor   =  +0.00 kcal/molUSER    (2) Final Total Internal Energy     =  -2.87 kcal/molUSER    (3) Torsional Free Energy           =  +2.09 kcal/molUSER    (4) Unbound System's Energy         =  -2.87 kcal/molUSERUSERREMARK SMILES CS(=O)(=O)c1ccc(-c2cccnc2-c2ccc(CN3CCOC[C@@H]3n3c(O)nc4ccccc43)cc2)cc1REMARK SMILES IDX 15 1 16 2 17 3 18 4 36 5 37 6 14 7 9 8 10 9 11 10 13 11REMARK SMILES IDX 12 12 8 13 5 14 6 15 39 16 7 17 38 18 2 19 1 20 3 21 4 22REMARK SMILES IDX 19 23 20 24 21 25 25 26 22 27 24 28 23 29 26 30 27 31 35 32REMARK SMILES IDX 29 33 34 34 30 35 33 36 31 37 32 38 28 39REMARK H PARENT 28 40USER                              x       y       z     vdW  Elec       q    TypeUSER                           _______ _______ _______ _____ _____    ______ ____ROOTATOM      1  C   UNL     1      36.445  43.825  20.019 -0.41 -0.00    +0.001 A  ATOM      2  C   UNL     1      35.427  44.757  19.749 -0.25 -0.00    +0.011 A  ATOM      3  C   UNL     1      34.119  44.350  19.469 -0.40 -0.00    +0.006 A  ATOM      4  C   UNL     1      33.788  42.990  19.450 -0.39 +0.00    -0.034 A  ATOM      5  C   UNL     1      34.795  42.050  19.697 -0.28 -0.00    +0.006 A  ATOM      6  C   UNL     1      36.106  42.463  19.960 -0.42 -0.00    +0.011 A  ENDROOTBRANCH   1   7ATOM      7  C   UNL     1      37.814  44.285  20.338 -0.32 -0.00    +0.078 A  ATOM      8  C   UNL     1      38.413  44.185  21.612 -0.34 +0.00    +0.008 A  ATOM      9  C   UNL     1      39.732  44.658  21.738 -0.29 +0.00    +0.012 A  ATOM     10  C   UNL     1      40.398  45.206  20.648 -0.35 +0.00    +0.021 A  ATOM     11  N   UNL     1      38.463  44.834  19.270 -0.22 +0.02    -0.256 NA ATOM     12  C   UNL     1      39.727  45.273  19.446 -0.34 -0.00    +0.112 A  BRANCH   8  13ATOM     13  C   UNL     1      37.733  43.644  22.801 -0.35 -0.00    -0.016 A  ATOM     14  C   UNL     1      36.512  42.606  25.106 -0.34 -0.00    +0.067 A  ATOM     15  C   UNL     1      36.879  43.951  25.066 -0.33 +0.00    +0.021 A  ATOM     16  C   UNL     1      36.747  41.770  24.012 -0.39 +0.00    +0.021 A  ATOM     17  C   UNL     1      37.478  44.466  23.914 -0.31 +0.00    +0.010 A  ATOM     18  C   UNL     1      37.347  42.294  22.865 -0.45 +0.00    +0.010 A  BRANCH  14  19ATOM     19  S   UNL     1      35.796  41.943  26.589 -0.61 -0.04    +0.175 S  ATOM     20  C   UNL     1      37.208  41.449  27.541 -0.44 -0.04    +0.163 C  ATOM     21  O   UNL     1      35.058  40.750  26.219 -0.50 +0.11    -0.224 OA ATOM     22  O   UNL     1      35.142  43.033  27.289 -0.44 +0.05    -0.224 OA ENDBRANCH  14  19ENDBRANCH   8  13ENDBRANCH   1   7BRANCH   4  23ATOM     23  C   UNL     1      32.371  42.550  19.152 -0.35 -0.00    +0.122 C  BRANCH  23  24ATOM     24  N   UNL     1      32.209  42.059  17.774 -0.15 +0.07    -0.274 NA ATOM     25  C   UNL     1      31.386  40.834  17.693 -0.34 -0.02    +0.115 C  ATOM     26  C   UNL     1      31.634  43.123  16.903 -0.24 -0.06    +0.189 C  ATOM     27  C   UNL     1      29.902  41.116  17.413 -0.23 -0.02    +0.176 C  ATOM     28  C   UNL     1      30.810  42.556  15.724 -0.27 -0.11    +0.202 C  ATOM     29  O   UNL     1      29.690  41.758  16.150 -0.16 +0.14    -0.377 OA BRANCH  26  30ATOM     30  N   UNL     1      32.718  43.973  16.426 -0.15 +0.12    -0.275 N  ATOM     31  C   UNL     1      32.558  45.267  16.013 -0.11 -0.21    +0.296 A  ATOM     32  C   UNL     1      34.041  43.647  16.212 -0.29 -0.03    +0.073 A  ATOM     33  N   UNL     1      33.656  45.808  15.562 -0.11 +0.23    -0.195 NA ATOM     34  C   UNL     1      34.796  42.485  16.418 -0.40 -0.01    +0.029 A  ATOM     35  C   UNL     1      34.596  44.812  15.677 -0.26 -0.06    +0.093 A  ATOM     36  C   UNL     1      36.151  42.528  16.072 -0.40 -0.00    +0.002 A  ATOM     37  C   UNL     1      35.956  44.833  15.334 -0.33 -0.01    +0.031 A  ATOM     38  C   UNL     1      36.725  43.681  15.536 -0.31 -0.00    +0.002 A  BRANCH  31  39ATOM     39  O   UNL     1      31.418  45.926  16.039 -0.55 +0.22    -0.480 OA ATOM     40  H   UNL     1      31.727  46.846  15.940 -0.32 -0.36    +0.296 HD ENDBRANCH  31  39ENDBRANCH  26  30ENDBRANCH  23  24ENDBRANCH   4  23TORSDOF 7TERENDMDL