REMARK SMILES CS(=O)(=O)c1ccc(-c2cccnc2-c2ccc(CN3CCOC[C@@H]3n3c(O)nc4ccccc43)cc2)cc1
REMARK SMILES IDX 15 1 16 2 17 3 18 4 36 5 37 6 14 7 9 8 10 9 11 10 13 11
REMARK SMILES IDX 12 12 8 13 5 14 6 15 39 16 7 17 38 18 2 19 1 20 3 21 4 22
REMARK SMILES IDX 19 23 20 24 21 25 25 26 22 27 24 28 23 29 26 30 27 31 35 32
REMARK SMILES IDX 29 33 34 34 30 35 33 36 31 37 32 38 28 39
REMARK H PARENT 28 40
ROOT
ATOM      1  C   UNL     1       1.464  -1.594   0.870  1.00  0.00     0.001 A 
ATOM      2  C   UNL     1       0.191  -1.935   0.380  1.00  0.00     0.011 A 
ATOM      3  C   UNL     1      -0.796  -0.966   0.175  1.00  0.00     0.006 A 
ATOM      4  C   UNL     1      -0.538   0.381   0.456  1.00  0.00    -0.034 A 
ATOM      5  C   UNL     1       0.718   0.733   0.963  1.00  0.00     0.006 A 
ATOM      6  C   UNL     1       1.696  -0.244   1.182  1.00  0.00     0.011 A 
ENDROOT
BRANCH   1   7
ATOM      7  C   UNL     1       2.498  -2.636   1.053  1.00  0.00     0.078 A 
ATOM      8  C   UNL     1       3.827  -2.532   0.589  1.00  0.00     0.008 A 
ATOM      9  C   UNL     1       4.687  -3.611   0.863  1.00  0.00     0.012 A 
ATOM     10  C   UNL     1       4.229  -4.728   1.553  1.00  0.00     0.021 A 
ATOM     11  N   UNL     1       2.045  -3.737   1.720  1.00  0.00    -0.256 NA
ATOM     12  C   UNL     1       2.911  -4.744   1.956  1.00  0.00     0.112 A 
BRANCH   8  13
ATOM     13  C   UNL     1       4.345  -1.384  -0.175  1.00  0.00    -0.016 A 
ATOM     14  C   UNL     1       5.285   0.854  -1.585  1.00  0.00     0.067 A 
ATOM     15  C   UNL     1       5.826   0.548  -0.336  1.00  0.00     0.021 A 
ATOM     16  C   UNL     1       4.280   0.060  -2.140  1.00  0.00     0.021 A 
ATOM     17  C   UNL     1       5.363  -0.572   0.358  1.00  0.00     0.010 A 
ATOM     18  C   UNL     1       3.822  -1.057  -1.438  1.00  0.00     0.010 A 
BRANCH  14  19
ATOM     19  S   UNL     1       5.842   2.306  -2.442  1.00  0.00     0.175 S 
ATOM     20  C   UNL     1       7.312   1.756  -3.267  1.00  0.00     0.163 C 
ATOM     21  O   UNL     1       6.223   3.282  -1.438  1.00  0.00    -0.224 OA
ATOM     22  O   UNL     1       4.853   2.628  -3.453  1.00  0.00    -0.224 OA
ENDBRANCH  14  19
ENDBRANCH   8  13
ENDBRANCH   1   7
BRANCH   4  23
ATOM     23  C   UNL     1      -1.605   1.430   0.228  1.00  0.00     0.122 C 
BRANCH  23  24
ATOM     24  N   UNL     1      -2.750   1.278   1.140  1.00  0.00    -0.274 NA
ATOM     25  C   UNL     1      -2.424   1.637   2.537  1.00  0.00     0.115 C 
ATOM     26  C   UNL     1      -3.911   2.080   0.661  1.00  0.00     0.189 C 
ATOM     27  C   UNL     1      -2.765   3.094   2.885  1.00  0.00     0.176 C 
ATOM     28  C   UNL     1      -4.836   2.545   1.810  1.00  0.00     0.202 C 
ATOM     29  O   UNL     1      -4.165   3.376   2.775  1.00  0.00    -0.377 OA
BRANCH  26  30
ATOM     30  N   UNL     1      -4.648   1.295  -0.322  1.00  0.00    -0.275 N 
ATOM     31  C   UNL     1      -5.084   1.779  -1.524  1.00  0.00     0.296 A 
ATOM     32  C   UNL     1      -5.117   0.002  -0.218  1.00  0.00     0.073 A 
ATOM     33  N   UNL     1      -5.782   0.916  -2.209  1.00  0.00    -0.195 NA
ATOM     34  C   UNL     1      -5.014  -0.988   0.768  1.00  0.00     0.029 A 
ATOM     35  C   UNL     1      -5.815  -0.203  -1.411  1.00  0.00     0.093 A 
ATOM     36  C   UNL     1      -5.638  -2.215   0.515  1.00  0.00     0.002 A 
ATOM     37  C   UNL     1      -6.436  -1.439  -1.643  1.00  0.00     0.031 A 
ATOM     38  C   UNL     1      -6.340  -2.440  -0.669  1.00  0.00     0.002 A 
BRANCH  31  39
ATOM     39  O   UNL     1      -4.854   2.997  -1.969  1.00  0.00    -0.480 OA
ATOM     40  H   UNL     1      -5.316   2.976  -2.828  1.00  0.00     0.296 HD
ENDBRANCH  31  39
ENDBRANCH  26  30
ENDBRANCH  23  24
ENDBRANCH   4  23
TORSDOF 7
