MODEL        7USER    Run = 7USERUSER    Estimated Free Energy of Binding    =  -8.24 kcal/mol  [=(1)+(2)+(3)-(4)]USERUSER    (1) Final Intermolecular Energy     = -10.03 kcal/molUSER        vdW + Hbond + desolv Energy     =  -9.68 kcal/molUSER        Electrostatic Energy            =  -0.35 kcal/molUSER        Moving Ligand-Fixed Receptor    = -10.03 kcal/molUSER        Moving Ligand-Moving Receptor   =  +0.00 kcal/molUSER    (2) Final Total Internal Energy     =  -1.11 kcal/molUSER    (3) Torsional Free Energy           =  +1.79 kcal/molUSER    (4) Unbound System's Energy         =  -1.11 kcal/molUSERUSERREMARK SMILES COc1cc(C(=O)N2SC(=N)N[C@@H]2NC2CCOCC2)ccc1FREMARK SMILES IDX 6 1 7 2 5 3 3 4 4 5 23 6 22 7 21 8 24 9 2 10 1 11 8 12 9 13REMARK SMILES IDX 13 14 10 15 12 16 14 18 15 20 16 21 20 22 17 23 19 24 18 25REMARK SMILES IDX 11 26REMARK H PARENT 12 17 14 19 11 27USER                              x       y       z     vdW  Elec       q    TypeUSER                           _______ _______ _______ _____ _____    ______ ____ROOTATOM      1  C   UNL     1      38.065  44.978  17.531 -0.25 -0.06    +0.267 C  ATOM      2  O   UNL     1      38.594  44.133  18.252 -0.22 +0.03    -0.268 OA ENDROOTBRANCH   1   3ATOM      3  C   UNL     1      38.964  45.919  16.815 -0.37 -0.01    +0.044 A  ATOM      4  C   UNL     1      40.664  47.651  16.831 -0.42 -0.02    +0.155 A  ATOM      5  C   UNL     1      39.807  46.793  17.523 -0.42 -0.01    +0.063 A  ATOM      6  C   UNL     1      40.677  47.605  15.431 -0.37 -0.02    +0.165 A  ATOM      7  C   UNL     1      39.865  46.722  14.723 -0.40 -0.01    +0.044 A  ATOM      8  C   UNL     1      39.009  45.869  15.416 -0.35 -0.00    +0.017 A  ATOM      9  F   UNL     1      41.491  48.417  14.739 -0.12 +0.01    -0.203 F  BRANCH   4  10ATOM     10  O   UNL     1      41.519  48.553  17.404 -0.57 +0.00    -0.494 OA ATOM     11  C   UNL     1      42.412  48.066  18.397 -0.20 +0.00    +0.278 C  ENDBRANCH   4  10ENDBRANCH   1   3BRANCH   1  12ATOM     12  N   UNL     1      36.689  45.123  17.391 -0.18 +0.09    -0.240 N  ATOM     13  S   UNL     1      35.606  44.812  18.717 -0.50 -0.01    +0.032 SA ATOM     14  C   UNL     1      36.190  46.191  16.542 -0.24 -0.19    +0.267 C  ATOM     15  C   UNL     1      34.673  46.224  18.382 -0.36 -0.11    +0.177 C  ATOM     16  N   UNL     1      35.093  46.840  17.211 -0.11 +0.42    -0.330 N  ATOM     17  H   UNL     1      34.673  47.718  16.951 -0.20 -0.47    +0.166 HD BRANCH  14  18ATOM     18  N   UNL     1      35.546  45.651  15.366 -0.17 +0.19    -0.276 NA ATOM     19  H   UNL     1      34.549  45.646  15.568 +0.07 -0.12    +0.126 HD BRANCH  18  20ATOM     20  C   UNL     1      35.776  46.441  14.146 -0.47 -0.04    +0.062 C  ATOM     21  C   UNL     1      36.514  47.755  14.457 -0.45 -0.04    +0.047 C  ATOM     22  C   UNL     1      36.605  45.618  13.154 -0.55 -0.02    +0.047 C  ATOM     23  C   UNL     1      37.412  48.203  13.307 -0.31 -0.05    +0.161 C  ATOM     24  C   UNL     1      36.854  46.407  11.868 -0.59 -0.06    +0.161 C  ATOM     25  O   UNL     1      36.841  47.821  12.062 -0.98 +0.11    -0.381 OA ENDBRANCH  18  20ENDBRANCH  14  18BRANCH  15  26ATOM     26  N   UNL     1      33.726  46.703  19.088 -0.60 +0.17    -0.277 NA ATOM     27  H   UNL     1      33.519  46.020  19.821 -0.36 -0.13    +0.190 HD ENDBRANCH  15  26ENDBRANCH   1  12TORSDOF 6TERENDMDL