REMARK SMILES COc1cc(C(=O)N2SC(=N)N[C@@H]2NC2CCOCC2)ccc1F
REMARK SMILES IDX 6 1 7 2 5 3 3 4 4 5 23 6 22 7 21 8 24 9 2 10 1 11 8 12 9 13
REMARK SMILES IDX 13 14 10 15 12 16 14 18 15 20 16 21 20 22 17 23 19 24 18 25
REMARK SMILES IDX 11 26
REMARK H PARENT 12 17 14 19 11 27
ROOT
ATOM      1  C   UNL     1       0.469   0.975  -1.179  1.00  0.00     0.267 C 
ATOM      2  O   UNL     1      -0.301   0.900  -2.135  1.00  0.00    -0.268 OA
ENDROOT
BRANCH   1   3
ATOM      3  C   UNL     1       1.849   0.460  -1.376  1.00  0.00     0.044 A 
ATOM      4  C   UNL     1       3.727  -0.896  -0.653  1.00  0.00     0.155 A 
ATOM      5  C   UNL     1       2.439  -0.402  -0.436  1.00  0.00     0.063 A 
ATOM      6  C   UNL     1       4.399  -0.532  -1.827  1.00  0.00     0.165 A 
ATOM      7  C   UNL     1       3.810   0.300  -2.776  1.00  0.00     0.044 A 
ATOM      8  C   UNL     1       2.526   0.794  -2.555  1.00  0.00     0.017 A 
ATOM      9  F   UNL     1       5.637  -0.992  -2.063  1.00  0.00    -0.203 F 
BRANCH   4  10
ATOM     10  O   UNL     1       4.412  -1.729   0.190  1.00  0.00    -0.494 OA
ATOM     11  C   UNL     1       3.770  -2.102   1.402  1.00  0.00     0.278 C 
ENDBRANCH   4  10
ENDBRANCH   1   3
BRANCH   1  12
ATOM     12  N   UNL     1       0.106   1.467   0.070  1.00  0.00    -0.240 N 
ATOM     13  S   UNL     1       1.240   2.331   1.068  1.00  0.00     0.032 SA
ATOM     14  C   UNL     1      -1.244   1.973   0.247  1.00  0.00     0.267 C 
ATOM     15  C   UNL     1       0.072   3.529   1.486  1.00  0.00     0.177 C 
ATOM     16  N   UNL     1      -1.183   3.205   0.989  1.00  0.00    -0.330 N 
ATOM     17  H   UNL     1      -1.933   3.868   1.104  1.00  0.00     0.166 HD
BRANCH  14  18
ATOM     18  N   UNL     1      -1.995   1.122   1.143  1.00  0.00    -0.276 NA
ATOM     19  H   UNL     1      -2.793   1.671   1.451  1.00  0.00     0.126 HD
BRANCH  18  20
ATOM     20  C   UNL     1      -2.489  -0.114   0.514  1.00  0.00     0.062 C 
ATOM     21  C   UNL     1      -1.470  -1.259   0.646  1.00  0.00     0.047 C 
ATOM     22  C   UNL     1      -3.807  -0.532   1.177  1.00  0.00     0.047 C 
ATOM     23  C   UNL     1      -2.141  -2.627   0.737  1.00  0.00     0.161 C 
ATOM     24  C   UNL     1      -4.354  -1.809   0.539  1.00  0.00     0.161 C 
ATOM     25  O   UNL     1      -3.339  -2.637  -0.028  1.00  0.00    -0.381 OA
ENDBRANCH  18  20
ENDBRANCH  14  18
BRANCH  15  26
ATOM     26  N   UNL     1       0.275   4.603   2.142  1.00  0.00    -0.277 NA
ATOM     27  H   UNL     1       1.267   4.621   2.393  1.00  0.00     0.190 HD
ENDBRANCH  15  26
ENDBRANCH   1  12
TORSDOF 6
