MODEL        6USER    Run = 6USERUSER    Estimated Free Energy of Binding    =  -7.54 kcal/mol  [=(1)+(2)+(3)-(4)]USERUSER    (1) Final Intermolecular Energy     = -10.23 kcal/molUSER        vdW + Hbond + desolv Energy     = -10.08 kcal/molUSER        Electrostatic Energy            =  -0.15 kcal/molUSER        Moving Ligand-Fixed Receptor    = -10.23 kcal/molUSER        Moving Ligand-Moving Receptor   =  +0.00 kcal/molUSER    (2) Final Total Internal Energy     =  -2.59 kcal/molUSER    (3) Torsional Free Energy           =  +2.68 kcal/molUSER    (4) Unbound System's Energy         =  -2.59 kcal/molUSERUSERREMARK SMILES COc1c(O)ccc(C(=O)c2ccc(-c3cnc(N)nc3N3CCC[C@H]3CC(F)(F)F)c(F)c2)c1FREMARK SMILES IDX 11 1 12 2 13 3 14 4 32 5 33 6 34 7 9 8 10 9 8 10 3 11 4 12REMARK SMILES IDX 35 13 6 14 7 15 36 16 2 17 1 18 5 19 15 21 16 22 21 23 17 24REMARK SMILES IDX 20 25 18 26 22 27 23 28 26 29 24 30 25 31 27 32 28 33 29 34REMARK SMILES IDX 30 35 31 36 19 37REMARK H PARENT 5 20 19 38 19 39USER                              x       y       z     vdW  Elec       q    TypeUSER                           _______ _______ _______ _____ _____    ______ ____ROOTATOM      1  C   UNL     1      34.266  44.222  18.942 -0.37 -0.01    +0.026 A  ATOM      2  C   UNL     1      34.234  45.442  18.258 -0.43 -0.01    +0.013 A  ATOM      3  C   UNL     1      35.430  46.076  17.900 -0.34 -0.01    +0.013 A  ATOM      4  C   UNL     1      36.674  45.510  18.229 -0.24 -0.01    +0.023 A  ATOM      5  C   UNL     1      36.676  44.305  18.945 -0.27 -0.02    +0.131 A  ATOM      6  F   UNL     1      37.836  43.748  19.323 -0.06 +0.02    -0.206 F  ATOM      7  C   UNL     1      35.493  43.664  19.305 -0.35 -0.01    +0.052 A  ENDROOTBRANCH   1   8ATOM      8  C   UNL     1      33.023  43.522  19.355 -0.35 -0.01    +0.196 C  ATOM      9  O   UNL     1      32.663  43.590  20.527 -0.81 -0.05    -0.288 OA BRANCH   8  10ATOM     10  C   UNL     1      32.182  42.772  18.398 -0.29 -0.01    +0.062 A  ATOM     11  C   UNL     1      30.680  42.663  16.506 -0.18 -0.07    +0.197 A  ATOM     12  C   UNL     1      30.640  41.271  16.618 -0.20 -0.05    +0.160 A  ATOM     13  C   UNL     1      31.466  43.409  17.385 -0.17 -0.04    +0.180 A  ATOM     14  C   UNL     1      31.375  40.620  17.607 -0.34 -0.01    +0.051 A  ATOM     15  C   UNL     1      32.152  41.371  18.494 -0.37 -0.00    +0.019 A  ATOM     16  F   UNL     1      31.531  44.741  17.236 -0.03 +0.03    -0.202 F  BRANCH  11  17ATOM     17  O   UNL     1      30.017  43.294  15.484 -0.07 +0.32    -0.490 OA ATOM     18  C   UNL     1      30.938  44.035  14.686 -0.18 -0.20    +0.278 C  ENDBRANCH  11  17BRANCH  12  19ATOM     19  O   UNL     1      29.867  40.553  15.748 -0.21 +0.11    -0.504 OA ATOM     20  H   UNL     1      29.466  41.156  15.098 +0.16 -0.13    +0.293 HD ENDBRANCH  12  19ENDBRANCH   8  10ENDBRANCH   1   8BRANCH   4  21ATOM     21  C   UNL     1      37.921  46.168  17.831 -0.22 -0.01    +0.046 A  ATOM     22  C   UNL     1      39.043  46.143  18.640 -0.22 -0.02    +0.127 A  ATOM     23  C   UNL     1      38.087  46.878  16.640 -0.27 -0.06    +0.142 A  ATOM     24  N   UNL     1      40.210  46.747  18.350 -0.31 +0.02    -0.221 NA ATOM     25  N   UNL     1      39.245  47.498  16.327 -0.32 +0.07    -0.195 NA ATOM     26  C   UNL     1      40.262  47.388  17.184 -0.33 -0.04    +0.221 A  BRANCH  23  27ATOM     27  N   UNL     1      36.993  47.005  15.758 -0.16 +0.25    -0.353 N  ATOM     28  C   UNL     1      37.140  48.261  14.979 -0.46 -0.10    +0.118 C  ATOM     29  C   UNL     1      36.768  45.885  14.791 -0.39 -0.05    +0.092 C  ATOM     30  C   UNL     1      36.843  47.884  13.531 -0.64 -0.01    +0.024 C  ATOM     31  C   UNL     1      37.274  46.430  13.454 -0.55 -0.01    +0.027 C  BRANCH  29  32ATOM     32  C   UNL     1      37.307  44.515  15.192 -0.23 -0.05    +0.140 C  BRANCH  32  33ATOM     33  C   UNL     1      36.191  43.547  15.498 -0.18 -0.14    +0.391 C  ATOM     34  F   UNL     1      36.333  42.988  16.720 -0.12 +0.05    -0.171 F  ATOM     35  F   UNL     1      36.171  42.543  14.592 +0.09 +0.05    -0.171 F  ATOM     36  F   UNL     1      34.981  44.146  15.457 -0.08 +0.08    -0.171 F  ENDBRANCH  32  33ENDBRANCH  29  32ENDBRANCH  23  27BRANCH  26  37ATOM     37  N   UNL     1      41.436  48.032  16.860 -0.22 +0.03    -0.368 N  ATOM     38  H   UNL     1      42.225  47.497  17.194 -0.47 -0.04    +0.159 HD ATOM     39  H   UNL     1      41.379  49.002  17.135 +0.09 -0.00    +0.159 HD ENDBRANCH  26  37ENDBRANCH   4  21TORSDOF 9TERENDMDL