MODEL        8USER    Run = 8USERUSER    Estimated Free Energy of Binding    = -10.80 kcal/mol  [=(1)+(2)+(3)-(4)]USERUSER    (1) Final Intermolecular Energy     = -12.88 kcal/molUSER        vdW + Hbond + desolv Energy     = -12.93 kcal/molUSER        Electrostatic Energy            =  +0.05 kcal/molUSER        Moving Ligand-Fixed Receptor    = -12.88 kcal/molUSER        Moving Ligand-Moving Receptor   =  +0.00 kcal/molUSER    (2) Final Total Internal Energy     =  -3.20 kcal/molUSER    (3) Torsional Free Energy           =  +2.09 kcal/molUSER    (4) Unbound System's Energy         =  -3.20 kcal/molUSERUSERREMARK SMILES Oc1nc2ccccc2n1C1CCN(Cc2ccc(-c3nc4ccc(F)cc4nc3-c3ccc(N4CCOCC4)cc3)cc2)CC1REMARK SMILES IDX 15 1 14 2 11 3 12 4 46 5 13 6 45 7 10 8 2 9 3 10 4 11 9 12REMARK SMILES IDX 5 13 8 14 6 15 7 16 1 17 16 19 17 20 44 21 18 22 43 23 19 24REMARK SMILES IDX 20 25 21 26 30 27 22 28 29 29 23 30 28 31 24 32 27 33 25 34REMARK SMILES IDX 26 35 31 36 32 37 42 38 33 39 41 40 34 41 35 42 36 43 40 44REMARK SMILES IDX 37 45 39 46 38 47REMARK H PARENT 1 18USER                              x       y       z     vdW  Elec       q    TypeUSER                           _______ _______ _______ _____ _____    ______ ____ROOTATOM      1  C   UNL     1      44.857  46.424  22.820 -0.19 +0.06    +0.120 C  ENDROOTBRANCH   1   2ATOM      2  N   UNL     1      44.678  47.411  23.896 -0.08 -0.07    -0.299 NA ATOM      3  C   UNL     1      41.929  47.325  24.853 -0.16 +0.01    +0.095 C  ATOM      4  C   UNL     1      42.570  48.673  24.499 -0.38 +0.01    +0.041 C  ATOM      5  C   UNL     1      42.964  46.302  25.352 -0.07 +0.00    +0.041 C  ATOM      6  C   UNL     1      43.717  48.457  23.509 -0.31 +0.02    +0.087 C  ATOM      7  C   UNL     1      44.395  46.819  25.209 -0.06 +0.01    +0.087 C  BRANCH   3   8ATOM      8  N   UNL     1      40.792  47.468  25.750 -0.07 -0.02    -0.291 N  ATOM      9  C   UNL     1      40.747  47.105  27.067 -0.05 +0.03    +0.295 A  ATOM     10  N   UNL     1      39.602  47.364  27.636 -0.34 -0.00    -0.195 NA ATOM     11  C   UNL     1      38.846  47.928  26.638 -0.22 +0.00    +0.092 A  ATOM     12  C   UNL     1      39.561  48.005  25.440 -0.24 +0.01    +0.072 A  ATOM     13  C   UNL     1      37.526  48.400  26.685 -0.31 -0.00    +0.031 A  ATOM     14  C   UNL     1      39.006  48.542  24.269 -0.36 +0.00    +0.029 A  ATOM     15  C   UNL     1      36.956  48.938  25.525 -0.47 +0.00    +0.002 A  ATOM     16  C   UNL     1      37.687  49.006  24.339 -0.30 +0.00    +0.002 A  BRANCH   9  17ATOM     17  O   UNL     1      41.739  46.542  27.725 -0.54 -0.07    -0.480 OA ATOM     18  H   UNL     1      42.169  47.321  28.124 +0.05 +0.03    +0.296 HD ENDBRANCH   9  17ENDBRANCH   3   8ENDBRANCH   1   2BRANCH   1  19ATOM     19  C   UNL     1      43.655  46.277  21.913 -0.26 -0.02    -0.034 A  ATOM     20  C   UNL     1      43.455  47.154  20.842 -0.33 +0.00    +0.006 A  ATOM     21  C   UNL     1      42.727  45.250  22.126 -0.23 +0.00    +0.006 A  ATOM     22  C   UNL     1      42.349  47.000  19.998 -0.41 +0.00    +0.011 A  ATOM     23  C   UNL     1      41.623  45.100  21.280 -0.30 +0.00    +0.011 A  ATOM     24  C   UNL     1      41.422  45.963  20.190 -0.39 +0.00    +0.002 A  BRANCH  24  25ATOM     25  C   UNL     1      40.270  45.816  19.282 -0.37 -0.00    +0.097 A  ATOM     26  N   UNL     1      40.561  46.095  17.978 -0.30 +0.02    -0.244 NA ATOM     27  C   UNL     1      38.973  45.444  19.671 -0.31 -0.00    +0.097 A  ATOM     28  C   UNL     1      39.558  46.035  17.088 -0.37 -0.02    +0.090 A  ATOM     29  N   UNL     1      37.955  45.397  18.763 -0.21 +0.04    -0.244 NA ATOM     30  C   UNL     1      39.811  46.322  15.753 -0.41 -0.01    +0.033 A  ATOM     31  C   UNL     1      38.244  45.689  17.484 -0.33 -0.02    +0.092 A  ATOM     32  C   UNL     1      38.794  46.273  14.799 -0.39 -0.01    +0.041 A  ATOM     33  C   UNL     1      37.238  45.644  16.532 -0.31 -0.03    +0.069 A  ATOM     34  C   UNL     1      37.513  45.933  15.202 -0.29 -0.05    +0.125 A  ATOM     35  F   UNL     1      36.529  45.882  14.297 -0.07 +0.10    -0.207 F  BRANCH  27  36ATOM     36  C   UNL     1      38.575  45.045  21.033 -0.33 +0.00    +0.003 A  ATOM     37  C   UNL     1      37.965  43.807  21.267 -0.35 +0.00    +0.012 A  ATOM     38  C   UNL     1      38.800  45.863  22.145 -0.29 +0.00    +0.012 A  ATOM     39  C   UNL     1      37.571  43.419  22.557 -0.36 +0.00    +0.026 A  ATOM     40  C   UNL     1      38.398  45.471  23.432 -0.30 +0.00    +0.026 A  ATOM     41  C   UNL     1      37.773  44.240  23.676 -0.30 +0.00    +0.037 A  BRANCH  41  42ATOM     42  N   UNL     1      37.373  43.859  24.943 -0.11 -0.01    -0.367 N  ATOM     43  C   UNL     1      36.600  42.631  25.183 -0.36 -0.00    +0.145 C  ATOM     44  C   UNL     1      37.591  44.716  26.120 -0.26 -0.01    +0.145 C  ATOM     45  C   UNL     1      36.778  42.172  26.641 -0.36 -0.03    +0.181 C  ATOM     46  C   UNL     1      36.471  44.493  27.152 -0.34 -0.04    +0.181 C  ATOM     47  O   UNL     1      36.365  43.139  27.615 -0.20 +0.10    -0.378 OA ENDBRANCH  41  42ENDBRANCH  27  36ENDBRANCH  24  25ENDBRANCH   1  19TORSDOF 7TERENDMDL