MODEL        5USER    Run = 5USERUSER    Estimated Free Energy of Binding    =  -9.86 kcal/mol  [=(1)+(2)+(3)-(4)]USERUSER    (1) Final Intermolecular Energy     = -11.65 kcal/molUSER        vdW + Hbond + desolv Energy     = -11.58 kcal/molUSER        Electrostatic Energy            =  -0.07 kcal/molUSER        Moving Ligand-Fixed Receptor    = -11.65 kcal/molUSER        Moving Ligand-Moving Receptor   =  +0.00 kcal/molUSER    (2) Final Total Internal Energy     =  -1.70 kcal/molUSER    (3) Torsional Free Energy           =  +1.79 kcal/molUSER    (4) Unbound System's Energy         =  -1.70 kcal/molUSERUSERREMARK SMILES CC(=O)N[C@@H]1CCN(C(=O)c2ccc(C(=O)Nc3cccc(N4CCN(C)CC4)c3F)cc2)C1REMARK SMILES IDX 11 1 12 2 13 3 14 4 32 5 33 6 9 7 10 8 8 9 5 10 6 11 34 12REMARK SMILES IDX 7 13 4 14 2 15 1 16 3 17 15 19 17 20 16 21 18 23 19 24 30 25REMARK SMILES IDX 20 26 22 27 21 28 31 29 23 30 24 31 29 32 25 33 28 34 26 35REMARK SMILES IDX 27 36REMARK H PARENT 4 18 17 22USER                              x       y       z     vdW  Elec       q    TypeUSER                           _______ _______ _______ _____ _____    ______ ____ROOTATOM      1  C   UNL     1      39.953  47.127  17.096 -0.46 -0.01    +0.040 A  ATOM      2  C   UNL     1      41.002  46.908  17.996 -0.52 -0.00    +0.014 A  ATOM      3  C   UNL     1      40.811  46.070  19.097 -0.45 +0.00    +0.014 A  ATOM      4  C   UNL     1      39.576  45.431  19.286 -0.39 -0.00    +0.040 A  ATOM      5  C   UNL     1      38.532  45.653  18.376 -0.37 -0.00    +0.014 A  ATOM      6  C   UNL     1      38.722  46.490  17.274 -0.39 -0.00    +0.014 A  ENDROOTBRANCH   1   7ATOM      7  C   UNL     1      40.195  47.997  15.927 -0.41 -0.06    +0.253 C  ATOM      8  O   UNL     1      41.178  48.732  15.949 -0.72 +0.02    -0.269 OA BRANCH   7   9ATOM      9  N   UNL     1      39.287  47.971  14.888 -0.24 +0.12    -0.337 N  ATOM     10  C   UNL     1      37.083  48.149  14.056 -0.54 -0.06    +0.103 C  ATOM     11  C   UNL     1      37.927  47.363  13.050 -0.51 -0.01    +0.048 C  ATOM     12  C   UNL     1      38.155  48.888  14.863 -0.36 -0.10    +0.144 C  ATOM     13  C   UNL     1      39.144  46.939  13.866 -0.20 -0.02    +0.122 C  BRANCH  10  14ATOM     14  N   UNL     1      36.294  47.256  14.901 -0.14 +0.31    -0.352 N  ATOM     15  C   UNL     1      35.405  46.356  14.362 -0.31 -0.17    +0.217 C  ATOM     16  C   UNL     1      34.738  45.468  15.377 -0.32 -0.09    +0.114 C  ATOM     17  O   UNL     1      35.182  46.261  13.161 -0.38 +0.18    -0.275 OA ATOM     18  H   UNL     1      36.550  47.177  15.879 +0.11 -0.15    +0.163 HD ENDBRANCH  10  14ENDBRANCH   7   9ENDBRANCH   1   7BRANCH   4  19ATOM     19  C   UNL     1      39.323  44.528  20.448 -0.23 +0.00    +0.255 C  ATOM     20  N   UNL     1      38.014  44.125  20.602 -0.16 +0.00    -0.319 N  ATOM     21  O   UNL     1      40.267  44.241  21.174 -0.18 -0.01    -0.269 OA ATOM     22  H   UNL     1      37.308  44.530  19.996 +0.11 -0.01    +0.170 HD BRANCH  20  23ATOM     23  C   UNL     1      37.490  43.236  21.570 -0.34 +0.00    +0.079 A  ATOM     24  C   UNL     1      36.843  42.045  21.271 -0.48 +0.00    +0.029 A  ATOM     25  C   UNL     1      37.629  43.614  22.918 -0.26 +0.01    +0.169 A  ATOM     26  C   UNL     1      36.336  41.259  22.305 -0.51 +0.00    +0.005 A  ATOM     27  C   UNL     1      37.147  42.836  23.996 -0.34 +0.01    +0.075 A  ATOM     28  C   UNL     1      36.480  41.655  23.642 -0.37 +0.00    +0.029 A  ATOM     29  F   UNL     1      38.217  44.802  23.163 -0.08 -0.02    -0.202 F  BRANCH  27  30ATOM     30  N   UNL     1      37.291  43.257  25.320 -0.10 +0.00    -0.367 N  ATOM     31  C   UNL     1      38.138  42.420  26.205 -0.27 -0.01    +0.132 C  ATOM     32  C   UNL     1      36.177  43.883  26.060 -0.35 -0.01    +0.132 C  ATOM     33  C   UNL     1      37.279  41.387  26.976 -0.45 -0.02    +0.105 C  ATOM     34  C   UNL     1      35.351  42.838  26.846 -0.49 -0.02    +0.105 C  ATOM     35  N   UNL     1      36.187  42.019  27.752 -0.24 +0.11    -0.303 NA ATOM     36  C   UNL     1      35.382  41.007  28.430 -0.21 -0.06    +0.105 C  ENDBRANCH  27  30ENDBRANCH  20  23ENDBRANCH   4  19TORSDOF 6TERENDMDL