MODEL        1USER    Run = 1USERUSER    Estimated Free Energy of Binding    =  -9.21 kcal/mol  [=(1)+(2)+(3)-(4)]USERUSER    (1) Final Intermolecular Energy     = -10.70 kcal/molUSER        vdW + Hbond + desolv Energy     = -10.59 kcal/molUSER        Electrostatic Energy            =  -0.12 kcal/molUSER        Moving Ligand-Fixed Receptor    = -10.70 kcal/molUSER        Moving Ligand-Moving Receptor   =  +0.00 kcal/molUSER    (2) Final Total Internal Energy     =  -0.98 kcal/molUSER    (3) Torsional Free Energy           =  +1.49 kcal/molUSER    (4) Unbound System's Energy         =  -0.98 kcal/molUSERUSERREMARK SMILES COc1cc(-c2ccnc(NC(=O)CF)c2)cc(-c2ccccc2)c1CREMARK SMILES IDX 6 1 7 2 8 3 9 4 10 5 16 6 5 7 3 8 4 9 25 10 18 11 17 12REMARK SMILES IDX 26 13 2 14 1 15 19 16 20 17 24 18 21 19 23 20 22 21 11 22REMARK SMILES IDX 12 23 13 25 14 26 15 27REMARK H PARENT 11 24USER                              x       y       z     vdW  Elec       q    TypeUSER                           _______ _______ _______ _____ _____    ______ ____ROOTATOM      1  C   UNL     1      37.694  47.113  14.069 -0.47 +0.01    -0.013 A  ATOM      2  C   UNL     1      37.975  47.187  12.704 -0.31 -0.00    +0.029 A  ATOM      3  C   UNL     1      36.950  46.957  11.804 -0.56 -0.04    +0.114 A  ATOM      4  N   UNL     1      35.684  46.669  12.169 -0.43 +0.14    -0.239 NA ATOM      5  C   UNL     1      35.406  46.602  13.478 -0.40 -0.09    +0.133 A  ATOM      6  C   UNL     1      36.379  46.814  14.452 -0.39 -0.04    +0.056 A  ENDROOTBRANCH   1   7ATOM      7  C   UNL     1      38.743  47.344  15.074 -0.47 +0.01    -0.014 A  ATOM      8  C   UNL     1      40.674  48.610  15.875 -0.49 -0.02    +0.123 A  ATOM      9  C   UNL     1      39.671  48.386  14.924 -0.51 -0.02    +0.055 A  ATOM     10  C   UNL     1      40.779  47.767  17.001 -0.54 +0.00    -0.001 A  ATOM     11  C   UNL     1      39.833  46.730  17.188 -0.47 +0.00    -0.011 A  ATOM     12  C   UNL     1      38.837  46.534  16.214 -0.41 -0.01    +0.018 A  ATOM     13  C   UNL     1      41.863  48.015  18.025 -0.46 -0.00    +0.049 C  BRANCH   8  14ATOM     14  O   UNL     1      41.597  49.621  15.795 -0.80 +0.00    -0.496 OA ATOM     15  C   UNL     1      41.814  50.226  14.526 -0.50 -0.06    +0.278 C  ENDBRANCH   8  14BRANCH  11  16ATOM     16  C   UNL     1      39.842  45.850  18.365 -0.44 +0.00    -0.018 A  ATOM     17  C   UNL     1      38.663  45.600  19.084 -0.32 -0.00    +0.009 A  ATOM     18  C   UNL     1      41.028  45.228  18.788 -0.45 +0.00    +0.009 A  ATOM     19  C   UNL     1      38.670  44.756  20.198 -0.37 -0.00    +0.001 A  ATOM     20  C   UNL     1      41.035  44.385  19.901 -0.38 +0.00    +0.001 A  ATOM     21  C   UNL     1      39.856  44.150  20.606 -0.21 +0.00    +0.000 A  ENDBRANCH  11  16ENDBRANCH   1   7BRANCH   5  22ATOM     22  N   UNL     1      34.111  46.315  13.919 -0.16 +0.29    -0.308 N  ATOM     23  C   UNL     1      33.776  45.527  15.003 -0.13 -0.23    +0.256 C  ATOM     24  H   UNL     1      33.335  46.711  13.401 -0.36 -0.17    +0.171 HD ATOM     25  O   UNL     1      34.529  44.944  15.776 -0.21 +0.18    -0.272 OA BRANCH  23  26ATOM     26  C   UNL     1      32.271  45.435  15.173 -0.22 -0.24    +0.314 C  ATOM     27  F   UNL     1      31.604  46.183  14.240 -0.14 +0.17    -0.240 F  ENDBRANCH  23  26ENDBRANCH   5  22TORSDOF 5TERENDMDL