REMARK SMILES Cc1cc(-c2nc3cc(F)ccc3n3ccnc23)ccc1C(=O)O
REMARK SMILES IDX 1 1 2 2 3 3 4 4 19 5 20 6 21 7 22 8 23 9 24 10 5 12 6 13
REMARK SMILES IDX 18 14 7 15 17 16 14 17 8 18 13 19 16 20 15 21 9 22 12 23
REMARK SMILES IDX 11 24 10 25
REMARK H PARENT 24 11
ROOT
ATOM      1  C   UNL     1      -4.180  -1.350  -1.006  1.00  0.00     0.045 C 
ATOM      2  C   UNL     1      -3.267  -0.375  -0.311  1.00  0.00    -0.036 A 
ATOM      3  C   UNL     1      -1.873  -0.572  -0.422  1.00  0.00     0.014 A 
ATOM      4  C   UNL     1      -0.962   0.288   0.203  1.00  0.00     0.004 A 
ATOM      5  C   UNL     1      -1.452   1.377   0.932  1.00  0.00     0.011 A 
ATOM      6  C   UNL     1      -2.829   1.588   1.050  1.00  0.00     0.016 A 
ATOM      7  C   UNL     1      -3.749   0.720   0.436  1.00  0.00     0.062 A 
ENDROOT
BRANCH   7   8
ATOM      8  C   UNL     1      -5.213   0.984   0.577  1.00  0.00     0.335 C 
ATOM      9  O   UNL     1      -6.125   0.421   0.002  1.00  0.00    -0.246 OA
BRANCH   8  10
ATOM     10  O   UNL     1      -5.478   1.963   1.463  1.00  0.00    -0.478 OA
ATOM     11  H   UNL     1      -6.457   2.019   1.458  1.00  0.00     0.297 HD
ENDBRANCH   8  10
ENDBRANCH   7   8
BRANCH   4  12
ATOM     12  C   UNL     1       0.519   0.113   0.093  1.00  0.00     0.114 A 
ATOM     13  N   UNL     1       1.284   1.169   0.195  1.00  0.00    -0.242 NA
ATOM     14  C   UNL     1       1.117  -1.191  -0.108  1.00  0.00     0.163 A 
ATOM     15  C   UNL     1       2.687   1.033   0.088  1.00  0.00     0.091 A 
ATOM     16  N   UNL     1       0.521  -2.365  -0.188  1.00  0.00    -0.235 NA
ATOM     17  N   UNL     1       2.482  -1.318  -0.208  1.00  0.00    -0.296 N 
ATOM     18  C   UNL     1       3.473   2.179   0.190  1.00  0.00     0.069 A 
ATOM     19  C   UNL     1       3.329  -0.204  -0.118  1.00  0.00     0.073 A 
ATOM     20  C   UNL     1       1.534  -3.272  -0.366  1.00  0.00     0.132 A 
ATOM     21  C   UNL     1       2.760  -2.646  -0.386  1.00  0.00     0.113 A 
ATOM     22  C   UNL     1       4.858   2.081   0.088  1.00  0.00     0.125 A 
ATOM     23  C   UNL     1       4.719  -0.307  -0.220  1.00  0.00     0.032 A 
ATOM     24  C   UNL     1       5.485   0.853  -0.115  1.00  0.00     0.041 A 
ATOM     25  F   UNL     1       5.605   3.188   0.188  1.00  0.00    -0.207 F 
ENDBRANCH   4  12
TORSDOF 3
