REMARK SMILES COc1cc(-c2ccnc(NC(=O)CF)c2)cc(-c2ccccc2)c1C
REMARK SMILES IDX 6 1 7 2 8 3 9 4 10 5 16 6 5 7 3 8 4 9 25 10 18 11 17 12
REMARK SMILES IDX 26 13 2 14 1 15 19 16 20 17 24 18 21 19 23 20 22 21 11 22
REMARK SMILES IDX 12 23 13 25 14 26 15 27
REMARK H PARENT 11 24
ROOT
ATOM      1  C   UNL     1       1.582   0.466   0.540  1.00  0.00    -0.013 A 
ATOM      2  C   UNL     1       1.905   1.599   1.288  1.00  0.00     0.029 A 
ATOM      3  C   UNL     1       3.220   2.029   1.304  1.00  0.00     0.114 A 
ATOM      4  N   UNL     1       4.216   1.418   0.631  1.00  0.00    -0.239 NA
ATOM      5  C   UNL     1       3.912   0.332  -0.094  1.00  0.00     0.133 A 
ATOM      6  C   UNL     1       2.615  -0.172  -0.162  1.00  0.00     0.056 A 
ENDROOT
BRANCH   1   7
ATOM      7  C   UNL     1       0.203  -0.042   0.487  1.00  0.00    -0.014 A 
ATOM      8  C   UNL     1      -1.408  -1.847   0.830  1.00  0.00     0.123 A 
ATOM      9  C   UNL     1      -0.098  -1.355   0.880  1.00  0.00     0.055 A 
ATOM     10  C   UNL     1      -2.453  -1.025   0.357  1.00  0.00    -0.001 A 
ATOM     11  C   UNL     1      -2.175   0.312  -0.014  1.00  0.00    -0.011 A 
ATOM     12  C   UNL     1      -0.848   0.775   0.051  1.00  0.00     0.018 A 
ATOM     13  C   UNL     1      -3.865  -1.562   0.307  1.00  0.00     0.049 C 
BRANCH   8  14
ATOM     14  O   UNL     1      -1.770  -3.112   1.218  1.00  0.00    -0.496 OA
ATOM     15  C   UNL     1      -0.766  -3.948   1.780  1.00  0.00     0.278 C 
ENDBRANCH   8  14
BRANCH  11  16
ATOM     16  C   UNL     1      -3.220   1.246  -0.459  1.00  0.00    -0.018 A 
ATOM     17  C   UNL     1      -4.095   1.838   0.465  1.00  0.00     0.009 A 
ATOM     18  C   UNL     1      -3.355   1.578  -1.816  1.00  0.00     0.009 A 
ATOM     19  C   UNL     1      -5.082   2.732   0.043  1.00  0.00     0.001 A 
ATOM     20  C   UNL     1      -4.342   2.472  -2.238  1.00  0.00     0.001 A 
ATOM     21  C   UNL     1      -5.205   3.048  -1.308  1.00  0.00     0.000 A 
ENDBRANCH  11  16
ENDBRANCH   1   7
BRANCH   5  22
ATOM     22  N   UNL     1       4.899  -0.340  -0.820  1.00  0.00    -0.308 N 
ATOM     23  C   UNL     1       6.237  -0.000  -0.882  1.00  0.00     0.256 C 
ATOM     24  H   UNL     1       4.621  -1.151  -1.360  1.00  0.00     0.171 HD
ATOM     25  O   UNL     1       6.808   0.930  -0.323  1.00  0.00    -0.272 OA
BRANCH  23  26
ATOM     26  C   UNL     1       7.007  -0.954  -1.776  1.00  0.00     0.314 C 
ATOM     27  F   UNL     1       6.200  -1.930  -2.297  1.00  0.00    -0.240 F 
ENDBRANCH  23  26
ENDBRANCH   5  22
TORSDOF 5
