MODEL        9USER    Run = 9USERUSER    Estimated Free Energy of Binding    =  -8.40 kcal/mol  [=(1)+(2)+(3)-(4)]USERUSER    (1) Final Intermolecular Energy     = -10.49 kcal/molUSER        vdW + Hbond + desolv Energy     = -10.26 kcal/molUSER        Electrostatic Energy            =  -0.23 kcal/molUSER        Moving Ligand-Fixed Receptor    = -10.49 kcal/molUSER        Moving Ligand-Moving Receptor   =  +0.00 kcal/molUSER    (2) Final Total Internal Energy     =  -1.05 kcal/molUSER    (3) Torsional Free Energy           =  +2.09 kcal/molUSER    (4) Unbound System's Energy         =  -1.05 kcal/molUSERUSERREMARK SMILES CCC[C@H](C)NC(=O)c1ccc(-c2ccc(OC)c(F)c2)cc1C#NREMARK SMILES IDX 6 1 7 2 8 3 4 5 5 6 3 7 2 8 1 9 9 10 10 11 23 12 11 13 22 14REMARK SMILES IDX 12 15 24 16 25 17 13 18 14 19 21 20 15 21 19 22 16 23 20 24REMARK SMILES IDX 17 25 18 26REMARK H PARENT 6 4USER                              x       y       z     vdW  Elec       q    TypeUSER                           _______ _______ _______ _____ _____    ______ ____ROOTATOM      1  N   UNL     1      33.225  42.166  17.783 -0.14 +0.11    -0.350 N  ATOM      2  C   UNL     1      33.682  43.066  18.724 -0.25 -0.04    +0.252 C  ATOM      3  O   UNL     1      33.226  43.189  19.851 -0.85 -0.02    -0.269 OA ATOM      4  H   UNL     1      33.534  42.271  16.825 -0.00 -0.08    +0.164 HD ENDROOTBRANCH   1   5ATOM      5  C   UNL     1      32.036  41.353  18.024 -0.38 -0.02    +0.079 C  ATOM      6  C   UNL     1      30.940  41.725  17.026 -0.35 -0.01    +0.031 C  BRANCH   5   7ATOM      7  C   UNL     1      32.421  39.865  17.953 -0.51 -0.00    +0.024 C  BRANCH   7   8ATOM      8  C   UNL     1      31.642  38.929  18.881 -0.53 -0.00    -0.001 C  ATOM      9  C   UNL     1      32.102  37.481  18.810 -0.62 +0.00    +0.004 C  ENDBRANCH   7   8ENDBRANCH   5   7ENDBRANCH   1   5BRANCH   2  10ATOM     10  C   UNL     1      34.805  43.926  18.286 -0.29 -0.02    +0.057 A  ATOM     11  C   UNL     1      36.092  43.653  18.767 -0.33 -0.00    +0.016 A  ATOM     12  C   UNL     1      34.590  45.015  17.436 -0.29 -0.03    +0.065 A  ATOM     13  C   UNL     1      37.167  44.466  18.394 -0.34 -0.00    +0.009 A  ATOM     14  C   UNL     1      35.682  45.823  17.069 -0.34 -0.02    +0.029 A  ATOM     15  C   UNL     1      36.982  45.564  17.539 -0.34 +0.01    -0.017 A  BRANCH  12  16ATOM     16  C   UNL     1      33.303  45.314  16.877 -0.31 -0.07    +0.100 C  ATOM     17  N   UNL     1      32.228  45.494  16.477 -0.56 +0.11    -0.192 NA ENDBRANCH  12  16BRANCH  15  18ATOM     18  C   UNL     1      38.114  46.420  17.147 -0.36 +0.01    -0.015 A  ATOM     19  C   UNL     1      38.013  47.311  16.064 -0.41 -0.01    +0.013 A  ATOM     20  C   UNL     1      39.331  46.372  17.840 -0.39 -0.01    +0.052 A  ATOM     21  C   UNL     1      39.089  48.128  15.685 -0.47 -0.02    +0.050 A  ATOM     22  C   UNL     1      40.397  47.187  17.458 -0.37 -0.03    +0.165 A  ATOM     23  C   UNL     1      40.294  48.071  16.383 -0.42 -0.04    +0.154 A  ATOM     24  F   UNL     1      41.542  47.103  18.155 -0.18 +0.01    -0.203 F  BRANCH  23  25ATOM     25  O   UNL     1      41.411  48.813  16.110 -0.74 +0.01    -0.494 OA ATOM     26  C   UNL     1      41.233  50.004  15.355 -0.50 -0.06    +0.278 C  ENDBRANCH  23  25ENDBRANCH  15  18ENDBRANCH   2  10TORSDOF 7TERENDMDL