REMARK SMILES CCC[C@H](C)NC(=O)c1ccc(-c2ccc(OC)c(F)c2)cc1C#N
REMARK SMILES IDX 6 1 7 2 8 3 4 5 5 6 3 7 2 8 1 9 9 10 10 11 23 12 11 13 22 14
REMARK SMILES IDX 12 15 24 16 25 17 13 18 14 19 21 20 15 21 19 22 16 23 20 24
REMARK SMILES IDX 17 25 18 26
REMARK H PARENT 6 4
ROOT
ATOM      1  N   UNL     1      -2.821   0.209  -0.281  1.00  0.00    -0.350 N 
ATOM      2  C   UNL     1      -2.126  -0.481   0.691  1.00  0.00     0.252 C 
ATOM      3  O   UNL     1      -2.641  -1.133   1.587  1.00  0.00    -0.269 OA
ATOM      4  H   UNL     1      -2.317   0.870  -0.858  1.00  0.00     0.164 HD
ENDROOT
BRANCH   1   5
ATOM      5  C   UNL     1      -4.277   0.324  -0.236  1.00  0.00     0.079 C 
ATOM      6  C   UNL     1      -4.680   1.443   0.724  1.00  0.00     0.031 C 
BRANCH   5   7
ATOM      7  C   UNL     1      -4.808   0.548  -1.662  1.00  0.00     0.024 C 
BRANCH   7   8
ATOM      8  C   UNL     1      -6.331   0.636  -1.801  1.00  0.00    -0.001 C 
ATOM      9  C   UNL     1      -7.058  -0.615  -1.333  1.00  0.00     0.004 C 
ENDBRANCH   7   8
ENDBRANCH   5   7
ENDBRANCH   1   5
BRANCH   2  10
ATOM     10  C   UNL     1      -0.651  -0.390   0.600  1.00  0.00     0.057 A 
ATOM     11  C   UNL     1      -0.033  -0.642  -0.632  1.00  0.00     0.016 A 
ATOM     12  C   UNL     1       0.124  -0.095   1.726  1.00  0.00     0.065 A 
ATOM     13  C   UNL     1       1.360  -0.592  -0.740  1.00  0.00     0.009 A 
ATOM     14  C   UNL     1       1.524  -0.048   1.601  1.00  0.00     0.029 A 
ATOM     15  C   UNL     1       2.163  -0.294   0.372  1.00  0.00    -0.017 A 
BRANCH  12  16
ATOM     16  C   UNL     1      -0.457   0.216   3.001  1.00  0.00     0.100 C 
ATOM     17  N   UNL     1      -0.860   0.523   4.045  1.00  0.00    -0.192 NA
ENDBRANCH  12  16
BRANCH  15  18
ATOM     18  C   UNL     1       3.630  -0.243   0.257  1.00  0.00    -0.015 A 
ATOM     19  C   UNL     1       4.358   0.870   0.713  1.00  0.00     0.013 A 
ATOM     20  C   UNL     1       4.349  -1.302  -0.313  1.00  0.00     0.052 A 
ATOM     21  C   UNL     1       5.756   0.926   0.605  1.00  0.00     0.050 A 
ATOM     22  C   UNL     1       5.738  -1.241  -0.418  1.00  0.00     0.165 A 
ATOM     23  C   UNL     1       6.459  -0.135   0.036  1.00  0.00     0.154 A 
ATOM     24  F   UNL     1       6.380  -2.282  -0.972  1.00  0.00    -0.203 F 
BRANCH  23  25
ATOM     25  O   UNL     1       7.816  -0.198  -0.126  1.00  0.00    -0.494 OA
ATOM     26  C   UNL     1       8.581   0.900   0.352  1.00  0.00     0.278 C 
ENDBRANCH  23  25
ENDBRANCH  15  18
ENDBRANCH   2  10
TORSDOF 7
