MODEL        7USER    Run = 7USERUSER    Estimated Free Energy of Binding    = -10.12 kcal/mol  [=(1)+(2)+(3)-(4)]USERUSER    (1) Final Intermolecular Energy     = -11.32 kcal/molUSER        vdW + Hbond + desolv Energy     = -11.07 kcal/molUSER        Electrostatic Energy            =  -0.25 kcal/molUSER        Moving Ligand-Fixed Receptor    = -11.32 kcal/molUSER        Moving Ligand-Moving Receptor   =  +0.00 kcal/molUSER    (2) Final Total Internal Energy     =  -1.02 kcal/molUSER    (3) Torsional Free Energy           =  +1.19 kcal/molUSER    (4) Unbound System's Energy         =  -1.02 kcal/molUSERUSERREMARK SMILES C[C@@H]1C[C@H](NC(=O)Nc2cccc(F)c2)CN1c1nc(C(N)=O)c2ncncc2n1REMARK SMILES IDX 1 1 2 2 3 3 4 4 16 5 17 6 18 7 19 8 30 9 20 10 29 11 24 12REMARK SMILES IDX 28 13 25 14 27 15 26 16 21 17 22 18 23 19 5 22 6 23 8 24REMARK SMILES IDX 7 26 9 28 10 29 15 30 11 31 13 32 12 33 14 34REMARK H PARENT 22 20 22 21 5 25 8 27USER                              x       y       z     vdW  Elec       q    TypeUSER                           _______ _______ _______ _____ _____    ______ ____ROOTATOM      1  C   UNL     1      34.415  46.450  18.332 -0.54 -0.02    +0.031 C  ATOM      2  C   UNL     1      34.427  45.467  17.167 -0.35 -0.06    +0.084 C  ATOM      3  C   UNL     1      33.707  44.168  17.553 -0.33 -0.02    +0.051 C  ATOM      4  C   UNL     1      34.309  43.152  16.592 -0.37 -0.04    +0.105 C  ATOM      5  C   UNL     1      35.789  43.581  16.503 -0.35 -0.05    +0.145 C  ATOM      6  N   UNL     1      35.782  45.009  16.840 -0.09 +0.16    -0.336 N  ENDROOTBRANCH   6   7ATOM      7  C   UNL     1      36.597  45.820  16.079 -0.20 -0.13    +0.227 A  ATOM      8  N   UNL     1      36.281  46.066  14.815 -0.24 +0.13    -0.205 NA ATOM      9  N   UNL     1      37.674  46.365  16.649 -0.24 +0.09    -0.209 NA ATOM     10  C   UNL     1      37.089  46.894  14.098 -0.35 -0.08    +0.159 A  ATOM     11  C   UNL     1      38.452  47.180  15.912 -0.35 -0.05    +0.113 A  ATOM     12  C   UNL     1      38.234  47.515  14.586 -0.40 -0.05    +0.124 A  ATOM     13  C   UNL     1      39.575  47.764  16.458 -0.37 -0.05    +0.143 A  ATOM     14  N   UNL     1      39.068  48.354  13.889 -0.34 +0.07    -0.232 NA ATOM     15  N   UNL     1      40.428  48.596  15.818 -0.39 +0.06    -0.243 NA ATOM     16  C   UNL     1      40.125  48.851  14.546 -0.32 -0.07    +0.222 A  BRANCH  10  17ATOM     17  C   UNL     1      36.626  47.086  12.678 -0.50 -0.12    +0.269 C  ATOM     18  N   UNL     1      35.419  46.559  12.300 -0.28 +0.23    -0.364 N  ATOM     19  O   UNL     1      37.292  47.700  11.850 -1.08 +0.03    -0.268 OA ATOM     20  H   UNL     1      34.821  46.060  12.952 +0.01 -0.11    +0.160 HD ATOM     21  H   UNL     1      35.109  46.703  11.348 -0.14 -0.13    +0.160 HD ENDBRANCH  10  17ENDBRANCH   6   7BRANCH   4  22ATOM     22  N   UNL     1      34.105  41.783  17.042 -0.19 +0.17    -0.333 N  ATOM     23  C   UNL     1      32.871  41.418  17.548 -0.16 -0.12    +0.319 C  ATOM     24  N   UNL     1      32.861  40.081  17.877 -0.23 +0.08    -0.308 N  ATOM     25  H   UNL     1      34.562  41.064  16.501 -0.48 -0.14    +0.165 HD ATOM     26  O   UNL     1      31.952  42.216  17.670 -0.20 +0.07    -0.248 OA ATOM     27  H   UNL     1      33.771  39.648  17.933 -0.27 -0.08    +0.171 HD BRANCH  24  28ATOM     28  C   UNL     1      31.769  39.317  18.338 -0.43 +0.00    +0.045 A  ATOM     29  C   UNL     1      31.871  38.326  19.319 -0.44 +0.01    +0.026 A  ATOM     30  C   UNL     1      30.515  39.593  17.783 -0.32 +0.00    +0.065 A  ATOM     31  C   UNL     1      30.740  37.614  19.734 -0.46 +0.00    +0.005 A  ATOM     32  C   UNL     1      29.396  38.879  18.204 -0.25 +0.04    +0.125 A  ATOM     33  C   UNL     1      29.496  37.891  19.173 -0.35 +0.01    +0.039 A  ATOM     34  F   UNL     1      28.202  39.153  17.662 -0.06 -0.09    -0.207 F  ENDBRANCH  24  28ENDBRANCH   4  22TORSDOF 4TERENDMDL