MODEL        1USER    Run = 1USERUSER    Estimated Free Energy of Binding    =  -7.40 kcal/mol  [=(1)+(2)+(3)-(4)]USERUSER    (1) Final Intermolecular Energy     =  -8.29 kcal/molUSER        vdW + Hbond + desolv Energy     =  -8.16 kcal/molUSER        Electrostatic Energy            =  -0.13 kcal/molUSER        Moving Ligand-Fixed Receptor    =  -8.29 kcal/molUSER        Moving Ligand-Moving Receptor   =  +0.00 kcal/molUSER    (2) Final Total Internal Energy     =  -0.81 kcal/molUSER    (3) Torsional Free Energy           =  +0.89 kcal/molUSER    (4) Unbound System's Energy         =  -0.81 kcal/molUSERUSERREMARK SMILES CNC(=O)c1ccc(-c2ccc(F)cc2)cc1C#NREMARK SMILES IDX 5 1 6 2 7 3 8 4 16 5 17 6 3 7 2 8 1 9 4 11 18 12 19 13 9 14REMARK SMILES IDX 10 15 15 16 11 17 14 18 12 19 13 20REMARK H PARENT 2 10USER                              x       y       z     vdW  Elec       q    TypeUSER                           _______ _______ _______ _____ _____    ______ ____ROOTATOM      1  C   UNL     1      40.139  47.949  16.373 -0.49 -0.01    +0.057 A  ATOM      2  C   UNL     1      40.582  47.368  17.569 -0.50 -0.00    +0.016 A  ATOM      3  C   UNL     1      39.800  46.414  18.226 -0.43 -0.00    +0.009 A  ATOM      4  C   UNL     1      38.565  46.008  17.700 -0.38 +0.00    -0.017 A  ATOM      5  C   UNL     1      38.141  46.583  16.489 -0.38 -0.01    +0.029 A  ATOM      6  C   UNL     1      38.921  47.543  15.817 -0.43 -0.03    +0.065 A  ENDROOTBRANCH   1   7ATOM      7  C   UNL     1      41.040  48.944  15.741 -0.47 -0.03    +0.252 C  ATOM      8  N   UNL     1      41.009  49.020  14.366 -0.29 +0.07    -0.355 N  ATOM      9  C   UNL     1      41.801  49.998  13.662 -0.60 -0.03    +0.143 C  ATOM     10  H   UNL     1      40.310  48.517  13.836 +0.11 -0.03    +0.163 HD ATOM     11  O   UNL     1      41.719  49.674  16.453 -1.06 -0.04    -0.269 OA ENDBRANCH   1   7BRANCH   6  12ATOM     12  C   UNL     1      38.441  48.049  14.567 -0.52 -0.04    +0.100 C  ATOM     13  N   UNL     1      38.092  48.446  13.533 -0.59 +0.06    -0.192 NA ENDBRANCH   6  12BRANCH   4  14ATOM     14  C   UNL     1      37.741  45.000  18.388 -0.36 +0.00    -0.018 A  ATOM     15  C   UNL     1      36.632  44.415  17.749 -0.32 -0.00    +0.012 A  ATOM     16  C   UNL     1      38.040  44.595  19.702 -0.36 -0.00    +0.012 A  ATOM     17  C   UNL     1      35.849  43.459  18.402 -0.30 -0.01    +0.040 A  ATOM     18  C   UNL     1      37.258  43.640  20.355 -0.35 -0.00    +0.040 A  ATOM     19  C   UNL     1      36.169  43.081  19.699 -0.31 -0.01    +0.123 A  ATOM     20  F   UNL     1      35.420  42.165  20.325 -0.14 -0.00    -0.207 F  ENDBRANCH   4  14TORSDOF 3TERENDMDL