MODEL        2USER    Run = 2USERUSER    Estimated Free Energy of Binding    =  -9.64 kcal/mol  [=(1)+(2)+(3)-(4)]USERUSER    (1) Final Intermolecular Energy     = -10.83 kcal/molUSER        vdW + Hbond + desolv Energy     = -10.53 kcal/molUSER        Electrostatic Energy            =  -0.30 kcal/molUSER        Moving Ligand-Fixed Receptor    = -10.83 kcal/molUSER        Moving Ligand-Moving Receptor   =  +0.00 kcal/molUSER    (2) Final Total Internal Energy     =  -0.81 kcal/molUSER    (3) Torsional Free Energy           =  +1.19 kcal/molUSER    (4) Unbound System's Energy         =  -0.81 kcal/molUSERUSERREMARK SMILES COc1cc(-c2ccccc2)cc(-c2ccnc(NC(C)=O)c2)c1REMARK SMILES IDX 3 1 4 2 5 3 12 4 13 5 24 6 2 7 1 8 6 9 7 10 11 11 8 12 10 13REMARK SMILES IDX 9 14 14 15 15 16 23 17 16 18 18 19 17 20 19 21 20 22 21 24REMARK SMILES IDX 22 25REMARK H PARENT 19 23USER                              x       y       z     vdW  Elec       q    TypeUSER                           _______ _______ _______ _____ _____    ______ ____ROOTATOM      1  C   UNL     1      41.043  49.208  15.730 -0.54 -0.02    +0.120 A  ATOM      2  C   UNL     1      40.032  48.801  14.859 -0.51 -0.02    +0.055 A  ATOM      3  C   UNL     1      39.305  47.622  15.099 -0.50 +0.00    -0.014 A  ATOM      4  C   UNL     1      39.623  46.861  16.237 -0.46 -0.00    +0.017 A  ATOM      5  C   UNL     1      40.637  47.246  17.131 -0.51 +0.00    -0.014 A  ATOM      6  C   UNL     1      41.336  48.431  16.854 -0.43 -0.00    +0.055 A  ENDROOTBRANCH   1   7ATOM      7  O   UNL     1      41.810  50.334  15.601 -0.69 +0.04    -0.497 OA ATOM      8  C   UNL     1      42.357  50.598  14.315 -0.44 -0.06    +0.278 C  ENDBRANCH   1   7BRANCH   3   9ATOM      9  C   UNL     1      38.235  47.193  14.181 -0.47 +0.01    -0.018 A  ATOM     10  C   UNL     1      37.438  48.135  13.510 -0.53 -0.00    +0.009 A  ATOM     11  C   UNL     1      37.980  45.831  13.951 -0.41 -0.00    +0.009 A  ATOM     12  C   UNL     1      36.422  47.730  12.639 -0.67 -0.00    +0.001 A  ATOM     13  C   UNL     1      36.966  45.424  13.081 -0.51 -0.00    +0.001 A  ATOM     14  C   UNL     1      36.187  46.375  12.424 -0.65 -0.00    +0.000 A  ENDBRANCH   3   9BRANCH   5  15ATOM     15  C   UNL     1      40.952  46.433  18.319 -0.50 +0.00    -0.013 A  ATOM     16  C   UNL     1      40.580  45.088  18.395 -0.43 -0.00    +0.029 A  ATOM     17  C   UNL     1      41.634  46.983  19.415 -0.31 +0.00    +0.056 A  ATOM     18  C   UNL     1      40.899  44.370  19.533 -0.30 +0.01    +0.114 A  ATOM     19  C   UNL     1      41.911  46.190  20.522 -0.29 +0.02    +0.133 A  ATOM     20  N   UNL     1      41.554  44.890  20.591 -0.21 -0.03    -0.239 NA BRANCH  19  21ATOM     21  N   UNL     1      42.579  46.634  21.663 -0.16 -0.07    -0.311 N  ATOM     22  C   UNL     1      43.891  47.017  21.789 -0.26 +0.10    +0.222 C  ATOM     23  H   UNL     1      41.962  46.685  22.462 +0.08 +0.02    +0.171 HD ATOM     24  C   UNL     1      44.242  47.438  23.195 -0.24 +0.03    +0.114 C  ATOM     25  O   UNL     1      44.730  47.061  20.896 -0.60 -0.34    -0.275 OA ENDBRANCH  19  21ENDBRANCH   5  15TORSDOF 4TERENDMDL