MODEL        2USER    Run = 2USERUSER    Estimated Free Energy of Binding    =  -9.62 kcal/mol  [=(1)+(2)+(3)-(4)]USERUSER    (1) Final Intermolecular Energy     = -11.41 kcal/molUSER        vdW + Hbond + desolv Energy     = -11.32 kcal/molUSER        Electrostatic Energy            =  -0.09 kcal/molUSER        Moving Ligand-Fixed Receptor    = -11.41 kcal/molUSER        Moving Ligand-Moving Receptor   =  +0.00 kcal/molUSER    (2) Final Total Internal Energy     =  -1.11 kcal/molUSER    (3) Torsional Free Energy           =  +1.79 kcal/molUSER    (4) Unbound System's Energy         =  -1.11 kcal/molUSERUSERREMARK SMILES NC(=O)[C@@H](NC(=O)Nc1ccc2nc(N3CCNCC3)cc(N)c2c1)c1cc2ccccc2s1REMARK SMILES IDX 5 1 6 2 7 3 8 4 4 7 2 8 1 9 3 12 26 13 27 14 34 15 28 16REMARK SMILES IDX 33 17 29 18 32 19 30 20 31 21 9 22 10 23 25 24 11 25 24 26REMARK SMILES IDX 12 27 22 28 13 29 21 30 14 31 23 32 15 35 16 36 20 37 17 38REMARK SMILES IDX 19 39 18 40REMARK H PARENT 5 5 8 6 1 10 1 11 23 33 23 34 18 41USER                              x       y       z     vdW  Elec       q    TypeUSER                           _______ _______ _______ _____ _____    ______ ____ROOTATOM      1  N   UNL     1      40.051  45.744  20.383 -0.17 -0.01    -0.321 N  ATOM      2  C   UNL     1      39.143  44.882  19.823 -0.23 -0.01    +0.320 C  ATOM      3  O   UNL     1      39.363  44.315  18.761 -0.27 +0.01    -0.248 OA ATOM      4  N   UNL     1      38.000  44.794  20.580 -0.18 -0.00    -0.308 N  ATOM      5  H   UNL     1      40.003  45.948  21.382 +0.08 +0.01    +0.166 HD ATOM      6  H   UNL     1      37.922  45.469  21.326 +0.08 +0.01    +0.171 HD ENDROOTBRANCH   1   7ATOM      7  C   UNL     1      41.345  45.974  19.770 -0.33 +0.02    +0.213 C  BRANCH   7   8ATOM      8  C   UNL     1      42.249  46.744  20.750 -0.24 +0.04    +0.245 C  ATOM      9  N   UNL     1      43.452  47.180  20.260 -0.21 -0.13    -0.368 N  ATOM     10  H   UNL     1      43.697  47.138  19.280 +0.02 +0.07    +0.159 HD ATOM     11  H   UNL     1      44.036  47.720  20.875 -0.45 +0.04    +0.159 HD ATOM     12  O   UNL     1      41.948  46.943  21.925 -0.20 -0.04    -0.273 OA ENDBRANCH   7   8BRANCH   7  13ATOM     13  C   UNL     1      41.122  46.721  18.478 -0.48 -0.00    +0.038 A  ATOM     14  C   UNL     1      40.180  46.429  17.509 -0.47 -0.00    +0.027 A  ATOM     15  S   UNL     1      42.004  48.123  18.059 -0.44 +0.00    -0.138 S  ATOM     16  C   UNL     1      40.201  47.329  16.394 -0.51 +0.00    -0.007 A  ATOM     17  C   UNL     1      41.175  48.313  16.562 -0.47 -0.00    +0.035 A  ATOM     18  C   UNL     1      39.411  47.360  15.218 -0.49 -0.00    +0.009 A  ATOM     19  C   UNL     1      41.390  49.311  15.589 -0.58 -0.00    +0.019 A  ATOM     20  C   UNL     1      39.617  48.347  14.251 -0.43 -0.00    +0.001 A  ATOM     21  C   UNL     1      40.601  49.314  14.436 -0.45 -0.00    +0.001 A  ENDBRANCH   7  13ENDBRANCH   1   7BRANCH   4  22ATOM     22  C   UNL     1      36.860  44.005  20.324 -0.38 -0.00    +0.043 A  ATOM     23  C   UNL     1      36.917  42.660  20.676 -0.39 -0.00    +0.028 A  ATOM     24  C   UNL     1      35.689  44.490  19.739 -0.32 -0.01    +0.038 A  ATOM     25  C   UNL     1      35.810  41.829  20.467 -0.38 -0.00    +0.031 A  ATOM     26  C   UNL     1      34.563  43.654  19.521 -0.39 -0.00    +0.025 A  ATOM     27  C   UNL     1      34.632  42.301  19.906 -0.30 +0.00    +0.075 A  ATOM     28  C   UNL     1      33.353  44.092  18.940 -0.38 -0.01    +0.045 A  ATOM     29  N   UNL     1      33.608  41.444  19.771 -0.01 -0.04    -0.231 NA ATOM     30  C   UNL     1      32.281  43.203  18.869 -0.32 -0.01    +0.073 A  ATOM     31  C   UNL     1      32.435  41.876  19.265 -0.25 +0.00    +0.131 A  BRANCH  28  32ATOM     32  N   UNL     1      33.085  45.450  18.631 -0.10 +0.16    -0.398 N  ATOM     33  H   UNL     1      33.156  46.018  19.476 -0.38 -0.08    +0.156 HD ATOM     34  H   UNL     1      33.719  45.831  17.932 +0.09 -0.11    +0.156 HD ENDBRANCH  28  32BRANCH  31  35ATOM     35  N   UNL     1      31.348  40.990  19.164 -0.03 -0.00    -0.354 N  ATOM     36  C   UNL     1      31.077  40.559  17.777 -0.33 -0.02    +0.133 C  ATOM     37  C   UNL     1      31.312  39.908  20.166 -0.21 +0.02    +0.133 C  ATOM     38  C   UNL     1      30.447  39.148  17.730 -0.29 +0.02    +0.102 C  ATOM     39  C   UNL     1      31.916  38.608  19.600 -0.34 +0.02    +0.102 C  ATOM     40  N   UNL     1      31.256  38.098  18.376 -0.30 -0.08    -0.313 NA ATOM     41  H   UNL     1      31.995  37.810  17.734 +0.08 +0.02    +0.122 HD ENDBRANCH  31  35ENDBRANCH   4  22TORSDOF 6TERENDMDL