REMARK SMILES Oc1nc2ccc(F)cc2n1C1CCN(Cc2ccc(-c3nc4ccccc4nc3-c3ccc(F)cc3)cc2)CC1
REMARK SMILES IDX 16 1 15 2 12 3 13 4 41 5 14 6 40 7 11 8 2 9 3 10 4 11 10 12
REMARK SMILES IDX 5 13 9 14 6 15 7 16 8 17 1 18 17 20 18 21 39 22 19 23 38 24
REMARK SMILES IDX 20 25 21 26 22 27 30 28 23 29 29 30 24 31 28 32 25 33 27 34
REMARK SMILES IDX 26 35 31 36 32 37 37 38 33 39 36 40 34 41 35 42
REMARK H PARENT 1 19
ROOT
ATOM      1  C   UNL     1      -1.054   1.267   1.236  1.00  0.00     0.120 C 
ENDROOT
BRANCH   1   2
ATOM      2  N   UNL     1      -2.079   0.716   0.334  1.00  0.00    -0.299 NA
ATOM      3  C   UNL     1      -4.407  -0.409  -0.847  1.00  0.00     0.095 C 
ATOM      4  C   UNL     1      -4.203   1.116  -0.791  1.00  0.00     0.041 C 
ATOM      5  C   UNL     1      -3.796  -1.132   0.357  1.00  0.00     0.041 C 
ATOM      6  C   UNL     1      -3.289   1.536   0.356  1.00  0.00     0.087 C 
ATOM      7  C   UNL     1      -2.349  -0.704   0.616  1.00  0.00     0.087 C 
BRANCH   3   8
ATOM      8  N   UNL     1      -5.804  -0.785  -1.049  1.00  0.00    -0.291 N 
ATOM      9  C   UNL     1      -6.310  -1.555  -2.075  1.00  0.00     0.295 A 
ATOM     10  N   UNL     1      -7.577  -1.835  -1.905  1.00  0.00    -0.195 NA
ATOM     11  C   UNL     1      -7.941  -1.195  -0.752  1.00  0.00     0.093 A 
ATOM     12  C   UNL     1      -6.856  -0.521  -0.189  1.00  0.00     0.074 A 
ATOM     13  C   UNL     1      -9.197  -1.149  -0.124  1.00  0.00     0.034 A 
ATOM     14  C   UNL     1      -6.979   0.205   1.004  1.00  0.00     0.068 A 
ATOM     15  C   UNL     1      -9.334  -0.423   1.063  1.00  0.00     0.041 A 
ATOM     16  C   UNL     1      -8.238   0.237   1.607  1.00  0.00     0.125 A 
ATOM     17  F   UNL     1      -8.390   0.922   2.748  1.00  0.00    -0.207 F 
BRANCH   9  18
ATOM     18  O   UNL     1      -5.639  -1.992  -3.129  1.00  0.00    -0.480 OA
ATOM     19  H   UNL     1      -4.887  -1.409  -3.295  1.00  0.00     0.296 HD
ENDBRANCH   9  18
ENDBRANCH   3   8
ENDBRANCH   1   2
BRANCH   1  20
ATOM     20  C   UNL     1       0.332   0.703   1.002  1.00  0.00    -0.034 A 
ATOM     21  C   UNL     1       1.042   0.096   2.044  1.00  0.00     0.006 A 
ATOM     22  C   UNL     1       0.949   0.826  -0.250  1.00  0.00     0.006 A 
ATOM     23  C   UNL     1       2.350  -0.355   1.842  1.00  0.00     0.011 A 
ATOM     24  C   UNL     1       2.257   0.376  -0.448  1.00  0.00     0.011 A 
ATOM     25  C   UNL     1       2.989  -0.198   0.602  1.00  0.00     0.002 A 
BRANCH  25  26
ATOM     26  C   UNL     1       4.391  -0.616   0.436  1.00  0.00     0.097 A 
ATOM     27  N   UNL     1       4.607  -1.939   0.681  1.00  0.00    -0.244 NA
ATOM     28  C   UNL     1       5.441   0.239   0.063  1.00  0.00     0.097 A 
ATOM     29  C   UNL     1       5.863  -2.398   0.531  1.00  0.00     0.089 A 
ATOM     30  N   UNL     1       6.711  -0.233  -0.084  1.00  0.00    -0.244 NA
ATOM     31  C   UNL     1       6.130  -3.746   0.744  1.00  0.00     0.030 A 
ATOM     32  C   UNL     1       6.921  -1.540   0.152  1.00  0.00     0.089 A 
ATOM     33  C   UNL     1       7.419  -4.265   0.599  1.00  0.00     0.002 A 
ATOM     34  C   UNL     1       8.203  -2.063   0.020  1.00  0.00     0.030 A 
ATOM     35  C   UNL     1       8.461  -3.418   0.240  1.00  0.00     0.002 A 
BRANCH  28  36
ATOM     36  C   UNL     1       5.306   1.684  -0.205  1.00  0.00     0.003 A 
ATOM     37  C   UNL     1       5.812   2.230  -1.402  1.00  0.00     0.013 A 
ATOM     38  C   UNL     1       4.691   2.562   0.709  1.00  0.00     0.013 A 
ATOM     39  C   UNL     1       5.675   3.589  -1.693  1.00  0.00     0.040 A 
ATOM     40  C   UNL     1       4.547   3.922   0.417  1.00  0.00     0.040 A 
ATOM     41  C   UNL     1       5.034   4.420  -0.783  1.00  0.00     0.123 A 
ATOM     42  F   UNL     1       4.885   5.719  -1.069  1.00  0.00    -0.207 F 
ENDBRANCH  28  36
ENDBRANCH  25  26
ENDBRANCH   1  20
TORSDOF 6
