REMARK SMILES C[C@@H]1C[C@H](NC(=O)Nc2cccc(F)c2)CN1c1nc(C(N)=O)c2ncncc2n1
REMARK SMILES IDX 1 1 2 2 3 3 4 4 16 5 17 6 18 7 19 8 30 9 20 10 29 11 24 12
REMARK SMILES IDX 28 13 25 14 27 15 26 16 21 17 22 18 23 19 5 22 6 23 8 24
REMARK SMILES IDX 7 26 9 28 10 29 15 30 11 31 13 32 12 33 14 34
REMARK H PARENT 22 20 22 21 5 25 8 27
ROOT
ATOM      1  C   UNL     1      -2.101  -3.440   0.679  1.00  0.00     0.031 C 
ATOM      2  C   UNL     1      -1.285  -2.419  -0.105  1.00  0.00     0.084 C 
ATOM      3  C   UNL     1       0.208  -2.764  -0.047  1.00  0.00     0.051 C 
ATOM      4  C   UNL     1       0.875  -1.422  -0.316  1.00  0.00     0.105 C 
ATOM      5  C   UNL     1      -0.032  -0.420   0.431  1.00  0.00     0.145 C 
ATOM      6  N   UNL     1      -1.339  -1.083   0.499  1.00  0.00    -0.336 N 
ENDROOT
BRANCH   6   7
ATOM      7  C   UNL     1      -2.440  -0.287   0.266  1.00  0.00     0.227 A 
ATOM      8  N   UNL     1      -3.515  -0.807  -0.312  1.00  0.00    -0.205 NA
ATOM      9  N   UNL     1      -2.406   0.989   0.659  1.00  0.00    -0.209 NA
ATOM     10  C   UNL     1      -4.597  -0.003  -0.502  1.00  0.00     0.159 A 
ATOM     11  C   UNL     1      -3.494   1.756   0.457  1.00  0.00     0.113 A 
ATOM     12  C   UNL     1      -4.674   1.336  -0.135  1.00  0.00     0.124 A 
ATOM     13  C   UNL     1      -3.504   3.079   0.845  1.00  0.00     0.143 A 
ATOM     14  N   UNL     1      -5.749   2.171  -0.313  1.00  0.00    -0.232 NA
ATOM     15  N   UNL     1      -4.534   3.942   0.694  1.00  0.00    -0.243 NA
ATOM     16  C   UNL     1      -5.620   3.435   0.113  1.00  0.00     0.222 A 
BRANCH  10  17
ATOM     17  C   UNL     1      -5.746  -0.710  -1.172  1.00  0.00     0.269 C 
ATOM     18  N   UNL     1      -6.908  -0.018  -1.395  1.00  0.00    -0.364 N 
ATOM     19  O   UNL     1      -5.675  -1.883  -1.526  1.00  0.00    -0.268 OA
ATOM     20  H   UNL     1      -7.010   0.960  -1.139  1.00  0.00     0.160 HD
ATOM     21  H   UNL     1      -7.670  -0.496  -1.856  1.00  0.00     0.160 HD
ENDBRANCH  10  17
ENDBRANCH   6   7
BRANCH   4  22
ATOM     22  N   UNL     1       2.267  -1.406   0.108  1.00  0.00    -0.333 N 
ATOM     23  C   UNL     1       3.054  -0.313  -0.206  1.00  0.00     0.319 C 
ATOM     24  N   UNL     1       4.319  -0.464   0.316  1.00  0.00    -0.308 N 
ATOM     25  H   UNL     1       2.462  -1.813   1.011  1.00  0.00     0.165 HD
ATOM     26  O   UNL     1       2.633   0.627  -0.865  1.00  0.00    -0.248 OA
ATOM     27  H   UNL     1       4.548  -1.399   0.617  1.00  0.00     0.171 HD
BRANCH  24  28
ATOM     28  C   UNL     1       5.377   0.468   0.287  1.00  0.00     0.045 A 
ATOM     29  C   UNL     1       5.238   1.789  -0.149  1.00  0.00     0.026 A 
ATOM     30  C   UNL     1       6.626   0.034   0.742  1.00  0.00     0.065 A 
ATOM     31  C   UNL     1       6.332   2.662  -0.141  1.00  0.00     0.005 A 
ATOM     32  C   UNL     1       7.708   0.911   0.746  1.00  0.00     0.125 A 
ATOM     33  C   UNL     1       7.574   2.221   0.308  1.00  0.00     0.039 A 
ATOM     34  F   UNL     1       8.899   0.480   1.183  1.00  0.00    -0.207 F 
ENDBRANCH  24  28
ENDBRANCH   4  22
TORSDOF 4
