MODEL        10USER    Run = 10USERUSER    Estimated Free Energy of Binding    =  -7.99 kcal/mol  [=(1)+(2)+(3)-(4)]USERUSER    (1) Final Intermolecular Energy     =  -9.78 kcal/molUSER        vdW + Hbond + desolv Energy     =  -9.68 kcal/molUSER        Electrostatic Energy            =  -0.10 kcal/molUSER        Moving Ligand-Fixed Receptor    =  -9.78 kcal/molUSER        Moving Ligand-Moving Receptor   =  +0.00 kcal/molUSER    (2) Final Total Internal Energy     =  -1.01 kcal/molUSER    (3) Torsional Free Energy           =  +1.79 kcal/molUSER    (4) Unbound System's Energy         =  -1.01 kcal/molUSERUSERREMARK SMILES CCC[C@H](C)NC(=O)c1ccc(-c2ccc(F)cc2)cc1C#NREMARK SMILES IDX 6 1 7 2 8 3 4 5 5 6 3 7 2 8 1 9 9 10 10 11 21 12 11 13 20 14REMARK SMILES IDX 12 15 22 16 23 17 13 18 14 19 19 20 15 21 18 22 16 23 17 24REMARK H PARENT 6 4USER                              x       y       z     vdW  Elec       q    TypeUSER                           _______ _______ _______ _____ _____    ______ ____ROOTATOM      1  N   UNL     1      38.772  48.223  15.642 -0.22 +0.18    -0.350 N  ATOM      2  C   UNL     1      38.524  46.906  15.322 -0.31 -0.09    +0.252 C  ATOM      3  O   UNL     1      39.381  46.075  15.062 -0.29 +0.05    -0.269 OA ATOM      4  H   UNL     1      38.001  48.833  15.882 +0.09 -0.14    +0.164 HD ENDROOTBRANCH   1   5ATOM      5  C   UNL     1      40.130  48.736  15.788 -0.59 -0.03    +0.079 C  ATOM      6  C   UNL     1      40.790  48.118  17.015 -0.56 -0.00    +0.031 C  BRANCH   5   7ATOM      7  C   UNL     1      40.941  48.554  14.491 -0.53 -0.00    +0.024 C  BRANCH   7   8ATOM      8  C   UNL     1      41.555  49.829  13.898 -0.70 +0.00    -0.001 C  ATOM      9  C   UNL     1      42.162  50.751  14.947 -0.65 -0.00    +0.004 C  ENDBRANCH   7   8ENDBRANCH   5   7ENDBRANCH   1   5BRANCH   2  10ATOM     10  C   UNL     1      37.098  46.515  15.319 -0.35 -0.03    +0.057 A  ATOM     11  C   UNL     1      36.549  45.950  16.477 -0.35 -0.01    +0.016 A  ATOM     12  C   UNL     1      36.316  46.663  14.168 -0.41 -0.04    +0.065 A  ATOM     13  C   UNL     1      35.212  45.541  16.488 -0.33 -0.01    +0.009 A  ATOM     14  C   UNL     1      34.974  46.247  14.195 -0.39 -0.02    +0.029 A  ATOM     15  C   UNL     1      34.402  45.682  15.349 -0.27 +0.02    -0.017 A  BRANCH  12  16ATOM     16  C   UNL     1      36.821  47.271  12.971 -0.62 -0.04    +0.100 C  ATOM     17  N   UNL     1      37.302  47.743  12.026 -1.05 +0.02    -0.192 NA ENDBRANCH  12  16BRANCH  15  18ATOM     18  C   UNL     1      32.996  45.247  15.362 -0.32 +0.01    -0.018 A  ATOM     19  C   UNL     1      32.575  44.182  16.181 -0.32 -0.01    +0.012 A  ATOM     20  C   UNL     1      32.036  45.884  14.555 -0.45 -0.01    +0.012 A  ATOM     21  C   UNL     1      31.240  43.771  16.194 -0.30 -0.02    +0.040 A  ATOM     22  C   UNL     1      30.700  45.470  14.567 -0.46 -0.03    +0.040 A  ATOM     23  C   UNL     1      30.316  44.418  15.386 -0.26 -0.07    +0.123 A  ATOM     24  F   UNL     1      29.036  44.023  15.397 -0.04 +0.17    -0.207 F  ENDBRANCH  15  18ENDBRANCH   2  10TORSDOF 6TERENDMDL