MODEL        2USER    Run = 2USERUSER    Estimated Free Energy of Binding    = -12.72 kcal/mol  [=(1)+(2)+(3)-(4)]USERUSER    (1) Final Intermolecular Energy     = -14.51 kcal/molUSER        vdW + Hbond + desolv Energy     = -14.39 kcal/molUSER        Electrostatic Energy            =  -0.13 kcal/molUSER        Moving Ligand-Fixed Receptor    = -14.51 kcal/molUSER        Moving Ligand-Moving Receptor   =  +0.00 kcal/molUSER    (2) Final Total Internal Energy     =  -1.63 kcal/molUSER    (3) Torsional Free Energy           =  +1.79 kcal/molUSER    (4) Unbound System's Energy         =  -1.63 kcal/molUSERUSERREMARK SMILES Oc1nc2ccccc2n1C1CCN(Cc2ccc(-c3nc4cc(F)ccc4nc3-c3ccccc3)cc2)CC1REMARK SMILES IDX 11 1 12 2 13 3 14 4 39 5 40 6 10 7 2 8 3 9 4 10 9 11 5 12REMARK SMILES IDX 8 13 6 14 7 15 1 16 15 18 16 19 17 20 38 21 18 22 37 23REMARK SMILES IDX 19 24 20 25 21 26 30 27 22 28 29 29 23 30 28 31 24 32 27 33REMARK SMILES IDX 26 34 25 35 31 36 32 37 36 38 33 39 35 40 34 41REMARK H PARENT 1 17USER                              x       y       z     vdW  Elec       q    TypeUSER                           _______ _______ _______ _____ _____    ______ ____ROOTATOM      1  C   UNL     1      40.713  45.876  18.963 -0.46 -0.00    +0.095 C  ATOM      2  C   UNL     1      39.337  45.879  19.651 -0.35 -0.00    +0.041 C  ATOM      3  C   UNL     1      39.382  45.227  21.037 -0.35 +0.00    +0.087 C  ATOM      4  N   UNL     1      40.326  44.109  21.014 -0.13 -0.01    -0.299 NA ATOM      5  C   UNL     1      41.715  44.577  20.880 -0.32 +0.01    +0.087 C  ATOM      6  C   UNL     1      41.854  45.817  19.985 -0.40 +0.01    +0.041 C  ENDROOTBRANCH   1   7ATOM      7  N   UNL     1      40.857  46.948  17.987 -0.31 +0.03    -0.291 N  ATOM      8  C   UNL     1      41.805  47.949  18.004 -0.21 -0.01    +0.295 A  ATOM      9  N   UNL     1      41.615  48.825  17.052 -0.85 -0.01    -0.195 NA ATOM     10  C   UNL     1      40.542  48.361  16.342 -0.48 -0.02    +0.092 A  ATOM     11  C   UNL     1      40.047  47.177  16.890 -0.45 -0.01    +0.072 A  ATOM     12  C   UNL     1      39.934  48.906  15.201 -0.53 -0.01    +0.031 A  ATOM     13  C   UNL     1      38.959  46.496  16.324 -0.41 -0.01    +0.029 A  ATOM     14  C   UNL     1      38.846  48.241  14.628 -0.53 -0.00    +0.002 A  ATOM     15  C   UNL     1      38.370  47.053  15.182 -0.44 -0.00    +0.002 A  BRANCH   8  16ATOM     16  O   UNL     1      42.812  48.067  18.854 -0.31 -0.01    -0.480 OA ATOM     17  H   UNL     1      42.926  48.995  19.102 -0.37 -0.05    +0.296 HD ENDBRANCH   8  16ENDBRANCH   1   7BRANCH   4  18ATOM     18  C   UNL     1      40.189  43.226  22.185 -0.21 +0.01    +0.120 C  BRANCH  18  19ATOM     19  C   UNL     1      39.425  43.865  23.325 -0.21 -0.00    -0.034 A  ATOM     20  C   UNL     1      38.063  43.604  23.507 -0.31 +0.00    +0.006 A  ATOM     21  C   UNL     1      40.064  44.744  24.210 -0.14 +0.00    +0.006 A  ATOM     22  C   UNL     1      37.360  44.204  24.557 -0.32 +0.00    +0.011 A  ATOM     23  C   UNL     1      39.359  45.338  25.262 -0.15 +0.00    +0.011 A  ATOM     24  C   UNL     1      37.990  45.089  25.449 -0.27 +0.00    +0.002 A  BRANCH  24  25ATOM     25  C   UNL     1      37.227  45.703  26.553 -0.29 -0.01    +0.097 A  ATOM     26  N   UNL     1      37.333  47.064  26.602 -0.23 +0.02    -0.244 NA ATOM     27  C   UNL     1      36.432  45.009  27.479 -0.31 -0.02    +0.097 A  ATOM     28  C   UNL     1      36.625  47.714  27.541 -0.29 -0.02    +0.092 A  ATOM     29  N   UNL     1      35.705  45.676  28.421 -0.29 +0.07    -0.244 NA ATOM     30  C   UNL     1      36.701  49.096  27.614 -0.27 -0.00    +0.069 A  ATOM     31  C   UNL     1      35.802  47.015  28.453 -0.31 -0.02    +0.090 A  ATOM     32  C   UNL     1      35.978  49.790  28.574 -0.19 +0.00    +0.125 A  ATOM     33  C   UNL     1      35.084  47.729  29.405 -0.38 -0.01    +0.033 A  ATOM     34  C   UNL     1      35.165  49.120  29.474 -0.26 -0.00    +0.041 A  ATOM     35  F   UNL     1      36.065  51.124  28.632 -0.03 -0.03    -0.207 F  BRANCH  27  36ATOM     36  C   UNL     1      36.304  43.542  27.561 -0.44 -0.00    +0.002 A  ATOM     37  C   UNL     1      35.034  42.938  27.540 -0.59 -0.00    +0.010 A  ATOM     38  C   UNL     1      37.427  42.704  27.685 -0.37 -0.00    +0.010 A  ATOM     39  C   UNL     1      34.893  41.549  27.609 -0.59 -0.00    +0.001 A  ATOM     40  C   UNL     1      37.286  41.314  27.753 -0.49 -0.00    +0.001 A  ATOM     41  C   UNL     1      36.019  40.738  27.712 -0.56 -0.00    +0.000 A  ENDBRANCH  27  36ENDBRANCH  24  25ENDBRANCH  18  19ENDBRANCH   4  18TORSDOF 6TERENDMDL