REMARK SMILES CNC(=O)c1ccc(-c2ccc(F)cc2)cc1C#N
REMARK SMILES IDX 5 1 6 2 7 3 8 4 16 5 17 6 3 7 2 8 1 9 4 11 18 12 19 13 9 14
REMARK SMILES IDX 10 15 15 16 11 17 14 18 12 19 13 20
REMARK H PARENT 2 10
ROOT
ATOM      1  C   UNL     1       1.834   0.432   0.178  1.00  0.00     0.057 A 
ATOM      2  C   UNL     1       1.024   1.564   0.013  1.00  0.00     0.016 A 
ATOM      3  C   UNL     1      -0.365   1.434  -0.079  1.00  0.00     0.009 A 
ATOM      4  C   UNL     1      -0.979   0.176   0.004  1.00  0.00    -0.017 A 
ATOM      5  C   UNL     1      -0.157  -0.949   0.190  1.00  0.00     0.029 A 
ATOM      6  C   UNL     1       1.242  -0.831   0.286  1.00  0.00     0.065 A 
ENDROOT
BRANCH   1   7
ATOM      7  C   UNL     1       3.296   0.666   0.276  1.00  0.00     0.252 C 
ATOM      8  N   UNL     1       4.105  -0.162  -0.469  1.00  0.00    -0.355 N 
ATOM      9  C   UNL     1       5.535   0.025  -0.490  1.00  0.00     0.143 C 
ATOM     10  H   UNL     1       3.709  -0.800  -1.147  1.00  0.00     0.163 HD
ATOM     11  O   UNL     1       3.708   1.595   0.960  1.00  0.00    -0.269 OA
ENDBRANCH   1   7
BRANCH   6  12
ATOM     12  C   UNL     1       2.006  -2.020   0.519  1.00  0.00     0.100 C 
ATOM     13  N   UNL     1       2.609  -3.001   0.667  1.00  0.00    -0.192 NA
ENDBRANCH   6  12
BRANCH   4  14
ATOM     14  C   UNL     1      -2.442   0.038  -0.089  1.00  0.00    -0.018 A 
ATOM     15  C   UNL     1      -3.292   0.779   0.753  1.00  0.00     0.012 A 
ATOM     16  C   UNL     1      -3.029  -0.837  -1.022  1.00  0.00     0.012 A 
ATOM     17  C   UNL     1      -4.681   0.648   0.666  1.00  0.00     0.040 A 
ATOM     18  C   UNL     1      -4.417  -0.968  -1.109  1.00  0.00     0.040 A 
ATOM     19  C   UNL     1      -5.230  -0.224  -0.264  1.00  0.00     0.123 A 
ATOM     20  F   UNL     1      -6.560  -0.349  -0.348  1.00  0.00    -0.207 F 
ENDBRANCH   4  14
TORSDOF 3
