MODEL        2USER    Run = 2USERUSER    Estimated Free Energy of Binding    = -12.33 kcal/mol  [=(1)+(2)+(3)-(4)]USERUSER    (1) Final Intermolecular Energy     = -14.12 kcal/molUSER        vdW + Hbond + desolv Energy     = -13.91 kcal/molUSER        Electrostatic Energy            =  -0.21 kcal/molUSER        Moving Ligand-Fixed Receptor    = -14.12 kcal/molUSER        Moving Ligand-Moving Receptor   =  +0.00 kcal/molUSER    (2) Final Total Internal Energy     =  -1.87 kcal/molUSER    (3) Torsional Free Energy           =  +1.79 kcal/molUSER    (4) Unbound System's Energy         =  -1.87 kcal/molUSERUSERREMARK SMILES Oc1nc2ccc(F)cc2n1C1CCN(Cc2ccc(-c3nc4ccccc4nc3-c3ccc(F)cc3)cc2)CC1REMARK SMILES IDX 16 1 15 2 12 3 13 4 41 5 14 6 40 7 11 8 2 9 3 10 4 11 10 12REMARK SMILES IDX 5 13 9 14 6 15 7 16 8 17 1 18 17 20 18 21 39 22 19 23 38 24REMARK SMILES IDX 20 25 21 26 22 27 30 28 23 29 29 30 24 31 28 32 25 33 27 34REMARK SMILES IDX 26 35 31 36 32 37 37 38 33 39 36 40 34 41 35 42REMARK H PARENT 1 19USER                              x       y       z     vdW  Elec       q    TypeUSER                           _______ _______ _______ _____ _____    ______ ____ROOTATOM      1  C   UNL     1      42.919  45.475  21.312 -0.13 +0.04    +0.120 C  ENDROOTBRANCH   1   2ATOM      2  N   UNL     1      42.536  45.894  19.953 -0.05 -0.09    -0.299 NA ATOM      3  C   UNL     1      41.261  46.942  17.639 -0.43 -0.01    +0.095 C  ATOM      4  C   UNL     1      42.316  47.762  18.404 -0.53 -0.00    +0.041 C  ATOM      5  C   UNL     1      40.439  46.032  18.557 -0.50 -0.00    +0.041 C  ATOM      6  C   UNL     1      42.419  47.349  19.869 -0.32 +0.01    +0.087 C  ATOM      7  C   UNL     1      41.324  45.198  19.488 -0.40 +0.01    +0.087 C  BRANCH   3   8ATOM      8  N   UNL     1      40.403  47.771  16.796 -0.31 +0.06    -0.291 N  ATOM      9  C   UNL     1      40.698  49.025  16.302 -0.24 -0.06    +0.295 A  ATOM     10  N   UNL     1      39.789  49.452  15.463 -0.32 +0.10    -0.195 NA ATOM     11  C   UNL     1      38.835  48.472  15.428 -0.45 -0.05    +0.093 A  ATOM     12  C   UNL     1      39.183  47.404  16.256 -0.41 -0.03    +0.074 A  ATOM     13  C   UNL     1      37.633  48.433  14.702 -0.51 -0.02    +0.034 A  ATOM     14  C   UNL     1      38.364  46.273  16.383 -0.35 -0.02    +0.068 A  ATOM     15  C   UNL     1      36.804  47.314  14.824 -0.40 -0.03    +0.041 A  ATOM     16  C   UNL     1      37.174  46.260  15.652 -0.29 -0.07    +0.125 A  ATOM     17  F   UNL     1      36.368  45.195  15.751 -0.05 +0.10    -0.207 F  BRANCH   9  18ATOM     18  O   UNL     1      41.761  49.754  16.602 -0.82 -0.08    -0.480 OA ATOM     19  H   UNL     1      41.508  50.684  16.654 -0.29 -0.07    +0.296 HD ENDBRANCH   9  18ENDBRANCH   3   8ENDBRANCH   1   2BRANCH   1  20ATOM     20  C   UNL     1      41.787  44.849  22.099 -0.23 -0.00    -0.034 A  ATOM     21  C   UNL     1      41.764  43.471  22.345 -0.31 +0.00    +0.006 A  ATOM     22  C   UNL     1      40.716  45.631  22.551 -0.23 +0.00    +0.006 A  ATOM     23  C   UNL     1      40.679  42.888  23.007 -0.28 +0.00    +0.011 A  ATOM     24  C   UNL     1      39.632  45.044  23.210 -0.23 +0.00    +0.011 A  ATOM     25  C   UNL     1      39.583  43.659  23.426 -0.23 +0.00    +0.002 A  BRANCH  25  26ATOM     26  C   UNL     1      38.422  43.009  24.056 -0.23 +0.01    +0.097 A  ATOM     27  N   UNL     1      38.600  42.714  25.374 -0.13 -0.00    -0.244 NA ATOM     28  C   UNL     1      37.222  42.703  23.394 -0.34 +0.01    +0.097 A  ATOM     29  C   UNL     1      37.573  42.135  26.022 -0.30 -0.01    +0.089 A  ATOM     30  N   UNL     1      36.186  42.114  24.057 -0.22 -0.01    -0.244 NA ATOM     31  C   UNL     1      37.696  41.838  27.375 -0.41 -0.01    +0.030 A  ATOM     32  C   UNL     1      36.362  41.829  25.359 -0.31 -0.01    +0.089 A  ATOM     33  C   UNL     1      36.654  41.237  28.087 -0.39 -0.00    +0.002 A  ATOM     34  C   UNL     1      35.334  41.222  26.073 -0.27 -0.01    +0.030 A  ATOM     35  C   UNL     1      35.470  40.924  27.431 -0.63 -0.00    +0.002 A  BRANCH  28  36ATOM     36  C   UNL     1      36.945  42.968  21.969 -0.43 +0.00    +0.003 A  ATOM     37  C   UNL     1      36.253  42.015  21.195 -0.52 +0.00    +0.013 A  ATOM     38  C   UNL     1      37.362  44.154  21.333 -0.38 +0.00    +0.013 A  ATOM     39  C   UNL     1      35.954  42.252  19.852 -0.39 -0.00    +0.040 A  ATOM     40  C   UNL     1      37.058  44.396  19.989 -0.33 -0.00    +0.040 A  ATOM     41  C   UNL     1      36.353  43.446  19.265 -0.26 -0.02    +0.123 A  ATOM     42  F   UNL     1      36.051  43.683  17.982 -0.04 +0.05    -0.207 F  ENDBRANCH  28  36ENDBRANCH  25  26ENDBRANCH   1  20TORSDOF 6TERENDMDL