REMARK SMILES COc1cc(-c2ccccc2)cc(-c2ccnc(NC(C)=O)c2)c1
REMARK SMILES IDX 3 1 4 2 5 3 12 4 13 5 24 6 2 7 1 8 6 9 7 10 11 11 8 12 10 13
REMARK SMILES IDX 9 14 14 15 15 16 23 17 16 18 18 19 17 20 19 21 20 22 21 24
REMARK SMILES IDX 22 25
REMARK H PARENT 19 23
ROOT
ATOM      1  C   UNL     1      -1.825   2.463  -0.412  1.00  0.00     0.120 A 
ATOM      2  C   UNL     1      -2.550   1.271  -0.446  1.00  0.00     0.055 A 
ATOM      3  C   UNL     1      -1.894   0.029  -0.497  1.00  0.00    -0.014 A 
ATOM      4  C   UNL     1      -0.488   0.016  -0.516  1.00  0.00     0.017 A 
ATOM      5  C   UNL     1       0.268   1.201  -0.484  1.00  0.00    -0.014 A 
ATOM      6  C   UNL     1      -0.428   2.418  -0.432  1.00  0.00     0.055 A 
ENDROOT
BRANCH   1   7
ATOM      7  O   UNL     1      -2.353   3.724  -0.357  1.00  0.00    -0.497 OA
ATOM      8  C   UNL     1      -3.770   3.827  -0.280  1.00  0.00     0.278 C 
ENDBRANCH   1   7
BRANCH   3   9
ATOM      9  C   UNL     1      -2.659  -1.230  -0.529  1.00  0.00    -0.018 A 
ATOM     10  C   UNL     1      -2.417  -2.246   0.410  1.00  0.00     0.009 A 
ATOM     11  C   UNL     1      -3.651  -1.450  -1.499  1.00  0.00     0.009 A 
ATOM     12  C   UNL     1      -3.142  -3.441   0.381  1.00  0.00     0.001 A 
ATOM     13  C   UNL     1      -4.377  -2.644  -1.529  1.00  0.00     0.001 A 
ATOM     14  C   UNL     1      -4.122  -3.639  -0.588  1.00  0.00     0.000 A 
ENDBRANCH   3   9
BRANCH   5  15
ATOM     15  C   UNL     1       1.741   1.163  -0.503  1.00  0.00    -0.013 A 
ATOM     16  C   UNL     1       2.474   1.962  -1.385  1.00  0.00     0.029 A 
ATOM     17  C   UNL     1       2.457   0.323   0.363  1.00  0.00     0.056 A 
ATOM     18  C   UNL     1       3.855   1.888  -1.363  1.00  0.00     0.114 A 
ATOM     19  C   UNL     1       3.845   0.308   0.316  1.00  0.00     0.133 A 
ATOM     20  N   UNL     1       4.551   1.083  -0.534  1.00  0.00    -0.239 NA
BRANCH  19  21
ATOM     21  N   UNL     1       4.653  -0.489   1.127  1.00  0.00    -0.311 N 
ATOM     22  C   UNL     1       4.271  -1.418   2.063  1.00  0.00     0.222 C 
ATOM     23  H   UNL     1       5.635  -0.340   0.940  1.00  0.00     0.171 HD
ATOM     24  C   UNL     1       5.446  -2.081   2.739  1.00  0.00     0.114 C 
ATOM     25  O   UNL     1       3.123  -1.741   2.348  1.00  0.00    -0.275 OA
ENDBRANCH  19  21
ENDBRANCH   5  15
TORSDOF 4
