REMARK SMILES NC(=O)[C@@H](NC(=O)Nc1ccc2nc(N3CCNCC3)cc(N)c2c1)c1cc2ccccc2s1
REMARK SMILES IDX 5 1 6 2 7 3 8 4 4 7 2 8 1 9 3 12 26 13 27 14 34 15 28 16
REMARK SMILES IDX 33 17 29 18 32 19 30 20 31 21 9 22 10 23 25 24 11 25 24 26
REMARK SMILES IDX 12 27 22 28 13 29 21 30 14 31 23 32 15 35 16 36 20 37 17 38
REMARK SMILES IDX 19 39 18 40
REMARK H PARENT 5 5 8 6 1 10 1 11 23 33 23 34 18 41
ROOT
ATOM      1  N   UNL     1      -3.416   1.690  -0.727  1.00  0.00    -0.321 N 
ATOM      2  C   UNL     1      -2.214   1.037  -0.828  1.00  0.00     0.320 C 
ATOM      3  O   UNL     1      -2.095  -0.000  -1.466  1.00  0.00    -0.248 OA
ATOM      4  N   UNL     1      -1.233   1.676  -0.108  1.00  0.00    -0.308 N 
ATOM      5  H   UNL     1      -3.433   2.680  -0.480  1.00  0.00     0.166 HD
ATOM      6  H   UNL     1      -1.554   2.414   0.500  1.00  0.00     0.171 HD
ENDROOT
BRANCH   1   7
ATOM      7  C   UNL     1      -4.592   1.210  -1.428  1.00  0.00     0.213 C 
BRANCH   7   8
ATOM      8  C   UNL     1      -5.359   2.405  -2.023  1.00  0.00     0.245 C 
ATOM      9  N   UNL     1      -6.400   2.107  -2.862  1.00  0.00    -0.368 N 
ATOM     10  H   UNL     1      -6.756   1.169  -2.990  1.00  0.00     0.159 HD
ATOM     11  H   UNL     1      -6.938   2.875  -3.226  1.00  0.00     0.159 HD
ATOM     12  O   UNL     1      -5.056   3.575  -1.800  1.00  0.00    -0.273 OA
ENDBRANCH   7   8
BRANCH   7  13
ATOM     13  C   UNL     1      -5.423   0.414  -0.452  1.00  0.00     0.038 A 
ATOM     14  C   UNL     1      -5.344  -0.946  -0.220  1.00  0.00     0.027 A 
ATOM     15  S   UNL     1      -6.576   1.137   0.581  1.00  0.00    -0.138 S 
ATOM     16  C   UNL     1      -6.258  -1.415   0.779  1.00  0.00    -0.007 A 
ATOM     17  C   UNL     1      -7.014  -0.364   1.300  1.00  0.00     0.035 A 
ATOM     18  C   UNL     1      -6.482  -2.719   1.286  1.00  0.00     0.009 A 
ATOM     19  C   UNL     1      -7.990  -0.581   2.295  1.00  0.00     0.019 A 
ATOM     20  C   UNL     1      -7.446  -2.940   2.274  1.00  0.00     0.001 A 
ATOM     21  C   UNL     1      -8.194  -1.878   2.773  1.00  0.00     0.001 A 
ENDBRANCH   7  13
ENDBRANCH   1   7
BRANCH   4  22
ATOM     22  C   UNL     1       0.121   1.303   0.015  1.00  0.00     0.043 A 
ATOM     23  C   UNL     1       0.903   2.010   0.923  1.00  0.00     0.028 A 
ATOM     24  C   UNL     1       0.718   0.276  -0.718  1.00  0.00     0.038 A 
ATOM     25  C   UNL     1       2.249   1.673   1.106  1.00  0.00     0.031 A 
ATOM     26  C   UNL     1       2.082  -0.071  -0.540  1.00  0.00     0.025 A 
ATOM     27  C   UNL     1       2.851   0.641   0.401  1.00  0.00     0.075 A 
ATOM     28  C   UNL     1       2.736  -1.103  -1.248  1.00  0.00     0.045 A 
ATOM     29  N   UNL     1       4.138   0.363   0.662  1.00  0.00    -0.231 NA
ATOM     30  C   UNL     1       4.053  -1.417  -0.916  1.00  0.00     0.073 A 
ATOM     31  C   UNL     1       4.746  -0.657   0.023  1.00  0.00     0.131 A 
BRANCH  28  32
ATOM     32  N   UNL     1       2.062  -1.994  -2.123  1.00  0.00    -0.398 N 
ATOM     33  H   UNL     1       1.749  -2.816  -1.605  1.00  0.00     0.156 HD
ATOM     34  H   UNL     1       1.255  -1.572  -2.576  1.00  0.00     0.156 HD
ENDBRANCH  28  32
BRANCH  31  35
ATOM     35  N   UNL     1       6.081  -0.977   0.328  1.00  0.00    -0.354 N 
ATOM     36  C   UNL     1       6.947  -1.057  -0.867  1.00  0.00     0.133 C 
ATOM     37  C   UNL     1       6.668  -0.247   1.468  1.00  0.00     0.133 C 
ATOM     38  C   UNL     1       8.412  -0.692  -0.537  1.00  0.00     0.102 C 
ATOM     39  C   UNL     1       7.483   0.969   0.987  1.00  0.00     0.102 C 
ATOM     40  N   UNL     1       8.587   0.648   0.054  1.00  0.00    -0.313 NA
ATOM     41  H   UNL     1       8.562   1.343  -0.692  1.00  0.00     0.122 HD
ENDBRANCH  31  35
ENDBRANCH   4  22
TORSDOF 6
