MODEL        1USER    Run = 1USERUSER    Estimated Free Energy of Binding    =  -9.04 kcal/mol  [=(1)+(2)+(3)-(4)]USERUSER    (1) Final Intermolecular Energy     =  -9.93 kcal/molUSER        vdW + Hbond + desolv Energy     =  -9.64 kcal/molUSER        Electrostatic Energy            =  -0.30 kcal/molUSER        Moving Ligand-Fixed Receptor    =  -9.93 kcal/molUSER        Moving Ligand-Moving Receptor   =  +0.00 kcal/molUSER    (2) Final Total Internal Energy     =  -0.27 kcal/molUSER    (3) Torsional Free Energy           =  +0.89 kcal/molUSER    (4) Unbound System's Energy         =  -0.27 kcal/molUSERUSERREMARK SMILES Cc1cc(-c2nc3cc(F)ccc3n3ccnc23)ccc1C(=O)OREMARK SMILES IDX 1 1 2 2 3 3 4 4 19 5 20 6 21 7 22 8 23 9 24 10 5 12 6 13REMARK SMILES IDX 18 14 7 15 17 16 14 17 8 18 13 19 16 20 15 21 9 22 12 23REMARK SMILES IDX 11 24 10 25REMARK H PARENT 24 11USER                              x       y       z     vdW  Elec       q    TypeUSER                           _______ _______ _______ _____ _____    ______ ____ROOTATOM      1  C   UNL     1      41.093  45.064  21.671 -0.30 +0.00    +0.045 C  ATOM      2  C   UNL     1      41.584  45.934  20.545 -0.34 -0.00    -0.036 A  ATOM      3  C   UNL     1      40.748  46.104  19.420 -0.41 +0.00    +0.014 A  ATOM      4  C   UNL     1      41.140  46.891  18.331 -0.52 -0.00    +0.004 A  ATOM      5  C   UNL     1      42.379  47.539  18.377 -0.47 -0.00    +0.011 A  ATOM      6  C   UNL     1      43.218  47.385  19.484 -0.46 +0.00    +0.016 A  ATOM      7  C   UNL     1      42.836  46.584  20.575 -0.33 +0.02    +0.062 A  ENDROOTBRANCH   7   8ATOM      8  C   UNL     1      43.756  46.451  21.745 -0.16 +0.17    +0.335 C  ATOM      9  O   UNL     1      43.616  45.735  22.719 -0.12 -0.08    -0.246 OA BRANCH   8  10ATOM     10  O   UNL     1      44.846  47.235  21.637 -0.66 -0.41    -0.478 OA ATOM     11  H   UNL     1      44.472  48.127  21.476 -0.43 +0.05    +0.297 HD ENDBRANCH   8  10ENDBRANCH   7   8BRANCH   4  12ATOM     12  C   UNL     1      40.272  47.100  17.131 -0.42 -0.02    +0.114 A  ATOM     13  N   UNL     1      39.190  46.375  17.008 -0.26 +0.06    -0.242 NA ATOM     14  C   UNL     1      40.594  48.088  16.122 -0.43 -0.03    +0.163 A  ATOM     15  C   UNL     1      38.354  46.547  15.880 -0.34 -0.03    +0.091 A  ATOM     16  N   UNL     1      41.604  48.936  16.096 -0.85 -0.02    -0.235 NA ATOM     17  N   UNL     1      39.777  48.253  15.030 -0.30 +0.09    -0.296 N  ATOM     18  C   UNL     1      37.215  45.752  15.773 -0.32 -0.03    +0.069 A  ATOM     19  C   UNL     1      38.618  47.482  14.860 -0.43 -0.03    +0.073 A  ATOM     20  C   UNL     1      41.442  49.654  14.939 -0.56 -0.02    +0.132 A  ATOM     21  C   UNL     1      40.317  49.246  14.258 -0.17 -0.04    +0.113 A  ATOM     22  C   UNL     1      36.371  45.894  14.675 -0.31 -0.07    +0.125 A  ATOM     23  C   UNL     1      37.773  47.629  13.757 -0.51 -0.01    +0.032 A  ATOM     24  C   UNL     1      36.639  46.823  13.670 -0.49 -0.02    +0.041 A  ATOM     25  F   UNL     1      35.279  45.126  14.581 -0.07 +0.12    -0.207 F  ENDBRANCH   4  12TORSDOF 3TERENDMDL