REMARK SMILES CCC[C@H](C)NC(=O)c1ccc(-c2ccc(F)cc2)cc1C#N
REMARK SMILES IDX 6 1 7 2 8 3 4 5 5 6 3 7 2 8 1 9 9 10 10 11 21 12 11 13 20 14
REMARK SMILES IDX 12 15 22 16 23 17 13 18 14 19 19 20 15 21 18 22 16 23 17 24
REMARK H PARENT 6 4
ROOT
ATOM      1  N   UNL     1       2.167   0.148   0.895  1.00  0.00    -0.350 N 
ATOM      2  C   UNL     1       1.285   1.206   0.906  1.00  0.00     0.252 C 
ATOM      3  O   UNL     1       1.591   2.372   1.107  1.00  0.00    -0.269 OA
ATOM      4  H   UNL     1       1.831  -0.782   0.681  1.00  0.00     0.164 HD
ENDROOT
BRANCH   1   5
ATOM      5  C   UNL     1       3.606   0.345   1.039  1.00  0.00     0.079 C 
ATOM      6  C   UNL     1       4.241  -0.893   1.661  1.00  0.00     0.031 C 
BRANCH   5   7
ATOM      7  C   UNL     1       4.250   0.767  -0.296  1.00  0.00     0.024 C 
BRANCH   7   8
ATOM      8  C   UNL     1       4.171  -0.259  -1.434  1.00  0.00    -0.001 C 
ATOM      9  C   UNL     1       5.404  -1.147  -1.533  1.00  0.00     0.004 C 
ENDBRANCH   7   8
ENDBRANCH   5   7
ENDBRANCH   1   5
BRANCH   2  10
ATOM     10  C   UNL     1      -0.126   0.854   0.639  1.00  0.00     0.057 A 
ATOM     11  C   UNL     1      -0.434   0.127  -0.518  1.00  0.00     0.016 A 
ATOM     12  C   UNL     1      -1.146   1.274   1.499  1.00  0.00     0.065 A 
ATOM     13  C   UNL     1      -1.764  -0.190  -0.811  1.00  0.00     0.009 A 
ATOM     14  C   UNL     1      -2.478   0.948   1.191  1.00  0.00     0.029 A 
ATOM     15  C   UNL     1      -2.808   0.215   0.037  1.00  0.00    -0.017 A 
BRANCH  12  16
ATOM     16  C   UNL     1      -0.879   1.987   2.715  1.00  0.00     0.100 C 
ATOM     17  N   UNL     1      -0.729   2.531   3.729  1.00  0.00    -0.192 NA
ENDBRANCH  12  16
BRANCH  15  18
ATOM     18  C   UNL     1      -4.208  -0.116  -0.275  1.00  0.00    -0.018 A 
ATOM     19  C   UNL     1      -4.601  -1.446  -0.515  1.00  0.00     0.012 A 
ATOM     20  C   UNL     1      -5.190   0.889  -0.342  1.00  0.00     0.012 A 
ATOM     21  C   UNL     1      -5.930  -1.760  -0.810  1.00  0.00     0.040 A 
ATOM     22  C   UNL     1      -6.520   0.575  -0.639  1.00  0.00     0.040 A 
ATOM     23  C   UNL     1      -6.876  -0.746  -0.870  1.00  0.00     0.123 A 
ATOM     24  F   UNL     1      -8.150  -1.047  -1.154  1.00  0.00    -0.207 F 
ENDBRANCH  15  18
ENDBRANCH   2  10
TORSDOF 6
