REMARK SMILES COC(=O)c1c(O)cccc1-c1cccc(/C=C/C(=O)O)c1O
REMARK SMILES IDX 12 1 13 2 14 3 15 4 16 5 22 6 11 7 5 8 6 9 8 10 10 11 9 12
REMARK SMILES IDX 3 13 4 14 2 15 1 16 7 17 23 19 17 21 18 22 19 23 20 24 21 25
REMARK H PARENT 7 18 23 20 21 26
ROOT
ATOM      1  C   UNL     1       0.282  -1.077  -0.014  1.00  0.00     0.025 A 
ATOM      2  C   UNL     1       0.750  -2.034   0.903  1.00  0.00     0.012 A 
ATOM      3  C   UNL     1       1.947  -1.843   1.594  1.00  0.00     0.002 A 
ATOM      4  C   UNL     1       2.707  -0.696   1.370  1.00  0.00     0.012 A 
ATOM      5  C   UNL     1       2.284   0.276   0.453  1.00  0.00     0.017 A 
ATOM      6  C   UNL     1       1.061   0.081  -0.213  1.00  0.00     0.130 A 
ENDROOT
BRANCH   1   7
ATOM      7  C   UNL     1      -0.971  -1.338  -0.749  1.00  0.00     0.004 A 
ATOM      8  C   UNL     1      -2.182  -0.668  -0.481  1.00  0.00     0.109 A 
ATOM      9  C   UNL     1      -3.349  -0.972  -1.196  1.00  0.00     0.130 A 
ATOM     10  C   UNL     1      -3.334  -1.959  -2.179  1.00  0.00     0.047 A 
ATOM     11  C   UNL     1      -0.981  -2.329  -1.749  1.00  0.00     0.010 A 
ATOM     12  C   UNL     1      -2.148  -2.637  -2.454  1.00  0.00     0.005 A 
BRANCH   8  13
ATOM     13  C   UNL     1      -2.216   0.402   0.525  1.00  0.00     0.342 C 
ATOM     14  O   UNL     1      -1.667   1.482   0.364  1.00  0.00    -0.246 OA
BRANCH  13  15
ATOM     15  O   UNL     1      -2.867  -0.042   1.625  1.00  0.00    -0.465 OA
ATOM     16  C   UNL     1      -2.929   0.918   2.678  1.00  0.00     0.282 C 
ENDBRANCH  13  15
ENDBRANCH   8  13
BRANCH   9  17
ATOM     17  O   UNL     1      -4.505  -0.288  -0.941  1.00  0.00    -0.507 OA
ATOM     18  H   UNL     1      -5.206  -0.606  -1.534  1.00  0.00     0.293 HD
ENDBRANCH   9  17
ENDBRANCH   1   7
BRANCH   6  19
ATOM     19  O   UNL     1       0.606   1.061  -1.062  1.00  0.00    -0.507 OA
ATOM     20  H   UNL     1      -0.199   1.433  -0.634  1.00  0.00     0.293 HD
ENDBRANCH   6  19
BRANCH   5  21
ATOM     21  C   UNL     1       3.128   1.471   0.292  1.00  0.00     0.019 C 
BRANCH  21  22
ATOM     22  C   UNL     1       3.445   1.996  -0.902  1.00  0.00     0.094 C 
BRANCH  22  23
ATOM     23  C   UNL     1       4.298   3.178  -1.072  1.00  0.00     0.328 C 
ATOM     24  O   UNL     1       4.604   3.662  -2.147  1.00  0.00    -0.247 OA
BRANCH  23  25
ATOM     25  O   UNL     1       4.743   3.703   0.081  1.00  0.00    -0.478 OA
ATOM     26  H   UNL     1       5.277   4.469  -0.211  1.00  0.00     0.297 HD
ENDBRANCH  23  25
ENDBRANCH  22  23
ENDBRANCH  21  22
ENDBRANCH   5  21
TORSDOF 9
