REMARK SMILES COCC[CH]CN1C(=O)Cc2ccccc2NN1c1cc(Cl)ccc1Cl
REMARK SMILES IDX 6 1 5 2 4 3 3 4 2 5 1 6 7 7 8 8 9 9 18 11 17 12 16 14 15 15
REMARK SMILES IDX 11 16 14 17 12 18 13 19 10 20 19 22 20 23 25 24 21 25 24 26
REMARK SMILES IDX 23 27 26 28 22 29
REMARK H PARENT 17 13
REMARK Flexibility Score:  104.900
ROOT
ATOM      1  C   UNL     1       1.406   1.236  -0.274  1.00  0.00     0.152 C 
ENDROOT
BRANCH   1   2
ATOM      2  C   UNL     1       2.445   0.729   0.669  1.00  0.00     0.018 C 
BRANCH   2   3
ATOM      3  C   UNL     1       3.171  -0.546   0.392  1.00  0.00     0.034 C 
BRANCH   3   4
ATOM      4  C   UNL     1       4.469  -0.320  -0.385  1.00  0.00     0.160 C 
BRANCH   4   5
ATOM      5  O   UNL     1       5.063  -1.557  -0.784  1.00  0.00    -0.385 OA
ATOM      6  C   UNL     1       5.779  -2.197   0.264  1.00  0.00     0.194 C 
ENDBRANCH   4   5
ENDBRANCH   3   4
ENDBRANCH   2   3
ENDBRANCH   1   2
BRANCH   1   7
ATOM      7  N   UNL     1       0.096   1.054   0.327  1.00  0.00    -0.234 N 
BRANCH   7   8
ATOM      8  C   UNL     1      -0.478   2.048   1.111  1.00  0.00     0.247 CG0
ATOM      9  O   UNL     1       0.158   3.013   1.544  1.00  0.00    -0.273 OA
ATOM     10  G   UNL     1      -1.946   1.863   1.458  1.00  0.00     0.000 G0
ENDBRANCH   7   8
BRANCH   7  11
ATOM     11  N   UNL     1      -0.753   0.147  -0.319  1.00  0.00    -0.191 N 
BRANCH  11  12
ATOM     12  N   UNL     1      -1.581   0.668  -1.260  1.00  0.00    -0.279 N 
ATOM     13  H   UNL     1      -1.758   0.046  -2.050  1.00  0.00     0.190 HD
BRANCH  12  14
ATOM     14  C   UNL     1      -2.708   1.469  -0.952  1.00  0.00     0.060 A 
ATOM     15  C   UNL     1      -3.620   1.747  -1.986  1.00  0.00     0.028 A 
ATOM     16  C   UNL     1      -2.889   2.092   0.299  1.00  0.00    -0.014 A 
ATOM     17  C   UNL     1      -4.723   2.574  -1.774  1.00  0.00     0.002 A 
ATOM     18  C   UNL     1      -4.013   2.915   0.502  1.00  0.00     0.006 A 
ATOM     19  C   UNL     1      -4.923   3.153  -0.527  1.00  0.00     0.000 A 
BRANCH  16  20
ATOM     20  C   UNL     1      -1.946   1.863   1.458  1.00  0.00     0.139 CG0
ATOM     21  G   UNL     1      -0.478   2.048   1.111  1.00  0.00     0.000 G0
ENDBRANCH  16  20
ENDBRANCH  12  14
ENDBRANCH  11  12
BRANCH  11  22
ATOM     22  C   UNL     1      -0.797  -1.193   0.186  1.00  0.00     0.102 A 
ATOM     23  C   UNL     1      -0.227  -1.498   1.444  1.00  0.00     0.052 A 
ATOM     24  C   UNL     1      -1.392  -2.270  -0.515  1.00  0.00     0.068 A 
ATOM     25  C   UNL     1      -0.256  -2.789   1.974  1.00  0.00     0.043 A 
ATOM     26  C   UNL     1      -1.422  -3.566   0.028  1.00  0.00     0.024 A 
ATOM     27  C   UNL     1      -0.856  -3.826   1.273  1.00  0.00     0.022 A 
ATOM     28  Cl  UNL     1      -2.068  -2.120  -2.106  1.00  0.00    -0.082 Cl
ATOM     29  Cl  UNL     1       0.457  -3.099   3.509  1.00  0.00    -0.084 Cl
ENDBRANCH  11  22
ENDBRANCH   7  11
ENDBRANCH   1   7
TORSDOF 6
