MODEL        8USER    Run = 8USERUSER    Estimated Free Energy of Binding    =  -6.95 kcal/mol  [=(1)+(2)+(3)-(4)]USERUSER    (1) Final Intermolecular Energy     = -10.24 kcal/molUSER        vdW + Hbond + desolv Energy     = -10.40 kcal/molUSER        Electrostatic Energy            =  -0.09 kcal/molUSER        Moving Ligand-Fixed Receptor    = -10.49 kcal/molUSER        Moving Ligand-Moving Receptor   =  +0.25 kcal/molUSER    (2) Final Total Internal Energy     =  -1.84 kcal/molUSER    (3) Torsional Free Energy           =  +3.28 kcal/molUSER    (4) Unbound System's Energy         =  -1.84 kcal/molUSERUSERREMARK SMILES COCC[CH]CN1C(=O)Cc2ccccc2NN1c1cc(Cl)ccc1ClREMARK SMILES IDX 6 1 5 2 4 3 3 4 2 5 1 6 7 7 8 8 9 9 18 11 17 12 16 14 15 15REMARK SMILES IDX 11 16 14 17 12 18 13 19 10 20 19 22 20 23 25 24 21 25 24 26REMARK SMILES IDX 23 27 26 28 22 29REMARK H PARENT 17 13REMARK Flexibility Score:  104.900USER                              x       y       z     vdW  Elec       q    TypeUSER                           _______ _______ _______ _____ _____    ______ ____ROOTATOM      1  C   UNL     1      36.670  46.301  15.824 -0.33 -0.10    +0.152 C  ENDROOTBRANCH   1   2ATOM      2  C   UNL     1      36.579  47.788  15.740 -0.26 -0.02    +0.018 C  BRANCH   2   3ATOM      3  C   UNL     1      37.296  48.537  14.665 -0.58 -0.03    +0.034 C  BRANCH   3   4ATOM      4  C   UNL     1      37.753  47.626  13.525 -0.47 -0.05    +0.160 C  BRANCH   4   5ATOM      5  O   UNL     1      36.967  47.825  12.348 -0.99 +0.10    -0.385 OA ATOM      6  C   UNL     1      36.213  46.678  11.978 -0.59 -0.09    +0.194 C  ENDBRANCH   4   5ENDBRANCH   3   4ENDBRANCH   2   3ENDBRANCH   1   2BRANCH   1   7ATOM      7  N   UNL     1      36.100  45.866  17.088 -0.21 +0.14    -0.234 N  BRANCH   7   8ATOM      8  C   UNL     1      34.830  46.272  17.480 -0.28 -0.23    +0.247 CG0ATOM      9  O   UNL     1      34.635  47.204  18.266 -0.84 +0.26    -0.273 OA ATOM     10  G   UNL     1      33.668  45.468  16.921 +0.00 +0.00    +0.000 G0 ENDBRANCH   7   8BRANCH   7  11ATOM     11  N   UNL     1      36.599  44.663  17.602 -0.21 +0.06    -0.191 N  BRANCH  11  12ATOM     12  N   UNL     1      35.929  43.537  17.248 -0.16 +0.09    -0.279 N  ATOM     13  H   UNL     1      36.517  42.705  17.181 +0.13 -0.05    +0.190 HD BRANCH  12  14ATOM     14  C   UNL     1      34.623  43.229  17.704 -0.30 -0.02    +0.060 A  ATOM     15  C   UNL     1      34.403  41.955  18.256 -0.38 -0.01    +0.028 A  ATOM     16  C   UNL     1      33.522  44.090  17.520 -0.30 +0.01    -0.014 A  ATOM     17  C   UNL     1      33.133  41.558  18.675 -0.39 -0.00    +0.002 A  ATOM     18  C   UNL     1      32.248  43.681  17.958 -0.31 -0.00    +0.006 A  ATOM     19  C   UNL     1      32.056  42.425  18.532 -0.34 -0.00    +0.000 A  BRANCH  16  20ATOM     20  C   UNL     1      33.668  45.468  16.918 -0.29 -0.11    +0.139 CG0ATOM     21  G   UNL     1      34.829  46.272  17.478 +0.00 +0.00    +0.000 G0 ENDBRANCH  16  20ENDBRANCH  12  14ENDBRANCH  11  12BRANCH  11  22ATOM     22  C   UNL     1      37.644  44.744  18.579 -0.30 -0.02    +0.102 A  ATOM     23  C   UNL     1      38.926  45.215  18.212 -0.37 -0.01    +0.052 A  ATOM     24  C   UNL     1      37.473  44.369  19.934 -0.33 -0.00    +0.068 A  ATOM     25  C   UNL     1      39.968  45.315  19.135 -0.41 -0.00    +0.043 A  ATOM     26  C   UNL     1      38.526  44.479  20.859 -0.35 +0.00    +0.024 A  ATOM     27  C   UNL     1      39.772  44.953  20.461 -0.35 +0.00    +0.022 A  ATOM     28  Cl  UNL     1      36.006  43.689  20.562 -0.57 +0.00    -0.082 Cl ATOM     29  Cl  UNL     1      41.507  45.893  18.628 -0.64 -0.00    -0.084 Cl ENDBRANCH  11  22ENDBRANCH   7  11ENDBRANCH   1   7TORSDOF 6TERENDMDL