MODEL        6USER    Run = 6USERUSER    Estimated Free Energy of Binding    = -10.05 kcal/mol  [=(1)+(2)+(3)-(4)]USERUSER    (1) Final Intermolecular Energy     = -11.84 kcal/molUSER        vdW + Hbond + desolv Energy     = -11.62 kcal/molUSER        Electrostatic Energy            =  -0.22 kcal/molUSER        Moving Ligand-Fixed Receptor    = -11.84 kcal/molUSER        Moving Ligand-Moving Receptor   =  +0.00 kcal/molUSER    (2) Final Total Internal Energy     =  -0.61 kcal/molUSER    (3) Torsional Free Energy           =  +1.79 kcal/molUSER    (4) Unbound System's Energy         =  -0.61 kcal/molUSERUSERREMARK SMILES C[C@@H](N)CC[C@H]1C(=O)C=Cc2ncc(-c3ccnc(N)c3)cc21REMARK SMILES IDX 5 1 4 2 2 3 1 4 3 5 6 8 7 9 23 10 9 11 22 12 11 13 10 14REMARK SMILES IDX 14 15 12 16 13 17 8 18 15 19 16 20 21 21 17 22 19 23 18 24REMARK SMILES IDX 20 25REMARK H PARENT 3 6 3 7 20 26 20 27USER                              x       y       z     vdW  Elec       q    TypeUSER                           _______ _______ _______ _____ _____    ______ ____ROOTATOM      1  C   UNL     1      35.506  46.630  16.434 -0.31 -0.02    +0.018 C  ENDROOTBRANCH   1   2ATOM      2  C   UNL     1      34.567  45.473  16.814 -0.38 -0.01    +0.019 C  BRANCH   2   3ATOM      3  C   UNL     1      34.019  45.596  18.246 -0.49 -0.03    +0.047 C  ATOM      4  C   UNL     1      34.842  44.751  19.216 -0.43 -0.01    +0.024 C  BRANCH   3   5ATOM      5  N   UNL     1      34.032  46.996  18.682 -0.88 +0.24    -0.328 NA ATOM      6  H   UNL     1      33.541  47.566  17.991 -0.47 -0.20    +0.119 HD ATOM      7  H   UNL     1      33.494  47.088  19.544 -0.51 -0.06    +0.119 HD ENDBRANCH   3   5ENDBRANCH   2   3ENDBRANCH   1   2BRANCH   1   8ATOM      8  C   UNL     1      36.547  46.237  15.363 -0.37 -0.06    +0.093 C  ATOM      9  C   UNL     1      36.025  46.597  13.971 -0.41 -0.11    +0.163 C  ATOM     10  C   UNL     1      37.889  46.871  15.677 -0.40 +0.01    -0.011 A  ATOM     11  C   UNL     1      36.587  47.771  13.264 -0.65 -0.03    +0.050 C  ATOM     12  C   UNL     1      38.654  46.442  16.773 -0.40 -0.01    +0.017 A  ATOM     13  C   UNL     1      38.402  47.903  14.898 -0.46 -0.03    +0.067 A  ATOM     14  C   UNL     1      37.689  48.376  13.720 -0.53 -0.01    +0.032 C  ATOM     15  C   UNL     1      39.880  47.049  17.073 -0.49 -0.00    +0.001 A  ATOM     16  N   UNL     1      39.576  48.516  15.151 -0.32 +0.10    -0.256 NA ATOM     17  C   UNL     1      40.278  48.081  16.226 -0.45 -0.03    +0.120 A  ATOM     18  O   UNL     1      35.120  45.967  13.422 -0.27 +0.19    -0.294 OA BRANCH  15  19ATOM     19  C   UNL     1      40.694  46.624  18.220 -0.49 +0.00    -0.012 A  ATOM     20  C   UNL     1      40.262  45.608  19.077 -0.43 -0.00    +0.029 A  ATOM     21  C   UNL     1      41.934  47.221  18.494 -0.49 -0.00    +0.055 A  ATOM     22  C   UNL     1      41.070  45.249  20.142 -0.31 +0.01    +0.114 A  ATOM     23  C   UNL     1      42.683  46.794  19.587 -0.36 +0.03    +0.123 A  ATOM     24  N   UNL     1      42.262  45.820  20.406 -0.20 -0.06    -0.240 NA BRANCH  23  25ATOM     25  N   UNL     1      43.922  47.380  19.859 -0.15 -0.18    -0.384 N  ATOM     26  H   UNL     1      44.102  48.127  19.195 -0.50 +0.01    +0.158 HD ATOM     27  H   UNL     1      43.919  47.775  20.793 -0.46 +0.03    +0.158 HD ENDBRANCH  23  25ENDBRANCH  15  19ENDBRANCH   1   8TORSDOF 6TERENDMDL