MODEL        4USER    Run = 4USERUSER    Estimated Free Energy of Binding    =  -6.85 kcal/mol  [=(1)+(2)+(3)-(4)]USERUSER    (1) Final Intermolecular Energy     =  -9.53 kcal/molUSER        vdW + Hbond + desolv Energy     =  -9.40 kcal/molUSER        Electrostatic Energy            =  -0.13 kcal/molUSER        Moving Ligand-Fixed Receptor    =  -9.53 kcal/molUSER        Moving Ligand-Moving Receptor   =  +0.00 kcal/molUSER    (2) Final Total Internal Energy     =  -4.18 kcal/molUSER    (3) Torsional Free Energy           =  +2.68 kcal/molUSER    (4) Unbound System's Energy         =  -4.18 kcal/molUSERUSERREMARK SMILES COC(=O)c1c(O)cccc1-c1cccc(/C=C/C(=O)O)c1OREMARK SMILES IDX 12 1 13 2 14 3 15 4 16 5 22 6 11 7 5 8 6 9 8 10 10 11 9 12REMARK SMILES IDX 3 13 4 14 2 15 1 16 7 17 23 19 17 21 18 22 19 23 20 24 21 25REMARK H PARENT 7 18 23 20 21 26USER                              x       y       z     vdW  Elec       q    TypeUSER                           _______ _______ _______ _____ _____    ______ ____ROOTATOM      1  C   UNL     1      37.710  45.728  16.429 -0.35 -0.01    +0.025 A  ATOM      2  C   UNL     1      36.469  45.609  17.078 -0.34 -0.01    +0.012 A  ATOM      3  C   UNL     1      35.303  45.344  16.358 -0.33 -0.00    +0.002 A  ATOM      4  C   UNL     1      35.355  45.207  14.971 -0.33 -0.01    +0.012 A  ATOM      5  C   UNL     1      36.570  45.333  14.284 -0.40 -0.01    +0.017 A  ATOM      6  C   UNL     1      37.739  45.572  15.028 -0.28 -0.05    +0.130 A  ENDROOTBRANCH   1   7ATOM      7  C   UNL     1      38.911  46.045  17.226 -0.41 -0.00    +0.004 A  ATOM      8  C   UNL     1      39.824  47.063  16.883 -0.41 -0.02    +0.109 A  ATOM      9  C   UNL     1      40.961  47.306  17.666 -0.42 -0.01    +0.130 A  ATOM     10  C   UNL     1      41.217  46.531  18.795 -0.46 +0.00    +0.047 A  ATOM     11  C   UNL     1      39.189  45.278  18.373 -0.41 -0.00    +0.010 A  ATOM     12  C   UNL     1      40.329  45.516  19.147 -0.45 -0.00    +0.005 A  BRANCH   8  13ATOM     13  C   UNL     1      39.559  47.918  15.718 -0.32 -0.11    +0.342 C  ATOM     14  O   UNL     1      38.466  48.418  15.497 -0.37 +0.15    -0.246 OA BRANCH  13  15ATOM     15  O   UNL     1      40.670  47.977  14.948 -0.19 +0.06    -0.465 OA ATOM     16  C   UNL     1      41.017  49.302  14.548 -0.44 -0.07    +0.282 C  ENDBRANCH  13  15ENDBRANCH   8  13BRANCH   9  17ATOM     17  O   UNL     1      41.818  48.318  17.331 -0.54 -0.01    -0.507 OA ATOM     18  H   UNL     1      42.208  48.137  16.460 -0.29 +0.01    +0.293 HD ENDBRANCH   9  17ENDBRANCH   1   7BRANCH   6  19ATOM     19  O   UNL     1      38.943  45.629  14.369 -0.09 +0.11    -0.507 OA ATOM     20  H   UNL     1      39.144  46.587  14.262 +0.22 -0.06    +0.293 HD ENDBRANCH   6  19BRANCH   5  21ATOM     21  C   UNL     1      36.546  45.149  12.824 -0.54 -0.01    +0.019 C  BRANCH  21  22ATOM     22  C   UNL     1      36.565  46.168  11.950 -0.65 -0.04    +0.094 C  BRANCH  22  23ATOM     23  C   UNL     1      36.889  47.551  12.318 -0.38 -0.10    +0.328 C  ATOM     24  O   UNL     1      36.116  48.489  12.235 -0.81 +0.11    -0.247 OA BRANCH  23  25ATOM     25  O   UNL     1      38.145  47.721  12.760 -0.62 +0.03    -0.478 OA ATOM     26  H   UNL     1      38.081  47.504  13.712 +0.23 -0.09    +0.297 HD ENDBRANCH  23  25ENDBRANCH  22  23ENDBRANCH  21  22ENDBRANCH   5  21TORSDOF 9TERENDMDL