REMARK SMILES C[C@@H](N)CC[C@H]1C(=O)C=Cc2ncc(-c3ccnc(N)c3)cc21
REMARK SMILES IDX 5 1 4 2 2 3 1 4 3 5 6 8 7 9 23 10 9 11 22 12 11 13 10 14
REMARK SMILES IDX 14 15 12 16 13 17 8 18 15 19 16 20 21 21 17 22 19 23 18 24
REMARK SMILES IDX 20 25
REMARK H PARENT 3 6 3 7 20 26 20 27
ROOT
ATOM      1  C   UNL     1      -2.142   0.150   0.259  1.00  0.00     0.018 C 
ENDROOT
BRANCH   1   2
ATOM      2  C   UNL     1      -3.300  -0.844   0.072  1.00  0.00     0.019 C 
BRANCH   2   3
ATOM      3  C   UNL     1      -3.916  -1.298   1.406  1.00  0.00     0.047 C 
ATOM      4  C   UNL     1      -5.156  -2.157   1.166  1.00  0.00     0.024 C 
BRANCH   3   5
ATOM      5  N   UNL     1      -2.938  -2.056   2.192  1.00  0.00    -0.328 NA
ATOM      6  H   UNL     1      -3.365  -2.340   3.075  1.00  0.00     0.119 HD
ATOM      7  H   UNL     1      -2.711  -2.924   1.707  1.00  0.00     0.119 HD
ENDBRANCH   3   5
ENDBRANCH   2   3
ENDBRANCH   1   2
BRANCH   1   8
ATOM      8  C   UNL     1      -1.449   0.527  -1.069  1.00  0.00     0.093 C 
ATOM      9  C   UNL     1      -2.347   1.463  -1.879  1.00  0.00     0.163 C 
ATOM     10  C   UNL     1      -0.074   1.109  -0.797  1.00  0.00    -0.011 A 
ATOM     11  C   UNL     1      -2.012   2.904  -1.959  1.00  0.00     0.050 C 
ATOM     12  C   UNL     1       0.973   0.304  -0.322  1.00  0.00     0.017 A 
ATOM     13  C   UNL     1       0.193   2.459  -1.000  1.00  0.00     0.067 A 
ATOM     14  C   UNL     1      -0.828   3.352  -1.530  1.00  0.00     0.032 C 
ATOM     15  C   UNL     1       2.232   0.852  -0.048  1.00  0.00     0.001 A 
ATOM     16  N   UNL     1       1.389   3.029  -0.748  1.00  0.00    -0.256 NA
ATOM     17  C   UNL     1       2.369   2.220  -0.278  1.00  0.00     0.120 A 
ATOM     18  O   UNL     1      -3.369   1.072  -2.444  1.00  0.00    -0.294 OA
BRANCH  15  19
ATOM     19  C   UNL     1       3.340   0.032   0.459  1.00  0.00    -0.012 A 
ATOM     20  C   UNL     1       3.179  -0.791   1.577  1.00  0.00     0.029 A 
ATOM     21  C   UNL     1       4.598   0.043  -0.162  1.00  0.00     0.055 A 
ATOM     22  C   UNL     1       4.257  -1.542   2.011  1.00  0.00     0.114 A 
ATOM     23  C   UNL     1       5.627  -0.748   0.341  1.00  0.00     0.123 A 
ATOM     24  N   UNL     1       5.466  -1.533   1.415  1.00  0.00    -0.240 NA
BRANCH  23  25
ATOM     25  N   UNL     1       6.880  -0.746  -0.279  1.00  0.00    -0.384 N 
ATOM     26  H   UNL     1       6.786  -1.051  -1.243  1.00  0.00     0.158 HD
ATOM     27  H   UNL     1       7.265   0.192  -0.276  1.00  0.00     0.158 HD
ENDBRANCH  23  25
ENDBRANCH  15  19
ENDBRANCH   1   8
TORSDOF 6
