MODEL        6USER    Run = 6USERUSER    Estimated Free Energy of Binding    =  -7.95 kcal/mol  [=(1)+(2)+(3)-(4)]USERUSER    (1) Final Intermolecular Energy     = -12.42 kcal/molUSER        vdW + Hbond + desolv Energy     = -12.43 kcal/molUSER        Electrostatic Energy            =  -0.12 kcal/molUSER        Moving Ligand-Fixed Receptor    = -12.55 kcal/molUSER        Moving Ligand-Moving Receptor   =  +0.13 kcal/molUSER    (2) Final Total Internal Energy     =  -3.52 kcal/molUSER    (3) Torsional Free Energy           =  +4.47 kcal/molUSER    (4) Unbound System's Energy         =  -3.52 kcal/molUSERUSERREMARK SMILES O=C(N[C@@H]1CNCCC[C@H]1/C=C/c1ccc(CN2CCC(n3c(O)nc4ccccc43)CC2)cc1)c1ccncc1REMARK SMILES IDX 12 1 11 2 10 3 4 4 3 5 2 6 1 7 36 9 37 10 41 11 38 12 40 13REMARK SMILES IDX 39 14 5 15 6 16 7 18 9 20 8 21 13 23 14 24 35 25 15 26 34 27REMARK SMILES IDX 16 28 17 29 18 30 19 31 33 32 20 33 32 34 21 35 22 36 23 37REMARK SMILES IDX 31 38 25 39 30 40 26 41 29 42 27 43 28 44 24 45REMARK H PARENT 3 8 6 17 24 46REMARK Flexibility Score:  177.900USER                              x       y       z     vdW  Elec       q    TypeUSER                           _______ _______ _______ _____ _____    ______ ____ROOTATOM      1  C   UNL     1      36.519  44.803  27.893 -0.49 -0.00    +0.004 C  ENDROOTBRANCH   1   2ATOM      2  C   UNL     1      36.115  46.068  28.095 -0.32 +0.01    -0.021 C  BRANCH   2   3ATOM      3  C   UNL     1      36.855  47.353  27.729 -0.34 -0.01    +0.035 C  BRANCH   3   4ATOM      4  C   UNL     1      36.907  47.681  26.209 -0.38 -0.01    +0.103 C  BRANCH   4   5ATOM      5  N   UNL     1      38.271  48.127  25.869 -0.13 -0.02    -0.347 N  ATOM      6  C   UNL     1      39.040  47.487  24.921 -0.23 +0.02    +0.251 C  ATOM      7  O   UNL     1      38.670  46.510  24.284 -0.29 -0.03    -0.269 OA ATOM      8  H   UNL     1      38.558  49.037  26.199 +0.08 +0.02    +0.164 HD BRANCH   6   9ATOM      9  C   UNL     1      40.383  48.073  24.664 -0.28 +0.01    +0.042 A  ATOM     10  C   UNL     1      40.974  48.983  25.543 -0.27 +0.01    +0.034 A  ATOM     11  C   UNL     1      41.071  47.674  23.518 -0.24 +0.00    +0.034 A  ATOM     12  C   UNL     1      42.220  49.486  25.209 -0.20 +0.02    +0.112 A  ATOM     13  C   UNL     1      42.311  48.235  23.276 -0.29 +0.02    +0.112 A  ATOM     14  N   UNL     1      42.895  49.141  24.091 -0.76 -0.09    -0.265 NA ENDBRANCH   6   9ENDBRANCH   4   5BRANCH   4  15ATOM     15  C   UNL     1      35.865  48.737  25.765 -0.43 -0.01    +0.106 C  BRANCH  15  16ATOM     16  N   UNL     1      36.304  50.121  25.956 -0.23 -0.01    -0.315 NA ATOM     17  H   UNL     1      37.268  50.210  25.637 +0.06 +0.01    +0.122 HD BRANCH  16  18ATOM     18  C   UNL     1      36.200  50.639  27.310 -0.27 +0.01    +0.081 CG0ATOM     19  G   UNL     1      36.992  49.866  28.365 +0.00 +0.00    +0.000 G0 ENDBRANCH  16  18ENDBRANCH  15  16ENDBRANCH   4  15ENDBRANCH   3   4BRANCH   3  20ATOM     20  C   UNL     1      36.392  48.493  28.653 -0.28 -0.00    +0.011 C  BRANCH  20  21ATOM     21  C   UNL     1      36.991  49.866  28.364 -0.24 +0.00    +0.016 CG0ATOM     22  G   UNL     1      36.200  50.640  27.309 +0.00 +0.00    +0.000 G0 ENDBRANCH  20  21ENDBRANCH   3  20ENDBRANCH   2   3ENDBRANCH   1   2BRANCH   1  23ATOM     23  C   UNL     1      37.357  44.365  26.763 -0.31 +0.00    -0.026 A  ATOM     24  C   UNL     1      38.716  44.060  26.905 -0.21 -0.00    +0.008 A  ATOM     25  C   UNL     1      36.759  44.197  25.508 -0.34 -0.00    +0.008 A  ATOM     26  C   UNL     1      39.470  43.633  25.807 -0.16 -0.00    +0.005 A  ATOM     27  C   UNL     1      37.511  43.767  24.409 -0.32 +0.00    +0.005 A  ATOM     28  C   UNL     1      38.876  43.486  24.547 -0.20 -0.00    -0.034 A  BRANCH  28  29ATOM     29  C   UNL     1      39.693  43.030  23.359 -0.23 +0.01    +0.120 C  BRANCH  29  30ATOM     30  N   UNL     1      40.284  44.128  22.574 -0.08 -0.01    -0.299 NA ATOM     31  C   UNL     1      41.279  43.610  21.622 -0.33 +0.01    +0.087 C  ATOM     32  C   UNL     1      39.266  44.988  21.963 -0.31 +0.00    +0.087 C  ATOM     33  C   UNL     1      41.083  44.064  20.177 -0.33 +0.00    +0.041 C  ATOM     34  C   UNL     1      39.902  46.109  21.139 +0.10 +0.00    +0.041 C  ATOM     35  C   UNL     1      40.914  45.583  20.110 -0.39 +0.01    +0.095 C  BRANCH  35  36ATOM     36  N   UNL     1      40.653  46.040  18.750 -0.27 +0.01    -0.291 N  ATOM     37  C   UNL     1      41.463  46.879  18.034 -0.27 -0.02    +0.295 A  ATOM     38  C   UNL     1      39.594  45.712  17.927 -0.39 -0.01    +0.072 A  ATOM     39  N   UNL     1      41.025  47.125  16.831 -0.32 +0.02    -0.195 NA ATOM     40  C   UNL     1      38.459  44.903  18.078 -0.37 -0.00    +0.029 A  ATOM     41  C   UNL     1      39.857  46.409  16.743 -0.39 -0.02    +0.092 A  ATOM     42  C   UNL     1      37.577  44.818  16.994 -0.35 -0.00    +0.002 A  ATOM     43  C   UNL     1      38.960  46.309  15.668 -0.40 -0.01    +0.031 A  ATOM     44  C   UNL     1      37.821  45.509  15.807 -0.36 -0.00    +0.002 A  BRANCH  37  45ATOM     45  O   UNL     1      42.587  47.400  18.481 -0.29 -0.01    -0.480 OA ATOM     46  H   UNL     1      43.077  47.532  17.648 -0.36 -0.06    +0.296 HD ENDBRANCH  37  45ENDBRANCH  35  36ENDBRANCH  29  30ENDBRANCH  28  29ENDBRANCH   1  23TORSDOF 9TERENDMDL