REMARK SMILES O=C(N[C@@H]1CNCCC[C@H]1/C=C/c1ccc(CN2CCC(n3c(O)nc4ccccc43)CC2)cc1)c1ccncc1
REMARK SMILES IDX 12 1 11 2 10 3 4 4 3 5 2 6 1 7 36 9 37 10 41 11 38 12 40 13
REMARK SMILES IDX 39 14 5 15 6 16 7 18 9 20 8 21 13 23 14 24 35 25 15 26 34 27
REMARK SMILES IDX 16 28 17 29 18 30 19 31 33 32 20 33 32 34 21 35 22 36 23 37
REMARK SMILES IDX 31 38 25 39 30 40 26 41 29 42 27 43 28 44 24 45
REMARK H PARENT 3 8 6 17 24 46
REMARK Flexibility Score:  177.900
ROOT
ATOM      1  C   UNL     1      -2.518  -0.726  -0.721  1.00  0.00     0.004 C 
ENDROOT
BRANCH   1   2
ATOM      2  C   UNL     1      -3.103  -1.736  -1.387  1.00  0.00    -0.021 C 
BRANCH   2   3
ATOM      3  C   UNL     1      -4.402  -1.695  -2.189  1.00  0.00     0.035 C 
BRANCH   3   4
ATOM      4  C   UNL     1      -5.328  -0.480  -1.895  1.00  0.00     0.103 C 
BRANCH   4   5
ATOM      5  N   UNL     1      -5.843  -0.601  -0.519  1.00  0.00    -0.347 N 
ATOM      6  C   UNL     1      -6.198   0.498   0.234  1.00  0.00     0.251 C 
ATOM      7  O   UNL     1      -6.123   1.653  -0.163  1.00  0.00    -0.269 OA
ATOM      8  H   UNL     1      -6.124  -1.519  -0.207  1.00  0.00     0.164 HD
BRANCH   6   9
ATOM      9  C   UNL     1      -6.732   0.215   1.593  1.00  0.00     0.042 A 
ATOM     10  C   UNL     1      -6.347  -0.914   2.319  1.00  0.00     0.034 A 
ATOM     11  C   UNL     1      -7.626   1.126   2.156  1.00  0.00     0.034 A 
ATOM     12  C   UNL     1      -6.911  -1.100   3.570  1.00  0.00     0.112 A 
ATOM     13  C   UNL     1      -8.132   0.848   3.412  1.00  0.00     0.112 A 
ATOM     14  N   UNL     1      -7.802  -0.251   4.126  1.00  0.00    -0.265 NA
ENDBRANCH   6   9
ENDBRANCH   4   5
BRANCH   4  15
ATOM     15  C   UNL     1      -6.497  -0.332  -2.900  1.00  0.00     0.106 C 
BRANCH  15  16
ATOM     16  N   UNL     1      -6.155   0.433  -4.100  1.00  0.00    -0.315 NA
ATOM     17  H   UNL     1      -7.014   0.750  -4.548  1.00  0.00     0.122 HD
BRANCH  16  18
ATOM     18  C   UNL     1      -5.333  -0.258  -5.081  1.00  0.00     0.081 CG0
ATOM     19  G   UNL     1      -3.978  -0.744  -4.567  1.00  0.00     0.000 G0
ENDBRANCH  16  18
ENDBRANCH  15  16
ENDBRANCH   4  15
ENDBRANCH   3   4
BRANCH   3  20
ATOM     20  C   UNL     1      -4.099  -1.973  -3.672  1.00  0.00     0.011 C 
BRANCH  20  21
ATOM     21  C   UNL     1      -3.978  -0.744  -4.567  1.00  0.00     0.016 CG0
ATOM     22  G   UNL     1      -5.333  -0.258  -5.081  1.00  0.00     0.000 G0
ENDBRANCH  20  21
ENDBRANCH   3  20
ENDBRANCH   2   3
ENDBRANCH   1   2
BRANCH   1  23
ATOM     23  C   UNL     1      -1.281  -0.853   0.069  1.00  0.00    -0.026 A 
ATOM     24  C   UNL     1      -0.254  -1.740  -0.274  1.00  0.00     0.008 A 
ATOM     25  C   UNL     1      -1.103  -0.017   1.178  1.00  0.00     0.008 A 
ATOM     26  C   UNL     1       0.910  -1.817   0.497  1.00  0.00     0.005 A 
ATOM     27  C   UNL     1       0.062  -0.089   1.949  1.00  0.00     0.005 A 
ATOM     28  C   UNL     1       1.078  -0.995   1.619  1.00  0.00    -0.034 A 
BRANCH  28  29
ATOM     29  C   UNL     1       2.335  -1.082   2.456  1.00  0.00     0.120 C 
BRANCH  29  30
ATOM     30  N   UNL     1       3.156   0.141   2.442  1.00  0.00    -0.299 NA
ATOM     31  C   UNL     1       4.221   0.064   3.455  1.00  0.00     0.087 C 
ATOM     32  C   UNL     1       3.636   0.476   1.098  1.00  0.00     0.087 C 
ATOM     33  C   UNL     1       5.627   0.355   2.933  1.00  0.00     0.041 C 
ATOM     34  C   UNL     1       4.501   1.738   1.110  1.00  0.00     0.041 C 
ATOM     35  C   UNL     1       5.644   1.659   2.134  1.00  0.00     0.095 C 
BRANCH  35  36
ATOM     36  N   UNL     1       6.958   1.926   1.561  1.00  0.00    -0.291 N 
ATOM     37  C   UNL     1       7.800   2.928   1.962  1.00  0.00     0.295 A 
ATOM     38  C   UNL     1       7.609   1.237   0.558  1.00  0.00     0.072 A 
ATOM     39  N   UNL     1       8.930   2.950   1.311  1.00  0.00    -0.195 NA
ATOM     40  C   UNL     1       7.278   0.129  -0.234  1.00  0.00     0.029 A 
ATOM     41  C   UNL     1       8.831   1.905   0.426  1.00  0.00     0.092 A 
ATOM     42  C   UNL     1       8.218  -0.292  -1.183  1.00  0.00     0.002 A 
ATOM     43  C   UNL     1       9.760   1.466  -0.531  1.00  0.00     0.031 A 
ATOM     44  C   UNL     1       9.440   0.364  -1.331  1.00  0.00     0.002 A 
BRANCH  37  45
ATOM     45  O   UNL     1       7.534   3.797   2.915  1.00  0.00    -0.480 OA
ATOM     46  H   UNL     1       8.350   4.331   2.916  1.00  0.00     0.296 HD
ENDBRANCH  37  45
ENDBRANCH  35  36
ENDBRANCH  29  30
ENDBRANCH  28  29
ENDBRANCH   1  23
TORSDOF 9
