MODEL        2USER    Run = 2USERUSER    Estimated Free Energy of Binding    = -12.57 kcal/mol  [=(1)+(2)+(3)-(4)]USERUSER    (1) Final Intermolecular Energy     = -15.55 kcal/molUSER        vdW + Hbond + desolv Energy     = -15.50 kcal/molUSER        Electrostatic Energy            =  -0.05 kcal/molUSER        Moving Ligand-Fixed Receptor    = -15.55 kcal/molUSER        Moving Ligand-Moving Receptor   =  +0.00 kcal/molUSER    (2) Final Total Internal Energy     =  -2.64 kcal/molUSER    (3) Torsional Free Energy           =  +2.98 kcal/molUSER    (4) Unbound System's Energy         =  -2.64 kcal/molUSERUSERREMARK SMILES N#Cc1cnc(-c2ccc(CNCc3ccc(-c4nc5cc(F)ccc5nc4-c4ccc(N5CCOCC5)cc4)cc3)cc2)c(-c2ccccc2)c1REMARK SMILES IDX 12 1 11 3 10 4 7 5 8 6 44 7 9 8 43 9 6 10 3 11 4 12 52 13REMARK SMILES IDX 5 14 45 15 2 16 1 17 46 18 47 19 51 20 48 21 50 22 49 23REMARK SMILES IDX 13 24 14 25 15 26 42 27 16 28 41 29 17 30 18 31 19 32 28 33REMARK SMILES IDX 20 34 27 35 21 36 26 37 22 38 25 39 24 40 23 41 29 42 30 43REMARK SMILES IDX 40 44 31 45 39 46 32 47 33 48 34 49 38 50 35 51 37 52 36 53REMARK H PARENT 12 2USER                              x       y       z     vdW  Elec       q    TypeUSER                           _______ _______ _______ _____ _____    ______ ____ROOTATOM      1  N   UNL     1      43.155  46.397  22.145 -0.13 -0.09    -0.309 NA ATOM      2  H   UNL     1      42.744  45.467  22.193 +0.06 +0.03    +0.123 HD ENDROOTBRANCH   1   3ATOM      3  C   UNL     1      43.545  46.662  20.759 -0.23 +0.06    +0.117 C  BRANCH   3   4ATOM      4  C   UNL     1      42.373  46.649  19.805 -0.43 -0.01    -0.034 A  ATOM      5  C   UNL     1      40.188  46.627  17.987 -0.48 -0.00    +0.001 A  ATOM      6  C   UNL     1      41.128  47.669  17.980 -0.48 -0.00    +0.011 A  ATOM      7  C   UNL     1      40.356  45.607  18.941 -0.45 -0.00    +0.011 A  ATOM      8  C   UNL     1      42.209  47.676  18.867 -0.42 +0.00    +0.006 A  ATOM      9  C   UNL     1      41.433  45.612  19.835 -0.41 +0.00    +0.006 A  BRANCH   5  10ATOM     10  C   UNL     1      39.039  46.601  17.056 -0.38 -0.02    +0.078 A  ATOM     11  C   UNL     1      36.742  46.383  15.530 -0.33 -0.04    +0.071 A  ATOM     12  C   UNL     1      36.987  45.576  16.622 -0.27 -0.06    +0.131 A  ATOM     13  C   UNL     1      37.706  47.331  15.189 -0.42 -0.02    +0.032 A  ATOM     14  N   UNL     1      38.104  45.659  17.378 -0.22 +0.07    -0.254 NA ATOM     15  C   UNL     1      38.887  47.462  15.947 -0.46 -0.00    +0.009 A  BRANCH  11  16ATOM     16  C   UNL     1      35.536  46.242  14.779 -0.38 -0.08    +0.101 C  ATOM     17  N   UNL     1      34.555  46.135  14.168 -0.28 +0.17    -0.192 NA ENDBRANCH  11  16BRANCH  15  18ATOM     18  C   UNL     1      39.892  48.455  15.527 -0.55 +0.01    -0.016 A  ATOM     19  C   UNL     1      40.866  48.128  14.565 -0.42 -0.00    +0.009 A  ATOM     20  C   UNL     1      39.912  49.747  16.078 -0.16 -0.00    +0.009 A  ATOM     21  C   UNL     1      41.821  49.064  14.159 -0.37 -0.00    +0.001 A  ATOM     22  C   UNL     1      40.868  50.684  15.672 -0.36 -0.00    +0.001 A  ATOM     23  C   UNL     1      41.821  50.343  14.713 -0.68 -0.00    +0.000 A  ENDBRANCH  15  18ENDBRANCH   5  10ENDBRANCH   3   4ENDBRANCH   1   3BRANCH   1  24ATOM     24  C   UNL     1      42.177  47.356  22.670 -0.26 +0.02    +0.117 C  BRANCH  24  25ATOM     25  C   UNL     1      41.056  46.684  23.430 -0.20 -0.00    -0.034 A  ATOM     26  C   UNL     1      39.739  47.141  23.284 -0.15 +0.00    +0.006 A  ATOM     27  C   UNL     1      41.311  45.623  24.309 -0.11 +0.00    +0.006 A  ATOM     28  C   UNL     1      38.703  46.564  24.021 -0.31 +0.00    +0.011 A  ATOM     29  C   UNL     1      40.271  45.047  25.048 -0.11 +0.00    +0.011 A  ATOM     30  C   UNL     1      38.955  45.524  24.934 -0.20 +0.00    +0.002 A  BRANCH  30  31ATOM     31  C   UNL     1      37.875  44.957  25.754 -0.23 -0.00    +0.097 A  ATOM     32  N   UNL     1      37.635  43.633  25.552 -0.13 +0.00    -0.244 NA ATOM     33  C   UNL     1      37.123  45.700  26.678 -0.28 -0.01    +0.097 A  ATOM     34  C   UNL     1      36.631  43.078  26.254 -0.33 -0.01    +0.092 A  ATOM     35  N   UNL     1      36.107  45.139  27.387 -0.15 +0.07    -0.244 NA ATOM     36  C   UNL     1      36.340  41.735  26.073 -0.39 -0.01    +0.069 A  ATOM     37  C   UNL     1      35.860  43.836  27.173 -0.40 -0.02    +0.090 A  ATOM     38  C   UNL     1      35.307  41.135  26.783 -0.48 -0.05    +0.125 A  ATOM     39  C   UNL     1      34.832  43.213  27.871 -0.57 -0.01    +0.033 A  ATOM     40  C   UNL     1      34.547  41.861  27.684 -0.36 -0.01    +0.041 A  ATOM     41  F   UNL     1      35.041  39.837  26.592 -0.13 +0.14    -0.207 F  BRANCH  33  42ATOM     42  C   UNL     1      37.378  47.114  26.978 -0.33 -0.00    +0.003 A  ATOM     43  C   UNL     1      38.644  47.545  27.387 -0.17 -0.00    +0.012 A  ATOM     44  C   UNL     1      36.353  48.065  26.894 -0.32 -0.00    +0.012 A  ATOM     45  C   UNL     1      38.864  48.884  27.746 -0.20 -0.00    +0.026 A  ATOM     46  C   UNL     1      36.589  49.404  27.235 -0.31 +0.00    +0.026 A  ATOM     47  C   UNL     1      37.846  49.845  27.680 -0.21 +0.00    +0.037 A  BRANCH  47  48ATOM     48  N   UNL     1      38.055  51.162  28.050 -0.06 -0.16    -0.367 N  ATOM     49  C   UNL     1      37.015  52.192  27.899 -0.17 +0.07    +0.145 C  ATOM     50  C   UNL     1      39.239  51.555  28.837 -0.18 +0.12    +0.145 C  ATOM     51  C   UNL     1      37.663  53.588  27.937 -0.13 +0.20    +0.181 C  ATOM     52  C   UNL     1      38.873  52.695  29.805 -0.09 +0.18    +0.181 C  ATOM     53  O   UNL     1      38.359  53.871  29.161 -0.30 -0.56    -0.378 OA ENDBRANCH  47  48ENDBRANCH  33  42ENDBRANCH  30  31ENDBRANCH  24  25ENDBRANCH   1  24TORSDOF 10TERENDMDL