REMARK SMILES N#Cc1cnc(-c2ccc(CNCc3ccc(-c4nc5cc(F)ccc5nc4-c4ccc(N5CCOCC5)cc4)cc3)cc2)c(-c2ccccc2)c1
REMARK SMILES IDX 12 1 11 3 10 4 7 5 8 6 44 7 9 8 43 9 6 10 3 11 4 12 52 13
REMARK SMILES IDX 5 14 45 15 2 16 1 17 46 18 47 19 51 20 48 21 50 22 49 23
REMARK SMILES IDX 13 24 14 25 15 26 42 27 16 28 41 29 17 30 18 31 19 32 28 33
REMARK SMILES IDX 20 34 27 35 21 36 26 37 22 38 25 39 24 40 23 41 29 42 30 43
REMARK SMILES IDX 40 44 31 45 39 46 32 47 33 48 34 49 38 50 35 51 37 52 36 53
REMARK H PARENT 12 2
ROOT
ATOM      1  N   UNL     1      -0.938   1.056   1.648  1.00  0.00    -0.309 NA
ATOM      2  H   UNL     1       0.011   1.413   1.733  1.00  0.00     0.123 HD
ENDROOT
BRANCH   1   3
ATOM      3  C   UNL     1      -1.253   0.906   0.226  1.00  0.00     0.117 C 
BRANCH   3   4
ATOM      4  C   UNL     1      -2.724   0.671  -0.030  1.00  0.00    -0.034 A 
ATOM      5  C   UNL     1      -5.492   0.257  -0.524  1.00  0.00     0.001 A 
ATOM      6  C   UNL     1      -5.043   1.372   0.201  1.00  0.00     0.011 A 
ATOM      7  C   UNL     1      -4.524  -0.657  -0.977  1.00  0.00     0.011 A 
ATOM      8  C   UNL     1      -3.680   1.582   0.436  1.00  0.00     0.006 A 
ATOM      9  C   UNL     1      -3.159  -0.454  -0.739  1.00  0.00     0.006 A 
BRANCH   5  10
ATOM     10  C   UNL     1      -6.928   0.019  -0.784  1.00  0.00     0.078 A 
ATOM     11  C   UNL     1      -9.589  -0.677  -1.084  1.00  0.00     0.071 A 
ATOM     12  C   UNL     1      -8.647  -1.547  -0.574  1.00  0.00     0.131 A 
ATOM     13  C   UNL     1      -9.163   0.593  -1.470  1.00  0.00     0.032 A 
ATOM     14  N   UNL     1      -7.341  -1.233  -0.425  1.00  0.00    -0.254 NA
ATOM     15  C   UNL     1      -7.813   0.974  -1.331  1.00  0.00     0.009 A 
BRANCH  11  16
ATOM     16  C   UNL     1     -10.954  -1.077  -1.210  1.00  0.00     0.101 C 
ATOM     17  N   UNL     1     -12.066  -1.394  -1.311  1.00  0.00    -0.192 NA
ENDBRANCH  11  16
BRANCH  15  18
ATOM     18  C   UNL     1      -7.405   2.315  -1.785  1.00  0.00    -0.016 A 
ATOM     19  C   UNL     1      -7.943   3.470  -1.187  1.00  0.00     0.009 A 
ATOM     20  C   UNL     1      -6.479   2.479  -2.829  1.00  0.00     0.009 A 
ATOM     21  C   UNL     1      -7.560   4.746  -1.611  1.00  0.00     0.001 A 
ATOM     22  C   UNL     1      -6.096   3.755  -3.253  1.00  0.00     0.001 A 
ATOM     23  C   UNL     1      -6.635   4.888  -2.644  1.00  0.00     0.000 A 
ENDBRANCH  15  18
ENDBRANCH   5  10
ENDBRANCH   3   4
ENDBRANCH   1   3
BRANCH   1  24
ATOM     24  C   UNL     1      -1.021  -0.201   2.400  1.00  0.00     0.117 C 
BRANCH  24  25
ATOM     25  C   UNL     1       0.200  -1.072   2.211  1.00  0.00    -0.034 A 
ATOM     26  C   UNL     1       1.402  -0.742   2.852  1.00  0.00     0.006 A 
ATOM     27  C   UNL     1       0.165  -2.198   1.377  1.00  0.00     0.006 A 
ATOM     28  C   UNL     1       2.550  -1.508   2.643  1.00  0.00     0.011 A 
ATOM     29  C   UNL     1       1.317  -2.964   1.168  1.00  0.00     0.011 A 
ATOM     30  C   UNL     1       2.534  -2.617   1.778  1.00  0.00     0.002 A 
BRANCH  30  31
ATOM     31  C   UNL     1       3.757  -3.388   1.510  1.00  0.00     0.097 A 
ATOM     32  N   UNL     1       3.715  -4.688   1.908  1.00  0.00    -0.244 NA
ATOM     33  C   UNL     1       4.902  -2.850   0.901  1.00  0.00     0.097 A 
ATOM     34  C   UNL     1       4.824  -5.424   1.717  1.00  0.00     0.092 A 
ATOM     35  N   UNL     1       6.024  -3.594   0.709  1.00  0.00    -0.244 NA
ATOM     36  C   UNL     1       4.834  -6.751   2.118  1.00  0.00     0.069 A 
ATOM     37  C   UNL     1       5.986  -4.873   1.118  1.00  0.00     0.090 A 
ATOM     38  C   UNL     1       5.966  -7.535   1.935  1.00  0.00     0.125 A 
ATOM     39  C   UNL     1       7.107  -5.677   0.947  1.00  0.00     0.033 A 
ATOM     40  C   UNL     1       7.108  -7.011   1.351  1.00  0.00     0.041 A 
ATOM     41  F   UNL     1       5.956  -8.813   2.330  1.00  0.00    -0.207 F 
BRANCH  33  42
ATOM     42  C   UNL     1       4.980  -1.473   0.400  1.00  0.00     0.003 A 
ATOM     43  C   UNL     1       5.655  -0.482   1.120  1.00  0.00     0.012 A 
ATOM     44  C   UNL     1       4.352  -1.105  -0.797  1.00  0.00     0.012 A 
ATOM     45  C   UNL     1       5.662   0.849   0.676  1.00  0.00     0.026 A 
ATOM     46  C   UNL     1       4.383   0.224  -1.243  1.00  0.00     0.026 A 
ATOM     47  C   UNL     1       5.028   1.236  -0.513  1.00  0.00     0.037 A 
BRANCH  47  48
ATOM     48  N   UNL     1       5.017   2.550  -0.945  1.00  0.00    -0.367 N 
ATOM     49  C   UNL     1       5.277   3.676  -0.034  1.00  0.00     0.145 C 
ATOM     50  C   UNL     1       4.984   2.881  -2.382  1.00  0.00     0.145 C 
ATOM     51  C   UNL     1       4.744   4.978  -0.659  1.00  0.00     0.181 C 
ATOM     52  C   UNL     1       5.803   4.157  -2.648  1.00  0.00     0.181 C 
ATOM     53  O   UNL     1       5.351   5.308  -1.918  1.00  0.00    -0.378 OA
ENDBRANCH  47  48
ENDBRANCH  33  42
ENDBRANCH  30  31
ENDBRANCH  24  25
ENDBRANCH   1  24
TORSDOF 10
