REMARK SMILES OCCOc1ccc(-c2nc3ccccc3nc2-c2ccc(CN3CCC(n4c(O)nc5ccccc54)CC3)cc2)cc1
REMARK SMILES IDX 9 1 10 2 11 3 12 4 13 5 14 6 15 7 16 8 17 9 18 10 8 11 5 12
REMARK SMILES IDX 6 13 43 14 7 15 42 16 4 17 3 18 2 19 1 20 19 22 20 23 41 24
REMARK SMILES IDX 21 25 40 26 22 27 23 28 24 29 25 30 39 31 26 32 38 33 27 34
REMARK SMILES IDX 28 35 29 36 37 37 31 38 36 39 32 40 35 41 33 42 34 43 30 44
REMARK H PARENT 1 21 30 45
ROOT
ATOM      1  C   UNL     1      -4.285  -1.691   1.668  1.00  0.00     0.097 A 
ATOM      2  N   UNL     1      -5.423  -1.969   2.366  1.00  0.00    -0.244 NA
ATOM      3  C   UNL     1      -5.899  -3.225   2.310  1.00  0.00     0.089 A 
ATOM      4  C   UNL     1      -7.053  -3.556   3.011  1.00  0.00     0.030 A 
ATOM      5  C   UNL     1      -7.576  -4.850   2.981  1.00  0.00     0.002 A 
ATOM      6  C   UNL     1      -6.933  -5.831   2.237  1.00  0.00     0.002 A 
ATOM      7  C   UNL     1      -5.773  -5.508   1.530  1.00  0.00     0.030 A 
ATOM      8  C   UNL     1      -5.247  -4.223   1.554  1.00  0.00     0.089 A 
ATOM      9  N   UNL     1      -4.132  -3.952   0.853  1.00  0.00    -0.244 NA
ATOM     10  C   UNL     1      -3.651  -2.676   0.892  1.00  0.00     0.097 A 
ENDROOT
BRANCH   1  11
ATOM     11  C   UNL     1      -3.811  -0.305   1.837  1.00  0.00     0.003 A 
ATOM     12  C   UNL     1      -2.939   2.377   2.127  1.00  0.00     0.119 A 
ATOM     13  C   UNL     1      -4.245   2.103   1.728  1.00  0.00     0.047 A 
ATOM     14  C   UNL     1      -2.077   1.313   2.397  1.00  0.00     0.047 A 
ATOM     15  C   UNL     1      -4.674   0.776   1.589  1.00  0.00     0.014 A 
ATOM     16  C   UNL     1      -2.506  -0.012   2.260  1.00  0.00     0.014 A 
BRANCH  12  17
ATOM     17  O   UNL     1      -2.381   3.613   2.291  1.00  0.00    -0.491 OA
BRANCH  17  18
ATOM     18  C   UNL     1      -3.176   4.765   2.018  1.00  0.00     0.257 C 
BRANCH  18  19
ATOM     19  C   UNL     1      -3.159   5.122   0.534  1.00  0.00     0.197 C 
BRANCH  19  20
ATOM     20  O   UNL     1      -3.893   6.317   0.290  1.00  0.00    -0.393 OA
ATOM     21  H   UNL     1      -3.406   7.049   0.706  1.00  0.00     0.210 HD
ENDBRANCH  19  20
ENDBRANCH  18  19
ENDBRANCH  17  18
ENDBRANCH  12  17
ENDBRANCH   1  11
BRANCH  10  22
ATOM     22  C   UNL     1      -2.463  -2.466   0.041  1.00  0.00     0.002 A 
ATOM     23  C   UNL     1      -1.392  -3.376   0.084  1.00  0.00     0.011 A 
ATOM     24  C   UNL     1      -2.365  -1.391  -0.859  1.00  0.00     0.011 A 
ATOM     25  C   UNL     1      -0.263  -3.215  -0.725  1.00  0.00     0.006 A 
ATOM     26  C   UNL     1      -1.232  -1.218  -1.662  1.00  0.00     0.006 A 
ATOM     27  C   UNL     1      -0.173  -2.132  -1.607  1.00  0.00    -0.034 A 
BRANCH  27  28
ATOM     28  C   UNL     1       1.035  -1.959  -2.502  1.00  0.00     0.120 C 
BRANCH  28  29
ATOM     29  N   UNL     1       1.865  -0.789  -2.154  1.00  0.00    -0.299 NA
ATOM     30  C   UNL     1       2.549  -0.983  -0.865  1.00  0.00     0.087 C 
ATOM     31  C   UNL     1       2.819  -0.522  -3.240  1.00  0.00     0.087 C 
ATOM     32  C   UNL     1       3.413   0.225  -0.495  1.00  0.00     0.041 C 
ATOM     33  C   UNL     1       3.686   0.700  -2.948  1.00  0.00     0.041 C 
ATOM     34  C   UNL     1       4.413   0.525  -1.613  1.00  0.00     0.095 C 
BRANCH  34  35
ATOM     35  N   UNL     1       5.307   1.632  -1.307  1.00  0.00    -0.291 N 
ATOM     36  C   UNL     1       4.954   2.929  -1.065  1.00  0.00     0.295 A 
ATOM     37  C   UNL     1       6.684   1.572  -1.229  1.00  0.00     0.072 A 
ATOM     38  N   UNL     1       5.974   3.708  -0.829  1.00  0.00    -0.195 NA
ATOM     39  C   UNL     1       7.618   0.538  -1.388  1.00  0.00     0.029 A 
ATOM     40  C   UNL     1       7.065   2.882  -0.931  1.00  0.00     0.092 A 
ATOM     41  C   UNL     1       8.970   0.867  -1.234  1.00  0.00     0.002 A 
ATOM     42  C   UNL     1       8.425   3.189  -0.783  1.00  0.00     0.031 A 
ATOM     43  C   UNL     1       9.371   2.170  -0.938  1.00  0.00     0.002 A 
BRANCH  36  44
ATOM     44  O   UNL     1       3.720   3.388  -1.063  1.00  0.00    -0.480 OA
ATOM     45  H   UNL     1       3.867   4.327  -0.848  1.00  0.00     0.296 HD
ENDBRANCH  36  44
ENDBRANCH  34  35
ENDBRANCH  28  29
ENDBRANCH  27  28
ENDBRANCH  10  22
TORSDOF 10
