MODEL        6USER    Run = 6USERUSER    Estimated Free Energy of Binding    = -10.89 kcal/mol  [=(1)+(2)+(3)-(4)]USERUSER    (1) Final Intermolecular Energy     = -13.28 kcal/molUSER        vdW + Hbond + desolv Energy     = -13.05 kcal/molUSER        Electrostatic Energy            =  -0.22 kcal/molUSER        Moving Ligand-Fixed Receptor    = -13.28 kcal/molUSER        Moving Ligand-Moving Receptor   =  +0.00 kcal/molUSER    (2) Final Total Internal Energy     =  -2.85 kcal/molUSER    (3) Torsional Free Energy           =  +2.39 kcal/molUSER    (4) Unbound System's Energy         =  -2.85 kcal/molUSERUSERREMARK SMILES Oc1ccc(-c2nc3ccccc3nc2-c2ccc(CN3CCC(n4c(O)nc5ccccc54)CC3)cc2)cc1OREMARK SMILES IDX 16 1 17 2 18 3 19 4 37 5 38 6 15 7 6 8 7 9 8 10 14 11 9 12REMARK SMILES IDX 13 13 10 14 12 15 11 16 5 17 2 18 3 19 40 20 4 21 39 22 1 23REMARK SMILES IDX 41 25 20 27 21 28 22 29 36 30 23 31 35 32 24 33 25 34 26 35REMARK SMILES IDX 34 36 28 37 33 38 29 39 32 40 30 41 31 42 27 43REMARK H PARENT 1 24 41 26 27 44USER                              x       y       z     vdW  Elec       q    TypeUSER                           _______ _______ _______ _____ _____    ______ ____ROOTATOM      1  C   UNL     1      39.024  44.706  20.755 -0.36 +0.00    +0.002 A  ATOM      2  C   UNL     1      40.245  44.015  20.671 -0.18 +0.00    +0.011 A  ATOM      3  C   UNL     1      41.267  44.243  21.598 -0.30 +0.00    +0.006 A  ATOM      4  C   UNL     1      41.100  45.173  22.632 -0.19 -0.00    -0.034 A  ATOM      5  C   UNL     1      39.898  45.884  22.709 -0.27 +0.00    +0.006 A  ATOM      6  C   UNL     1      38.878  45.656  21.779 -0.29 +0.00    +0.011 A  ENDROOTBRANCH   1   7ATOM      7  C   UNL     1      37.928  44.464  19.802 -0.30 -0.01    +0.097 A  ATOM      8  C   UNL     1      37.807  45.074  18.543 -0.30 -0.02    +0.097 A  ATOM      9  N   UNL     1      36.730  44.829  17.744 -0.18 +0.07    -0.244 NA ATOM     10  C   UNL     1      35.799  43.973  18.200 -0.26 -0.02    +0.089 A  ATOM     11  N   UNL     1      36.992  43.578  20.250 -0.22 +0.01    -0.244 NA ATOM     12  C   UNL     1      34.683  43.696  17.420 -0.30 -0.01    +0.030 A  ATOM     13  C   UNL     1      35.932  43.342  19.457 -0.34 -0.01    +0.089 A  ATOM     14  C   UNL     1      33.692  42.814  17.854 -0.36 -0.00    +0.002 A  ATOM     15  C   UNL     1      34.940  42.466  19.881 -0.41 -0.00    +0.030 A  ATOM     16  C   UNL     1      33.821  42.196  19.090 -0.41 -0.00    +0.002 A  BRANCH   8  17ATOM     17  C   UNL     1      38.794  45.992  17.947 -0.40 -0.00    +0.006 A  ATOM     18  C   UNL     1      40.698  47.726  16.817 -0.41 -0.02    +0.157 A  ATOM     19  C   UNL     1      39.410  47.702  16.300 -0.45 -0.02    +0.051 A  ATOM     20  C   UNL     1      41.036  46.911  17.892 -0.40 -0.01    +0.158 A  ATOM     21  C   UNL     1      38.463  46.841  16.869 -0.38 -0.01    +0.014 A  ATOM     22  C   UNL     1      40.102  46.055  18.461 -0.42 -0.00    +0.060 A  BRANCH  18  23ATOM     23  O   UNL     1      41.668  48.539  16.304 -0.58 -0.03    -0.504 OA ATOM     24  H   UNL     1      42.534  48.178  16.563 -0.23 +0.04    +0.293 HD ENDBRANCH  18  23BRANCH  20  25ATOM     25  O   UNL     1      42.304  46.944  18.398 -0.23 -0.00    -0.504 OA ATOM     26  H   UNL     1      42.852  47.288  17.665 -0.37 -0.07    +0.293 HD ENDBRANCH  20  25ENDBRANCH   8  17ENDBRANCH   1   7BRANCH   4  27ATOM     27  C   UNL     1      42.201  45.396  23.648 -0.11 +0.01    +0.120 C  BRANCH  27  28ATOM     28  N   UNL     1      41.958  44.727  24.935 -0.00 -0.01    -0.299 NA ATOM     29  C   UNL     1      41.703  43.291  24.775 -0.15 -0.00    +0.087 C  ATOM     30  C   UNL     1      40.956  45.429  25.750 -0.09 +0.00    +0.087 C  ATOM     31  C   UNL     1      40.224  42.941  24.632 -0.21 +0.00    +0.041 C  ATOM     32  C   UNL     1      40.163  44.495  26.662 -0.15 +0.00    +0.041 C  ATOM     33  C   UNL     1      39.390  43.481  25.807 -0.17 -0.00    +0.095 C  BRANCH  33  34ATOM     34  N   UNL     1      38.777  42.432  26.610 -0.12 +0.01    -0.291 N  ATOM     35  C   UNL     1      39.426  41.431  27.278 -0.17 -0.02    +0.295 A  ATOM     36  C   UNL     1      37.428  42.259  26.845 -0.34 -0.01    +0.072 A  ATOM     37  N   UNL     1      38.621  40.628  27.918 -0.29 -0.00    -0.195 NA ATOM     38  C   UNL     1      36.279  42.954  26.442 -0.41 -0.00    +0.029 A  ATOM     39  C   UNL     1      37.367  41.127  27.661 -0.42 -0.02    +0.092 A  ATOM     40  C   UNL     1      35.045  42.468  26.891 -0.53 -0.00    +0.002 A  ATOM     41  C   UNL     1      36.121  40.656  28.099 -0.40 -0.01    +0.031 A  ATOM     42  C   UNL     1      34.963  41.339  27.706 -0.60 -0.00    +0.002 A  BRANCH  35  43ATOM     43  O   UNL     1      40.732  41.263  27.297 -0.07 +0.08    -0.480 OA ATOM     44  H   UNL     1      40.807  40.332  27.018 -0.28 -0.13    +0.296 HD ENDBRANCH  35  43ENDBRANCH  33  34ENDBRANCH  27  28ENDBRANCH   4  27TORSDOF 8TERENDMDL