REMARK SMILES Oc1ccc(-c2nc3ccccc3nc2-c2ccc(CN3CCC(n4c(O)nc5ccccc54)CC3)cc2)cc1O
REMARK SMILES IDX 16 1 17 2 18 3 19 4 37 5 38 6 15 7 6 8 7 9 8 10 14 11 9 12
REMARK SMILES IDX 13 13 10 14 12 15 11 16 5 17 2 18 3 19 40 20 4 21 39 22 1 23
REMARK SMILES IDX 41 25 20 27 21 28 22 29 36 30 23 31 35 32 24 33 25 34 26 35
REMARK SMILES IDX 34 36 28 37 33 38 29 39 32 40 30 41 31 42 27 43
REMARK H PARENT 1 24 41 26 27 44
ROOT
ATOM      1  C   UNL     1      -2.783   0.273   0.563  1.00  0.00     0.002 A 
ATOM      2  C   UNL     1      -2.311   0.342  -0.758  1.00  0.00     0.011 A 
ATOM      3  C   UNL     1      -1.107  -0.268  -1.126  1.00  0.00     0.006 A 
ATOM      4  C   UNL     1      -0.338  -0.958  -0.181  1.00  0.00    -0.034 A 
ATOM      5  C   UNL     1      -0.787  -1.011   1.143  1.00  0.00     0.006 A 
ATOM      6  C   UNL     1      -1.990  -0.398   1.509  1.00  0.00     0.011 A 
ENDROOT
BRANCH   1   7
ATOM      7  C   UNL     1      -4.059   0.889   0.965  1.00  0.00     0.097 A 
ATOM      8  C   UNL     1      -5.301   0.635   0.360  1.00  0.00     0.097 A 
ATOM      9  N   UNL     1      -6.426   1.289   0.764  1.00  0.00    -0.244 NA
ATOM     10  C   UNL     1      -6.305   2.172   1.771  1.00  0.00     0.089 A 
ATOM     11  N   UNL     1      -3.946   1.769   2.001  1.00  0.00    -0.244 NA
ATOM     12  C   UNL     1      -7.426   2.863   2.213  1.00  0.00     0.030 A 
ATOM     13  C   UNL     1      -5.060   2.411   2.394  1.00  0.00     0.089 A 
ATOM     14  C   UNL     1      -7.346   3.789   3.255  1.00  0.00     0.002 A 
ATOM     15  C   UNL     1      -4.990   3.335   3.430  1.00  0.00     0.030 A 
ATOM     16  C   UNL     1      -6.122   4.026   3.866  1.00  0.00     0.002 A 
BRANCH   8  17
ATOM     17  C   UNL     1      -5.535  -0.341  -0.720  1.00  0.00     0.006 A 
ATOM     18  C   UNL     1      -5.980  -2.181  -2.799  1.00  0.00     0.157 A 
ATOM     19  C   UNL     1      -5.344  -2.606  -1.641  1.00  0.00     0.051 A 
ATOM     20  C   UNL     1      -6.405  -0.862  -2.921  1.00  0.00     0.158 A 
ATOM     21  C   UNL     1      -5.129  -1.688  -0.606  1.00  0.00     0.014 A 
ATOM     22  C   UNL     1      -6.195   0.053  -1.898  1.00  0.00     0.060 A 
BRANCH  18  23
ATOM     23  O   UNL     1      -6.215  -3.026  -3.847  1.00  0.00    -0.504 OA
ATOM     24  H   UNL     1      -5.859  -3.902  -3.615  1.00  0.00     0.293 HD
ENDBRANCH  18  23
BRANCH  20  25
ATOM     25  O   UNL     1      -7.035  -0.453  -4.062  1.00  0.00    -0.504 OA
ATOM     26  H   UNL     1      -7.061  -1.251  -4.627  1.00  0.00     0.293 HD
ENDBRANCH  20  25
ENDBRANCH   8  17
ENDBRANCH   1   7
BRANCH   4  27
ATOM     27  C   UNL     1       0.952  -1.638  -0.591  1.00  0.00     0.120 C 
BRANCH  27  28
ATOM     28  N   UNL     1       1.984  -0.704  -1.067  1.00  0.00    -0.299 NA
ATOM     29  C   UNL     1       3.095  -1.396  -1.731  1.00  0.00     0.087 C 
ATOM     30  C   UNL     1       2.403   0.245  -0.025  1.00  0.00     0.087 C 
ATOM     31  C   UNL     1       4.246  -1.752  -0.794  1.00  0.00     0.041 C 
ATOM     32  C   UNL     1       3.854   0.698  -0.174  1.00  0.00     0.041 C 
ATOM     33  C   UNL     1       4.784  -0.517  -0.050  1.00  0.00     0.095 C 
BRANCH  33  34
ATOM     34  N   UNL     1       6.164  -0.196  -0.386  1.00  0.00    -0.291 N 
ATOM     35  C   UNL     1       6.647   0.137  -1.621  1.00  0.00     0.295 A 
ATOM     36  C   UNL     1       7.237  -0.167   0.482  1.00  0.00     0.072 A 
ATOM     37  N   UNL     1       7.929   0.374  -1.630  1.00  0.00    -0.195 NA
ATOM     38  C   UNL     1       7.375  -0.408   1.856  1.00  0.00     0.029 A 
ATOM     39  C   UNL     1       8.319   0.190  -0.326  1.00  0.00     0.092 A 
ATOM     40  C   UNL     1       8.657  -0.279   2.404  1.00  0.00     0.002 A 
ATOM     41  C   UNL     1       9.595   0.313   0.243  1.00  0.00     0.031 A 
ATOM     42  C   UNL     1       9.751   0.076   1.614  1.00  0.00     0.002 A 
BRANCH  35  43
ATOM     43  O   UNL     1       5.919   0.220  -2.716  1.00  0.00    -0.480 OA
ATOM     44  H   UNL     1       6.587   0.502  -3.367  1.00  0.00     0.296 HD
ENDBRANCH  35  43
ENDBRANCH  33  34
ENDBRANCH  27  28
ENDBRANCH   4  27
TORSDOF 8
