MODEL        10USER    Run = 10USERUSER    Estimated Free Energy of Binding    = -12.34 kcal/mol  [=(1)+(2)+(3)-(4)]USERUSER    (1) Final Intermolecular Energy     = -15.32 kcal/molUSER        vdW + Hbond + desolv Energy     = -15.10 kcal/molUSER        Electrostatic Energy            =  -0.22 kcal/molUSER        Moving Ligand-Fixed Receptor    = -15.32 kcal/molUSER        Moving Ligand-Moving Receptor   =  +0.00 kcal/molUSER    (2) Final Total Internal Energy     =  -2.46 kcal/molUSER    (3) Torsional Free Energy           =  +2.98 kcal/molUSER    (4) Unbound System's Energy         =  -2.46 kcal/molUSERUSERREMARK SMILES OCCOc1ccc(-c2nc3ccccc3nc2-c2ccc(CN3CCC(n4c(O)nc5ccccc54)CC3)cc2)cc1REMARK SMILES IDX 9 1 10 2 11 3 12 4 13 5 14 6 15 7 16 8 17 9 18 10 8 11 5 12REMARK SMILES IDX 6 13 43 14 7 15 42 16 4 17 3 18 2 19 1 20 19 22 20 23 41 24REMARK SMILES IDX 21 25 40 26 22 27 23 28 24 29 25 30 39 31 26 32 38 33 27 34REMARK SMILES IDX 28 35 29 36 37 37 31 38 36 39 32 40 35 41 33 42 34 43 30 44REMARK H PARENT 1 21 30 45USER                              x       y       z     vdW  Elec       q    TypeUSER                           _______ _______ _______ _____ _____    ______ ____ROOTATOM      1  C   UNL     1      38.052  45.438  26.620 -0.23 -0.01    +0.097 A  ATOM      2  N   UNL     1      37.358  46.093  27.594 -0.20 +0.04    -0.244 NA ATOM      3  C   UNL     1      36.856  47.304  27.296 -0.29 -0.02    +0.089 A  ATOM      4  C   UNL     1      36.136  48.007  28.256 -0.33 -0.01    +0.030 A  ATOM      5  C   UNL     1      35.596  49.265  27.983 -0.29 -0.00    +0.002 A  ATOM      6  C   UNL     1      35.778  49.830  26.728 -0.32 +0.00    +0.002 A  ATOM      7  C   UNL     1      36.499  49.132  25.757 -0.46 -0.00    +0.030 A  ATOM      8  C   UNL     1      37.041  47.881  26.021 -0.36 -0.00    +0.089 A  ATOM      9  N   UNL     1      37.735  47.245  25.060 -0.64 -0.03    -0.244 NA ATOM     10  C   UNL     1      38.261  46.023  25.360 -0.23 +0.01    +0.097 A  ENDROOTBRANCH   1  11ATOM     11  C   UNL     1      38.513  44.097  27.023 -0.24 -0.00    +0.003 A  ATOM     12  C   UNL     1      39.448  41.527  27.772 -0.28 -0.00    +0.119 A  ATOM     13  C   UNL     1      40.353  42.547  27.485 -0.20 -0.00    +0.047 A  ATOM     14  C   UNL     1      38.081  41.796  27.701 -0.39 -0.01    +0.047 A  ATOM     15  C   UNL     1      39.887  43.817  27.119 -0.16 -0.00    +0.014 A  ATOM     16  C   UNL     1      37.616  43.065  27.337 -0.33 -0.00    +0.014 A  BRANCH  12  17ATOM     17  O   UNL     1      39.755  40.244  28.128 -0.44 -0.04    -0.491 OA BRANCH  17  18ATOM     18  C   UNL     1      40.983  39.998  28.810 -0.16 -0.02    +0.257 C  BRANCH  18  19ATOM     19  C   UNL     1      41.372  38.523  28.752 -0.22 -0.04    +0.197 C  BRANCH  19  20ATOM     20  O   UNL     1      40.672  37.852  27.710 -0.19 +0.10    -0.393 OA ATOM     21  H   UNL     1      40.439  38.517  27.040 -0.46 -0.09    +0.210 HD ENDBRANCH  19  20ENDBRANCH  18  19ENDBRANCH  17  18ENDBRANCH  12  17ENDBRANCH   1  11BRANCH  10  22ATOM     22  C   UNL     1      39.057  45.438  24.263 -0.23 +0.00    +0.002 A  ATOM     23  C   UNL     1      38.445  44.601  23.312 -0.29 +0.00    +0.011 A  ATOM     24  C   UNL     1      40.425  45.713  24.099 -0.16 +0.00    +0.011 A  ATOM     25  C   UNL     1      39.168  44.049  22.251 -0.28 +0.00    +0.006 A  ATOM     26  C   UNL     1      41.157  45.153  23.045 -0.18 +0.00    +0.006 A  ATOM     27  C   UNL     1      40.534  44.321  22.108 -0.24 -0.00    -0.034 A  BRANCH  27  28ATOM     28  C   UNL     1      41.322  43.745  20.951 -0.27 +0.01    +0.120 C  BRANCH  28  29ATOM     29  N   UNL     1      41.136  44.482  19.686 -0.20 -0.03    -0.299 NA ATOM     30  C   UNL     1      39.740  44.412  19.226 -0.37 -0.00    +0.087 C  ATOM     31  C   UNL     1      41.584  45.872  19.855 -0.41 +0.01    +0.087 C  ATOM     32  C   UNL     1      39.537  45.174  17.914 -0.42 -0.00    +0.041 C  ATOM     33  C   UNL     1      41.444  46.676  18.565 -0.56 -0.00    +0.041 C  ATOM     34  C   UNL     1      39.999  46.624  18.065 -0.45 -0.01    +0.095 C  BRANCH  34  35ATOM     35  N   UNL     1      39.786  47.426  16.869 -0.28 +0.07    -0.291 N  ATOM     36  C   UNL     1      40.592  48.421  16.394 -0.30 -0.06    +0.295 A  ATOM     37  C   UNL     1      38.711  47.338  16.007 -0.40 -0.03    +0.072 A  ATOM     38  N   UNL     1      40.141  48.976  15.302 -0.42 +0.07    -0.195 NA ATOM     39  C   UNL     1      37.566  46.529  15.968 -0.37 -0.01    +0.029 A  ATOM     40  C   UNL     1      38.965  48.317  15.045 -0.46 -0.04    +0.092 A  ATOM     41  C   UNL     1      36.670  46.737  14.913 -0.41 -0.00    +0.002 A  ATOM     42  C   UNL     1      38.053  48.510  13.998 -0.46 -0.01    +0.031 A  ATOM     43  C   UNL     1      36.905  47.712  13.943 -0.54 -0.00    +0.002 A  BRANCH  36  44ATOM     44  O   UNL     1      41.717  48.813  16.954 -0.73 -0.05    -0.480 OA ATOM     45  H   UNL     1      42.297  48.053  16.767 -0.29 -0.00    +0.296 HD ENDBRANCH  36  44ENDBRANCH  34  35ENDBRANCH  28  29ENDBRANCH  27  28ENDBRANCH  10  22TORSDOF 10TERENDMDL