REMARK SMILES Oc1nc2cc(F)ccc2n1C1CCN(Cc2ccc(-c3nc4ccccc4[nH]3)cc2)CC1
REMARK SMILES IDX 12 1 13 2 14 3 15 4 32 5 33 6 11 7 2 8 3 9 4 10 10 11 5 12
REMARK SMILES IDX 9 13 6 14 8 15 7 16 1 17 16 19 17 20 18 21 31 22 19 23 30 24
REMARK SMILES IDX 20 25 21 26 22 27 29 28 23 29 28 30 24 31 27 32 25 33 26 34
REMARK H PARENT 1 18 29 35
ROOT
ATOM      1  C   UNL     1      -3.537   0.401   0.832  1.00  0.00     0.095 C 
ATOM      2  C   UNL     1      -2.276  -0.470   0.952  1.00  0.00     0.041 C 
ATOM      3  C   UNL     1      -1.284  -0.350  -0.208  1.00  0.00     0.087 C 
ATOM      4  N   UNL     1      -1.054   1.051  -0.596  1.00  0.00    -0.299 NA
ATOM      5  C   UNL     1      -2.321   1.669  -1.009  1.00  0.00     0.087 C 
ATOM      6  C   UNL     1      -3.261   1.764   0.187  1.00  0.00     0.041 C 
ENDROOT
BRANCH   1   7
ATOM      7  N   UNL     1      -4.724  -0.239   0.270  1.00  0.00    -0.291 N 
ATOM      8  C   UNL     1      -4.819  -1.096  -0.790  1.00  0.00     0.295 A 
ATOM      9  N   UNL     1      -6.041  -1.480  -1.042  1.00  0.00    -0.195 NA
ATOM     10  C   UNL     1      -6.808  -0.832  -0.109  1.00  0.00     0.095 A 
ATOM     11  C   UNL     1      -6.018  -0.039   0.727  1.00  0.00     0.072 A 
ATOM     12  C   UNL     1      -8.196  -0.871   0.075  1.00  0.00     0.070 A 
ATOM     13  C   UNL     1      -6.566   0.744   1.755  1.00  0.00     0.032 A 
ATOM     14  C   UNL     1      -8.745  -0.095   1.094  1.00  0.00     0.125 A 
ATOM     15  C   UNL     1      -7.954   0.699   1.919  1.00  0.00     0.041 A 
ATOM     16  F   UNL     1     -10.073  -0.106   1.278  1.00  0.00    -0.207 F 
BRANCH   8  17
ATOM     17  O   UNL     1      -3.817  -1.521  -1.526  1.00  0.00    -0.480 OA
ATOM     18  H   UNL     1      -4.279  -2.107  -2.155  1.00  0.00     0.296 HD
ENDBRANCH   8  17
ENDBRANCH   1   7
BRANCH   4  19
ATOM     19  C   UNL     1      -0.078   1.139  -1.703  1.00  0.00     0.120 C 
BRANCH  19  20
ATOM     20  C   UNL     1       1.327   0.739  -1.305  1.00  0.00    -0.034 A 
ATOM     21  C   UNL     1       2.019  -0.240  -2.025  1.00  0.00     0.006 A 
ATOM     22  C   UNL     1       1.970   1.358  -0.224  1.00  0.00     0.006 A 
ATOM     23  C   UNL     1       3.321  -0.598  -1.661  1.00  0.00     0.012 A 
ATOM     24  C   UNL     1       3.272   0.997   0.139  1.00  0.00     0.012 A 
ATOM     25  C   UNL     1       3.967   0.010  -0.575  1.00  0.00     0.017 A 
BRANCH  25  26
ATOM     26  C   UNL     1       5.333  -0.407  -0.233  1.00  0.00     0.138 A 
ATOM     27  N   UNL     1       6.044  -1.321  -0.874  1.00  0.00    -0.229 NA
ATOM     28  N   UNL     1       6.068   0.101   0.815  1.00  0.00    -0.338 N 
ATOM     29  C   UNL     1       7.252  -1.396  -0.226  1.00  0.00     0.089 A 
ATOM     30  C   UNL     1       7.294  -0.511   0.842  1.00  0.00     0.066 A 
ATOM     31  C   UNL     1       8.367  -2.202  -0.494  1.00  0.00     0.030 A 
ATOM     32  C   UNL     1       8.402  -0.371   1.680  1.00  0.00     0.028 A 
ATOM     33  C   UNL     1       9.495  -2.083   0.330  1.00  0.00     0.002 A 
ATOM     34  C   UNL     1       9.509  -1.182   1.398  1.00  0.00     0.002 A 
ATOM     35  H   UNL     1       5.758   0.809   1.461  1.00  0.00     0.168 HD
ENDBRANCH  25  26
ENDBRANCH  19  20
ENDBRANCH   4  19
TORSDOF 5
