REMARK SMILES Oc1nc2ccccc2n1C1CCN(Cc2ccc(-c3ncnc4[nH]ccc34)cc2)CC1
REMARK SMILES IDX 11 1 12 2 13 3 14 4 31 5 32 6 10 7 2 8 3 9 4 10 9 11 5 12
REMARK SMILES IDX 8 13 6 14 7 15 1 16 15 18 16 19 17 20 30 21 18 22 29 23
REMARK SMILES IDX 19 24 20 25 21 26 28 27 22 28 27 29 24 30 23 31 26 32 25 33
REMARK H PARENT 1 17 25 34
ROOT
ATOM      1  C   UNL     1      -3.112   0.765   0.587  1.00  0.00     0.095 C 
ATOM      2  C   UNL     1      -3.072  -0.561   1.366  1.00  0.00     0.041 C 
ATOM      3  C   UNL     1      -2.186  -1.607   0.695  1.00  0.00     0.087 C 
ATOM      4  N   UNL     1      -0.834  -1.144   0.370  1.00  0.00    -0.299 NA
ATOM      5  C   UNL     1      -0.747   0.271  -0.019  1.00  0.00     0.087 C 
ATOM      6  C   UNL     1      -2.070   0.829  -0.536  1.00  0.00     0.041 C 
ENDROOT
BRANCH   1   7
ATOM      7  N   UNL     1      -4.449   1.146   0.154  1.00  0.00    -0.291 N 
ATOM      8  C   UNL     1      -5.148   2.218   0.642  1.00  0.00     0.295 A 
ATOM      9  N   UNL     1      -6.335   2.347   0.120  1.00  0.00    -0.195 NA
ATOM     10  C   UNL     1      -6.430   1.302  -0.765  1.00  0.00     0.092 A 
ATOM     11  C   UNL     1      -5.265   0.529  -0.772  1.00  0.00     0.072 A 
ATOM     12  C   UNL     1      -7.500   0.954  -1.605  1.00  0.00     0.031 A 
ATOM     13  C   UNL     1      -5.127  -0.593  -1.599  1.00  0.00     0.029 A 
ATOM     14  C   UNL     1      -7.375  -0.164  -2.434  1.00  0.00     0.002 A 
ATOM     15  C   UNL     1      -6.205  -0.923  -2.429  1.00  0.00     0.002 A 
BRANCH   8  16
ATOM     16  O   UNL     1      -4.700   3.056   1.555  1.00  0.00    -0.480 OA
ATOM     17  H   UNL     1      -5.457   3.664   1.640  1.00  0.00     0.296 HD
ENDBRANCH   8  16
ENDBRANCH   1   7
BRANCH   4  18
ATOM     18  C   UNL     1       0.140  -1.494   1.419  1.00  0.00     0.120 C 
BRANCH  18  19
ATOM     19  C   UNL     1       1.581  -1.300   0.992  1.00  0.00    -0.034 A 
ATOM     20  C   UNL     1       2.424  -0.430   1.691  1.00  0.00     0.006 A 
ATOM     21  C   UNL     1       2.100  -2.009  -0.098  1.00  0.00     0.006 A 
ATOM     22  C   UNL     1       3.758  -0.264   1.298  1.00  0.00     0.011 A 
ATOM     23  C   UNL     1       3.433  -1.840  -0.486  1.00  0.00     0.011 A 
ATOM     24  C   UNL     1       4.286  -0.955   0.195  1.00  0.00     0.001 A 
BRANCH  24  25
ATOM     25  C   UNL     1       5.679  -0.795  -0.230  1.00  0.00     0.083 A 
ATOM     26  N   UNL     1       6.380  -1.920  -0.537  1.00  0.00    -0.236 NA
ATOM     27  C   UNL     1       6.311   0.452  -0.357  1.00  0.00     0.045 A 
ATOM     28  C   UNL     1       7.664  -1.788  -0.919  1.00  0.00     0.224 A 
ATOM     29  C   UNL     1       5.969   1.828  -0.202  1.00  0.00     0.032 A 
ATOM     30  C   UNL     1       7.637   0.424  -0.766  1.00  0.00     0.141 A 
ATOM     31  N   UNL     1       8.375  -0.657  -1.056  1.00  0.00    -0.219 NA
ATOM     32  C   UNL     1       7.088   2.579  -0.497  1.00  0.00     0.085 A 
ATOM     33  N   UNL     1       8.094   1.712  -0.835  1.00  0.00    -0.346 N 
ATOM     34  H   UNL     1       9.034   1.959  -1.110  1.00  0.00     0.167 HD
ENDBRANCH  24  25
ENDBRANCH  18  19
ENDBRANCH   4  18
TORSDOF 5
