MODEL        4USER    Run = 4USERUSER    Estimated Free Energy of Binding    = -13.21 kcal/mol  [=(1)+(2)+(3)-(4)]USERUSER    (1) Final Intermolecular Energy     = -15.29 kcal/molUSER        vdW + Hbond + desolv Energy     = -15.20 kcal/molUSER        Electrostatic Energy            =  -0.09 kcal/molUSER        Moving Ligand-Fixed Receptor    = -15.29 kcal/molUSER        Moving Ligand-Moving Receptor   =  +0.00 kcal/molUSER    (2) Final Total Internal Energy     =  -1.48 kcal/molUSER    (3) Torsional Free Energy           =  +2.09 kcal/molUSER    (4) Unbound System's Energy         =  -1.48 kcal/molUSERUSERREMARK SMILES Oc1nc2ccccc2n1C1CCN(Cc2ccc(-c3nc4ccccc4nc3-c3ccc(N4CCOCC4)cc3)cc2)CC1REMARK SMILES IDX 15 1 14 2 11 3 12 4 45 5 13 6 44 7 10 8 2 9 3 10 4 11 9 12REMARK SMILES IDX 5 13 8 14 6 15 7 16 1 17 16 19 17 20 43 21 18 22 42 23 19 24REMARK SMILES IDX 20 25 21 26 29 27 22 28 28 29 23 30 27 31 24 32 26 33 25 34REMARK SMILES IDX 30 35 31 36 41 37 32 38 40 39 33 40 34 41 35 42 39 43 36 44REMARK SMILES IDX 38 45 37 46REMARK H PARENT 1 18USER                              x       y       z     vdW  Elec       q    TypeUSER                           _______ _______ _______ _____ _____    ______ ____ROOTATOM      1  C   UNL     1      38.583  42.873  23.238 -0.29 +0.01    +0.120 C  ENDROOTBRANCH   1   2ATOM      2  N   UNL     1      37.732  43.380  24.325 -0.14 -0.02    -0.299 NA ATOM      3  C   UNL     1      36.849  44.439  26.874 -0.37 -0.01    +0.095 C  ATOM      4  C   UNL     1      36.642  42.966  26.500 -0.43 -0.01    +0.041 C  ATOM      5  C   UNL     1      36.922  45.311  25.618 -0.36 -0.00    +0.041 C  ATOM      6  C   UNL     1      37.712  42.510  25.505 -0.32 -0.00    +0.087 C  ATOM      7  C   UNL     1      37.988  44.779  24.662 -0.28 +0.01    +0.087 C  BRANCH   3   8ATOM      8  N   UNL     1      35.882  44.952  27.834 -0.24 +0.08    -0.291 N  ATOM      9  C   UNL     1      34.850  44.268  28.413 -0.37 -0.08    +0.295 A  ATOM     10  N   UNL     1      34.139  44.998  29.228 -0.49 +0.04    -0.195 NA ATOM     11  C   UNL     1      34.707  46.244  29.158 -0.32 -0.02    +0.092 A  ATOM     12  C   UNL     1      35.800  46.254  28.288 -0.12 -0.02    +0.072 A  ATOM     13  C   UNL     1      34.331  47.428  29.810 -0.37 -0.01    +0.031 A  ATOM     14  C   UNL     1      36.538  47.415  28.028 -0.31 -0.01    +0.029 A  ATOM     15  C   UNL     1      35.058  48.597  29.562 -0.32 -0.00    +0.002 A  ATOM     16  C   UNL     1      36.143  48.587  28.684 -0.30 -0.00    +0.002 A  BRANCH   9  17ATOM     17  O   UNL     1      34.561  43.003  28.186 -0.27 +0.14    -0.480 OA ATOM     18  H   UNL     1      35.051  42.563  28.904 -0.27 -0.19    +0.296 HD ENDBRANCH   9  17ENDBRANCH   3   8ENDBRANCH   1   2BRANCH   1  19ATOM     19  C   UNL     1      38.613  43.682  21.958 -0.29 -0.00    -0.034 A  ATOM     20  C   UNL     1      37.473  43.754  21.145 -0.39 +0.00    +0.006 A  ATOM     21  C   UNL     1      39.769  44.360  21.552 -0.29 +0.00    +0.006 A  ATOM     22  C   UNL     1      37.493  44.479  19.951 -0.34 -0.00    +0.011 A  ATOM     23  C   UNL     1      39.793  45.070  20.348 -0.36 +0.00    +0.011 A  ATOM     24  C   UNL     1      38.654  45.149  19.532 -0.37 -0.00    +0.002 A  BRANCH  24  25ATOM     25  C   UNL     1      38.687  45.895  18.265 -0.32 -0.02    +0.097 A  ATOM     26  N   UNL     1      39.763  46.721  18.139 -0.28 +0.04    -0.244 NA ATOM     27  C   UNL     1      37.745  45.760  17.235 -0.31 -0.03    +0.097 A  ATOM     28  C   UNL     1      39.909  47.372  16.972 -0.42 -0.02    +0.089 A  ATOM     29  N   UNL     1      37.908  46.408  16.047 -0.21 +0.10    -0.244 NA ATOM     30  C   UNL     1      40.997  48.216  16.790 -0.52 -0.00    +0.030 A  ATOM     31  C   UNL     1      38.983  47.206  15.918 -0.39 -0.03    +0.089 A  ATOM     32  C   UNL     1      41.191  48.901  15.589 -0.58 -0.00    +0.002 A  ATOM     33  C   UNL     1      39.188  47.891  14.725 -0.49 -0.01    +0.030 A  ATOM     34  C   UNL     1      40.284  48.736  14.552 -0.54 -0.00    +0.002 A  BRANCH  27  35ATOM     35  C   UNL     1      36.506  44.965  17.321 -0.33 -0.00    +0.003 A  ATOM     36  C   UNL     1      35.322  45.494  17.852 -0.37 -0.01    +0.012 A  ATOM     37  C   UNL     1      36.458  43.656  16.825 -0.34 -0.00    +0.012 A  ATOM     38  C   UNL     1      34.142  44.735  17.904 -0.33 -0.01    +0.026 A  ATOM     39  C   UNL     1      35.278  42.903  16.881 -0.41 -0.01    +0.026 A  ATOM     40  C   UNL     1      34.093  43.419  17.430 -0.30 -0.01    +0.037 A  BRANCH  40  41ATOM     41  N   UNL     1      32.931  42.635  17.432 -0.09 +0.12    -0.367 N  ATOM     42  C   UNL     1      33.059  41.195  17.740 -0.34 -0.05    +0.145 C  ATOM     43  C   UNL     1      32.027  42.875  16.281 -0.27 -0.07    +0.145 C  ATOM     44  C   UNL     1      31.665  40.579  17.935 -0.33 -0.03    +0.181 C  ATOM     45  C   UNL     1      30.676  42.177  16.521 -0.26 -0.07    +0.181 C  ATOM     46  O   UNL     1      30.838  40.772  16.776 -0.19 +0.11    -0.378 OA ENDBRANCH  40  41ENDBRANCH  27  35ENDBRANCH  24  25ENDBRANCH   1  19TORSDOF 7TERENDMDL