MODEL        2USER    Run = 2USERUSER    Estimated Free Energy of Binding    = -10.23 kcal/mol  [=(1)+(2)+(3)-(4)]USERUSER    (1) Final Intermolecular Energy     = -11.72 kcal/molUSER        vdW + Hbond + desolv Energy     = -11.62 kcal/molUSER        Electrostatic Energy            =  -0.11 kcal/molUSER        Moving Ligand-Fixed Receptor    = -11.72 kcal/molUSER        Moving Ligand-Moving Receptor   =  +0.00 kcal/molUSER    (2) Final Total Internal Energy     =  -0.86 kcal/molUSER    (3) Torsional Free Energy           =  +1.49 kcal/molUSER    (4) Unbound System's Energy         =  -0.86 kcal/molUSERUSERREMARK SMILES Oc1nc2ccccc2n1C1CCN(Cc2ccc(-c3ncnc4[nH]ccc34)cc2)CC1REMARK SMILES IDX 11 1 12 2 13 3 14 4 31 5 32 6 10 7 2 8 3 9 4 10 9 11 5 12REMARK SMILES IDX 8 13 6 14 7 15 1 16 15 18 16 19 17 20 30 21 18 22 29 23REMARK SMILES IDX 19 24 20 25 21 26 28 27 22 28 27 29 24 30 23 31 26 32 25 33REMARK H PARENT 1 17 25 34USER                              x       y       z     vdW  Elec       q    TypeUSER                           _______ _______ _______ _____ _____    ______ ____ROOTATOM      1  C   UNL     1      39.182  46.269  18.557 -0.32 -0.01    +0.095 C  ATOM      2  C   UNL     1      37.767  46.018  18.009 -0.23 -0.01    +0.041 C  ATOM      3  C   UNL     1      37.472  44.535  17.806 -0.34 -0.02    +0.087 C  ATOM      4  N   UNL     1      37.742  43.694  18.976 -0.02 +0.03    -0.299 NA ATOM      5  C   UNL     1      38.888  44.125  19.790 -0.23 -0.00    +0.087 C  ATOM      6  C   UNL     1      39.882  44.983  19.013 -0.46 -0.00    +0.041 C  ENDROOTBRANCH   1   7ATOM      7  N   UNL     1      40.006  47.095  17.686 -0.28 +0.05    -0.291 N  ATOM      8  C   UNL     1      41.252  47.563  18.010 -0.26 -0.02    +0.295 A  ATOM      9  N   UNL     1      41.788  48.302  17.080 -0.68 -0.00    -0.195 NA ATOM     10  C   UNL     1      40.845  48.327  16.083 -0.49 -0.01    +0.092 A  ATOM     11  C   UNL     1      39.715  47.579  16.427 -0.44 -0.02    +0.072 A  ATOM     12  C   UNL     1      40.895  48.980  14.841 -0.59 -0.01    +0.031 A  ATOM     13  C   UNL     1      38.619  47.456  15.564 -0.45 -0.01    +0.029 A  ATOM     14  C   UNL     1      39.807  48.865  13.971 -0.07 -0.00    +0.002 A  ATOM     15  C   UNL     1      38.688  48.114  14.330 -0.52 -0.00    +0.002 A  BRANCH   8  16ATOM     16  O   UNL     1      41.878  47.316  19.143 -0.23 -0.02    -0.480 OA ATOM     17  H   UNL     1      42.431  48.113  19.230 +0.09 -0.00    +0.296 HD ENDBRANCH   8  16ENDBRANCH   1   7BRANCH   4  18ATOM     18  C   UNL     1      36.534  43.469  19.789 -0.36 -0.01    +0.120 C  BRANCH  18  19ATOM     19  C   UNL     1      36.836  43.122  21.233 -0.41 -0.00    -0.034 A  ATOM     20  C   UNL     1      37.016  44.127  22.189 -0.33 +0.00    +0.006 A  ATOM     21  C   UNL     1      36.917  41.784  21.640 -0.54 +0.00    +0.006 A  ATOM     22  C   UNL     1      37.283  43.799  23.524 -0.34 +0.00    +0.011 A  ATOM     23  C   UNL     1      37.183  41.463  22.975 -0.36 +0.00    +0.011 A  ATOM     24  C   UNL     1      37.385  42.462  23.942 -0.39 +0.00    +0.001 A  BRANCH  24  25ATOM     25  C   UNL     1      37.663  42.100  25.334 -0.28 -0.00    +0.083 A  ATOM     26  N   UNL     1      38.949  42.195  25.768 -0.14 -0.00    -0.236 NA ATOM     27  C   UNL     1      36.672  41.688  26.239 -0.38 -0.01    +0.045 A  ATOM     28  C   UNL     1      39.220  41.856  27.042 -0.20 -0.01    +0.224 A  ATOM     29  C   UNL     1      35.258  41.501  26.241 -0.42 -0.01    +0.032 A  ATOM     30  C   UNL     1      37.108  41.377  27.519 -0.41 -0.04    +0.141 A  ATOM     31  N   UNL     1      38.364  41.431  27.985 -0.29 +0.02    -0.219 NA ATOM     32  C   UNL     1      34.889  41.069  27.498 -0.51 -0.04    +0.085 A  ATOM     33  N   UNL     1      36.024  40.995  28.263 -0.28 +0.17    -0.346 N  ATOM     34  H   UNL     1      36.080  40.718  29.232 -0.45 -0.12    +0.167 HD ENDBRANCH  24  25ENDBRANCH  18  19ENDBRANCH   4  18TORSDOF 5TERENDMDL