MODEL        4USER    Run = 4USERUSER    Estimated Free Energy of Binding    = -10.96 kcal/mol  [=(1)+(2)+(3)-(4)]USERUSER    (1) Final Intermolecular Energy     = -12.45 kcal/molUSER        vdW + Hbond + desolv Energy     = -12.27 kcal/molUSER        Electrostatic Energy            =  -0.18 kcal/molUSER        Moving Ligand-Fixed Receptor    = -12.45 kcal/molUSER        Moving Ligand-Moving Receptor   =  +0.00 kcal/molUSER    (2) Final Total Internal Energy     =  -1.60 kcal/molUSER    (3) Torsional Free Energy           =  +1.49 kcal/molUSER    (4) Unbound System's Energy         =  -1.60 kcal/molUSERUSERREMARK SMILES Oc1nc2cc(F)ccc2n1C1CCN(Cc2ccc(-c3nc4ccccc4[nH]3)cc2)CC1REMARK SMILES IDX 12 1 13 2 14 3 15 4 32 5 33 6 11 7 2 8 3 9 4 10 10 11 5 12REMARK SMILES IDX 9 13 6 14 8 15 7 16 1 17 16 19 17 20 18 21 31 22 19 23 30 24REMARK SMILES IDX 20 25 21 26 22 27 29 28 23 29 28 30 24 31 27 32 25 33 26 34REMARK H PARENT 1 18 29 35USER                              x       y       z     vdW  Elec       q    TypeUSER                           _______ _______ _______ _____ _____    ______ ____ROOTATOM      1  C   UNL     1      38.773  48.375  14.376 -0.50 -0.04    +0.095 C  ATOM      2  C   UNL     1      38.682  47.038  13.624 -0.33 -0.01    +0.041 C  ATOM      3  C   UNL     1      37.639  46.053  14.161 -0.43 -0.03    +0.087 C  ATOM      4  N   UNL     1      36.354  46.711  14.446 -0.20 +0.20    -0.299 NA ATOM      5  C   UNL     1      36.546  47.769  15.447 -0.27 -0.09    +0.087 C  ATOM      6  C   UNL     1      37.410  48.880  14.863 -0.56 -0.03    +0.041 C  ENDROOTBRANCH   1   7ATOM      7  N   UNL     1      39.794  48.473  15.416 -0.31 +0.10    -0.291 N  ATOM      8  C   UNL     1      40.806  49.382  15.546 -0.38 -0.07    +0.295 A  ATOM      9  N   UNL     1      41.558  49.179  16.594 -0.97 -0.02    -0.195 NA ATOM     10  C   UNL     1      41.030  48.063  17.189 -0.45 -0.01    +0.095 A  ATOM     11  C   UNL     1      39.927  47.588  16.476 -0.46 -0.02    +0.072 A  ATOM     12  C   UNL     1      41.453  47.395  18.346 -0.47 -0.00    +0.070 A  ATOM     13  C   UNL     1      39.218  46.441  16.868 -0.41 -0.01    +0.032 A  ATOM     14  C   UNL     1      40.753  46.256  18.738 -0.39 -0.00    +0.125 A  ATOM     15  C   UNL     1      39.659  45.783  18.020 -0.42 -0.00    +0.041 A  ATOM     16  F   UNL     1      41.150  45.593  19.834 -0.10 -0.02    -0.207 F  BRANCH   8  17ATOM     17  O   UNL     1      41.053  50.378  14.726 -0.28 +0.19    -0.480 OA ATOM     18  H   UNL     1      40.383  51.028  15.010 -0.20 -0.22    +0.296 HD ENDBRANCH   8  17ENDBRANCH   1   7BRANCH   4  19ATOM     19  C   UNL     1      35.361  45.735  14.943 -0.35 -0.09    +0.120 C  BRANCH  19  20ATOM     20  C   UNL     1      35.624  45.271  16.360 -0.31 +0.02    -0.034 A  ATOM     21  C   UNL     1      36.686  44.405  16.640 -0.34 -0.00    +0.006 A  ATOM     22  C   UNL     1      34.825  45.719  17.422 -0.38 -0.00    +0.006 A  ATOM     23  C   UNL     1      36.933  43.989  17.951 -0.28 -0.00    +0.012 A  ATOM     24  C   UNL     1      35.073  45.299  18.733 -0.36 -0.00    +0.012 A  ATOM     25  C   UNL     1      36.132  44.424  19.017 -0.35 -0.00    +0.017 A  BRANCH  25  26ATOM     26  C   UNL     1      36.433  43.952  20.375 -0.32 -0.01    +0.138 A  ATOM     27  N   UNL     1      37.078  44.638  21.305 -0.21 -0.01    -0.229 NA ATOM     28  N   UNL     1      36.081  42.716  20.870 -0.23 -0.01    -0.338 N  ATOM     29  C   UNL     1      37.138  43.827  22.411 -0.31 +0.01    +0.089 A  ATOM     30  C   UNL     1      36.517  42.610  22.165 -0.38 +0.01    +0.066 A  ATOM     31  C   UNL     1      37.710  44.064  23.669 -0.31 +0.00    +0.030 A  ATOM     32  C   UNL     1      36.425  41.590  23.113 -0.43 +0.00    +0.028 A  ATOM     33  C   UNL     1      37.632  43.057  24.642 -0.33 +0.00    +0.002 A  ATOM     34  C   UNL     1      37.000  41.842  24.366 -0.36 -0.00    +0.002 A  ATOM     35  H   UNL     1      35.583  42.001  20.365 +0.10 -0.00    +0.168 HD ENDBRANCH  25  26ENDBRANCH  19  20ENDBRANCH   4  19TORSDOF 5TERENDMDL