MODEL        7USER    Run = 7USERUSER    Estimated Free Energy of Binding    = -10.70 kcal/mol  [=(1)+(2)+(3)-(4)]USERUSER    (1) Final Intermolecular Energy     = -13.09 kcal/molUSER        vdW + Hbond + desolv Energy     = -12.86 kcal/molUSER        Electrostatic Energy            =  -0.22 kcal/molUSER        Moving Ligand-Fixed Receptor    = -13.09 kcal/molUSER        Moving Ligand-Moving Receptor   =  +0.00 kcal/molUSER    (2) Final Total Internal Energy     =  -1.48 kcal/molUSER    (3) Torsional Free Energy           =  +2.39 kcal/molUSER    (4) Unbound System's Energy         =  -1.48 kcal/molUSERUSERREMARK SMILES COc1ccc(O)c(C(=O)c2ccc(CN3CCC(n4c(O)nc5ncccc54)CC3)cc2)c1FREMARK SMILES IDX 11 1 12 2 13 3 14 4 32 5 33 6 9 7 10 8 8 9 3 10 4 11 34 12REMARK SMILES IDX 5 13 6 14 35 15 2 16 1 17 7 18 15 20 16 21 17 22 31 23 18 24REMARK SMILES IDX 30 25 19 26 20 27 21 28 29 29 23 30 28 31 24 32 27 33 25 34REMARK SMILES IDX 26 35 22 36REMARK H PARENT 7 19 22 37USER                              x       y       z     vdW  Elec       q    TypeUSER                           _______ _______ _______ _____ _____    ______ ____ROOTATOM      1  C   UNL     1      33.223  43.131  17.606 -0.31 -0.01    +0.023 A  ATOM      2  C   UNL     1      34.385  42.612  17.027 -0.40 -0.00    +0.012 A  ATOM      3  C   UNL     1      35.100  43.363  16.092 -0.40 -0.00    +0.006 A  ATOM      4  C   UNL     1      34.671  44.650  15.737 -0.30 +0.02    -0.034 A  ATOM      5  C   UNL     1      33.512  45.169  16.336 -0.32 -0.00    +0.006 A  ATOM      6  C   UNL     1      32.796  44.420  17.273 -0.30 -0.00    +0.012 A  ENDROOTBRANCH   1   7ATOM      7  C   UNL     1      32.514  42.311  18.617 -0.29 -0.02    +0.199 C  ATOM      8  O   UNL     1      32.650  42.585  19.811 -0.62 -0.04    -0.288 OA BRANCH   7   9ATOM      9  C   UNL     1      31.600  41.202  18.266 -0.28 -0.01    +0.104 A  ATOM     10  C   UNL     1      29.900  40.197  16.832 -0.27 -0.00    +0.155 A  ATOM     11  C   UNL     1      29.876  39.069  17.655 -0.29 +0.02    +0.053 A  ATOM     12  C   UNL     1      30.770  41.253  17.143 -0.21 -0.05    +0.179 A  ATOM     13  C   UNL     1      30.726  38.992  18.762 -0.37 +0.01    +0.051 A  ATOM     14  C   UNL     1      31.590  40.044  19.054 -0.31 +0.01    +0.130 A  ATOM     15  F   UNL     1      30.813  42.314  16.322 -0.06 +0.09    -0.202 F  BRANCH  10  16ATOM     16  O   UNL     1      29.131  40.378  15.714 -0.20 +0.04    -0.494 OA ATOM     17  C   UNL     1      28.115  41.370  15.774 -0.20 -0.10    +0.278 C  ENDBRANCH  10  16BRANCH  14  18ATOM     18  O   UNL     1      32.413  39.872  20.135 -0.74 -0.26    -0.507 OA ATOM     19  H   UNL     1      32.962  40.686  20.226 +0.21 +0.15    +0.293 HD ENDBRANCH  14  18ENDBRANCH   7   9ENDBRANCH   1   7BRANCH   4  20ATOM     20  C   UNL     1      35.431  45.455  14.703 -0.33 -0.08    +0.120 C  BRANCH  20  21ATOM     21  N   UNL     1      36.185  46.584  15.271 -0.18 +0.24    -0.299 NA ATOM     22  C   UNL     1      36.958  46.234  16.471 -0.38 -0.05    +0.087 C  ATOM     23  C   UNL     1      36.960  47.272  14.232 -0.48 -0.05    +0.087 C  ATOM     24  C   UNL     1      38.418  45.884  16.188 -0.41 -0.01    +0.041 C  ATOM     25  C   UNL     1      38.172  48.012  14.791 -0.56 -0.02    +0.041 C  ATOM     26  C   UNL     1      39.143  47.000  15.413 -0.46 -0.03    +0.095 C  BRANCH  26  27ATOM     27  N   UNL     1      40.203  47.649  16.171 -0.29 +0.06    -0.289 N  ATOM     28  C   UNL     1      40.791  48.853  15.896 -0.34 -0.05    +0.296 A  ATOM     29  C   UNL     1      40.813  47.165  17.307 -0.44 -0.01    +0.091 A  ATOM     30  N   UNL     1      41.718  49.189  16.750 -0.93 -0.03    -0.175 NA ATOM     31  C   UNL     1      40.674  46.010  18.080 -0.47 -0.00    +0.032 A  ATOM     32  C   UNL     1      41.744  48.149  17.638 -0.26 -0.00    +0.181 A  ATOM     33  C   UNL     1      41.519  45.922  19.184 -0.44 +0.00    +0.022 A  ATOM     34  N   UNL     1      42.566  48.071  18.707 -0.41 -0.00    -0.235 NA ATOM     35  C   UNL     1      42.418  46.951  19.443 -0.42 +0.02    +0.114 A  BRANCH  28  36ATOM     36  O   UNL     1      40.477  49.625  14.878 -0.22 +0.20    -0.480 OA ATOM     37  H   UNL     1      39.918  50.299  15.310 -0.19 -0.22    +0.296 HD ENDBRANCH  28  36ENDBRANCH  26  27ENDBRANCH  20  21ENDBRANCH   4  20TORSDOF 8TERENDMDL