MODEL        2USER    Run = 2USERUSER    Estimated Free Energy of Binding    = -12.43 kcal/mol  [=(1)+(2)+(3)-(4)]USERUSER    (1) Final Intermolecular Energy     = -14.52 kcal/molUSER        vdW + Hbond + desolv Energy     = -14.40 kcal/molUSER        Electrostatic Energy            =  -0.12 kcal/molUSER        Moving Ligand-Fixed Receptor    = -14.52 kcal/molUSER        Moving Ligand-Moving Receptor   =  +0.00 kcal/molUSER    (2) Final Total Internal Energy     =  -1.79 kcal/molUSER    (3) Torsional Free Energy           =  +2.09 kcal/molUSER    (4) Unbound System's Energy         =  -1.79 kcal/molUSERUSERREMARK SMILES Oc1nc2ccccc2n1C1CCN(Cc2ccc(-c3nc4ncccc4nc3-c3ccc(N4CCOCC4)cc3)cc2)CC1REMARK SMILES IDX 15 1 14 2 11 3 12 4 45 5 13 6 44 7 10 8 2 9 3 10 4 11 9 12REMARK SMILES IDX 5 13 8 14 6 15 7 16 1 17 16 19 17 20 43 21 18 22 42 23 19 24REMARK SMILES IDX 20 25 21 26 29 27 22 28 28 29 23 30 27 31 24 32 26 33 25 34REMARK SMILES IDX 30 35 31 36 41 37 32 38 40 39 33 40 34 41 35 42 39 43 36 44REMARK SMILES IDX 38 45 37 46REMARK H PARENT 1 18USER                              x       y       z     vdW  Elec       q    TypeUSER                           _______ _______ _______ _____ _____    ______ ____ROOTATOM      1  C   UNL     1      39.702  43.186  22.807 -0.25 +0.01    +0.120 C  ENDROOTBRANCH   1   2ATOM      2  N   UNL     1      39.556  44.006  24.020 -0.05 -0.01    -0.299 NA ATOM      3  C   UNL     1      36.997  43.269  25.390 -0.35 -0.00    +0.095 C  ATOM      4  C   UNL     1      38.282  42.438  25.529 -0.30 -0.00    +0.041 C  ATOM      5  C   UNL     1      37.062  44.130  24.109 -0.32 +0.01    +0.041 C  ATOM      6  C   UNL     1      39.564  43.238  25.268 -0.18 +0.00    +0.087 C  ATOM      7  C   UNL     1      38.382  44.882  23.972 -0.27 +0.01    +0.087 C  BRANCH   3   8ATOM      8  N   UNL     1      36.521  44.027  26.549 -0.19 +0.04    -0.291 N  ATOM      9  C   UNL     1      35.913  43.400  27.617 -0.26 -0.08    +0.295 A  ATOM     10  N   UNL     1      35.510  44.213  28.550 -0.37 +0.06    -0.195 NA ATOM     11  C   UNL     1      35.937  45.441  28.125 -0.27 -0.03    +0.092 A  ATOM     12  C   UNL     1      36.611  45.362  26.896 -0.20 -0.02    +0.072 A  ATOM     13  C   UNL     1      35.791  46.677  28.777 -0.31 -0.01    +0.031 A  ATOM     14  C   UNL     1      37.191  46.510  26.333 -0.32 -0.00    +0.029 A  ATOM     15  C   UNL     1      36.343  47.822  28.201 -0.32 -0.00    +0.002 A  ATOM     16  C   UNL     1      37.040  47.734  27.001 -0.35 -0.00    +0.002 A  BRANCH   9  17ATOM     17  O   UNL     1      35.732  42.098  27.723 -0.20 +0.18    -0.480 OA ATOM     18  H   UNL     1      35.782  41.982  28.688 -0.32 -0.22    +0.296 HD ENDBRANCH   9  17ENDBRANCH   3   8ENDBRANCH   1   2BRANCH   1  19ATOM     19  C   UNL     1      39.646  43.998  21.529 -0.25 -0.00    -0.034 A  ATOM     20  C   UNL     1      38.482  44.035  20.753 -0.31 +0.00    +0.006 A  ATOM     21  C   UNL     1      40.764  44.725  21.101 -0.32 +0.00    +0.006 A  ATOM     22  C   UNL     1      38.442  44.784  19.572 -0.37 -0.00    +0.011 A  ATOM     23  C   UNL     1      40.720  45.471  19.919 -0.40 +0.00    +0.011 A  ATOM     24  C   UNL     1      39.553  45.526  19.138 -0.42 -0.00    +0.002 A  BRANCH  24  25ATOM     25  C   UNL     1      39.489  46.301  17.884 -0.37 -0.02    +0.099 A  ATOM     26  N   UNL     1      40.577  47.096  17.674 -0.35 +0.03    -0.224 NA ATOM     27  C   UNL     1      38.421  46.275  16.973 -0.33 -0.03    +0.097 A  ATOM     28  C   UNL     1      40.594  47.885  16.599 -0.40 -0.03    +0.178 A  ATOM     29  N   UNL     1      38.420  47.087  15.883 -0.24 +0.10    -0.242 NA ATOM     30  N   UNL     1      41.663  48.667  16.405 -0.75 -0.02    -0.235 NA ATOM     31  C   UNL     1      39.499  47.877  15.708 -0.44 -0.04    +0.108 A  ATOM     32  C   UNL     1      41.683  49.475  15.325 -0.35 -0.00    +0.114 A  ATOM     33  C   UNL     1      39.556  48.720  14.609 -0.43 -0.01    +0.034 A  ATOM     34  C   UNL     1      40.660  49.539  14.403 -0.33 -0.01    +0.022 A  BRANCH  27  35ATOM     35  C   UNL     1      37.245  45.394  17.065 -0.35 -0.00    +0.003 A  ATOM     36  C   UNL     1      36.057  45.846  17.650 -0.34 -0.01    +0.012 A  ATOM     37  C   UNL     1      37.253  44.090  16.559 -0.33 -0.00    +0.012 A  ATOM     38  C   UNL     1      34.934  45.012  17.754 -0.33 -0.01    +0.026 A  ATOM     39  C   UNL     1      36.123  43.263  16.663 -0.37 -0.01    +0.026 A  ATOM     40  C   UNL     1      34.936  43.697  17.270 -0.30 -0.01    +0.037 A  BRANCH  40  41ATOM     41  N   UNL     1      33.828  42.878  17.380 -0.10 +0.13    -0.367 N  ATOM     42  C   UNL     1      33.711  41.862  18.439 -0.36 -0.03    +0.145 C  ATOM     43  C   UNL     1      32.718  42.923  16.416 -0.27 -0.07    +0.145 C  ATOM     44  C   UNL     1      32.837  40.691  17.955 -0.34 -0.05    +0.181 C  ATOM     45  C   UNL     1      31.425  42.416  17.077 -0.24 -0.06    +0.181 C  ATOM     46  O   UNL     1      31.509  41.072  17.571 -0.16 +0.09    -0.378 OA ENDBRANCH  40  41ENDBRANCH  27  35ENDBRANCH  24  25ENDBRANCH   1  19TORSDOF 7TERENDMDL