REMARK SMILES COc1ccc(O)c(C(=O)c2ccc(CN3CC[C@H](n4c(O)nc5ccccc54)C[C@H]3C)cc2)c1O[C@@H]1CNCCO1
REMARK SMILES IDX 11 1 12 2 13 3 14 4 33 5 34 6 9 7 10 8 8 9 3 10 4 11 35 12
REMARK SMILES IDX 5 13 6 14 2 15 1 16 36 17 37 18 38 19 42 20 39 21 41 22
REMARK SMILES IDX 40 23 7 25 15 27 16 28 17 29 31 30 18 31 30 32 19 33 32 34
REMARK SMILES IDX 20 35 21 36 29 37 23 38 28 39 24 40 27 41 25 42 26 43 22 44
REMARK H PARENT 39 24 7 26 22 45
ROOT
ATOM      1  C   UNL     1       2.134  -0.004  -1.857  1.00  0.00     0.023 A 
ATOM      2  C   UNL     1       1.599  -1.249  -1.501  1.00  0.00     0.012 A 
ATOM      3  C   UNL     1       0.217  -1.462  -1.553  1.00  0.00     0.006 A 
ATOM      4  C   UNL     1      -0.647  -0.435  -1.958  1.00  0.00    -0.034 A 
ATOM      5  C   UNL     1      -0.106   0.811  -2.306  1.00  0.00     0.006 A 
ATOM      6  C   UNL     1       1.274   1.026  -2.252  1.00  0.00     0.012 A 
ENDROOT
BRANCH   1   7
ATOM      7  C   UNL     1       3.599   0.265  -1.835  1.00  0.00     0.200 C 
ATOM      8  O   UNL     1       4.046   1.403  -1.950  1.00  0.00    -0.288 OA
BRANCH   7   9
ATOM      9  C   UNL     1       4.558  -0.844  -1.703  1.00  0.00     0.110 A 
ATOM     10  C   UNL     1       6.040  -2.208  -0.341  1.00  0.00     0.161 A 
ATOM     11  C   UNL     1       6.396  -2.932  -1.485  1.00  0.00     0.054 A 
ATOM     12  C   UNL     1       5.125  -1.149  -0.458  1.00  0.00     0.179 A 
ATOM     13  C   UNL     1       5.835  -2.622  -2.729  1.00  0.00     0.051 A 
ATOM     14  C   UNL     1       4.914  -1.583  -2.835  1.00  0.00     0.130 A 
BRANCH  10  15
ATOM     15  O   UNL     1       6.515  -2.454   0.920  1.00  0.00    -0.493 OA
ATOM     16  C   UNL     1       7.463  -3.501   1.076  1.00  0.00     0.278 C 
ENDBRANCH  10  15
BRANCH  12  17
ATOM     17  O   UNL     1       4.713  -0.498   0.680  1.00  0.00    -0.459 OA
BRANCH  17  18
ATOM     18  C   UNL     1       5.416   0.738   0.868  1.00  0.00     0.321 C 
ATOM     19  C   UNL     1       6.525   0.560   1.948  1.00  0.00     0.157 C 
ATOM     20  O   UNL     1       4.489   1.727   1.345  1.00  0.00    -0.340 OA
ATOM     21  N   UNL     1       6.930   1.800   2.663  1.00  0.00    -0.309 NA
ATOM     22  C   UNL     1       5.110   3.015   1.439  1.00  0.00     0.180 C 
ATOM     23  C   UNL     1       6.606   2.958   1.814  1.00  0.00     0.109 C 
ATOM     24  H   UNL     1       6.330   1.863   3.488  1.00  0.00     0.123 HD
ENDBRANCH  17  18
ENDBRANCH  12  17
BRANCH  14  25
ATOM     25  O   UNL     1       4.346  -1.295  -4.044  1.00  0.00    -0.507 OA
ATOM     26  H   UNL     1       4.718  -1.872  -4.730  1.00  0.00     0.293 HD
ENDBRANCH  14  25
ENDBRANCH   7   9
ENDBRANCH   1   7
BRANCH   4  27
ATOM     27  C   UNL     1      -2.144  -0.673  -2.040  1.00  0.00     0.120 C 
BRANCH  27  28
ATOM     28  N   UNL     1      -2.941   0.247  -1.198  1.00  0.00    -0.296 NA
ATOM     29  C   UNL     1      -2.646  -0.000   0.228  1.00  0.00     0.087 C 
ATOM     30  C   UNL     1      -4.397   0.113  -1.437  1.00  0.00     0.056 C 
ATOM     31  C   UNL     1      -3.378   0.958   1.168  1.00  0.00     0.041 C 
ATOM     32  C   UNL     1      -5.120   1.225  -0.661  1.00  0.00     0.044 C 
ATOM     33  C   UNL     1      -4.860   1.173   0.847  1.00  0.00     0.095 C 
ATOM     34  C   UNL     1      -4.798   0.243  -2.916  1.00  0.00     0.024 C 
BRANCH  33  35
ATOM     35  N   UNL     1      -5.828   0.323   1.536  1.00  0.00    -0.291 N 
ATOM     36  C   UNL     1      -5.723  -0.983   1.917  1.00  0.00     0.295 A 
ATOM     37  C   UNL     1      -7.098   0.737   1.913  1.00  0.00     0.072 A 
ATOM     38  N   UNL     1      -6.800  -1.450   2.490  1.00  0.00    -0.195 NA
ATOM     39  C   UNL     1      -7.788   1.951   1.796  1.00  0.00     0.029 A 
ATOM     40  C   UNL     1      -7.671  -0.392   2.499  1.00  0.00     0.092 A 
ATOM     41  C   UNL     1      -9.093   2.000   2.299  1.00  0.00     0.002 A 
ATOM     42  C   UNL     1      -8.981  -0.324   2.996  1.00  0.00     0.031 A 
ATOM     43  C   UNL     1      -9.683   0.882   2.890  1.00  0.00     0.002 A 
BRANCH  36  44
ATOM     44  O   UNL     1      -4.668  -1.750   1.754  1.00  0.00    -0.480 OA
ATOM     45  H   UNL     1      -4.981  -2.583   2.150  1.00  0.00     0.296 HD
ENDBRANCH  36  44
ENDBRANCH  33  35
ENDBRANCH  27  28
ENDBRANCH   4  27
TORSDOF 10
