REMARK SMILES COc1ccc(O)c(C(=O)c2ccc(CN3CCC(n4c(O)nc5ncccc54)CC3)cc2)c1F
REMARK SMILES IDX 11 1 12 2 13 3 14 4 32 5 33 6 9 7 10 8 8 9 3 10 4 11 34 12
REMARK SMILES IDX 5 13 6 14 35 15 2 16 1 17 7 18 15 20 16 21 17 22 31 23 18 24
REMARK SMILES IDX 30 25 19 26 20 27 21 28 29 29 23 30 28 31 24 32 27 33 25 34
REMARK SMILES IDX 26 35 22 36
REMARK H PARENT 7 19 22 37
ROOT
ATOM      1  C   UNL     1       3.275   1.105   0.670  1.00  0.00     0.023 A 
ATOM      2  C   UNL     1       2.503   2.258   0.494  1.00  0.00     0.012 A 
ATOM      3  C   UNL     1       1.293   2.193  -0.200  1.00  0.00     0.006 A 
ATOM      4  C   UNL     1       0.831   0.972  -0.712  1.00  0.00    -0.034 A 
ATOM      5  C   UNL     1       1.606  -0.182  -0.516  1.00  0.00     0.006 A 
ATOM      6  C   UNL     1       2.816  -0.121   0.180  1.00  0.00     0.012 A 
ENDROOT
BRANCH   1   7
ATOM      7  C   UNL     1       4.537   1.215   1.440  1.00  0.00     0.199 C 
ATOM      8  O   UNL     1       4.581   1.977   2.408  1.00  0.00    -0.288 OA
BRANCH   7   9
ATOM      9  C   UNL     1       5.743   0.413   1.141  1.00  0.00     0.104 A 
ATOM     10  C   UNL     1       7.224  -0.728  -0.427  1.00  0.00     0.155 A 
ATOM     11  C   UNL     1       8.042  -1.120   0.634  1.00  0.00     0.053 A 
ATOM     12  C   UNL     1       6.082   0.043  -0.163  1.00  0.00     0.179 A 
ATOM     13  C   UNL     1       7.732  -0.727   1.939  1.00  0.00     0.051 A 
ATOM     14  C   UNL     1       6.600   0.045   2.186  1.00  0.00     0.130 A 
ATOM     15  F   UNL     1       5.326   0.448  -1.196  1.00  0.00    -0.202 F 
BRANCH  10  16
ATOM     16  O   UNL     1       7.435  -1.034  -1.745  1.00  0.00    -0.494 OA
ATOM     17  C   UNL     1       8.607  -1.773  -2.064  1.00  0.00     0.278 C 
ENDBRANCH  10  16
BRANCH  14  18
ATOM     18  O   UNL     1       6.389   0.415   3.487  1.00  0.00    -0.507 OA
ATOM     19  H   UNL     1       5.699   1.119   3.491  1.00  0.00     0.293 HD
ENDBRANCH  14  18
ENDBRANCH   7   9
ENDBRANCH   1   7
BRANCH   4  20
ATOM     20  C   UNL     1      -0.468   0.906  -1.488  1.00  0.00     0.120 C 
BRANCH  20  21
ATOM     21  N   UNL     1      -1.409  -0.104  -0.979  1.00  0.00    -0.299 NA
ATOM     22  C   UNL     1      -1.955   0.213   0.348  1.00  0.00     0.087 C 
ATOM     23  C   UNL     1      -2.423  -0.431  -1.988  1.00  0.00     0.087 C 
ATOM     24  C   UNL     1      -3.311   0.916   0.308  1.00  0.00     0.041 C 
ATOM     25  C   UNL     1      -3.715  -0.965  -1.377  1.00  0.00     0.041 C 
ATOM     26  C   UNL     1      -4.352   0.125  -0.504  1.00  0.00     0.095 C 
BRANCH  26  27
ATOM     27  N   UNL     1      -5.457  -0.387   0.295  1.00  0.00    -0.289 N 
ATOM     28  C   UNL     1      -5.374  -1.235   1.365  1.00  0.00     0.296 A 
ATOM     29  C   UNL     1      -6.794  -0.112   0.114  1.00  0.00     0.091 A 
ATOM     30  N   UNL     1      -6.531  -1.527   1.891  1.00  0.00    -0.175 NA
ATOM     31  C   UNL     1      -7.524   0.664  -0.789  1.00  0.00     0.032 A 
ATOM     32  C   UNL     1      -7.428  -0.835   1.125  1.00  0.00     0.181 A 
ATOM     33  C   UNL     1      -8.905   0.661  -0.602  1.00  0.00     0.022 A 
ATOM     34  N   UNL     1      -8.766  -0.842   1.312  1.00  0.00    -0.235 NA
ATOM     35  C   UNL     1      -9.456  -0.086   0.433  1.00  0.00     0.114 A 
BRANCH  28  36
ATOM     36  O   UNL     1      -4.252  -1.727   1.846  1.00  0.00    -0.480 OA
ATOM     37  H   UNL     1      -4.582  -2.282   2.578  1.00  0.00     0.296 HD
ENDBRANCH  28  36
ENDBRANCH  26  27
ENDBRANCH  20  21
ENDBRANCH   4  20
TORSDOF 8
