MODEL        9USER    Run = 9USERUSER    Estimated Free Energy of Binding    = -10.11 kcal/mol  [=(1)+(2)+(3)-(4)]USERUSER    (1) Final Intermolecular Energy     = -13.09 kcal/molUSER        vdW + Hbond + desolv Energy     = -12.89 kcal/molUSER        Electrostatic Energy            =  -0.20 kcal/molUSER        Moving Ligand-Fixed Receptor    = -13.09 kcal/molUSER        Moving Ligand-Moving Receptor   =  +0.00 kcal/molUSER    (2) Final Total Internal Energy     =  -3.30 kcal/molUSER    (3) Torsional Free Energy           =  +2.98 kcal/molUSER    (4) Unbound System's Energy         =  -3.30 kcal/molUSERUSERREMARK SMILES COc1ccc(O)c(C(=O)c2ccc(CN3CC[C@H](n4c(O)nc5ccccc54)C[C@H]3C)cc2)c1O[C@@H]1CNCCO1REMARK SMILES IDX 11 1 12 2 13 3 14 4 33 5 34 6 9 7 10 8 8 9 3 10 4 11 35 12REMARK SMILES IDX 5 13 6 14 2 15 1 16 36 17 37 18 38 19 42 20 39 21 41 22REMARK SMILES IDX 40 23 7 25 15 27 16 28 17 29 31 30 18 31 30 32 19 33 32 34REMARK SMILES IDX 20 35 21 36 29 37 23 38 28 39 24 40 27 41 25 42 26 43 22 44REMARK H PARENT 39 24 7 26 22 45USER                              x       y       z     vdW  Elec       q    TypeUSER                           _______ _______ _______ _____ _____    ______ ____ROOTATOM      1  C   UNL     1      37.730  43.322  21.644 -0.36 +0.00    +0.023 A  ATOM      2  C   UNL     1      37.126  44.400  20.984 -0.35 +0.00    +0.012 A  ATOM      3  C   UNL     1      36.031  44.184  20.140 -0.38 -0.00    +0.006 A  ATOM      4  C   UNL     1      35.527  42.891  19.943 -0.42 +0.00    -0.034 A  ATOM      5  C   UNL     1      36.140  41.815  20.601 -0.47 -0.00    +0.006 A  ATOM      6  C   UNL     1      37.236  42.029  21.443 -0.41 +0.00    +0.012 A  ENDROOTBRANCH   1   7ATOM      7  C   UNL     1      38.885  43.503  22.566 -0.22 +0.01    +0.200 C  ATOM      8  O   UNL     1      39.683  42.595  22.785 -0.20 -0.02    -0.288 OA BRANCH   7   9ATOM      9  C   UNL     1      39.085  44.782  23.268 -0.20 +0.01    +0.110 A  ATOM     10  C   UNL     1      38.252  46.560  24.703 -0.21 +0.02    +0.161 A  ATOM     11  C   UNL     1      39.478  47.222  24.564 -0.27 +0.01    +0.054 A  ATOM     12  C   UNL     1      38.054  45.339  24.037 -0.20 +0.02    +0.179 A  ATOM     13  C   UNL     1      40.504  46.668  23.790 -0.20 +0.00    +0.051 A  ATOM     14  C   UNL     1      40.308  45.448  23.148 -0.15 +0.01    +0.130 A  BRANCH  10  15ATOM     15  O   UNL     1      37.201  47.009  25.458 -0.69 -0.04    -0.493 OA ATOM     16  C   UNL     1      36.941  48.406  25.463 -0.33 +0.01    +0.278 C  ENDBRANCH  10  15BRANCH  12  17ATOM     17  O   UNL     1      36.883  44.651  24.245 -0.24 -0.08    -0.459 OA BRANCH  17  18ATOM     18  C   UNL     1      36.901  43.937  25.489 -0.20 -0.00    +0.321 C  ATOM     19  C   UNL     1      37.577  42.546  25.294 -0.29 -0.00    +0.157 C  ATOM     20  O   UNL     1      35.546  43.713  25.912 -0.22 +0.01    -0.340 OA ATOM     21  N   UNL     1      37.174  41.494  26.264 -0.18 +0.06    -0.309 NA ATOM     22  C   UNL     1      35.502  43.106  27.209 -0.45 -0.04    +0.180 C  ATOM     23  C   UNL     1      36.680  42.148  27.487 -0.43 -0.03    +0.109 C  ATOM     24  H   UNL     1      36.376  41.010  25.847 -0.31 -0.05    +0.123 HD ENDBRANCH  17  18ENDBRANCH  12  17BRANCH  14  25ATOM     25  O   UNL     1      41.317  44.894  22.412 -0.00 -0.04    -0.507 OA ATOM     26  H   UNL     1      41.352  43.937  22.567 +0.13 +0.02    +0.293 HD ENDBRANCH  14  25ENDBRANCH   7   9ENDBRANCH   1   7BRANCH   4  27ATOM     27  C   UNL     1      34.323  42.659  19.049 -0.38 -0.01    +0.120 C  BRANCH  27  28ATOM     28  N   UNL     1      34.486  43.194  17.678 -0.12 +0.09    -0.296 NA ATOM     29  C   UNL     1      35.771  42.733  17.113 -0.34 -0.03    +0.087 C  ATOM     30  C   UNL     1      34.426  44.674  17.639 -0.34 -0.02    +0.056 C  ATOM     31  C   UNL     1      35.988  43.185  15.669 -0.45 -0.01    +0.041 C  ATOM     32  C   UNL     1      34.420  45.119  16.168 -0.35 -0.03    +0.044 C  ATOM     33  C   UNL     1      35.656  44.655  15.394 -0.33 -0.05    +0.095 C  ATOM     34  C   UNL     1      33.172  45.262  18.307 -0.42 -0.01    +0.024 C  BRANCH  33  35ATOM     35  N   UNL     1      36.749  45.620  15.485 -0.15 +0.14    -0.291 N  ATOM     36  C   UNL     1      37.056  46.667  14.665 -0.19 -0.16    +0.295 A  ATOM     37  C   UNL     1      37.722  45.603  16.475 -0.32 -0.03    +0.072 A  ATOM     38  N   UNL     1      38.132  47.315  15.024 -0.28 +0.09    -0.195 NA ATOM     39  C   UNL     1      37.949  44.780  17.586 -0.35 -0.01    +0.029 A  ATOM     40  C   UNL     1      38.563  46.668  16.153 -0.35 -0.03    +0.092 A  ATOM     41  C   UNL     1      39.064  45.066  18.381 -0.41 -0.00    +0.002 A  ATOM     42  C   UNL     1      39.677  46.939  16.961 -0.46 -0.01    +0.031 A  ATOM     43  C   UNL     1      39.917  46.129  18.076 -0.46 -0.00    +0.002 A  BRANCH  36  44ATOM     44  O   UNL     1      36.375  47.039  13.605 -0.18 +0.28    -0.480 OA ATOM     45  H   UNL     1      35.724  47.643  14.005 +0.24 -0.25    +0.296 HD ENDBRANCH  36  44ENDBRANCH  33  35ENDBRANCH  27  28ENDBRANCH   4  27TORSDOF 10TERENDMDL