
     RDKit          3D

 64 67  0  0  0  0  0  0  0  0999 V2000
    6.5193    3.6110   -3.5486 C   0  0  0  0  0  0  0  0  0  0  0  0
    5.7472    2.9776   -2.5333 O   0  0  0  0  0  0  0  0  0  0  0  0
    6.3078    1.8991   -1.9033 C   0  0  0  0  0  0  0  0  0  0  0  0
    7.5118    1.2887   -2.2653 C   0  0  0  0  0  0  0  0  0  0  0  0
    7.9912    0.2004   -1.5322 C   0  0  0  0  0  0  0  0  0  0  0  0
    7.2642   -0.2839   -0.4474 C   0  0  0  0  0  0  0  0  0  0  0  0
    7.8257   -1.3342    0.2309 O   0  0  0  0  0  0  0  0  0  0  0  0
    6.0336    0.2878   -0.0896 C   0  0  0  0  0  0  0  0  0  0  0  0
    5.2854   -0.2619    1.0641 C   0  0  0  0  0  0  0  0  0  0  0  0
    5.9211   -0.8754    1.9233 O   0  0  0  0  0  0  0  0  0  0  0  0
    3.8180   -0.1617    1.2241 C   0  0  0  0  0  0  0  0  0  0  0  0
    3.3125    0.0575    2.5093 C   0  0  0  0  0  0  0  0  0  0  0  0
    1.9312    0.0855    2.7218 C   0  0  0  0  0  0  0  0  0  0  0  0
    1.0480   -0.1302    1.6560 C   0  0  0  0  0  0  0  0  0  0  0  0
   -0.4121   -0.1475    1.9512 C   0  0  0  0  0  0  0  0  0  0  0  0
   -0.8627    0.5112    2.8816 O   0  0  0  0  0  0  0  0  0  0  0  0
   -1.1838   -0.9835    1.1706 N   0  0  0  0  0  0  0  0  0  0  0  0
   -2.5703   -1.2938    1.5432 C   0  0  2  0  0  0  0  0  0  0  0  0
   -2.5879   -2.4194    2.5864 C   0  0  0  0  0  0  0  0  0  0  0  0
   -3.9263   -2.6332    3.3134 C   0  0  0  0  0  0  0  0  0  0  0  0
   -5.1274   -1.8459    2.7949 C   0  0  0  0  0  0  0  0  0  0  0  0
   -5.6078   -2.2175    1.4686 N   0  0  0  0  0  0  0  0  0  0  0  0
   -4.5834   -2.5898    0.4894 C   0  0  0  0  0  0  0  0  0  0  0  0
   -3.4165   -1.5964    0.2744 C   0  0  0  0  0  0  0  0  0  0  0  0
   -3.8960   -0.3434   -0.3243 N   0  0  0  0  0  0  0  0  0  0  0  0
   -4.1795   -0.2485   -1.6674 C   0  0  0  0  0  0  0  0  0  0  0  0
   -3.9726   -1.1490   -2.4704 O   0  0  0  0  0  0  0  0  0  0  0  0
   -4.7943    1.0231   -2.1219 C   0  0  0  0  0  0  0  0  0  0  0  0
   -5.6435    0.9880   -3.2275 C   0  0  0  0  0  0  0  0  0  0  0  0
   -6.2104    2.1755   -3.6489 C   0  0  0  0  0  0  0  0  0  0  0  0
   -5.9806    3.3661   -3.0553 N   0  0  0  0  0  0  0  0  0  0  0  0
   -5.1401    3.3738   -1.9964 C   0  0  0  0  0  0  0  0  0  0  0  0
   -4.5238    2.2409   -1.4955 C   0  0  0  0  0  0  0  0  0  0  0  0
    1.5541   -0.3383    0.3673 C   0  0  0  0  0  0  0  0  0  0  0  0
    2.9387   -0.3648    0.1540 C   0  0  0  0  0  0  0  0  0  0  0  0
    5.5805    1.3919   -0.8130 C   0  0  0  0  0  0  0  0  0  0  0  0
    4.4440    2.0132   -0.4558 F   0  0  0  0  0  0  0  0  0  0  0  0
    5.9565    4.4765   -3.9087 H   0  0  0  0  0  0  0  0  0  0  0  0
    7.4748    3.9729   -3.1548 H   0  0  0  0  0  0  0  0  0  0  0  0
    6.6730    2.9391   -4.4010 H   0  0  0  0  0  0  0  0  0  0  0  0
    8.1039    1.6337   -3.1079 H   0  0  0  0  0  0  0  0  0  0  0  0
    8.9357   -0.2672   -1.8025 H   0  0  0  0  0  0  0  0  0  0  0  0
    7.3294   -1.4378    1.0768 H   0  0  0  0  0  0  0  0  0  0  0  0
    3.9921    0.1966    3.3458 H   0  0  0  0  0  0  0  0  0  0  0  0
    1.5425    0.2569    3.7229 H   0  0  0  0  0  0  0  0  0  0  0  0
   -0.7092   -1.6408    0.5674 H   0  0  0  0  0  0  0  0  0  0  0  0
   -2.9547   -0.3876    2.0220 H   0  0  0  0  0  0  0  0  0  0  0  0
   -1.8266   -2.2245    3.3525 H   0  0  0  0  0  0  0  0  0  0  0  0
   -2.2713   -3.3591    2.1159 H   0  0  0  0  0  0  0  0  0  0  0  0
   -3.7830   -2.3629    4.3653 H   0  0  0  0  0  0  0  0  0  0  0  0
   -4.1643   -3.7034    3.3180 H   0  0  0  0  0  0  0  0  0  0  0  0
   -5.9587   -1.9951    3.4927 H   0  0  0  0  0  0  0  0  0  0  0  0
   -4.9172   -0.7719    2.8230 H   0  0  0  0  0  0  0  0  0  0  0  0
   -6.1910   -1.4715    1.0941 H   0  0  0  0  0  0  0  0  0  0  0  0
   -5.0968   -2.7449   -0.4660 H   0  0  0  0  0  0  0  0  0  0  0  0
   -4.1841   -3.5790    0.7455 H   0  0  0  0  0  0  0  0  0  0  0  0
   -2.7589   -2.0673   -0.4680 H   0  0  0  0  0  0  0  0  0  0  0  0
   -4.2727    0.3497    0.3026 H   0  0  0  0  0  0  0  0  0  0  0  0
   -5.8550    0.0601   -3.7520 H   0  0  0  0  0  0  0  0  0  0  0  0
   -6.8795    2.2029   -4.5068 H   0  0  0  0  0  0  0  0  0  0  0  0
   -4.9627    4.3490   -1.5530 H   0  0  0  0  0  0  0  0  0  0  0  0
   -3.8362    2.3265   -0.6614 H   0  0  0  0  0  0  0  0  0  0  0  0
    0.8907   -0.4691   -0.4835 H   0  0  0  0  0  0  0  0  0  0  0  0
    3.3080   -0.5547   -0.8486 H   0  0  0  0  0  0  0  0  0  0  0  0
  1  2  1  0
  2  3  1  0
  3  4  2  0
  4  5  1  0
  5  6  2  0
  6  7  1  0
  6  8  1  0
  8  9  1  0
  9 10  2  0
  9 11  1  0
 11 12  2  0
 12 13  1  0
 13 14  2  0
 14 15  1  0
 15 16  2  0
 15 17  1  0
 17 18  1  0
 18 19  1  0
 19 20  1  0
 20 21  1  0
 21 22  1  0
 22 23  1  0
 23 24  1  0
 24 25  1  0
 25 26  1  0
 26 27  2  0
 26 28  1  0
 28 29  2  0
 29 30  1  0
 30 31  2  0
 31 32  1  0
 32 33  2  0
 14 34  1  0
 34 35  2  0
  8 36  2  0
 36 37  1  0
 36  3  1  0
 35 11  1  0
 24 18  1  0
 33 28  1  0
  1 38  1  0
  1 39  1  0
  1 40  1  0
  4 41  1  0
  5 42  1  0
  7 43  1  0
 12 44  1  0
 13 45  1  0
 17 46  1  0
 18 47  1  1
 19 48  1  0
 19 49  1  0
 20 50  1  0
 20 51  1  0
 21 52  1  0
 21 53  1  0
 22 54  1  0
 23 55  1  0
 23 56  1  0
 24 57  1  0
 25 58  1  0
 29 59  1  0
 30 60  1  0
 32 61  1  0
 33 62  1  0
 34 63  1  0
 35 64  1  0
M  END
$$$$
