
     RDKit          3D

 65 71  0  0  0  0  0  0  0  0999 V2000
    6.9945   -2.5628    1.8192 O   0  0  0  0  0  0  0  0  0  0  0  0
    6.8266   -1.8969    0.6948 C   0  0  0  0  0  0  0  0  0  0  0  0
    7.7218   -1.9142   -0.2525 N   0  0  0  0  0  0  0  0  0  0  0  0
    7.1887   -1.1163   -1.2257 C   0  0  0  0  0  0  0  0  0  0  0  0
    7.7871   -0.8433   -2.4059 N   0  0  0  0  0  0  0  0  0  0  0  0
    7.0835   -0.0265   -3.2157 C   0  0  0  0  0  0  0  0  0  0  0  0
    5.8400    0.5229   -2.9287 C   0  0  0  0  0  0  0  0  0  0  0  0
    5.2268    0.2353   -1.7110 C   0  0  0  0  0  0  0  0  0  0  0  0
    5.9417   -0.6071   -0.8563 C   0  0  0  0  0  0  0  0  0  0  0  0
    5.7290   -1.1329    0.3980 N   0  0  0  0  0  0  0  0  0  0  0  0
    4.5844   -0.9412    1.2784 C   0  0  0  0  0  0  0  0  0  0  0  0
    3.2871   -1.5085    0.6897 C   0  0  0  0  0  0  0  0  0  0  0  0
    2.1112   -1.2554    1.6338 C   0  0  0  0  0  0  0  0  0  0  0  0
    1.9551    0.1536    2.0227 N   0  0  0  0  0  0  0  0  0  0  0  0
    1.4519    1.0172    0.9424 C   0  0  0  0  0  0  0  0  0  0  0  0
    0.0336    0.6896    0.5261 C   0  0  0  0  0  0  0  0  0  0  0  0
   -0.2472    0.2325   -0.7666 C   0  0  0  0  0  0  0  0  0  0  0  0
   -1.5598   -0.0736   -1.1397 C   0  0  0  0  0  0  0  0  0  0  0  0
   -2.6299    0.0785   -0.2404 C   0  0  0  0  0  0  0  0  0  0  0  0
   -4.0054   -0.2490   -0.6591 C   0  0  0  0  0  0  0  0  0  0  0  0
   -4.1284   -1.4893   -1.2121 N   0  0  0  0  0  0  0  0  0  0  0  0
   -5.3381   -1.9077   -1.5847 C   0  0  0  0  0  0  0  0  0  0  0  0
   -5.4487   -3.1269   -2.1254 N   0  0  0  0  0  0  0  0  0  0  0  0
   -6.6704   -3.5558   -2.5020 C   0  0  0  0  0  0  0  0  0  0  0  0
   -7.8181   -2.8050   -2.3606 C   0  0  0  0  0  0  0  0  0  0  0  0
   -7.6947   -1.5398   -1.7992 C   0  0  0  0  0  0  0  0  0  0  0  0
   -6.4559   -1.0625   -1.4001 C   0  0  0  0  0  0  0  0  0  0  0  0
   -6.3589    0.1726   -0.8671 N   0  0  0  0  0  0  0  0  0  0  0  0
   -5.1169    0.5940   -0.5085 C   0  0  0  0  0  0  0  0  0  0  0  0
   -5.0814    1.9776   -0.0036 C   0  0  0  0  0  0  0  0  0  0  0  0
   -4.1928    2.9337   -0.5135 C   0  0  0  0  0  0  0  0  0  0  0  0
   -4.2121    4.2186    0.0070 C   0  0  0  0  0  0  0  0  0  0  0  0
   -5.0518    4.6208    0.9828 N   0  0  0  0  0  0  0  0  0  0  0  0
   -5.9192    3.7004    1.4505 C   0  0  0  0  0  0  0  0  0  0  0  0
   -5.9727    2.3923    0.9959 C   0  0  0  0  0  0  0  0  0  0  0  0
   -2.3337    0.5211    1.0597 C   0  0  0  0  0  0  0  0  0  0  0  0
   -1.0222    0.8282    1.4362 C   0  0  0  0  0  0  0  0  0  0  0  0
    3.1916    0.6756    2.6172 C   0  0  0  0  0  0  0  0  0  0  0  0
    4.4202    0.5180    1.7213 C   0  0  0  0  0  0  0  0  0  0  0  0
    7.8669   -2.9735    1.6711 H   0  0  0  0  0  0  0  0  0  0  0  0
    7.5701    0.1923   -4.1638 H   0  0  0  0  0  0  0  0  0  0  0  0
    5.3541    1.1711   -3.6512 H   0  0  0  0  0  0  0  0  0  0  0  0
    4.2584    0.6476   -1.4574 H   0  0  0  0  0  0  0  0  0  0  0  0
    4.7968   -1.5221    2.1866 H   0  0  0  0  0  0  0  0  0  0  0  0
    3.0722   -1.0745   -0.2924 H   0  0  0  0  0  0  0  0  0  0  0  0
    3.3956   -2.5882    0.5266 H   0  0  0  0  0  0  0  0  0  0  0  0
    1.1904   -1.6505    1.1902 H   0  0  0  0  0  0  0  0  0  0  0  0
    2.2577   -1.8470    2.5476 H   0  0  0  0  0  0  0  0  0  0  0  0
    2.1126    0.9990    0.0678 H   0  0  0  0  0  0  0  0  0  0  0  0
    1.4380    2.0620    1.2819 H   0  0  0  0  0  0  0  0  0  0  0  0
    0.5520    0.0950   -1.4915 H   0  0  0  0  0  0  0  0  0  0  0  0
   -1.7490   -0.4458   -2.1462 H   0  0  0  0  0  0  0  0  0  0  0  0
   -6.6981   -4.5528   -2.9339 H   0  0  0  0  0  0  0  0  0  0  0  0
   -8.7805   -3.1890   -2.6786 H   0  0  0  0  0  0  0  0  0  0  0  0
   -8.5730   -0.9123   -1.6725 H   0  0  0  0  0  0  0  0  0  0  0  0
   -3.4939    2.6939   -1.3089 H   0  0  0  0  0  0  0  0  0  0  0  0
   -3.5319    4.9813   -0.3624 H   0  0  0  0  0  0  0  0  0  0  0  0
   -6.5948    4.0514    2.2259 H   0  0  0  0  0  0  0  0  0  0  0  0
   -6.7026    1.7049    1.4138 H   0  0  0  0  0  0  0  0  0  0  0  0
   -3.1217    0.6204    1.8042 H   0  0  0  0  0  0  0  0  0  0  0  0
   -0.8207    1.1602    2.4533 H   0  0  0  0  0  0  0  0  0  0  0  0
    3.0666    1.7298    2.8938 H   0  0  0  0  0  0  0  0  0  0  0  0
    3.3705    0.1488    3.5638 H   0  0  0  0  0  0  0  0  0  0  0  0
    4.3340    1.1885    0.8596 H   0  0  0  0  0  0  0  0  0  0  0  0
    5.3139    0.8420    2.2697 H   0  0  0  0  0  0  0  0  0  0  0  0
  1  2  1  0
  2  3  2  0
  3  4  1  0
  4  5  2  0
  5  6  1  0
  6  7  2  0
  7  8  1  0
  8  9  2  0
  9 10  1  0
 10 11  1  0
 11 12  1  0
 12 13  1  0
 13 14  1  0
 14 15  1  0
 15 16  1  0
 16 17  2  0
 17 18  1  0
 18 19  2  0
 19 20  1  0
 20 21  2  0
 21 22  1  0
 22 23  2  0
 23 24  1  0
 24 25  2  0
 25 26  1  0
 26 27  2  0
 27 28  1  0
 28 29  2  0
 29 30  1  0
 30 31  2  0
 31 32  1  0
 32 33  2  0
 33 34  1  0
 34 35  2  0
 19 36  1  0
 36 37  2  0
 14 38  1  0
 38 39  1  0
 10  2  1  0
 39 11  1  0
  9  4  1  0
 37 16  1  0
 29 20  1  0
 35 30  1  0
 27 22  1  0
  1 40  1  0
  6 41  1  0
  7 42  1  0
  8 43  1  0
 11 44  1  0
 12 45  1  0
 12 46  1  0
 13 47  1  0
 13 48  1  0
 15 49  1  0
 15 50  1  0
 17 51  1  0
 18 52  1  0
 24 53  1  0
 25 54  1  0
 26 55  1  0
 31 56  1  0
 32 57  1  0
 34 58  1  0
 35 59  1  0
 36 60  1  0
 37 61  1  0
 38 62  1  0
 38 63  1  0
 39 64  1  0
 39 65  1  0
M  END
$$$$
