
     RDKit          3D

 54 57  0  0  0  0  0  0  0  0999 V2000
   -5.9037   -1.4730    0.6563 C   0  0  0  0  0  0  0  0  0  0  0  0
   -6.3906   -0.1232    0.1343 C   0  0  0  0  0  0  0  0  0  0  0  0
   -6.3283    0.9650    1.2037 C   0  0  0  0  0  0  0  0  0  0  0  0
   -5.7118    0.2815   -1.1401 C   0  0  0  0  0  0  0  0  0  0  0  0
   -6.3398    0.4389   -2.2922 N   0  0  0  0  0  0  0  0  0  0  0  0
   -5.4253    0.8036   -3.2473 N   0  0  0  0  0  0  0  0  0  0  0  0
   -4.2485    0.8664   -2.6698 C   0  0  0  0  0  0  0  0  0  0  0  0
   -2.9575    1.1842   -3.1662 C   0  0  0  0  0  0  0  0  0  0  0  0
   -1.9045    1.1814   -2.3275 C   0  0  0  0  0  0  0  0  0  0  0  0
   -2.0459    0.8616   -0.9044 C   0  0  0  0  0  0  0  0  0  0  0  0
   -0.9080    0.8576    0.0331 C   0  0  0  0  0  0  0  0  0  0  0  0
   -0.8586    1.7715    1.0936 C   0  0  0  0  0  0  0  0  0  0  0  0
    0.2230    1.7681    1.9768 C   0  0  0  0  0  0  0  0  0  0  0  0
    1.2640    0.8557    1.7974 C   0  0  0  0  0  0  0  0  0  0  0  0
    2.3215    0.8570    2.6632 O   0  0  0  0  0  0  0  0  0  0  0  0
    1.2500   -0.0620    0.7413 C   0  0  0  0  0  0  0  0  0  0  0  0
    2.3704   -1.0493    0.5103 C   0  0  0  0  0  0  0  0  0  0  0  0
    3.2347   -0.6891   -0.6308 N   0  0  0  0  0  0  0  0  0  0  0  0
    4.1213    0.4546   -0.3279 C   0  0  0  0  0  0  0  0  0  0  0  0
    5.3002    0.1368    0.6255 C   0  0  0  0  0  0  0  0  0  0  0  0
    6.1208   -1.0284    0.2359 N   0  0  0  0  0  0  0  0  0  0  0  0
    7.0060   -0.7056   -0.8826 C   0  0  0  0  0  0  0  0  0  0  0  0
    5.2407   -2.1689   -0.0867 C   0  0  0  0  0  0  0  0  0  0  0  0
    4.0670   -1.8395   -1.0417 C   0  0  0  0  0  0  0  0  0  0  0  0
    0.1509   -0.0473   -0.1289 C   0  0  0  0  0  0  0  0  0  0  0  0
    0.0998   -0.9397   -1.1325 F   0  0  0  0  0  0  0  0  0  0  0  0
   -3.2779    0.5490   -0.4480 C   0  0  0  0  0  0  0  0  0  0  0  0
   -4.3661    0.5506   -1.3224 N   0  0  0  0  0  0  0  0  0  0  0  0
   -6.5181   -1.8004    1.5022 H   0  0  0  0  0  0  0  0  0  0  0  0
   -5.9703   -2.2415   -0.1220 H   0  0  0  0  0  0  0  0  0  0  0  0
   -4.8660   -1.4387    0.9998 H   0  0  0  0  0  0  0  0  0  0  0  0
   -7.4543   -0.2534   -0.1114 H   0  0  0  0  0  0  0  0  0  0  0  0
   -6.9520    0.6937    2.0625 H   0  0  0  0  0  0  0  0  0  0  0  0
   -5.3129    1.1282    1.5755 H   0  0  0  0  0  0  0  0  0  0  0  0
   -6.6959    1.9204    0.8127 H   0  0  0  0  0  0  0  0  0  0  0  0
   -2.8467    1.4172   -4.2191 H   0  0  0  0  0  0  0  0  0  0  0  0
   -0.9095    1.4125   -2.6997 H   0  0  0  0  0  0  0  0  0  0  0  0
   -1.6574    2.4967    1.2340 H   0  0  0  0  0  0  0  0  0  0  0  0
    0.2394    2.4862    2.7918 H   0  0  0  0  0  0  0  0  0  0  0  0
    2.1818    1.5394    3.3409 H   0  0  0  0  0  0  0  0  0  0  0  0
    2.9438   -1.2105    1.4302 H   0  0  0  0  0  0  0  0  0  0  0  0
    1.8879   -2.0167    0.3112 H   0  0  0  0  0  0  0  0  0  0  0  0
    4.5284    0.8186   -1.2803 H   0  0  0  0  0  0  0  0  0  0  0  0
    3.5502    1.3015    0.0680 H   0  0  0  0  0  0  0  0  0  0  0  0
    4.9080   -0.0510    1.6325 H   0  0  0  0  0  0  0  0  0  0  0  0
    5.9349    1.0262    0.7269 H   0  0  0  0  0  0  0  0  0  0  0  0
    7.6397   -1.5657   -1.1267 H   0  0  0  0  0  0  0  0  0  0  0  0
    6.4707   -0.4100   -1.7903 H   0  0  0  0  0  0  0  0  0  0  0  0
    7.6847    0.1095   -0.6076 H   0  0  0  0  0  0  0  0  0  0  0  0
    4.8335   -2.5568    0.8558 H   0  0  0  0  0  0  0  0  0  0  0  0
    5.8309   -2.9933   -0.5061 H   0  0  0  0  0  0  0  0  0  0  0  0
    3.4425   -2.7320   -1.1733 H   0  0  0  0  0  0  0  0  0  0  0  0
    4.4690   -1.6250   -2.0402 H   0  0  0  0  0  0  0  0  0  0  0  0
   -3.4662    0.2873    0.5836 H   0  0  0  0  0  0  0  0  0  0  0  0
  1  2  1  0
  2  3  1  0
  2  4  1  0
  4  5  2  0
  5  6  1  0
  6  7  2  0
  7  8  1  0
  8  9  2  0
  9 10  1  0
 10 11  1  0
 11 12  2  0
 12 13  1  0
 13 14  2  0
 14 15  1  0
 14 16  1  0
 16 17  1  0
 17 18  1  0
 18 19  1  0
 19 20  1  0
 20 21  1  0
 21 22  1  0
 21 23  1  0
 23 24  1  0
 16 25  2  0
 25 26  1  0
 10 27  2  0
 27 28  1  0
 28  4  1  0
 28  7  1  0
 25 11  1  0
 24 18  1  0
  1 29  1  0
  1 30  1  0
  1 31  1  0
  2 32  1  0
  3 33  1  0
  3 34  1  0
  3 35  1  0
  8 36  1  0
  9 37  1  0
 12 38  1  0
 13 39  1  0
 15 40  1  0
 17 41  1  0
 17 42  1  0
 19 43  1  0
 19 44  1  0
 20 45  1  0
 20 46  1  0
 22 47  1  0
 22 48  1  0
 22 49  1  0
 23 50  1  0
 23 51  1  0
 24 52  1  0
 24 53  1  0
 27 54  1  0
M  END
$$$$
