
     RDKit          3D

 65 68  0  0  0  0  0  0  0  0999 V2000
   -7.7076   -2.7368   -1.4395 C   0  0  0  0  0  0  0  0  0  0  0  0
   -6.5858   -1.9060   -1.1680 O   0  0  0  0  0  0  0  0  0  0  0  0
   -6.8327   -0.6808   -0.6084 C   0  0  0  0  0  0  0  0  0  0  0  0
   -8.0933   -0.1922   -0.2574 C   0  0  0  0  0  0  0  0  0  0  0  0
   -8.2202    1.0864    0.2916 C   0  0  0  0  0  0  0  0  0  0  0  0
   -7.0898    1.8722    0.5012 C   0  0  0  0  0  0  0  0  0  0  0  0
   -7.3065    3.1244    1.0123 O   0  0  0  0  0  0  0  0  0  0  0  0
   -5.8135    1.3849    0.1943 C   0  0  0  0  0  0  0  0  0  0  0  0
   -4.6317    2.2367    0.4506 C   0  0  0  0  0  0  0  0  0  0  0  0
   -4.7827    3.4580    0.3822 O   0  0  0  0  0  0  0  0  0  0  0  0
   -3.3065    1.6952    0.8358 C   0  0  0  0  0  0  0  0  0  0  0  0
   -2.1617    2.3804    0.4245 C   0  0  0  0  0  0  0  0  0  0  0  0
   -0.8922    1.9185    0.7933 C   0  0  0  0  0  0  0  0  0  0  0  0
   -0.7355    0.7615    1.5642 C   0  0  0  0  0  0  0  0  0  0  0  0
    0.4966    0.2862    2.0022 N   0  0  0  0  0  0  0  0  0  0  0  0
    1.7590    0.6452    1.3495 C   0  0  0  0  0  0  0  0  0  0  0  0
    1.9101   -0.0346   -0.0347 C   0  0  2  0  0  0  0  0  0  0  0  0
    2.0287   -1.5629    0.1356 C   0  0  0  0  0  0  0  0  0  0  0  0
    2.4733   -2.4028   -1.0621 C   0  0  0  0  0  0  0  0  0  0  0  0
    2.1260   -1.8613   -2.4427 C   0  0  0  0  0  0  0  0  0  0  0  0
    3.0974   -0.8652   -2.8984 N   0  0  0  0  0  0  0  0  0  0  0  0
    2.8331    0.4782   -2.3653 C   0  0  0  0  0  0  0  0  0  0  0  0
    3.0484    0.6332   -0.8411 C   0  0  0  0  0  0  0  0  0  0  0  0
    4.3736    0.1359   -0.4817 N   0  0  0  0  0  0  0  0  0  0  0  0
    5.1336    0.6746    0.5276 C   0  0  0  0  0  0  0  0  0  0  0  0
    4.7635    1.6237    1.2094 O   0  0  0  0  0  0  0  0  0  0  0  0
    6.4712    0.0668    0.7599 C   0  0  0  0  0  0  0  0  0  0  0  0
    7.4400    0.8388    1.4030 C   0  0  0  0  0  0  0  0  0  0  0  0
    8.6817    0.2747    1.6253 C   0  0  0  0  0  0  0  0  0  0  0  0
    9.0071   -0.9836    1.2601 N   0  0  0  0  0  0  0  0  0  0  0  0
    8.0467   -1.7145    0.6557 C   0  0  0  0  0  0  0  0  0  0  0  0
    6.7737   -1.2431    0.3866 C   0  0  0  0  0  0  0  0  0  0  0  0
   -1.8995    0.1237    2.0189 C   0  0  0  0  0  0  0  0  0  0  0  0
   -3.1747    0.5764    1.6590 C   0  0  0  0  0  0  0  0  0  0  0  0
   -5.7021    0.1198   -0.3853 C   0  0  0  0  0  0  0  0  0  0  0  0
   -4.5006   -0.3444   -0.7662 F   0  0  0  0  0  0  0  0  0  0  0  0
   -8.2338   -3.0026   -0.5165 H   0  0  0  0  0  0  0  0  0  0  0  0
   -8.3840   -2.2639   -2.1592 H   0  0  0  0  0  0  0  0  0  0  0  0
   -7.3368   -3.6629   -1.8896 H   0  0  0  0  0  0  0  0  0  0  0  0
   -8.9986   -0.7717   -0.4081 H   0  0  0  0  0  0  0  0  0  0  0  0
   -9.2031    1.4761    0.5475 H   0  0  0  0  0  0  0  0  0  0  0  0
   -6.4736    3.6400    0.9081 H   0  0  0  0  0  0  0  0  0  0  0  0
   -2.2486    3.2840   -0.1751 H   0  0  0  0  0  0  0  0  0  0  0  0
   -0.0317    2.4955    0.4698 H   0  0  0  0  0  0  0  0  0  0  0  0
    0.4723   -0.6759    2.3265 H   0  0  0  0  0  0  0  0  0  0  0  0
    1.8473    1.7345    1.2769 H   0  0  0  0  0  0  0  0  0  0  0  0
    2.5708    0.3228    2.0116 H   0  0  0  0  0  0  0  0  0  0  0  0
    0.9803    0.1541   -0.5879 H   0  0  0  0  0  0  0  0  0  0  0  0
    1.0447   -1.9383    0.4477 H   0  0  0  0  0  0  0  0  0  0  0  0
    2.7022   -1.7952    0.9712 H   0  0  0  0  0  0  0  0  0  0  0  0
    3.5551   -2.5798   -0.9992 H   0  0  0  0  0  0  0  0  0  0  0  0
    2.0215   -3.3982   -0.9555 H   0  0  0  0  0  0  0  0  0  0  0  0
    2.1847   -2.7021   -3.1449 H   0  0  0  0  0  0  0  0  0  0  0  0
    1.0950   -1.4928   -2.4948 H   0  0  0  0  0  0  0  0  0  0  0  0
    3.0328   -0.8066   -3.9171 H   0  0  0  0  0  0  0  0  0  0  0  0
    1.8303    0.8173   -2.6525 H   0  0  0  0  0  0  0  0  0  0  0  0
    3.5366    1.1541   -2.8683 H   0  0  0  0  0  0  0  0  0  0  0  0
    3.0340    1.7127   -0.6414 H   0  0  0  0  0  0  0  0  0  0  0  0
    4.7496   -0.5633   -1.1115 H   0  0  0  0  0  0  0  0  0  0  0  0
    7.2322    1.8554    1.7214 H   0  0  0  0  0  0  0  0  0  0  0  0
    9.4713    0.8347    2.1186 H   0  0  0  0  0  0  0  0  0  0  0  0
    8.3374   -2.7272    0.3897 H   0  0  0  0  0  0  0  0  0  0  0  0
    6.0491   -1.9006   -0.0769 H   0  0  0  0  0  0  0  0  0  0  0  0
   -1.8210   -0.7427    2.6719 H   0  0  0  0  0  0  0  0  0  0  0  0
   -4.0435    0.0520    2.0456 H   0  0  0  0  0  0  0  0  0  0  0  0
  1  2  1  0
  2  3  1  0
  3  4  2  0
  4  5  1  0
  5  6  2  0
  6  7  1  0
  6  8  1  0
  8  9  1  0
  9 10  2  0
  9 11  1  0
 11 12  2  0
 12 13  1  0
 13 14  2  0
 14 15  1  0
 15 16  1  0
 16 17  1  0
 17 18  1  0
 18 19  1  0
 19 20  1  0
 20 21  1  0
 21 22  1  0
 22 23  1  0
 23 24  1  0
 24 25  1  0
 25 26  2  0
 25 27  1  0
 27 28  2  0
 28 29  1  0
 29 30  2  0
 30 31  1  0
 31 32  2  0
 14 33  1  0
 33 34  2  0
  8 35  2  0
 35 36  1  0
 35  3  1  0
 34 11  1  0
 23 17  1  0
 32 27  1  0
  1 37  1  0
  1 38  1  0
  1 39  1  0
  4 40  1  0
  5 41  1  0
  7 42  1  0
 12 43  1  0
 13 44  1  0
 15 45  1  0
 16 46  1  0
 16 47  1  0
 17 48  1  6
 18 49  1  0
 18 50  1  0
 19 51  1  0
 19 52  1  0
 20 53  1  0
 20 54  1  0
 21 55  1  0
 22 56  1  0
 22 57  1  0
 23 58  1  0
 24 59  1  0
 28 60  1  0
 29 61  1  0
 31 62  1  0
 32 63  1  0
 33 64  1  0
 34 65  1  0
M  END
$$$$
