
     RDKit          3D

 54 58  0  0  0  0  0  0  0  0999 V2000
    7.2223    0.4857    0.4999 C   0  0  0  0  0  0  0  0  0  0  0  0
    6.0908    0.9096   -0.3203 N   0  0  0  0  0  0  0  0  0  0  0  0
    5.3501   -0.2379   -0.8766 C   0  0  0  0  0  0  0  0  0  0  0  0
    4.5050   -1.0280    0.1421 C   0  0  0  0  0  0  0  0  0  0  0  0
    3.6582   -0.1656    0.9770 N   0  0  0  0  0  0  0  0  0  0  0  0
    2.5071   -0.6026    1.6244 C   0  0  0  0  0  0  0  0  0  0  0  0
    1.9628    0.0725    2.5048 O   0  0  0  0  0  0  0  0  0  0  0  0
    1.8977   -1.9318    1.2337 C   0  0  0  0  0  0  0  0  0  0  0  0
    1.0965   -1.8168    0.0321 N   0  0  0  0  0  0  0  0  0  0  0  0
   -0.0376   -1.0688   -0.1310 C   0  0  0  0  0  0  0  0  0  0  0  0
   -0.4714   -1.2946   -1.4201 C   0  0  0  0  0  0  0  0  0  0  0  0
   -1.6177   -0.7127   -2.0554 C   0  0  0  0  0  0  0  0  0  0  0  0
   -1.6843   -0.5878   -3.5217 C   0  0  0  0  0  0  0  0  0  0  0  0
   -2.7375   -0.0381   -4.1565 C   0  0  0  0  0  0  0  0  0  0  0  0
   -3.8366    0.4410   -3.4010 C   0  0  0  0  0  0  0  0  0  0  0  0
   -4.9543    1.0376   -3.7422 N   0  0  0  0  0  0  0  0  0  0  0  0
   -5.6561    1.2971   -2.5888 N   0  0  0  0  0  0  0  0  0  0  0  0
   -4.9727    0.8273   -1.5584 C   0  0  0  0  0  0  0  0  0  0  0  0
   -5.4033    0.8963   -0.1640 C   0  0  0  0  0  0  0  0  0  0  0  0
   -5.8630    2.1192    0.3545 C   0  0  0  0  0  0  0  0  0  0  0  0
   -6.2913    2.2199    1.6816 C   0  0  0  0  0  0  0  0  0  0  0  0
   -6.2732    1.0922    2.4880 C   0  0  0  0  0  0  0  0  0  0  0  0
   -6.6948    1.2040    3.7810 O   0  0  0  0  0  0  0  0  0  0  0  0
   -5.8392   -0.1266    1.9776 C   0  0  0  0  0  0  0  0  0  0  0  0
   -5.8377   -1.2091    2.7688 F   0  0  0  0  0  0  0  0  0  0  0  0
   -5.4092   -0.2368    0.6596 C   0  0  0  0  0  0  0  0  0  0  0  0
   -3.7783    0.3008   -2.0234 N   0  0  0  0  0  0  0  0  0  0  0  0
   -2.6823   -0.2521   -1.3590 C   0  0  0  0  0  0  0  0  0  0  0  0
    0.4632   -2.2181   -1.9404 C   0  0  0  0  0  0  0  0  0  0  0  0
    1.4112   -2.5464   -1.0579 N   0  0  0  0  0  0  0  0  0  0  0  0
    4.3082    1.0449    1.4904 C   0  0  0  0  0  0  0  0  0  0  0  0
    5.1568    1.7711    0.4302 C   0  0  0  0  0  0  0  0  0  0  0  0
    7.9221   -0.1099   -0.0968 H   0  0  0  0  0  0  0  0  0  0  0  0
    6.9291   -0.1092    1.3703 H   0  0  0  0  0  0  0  0  0  0  0  0
    7.7825    1.3579    0.8558 H   0  0  0  0  0  0  0  0  0  0  0  0
    4.6777    0.1470   -1.6550 H   0  0  0  0  0  0  0  0  0  0  0  0
    6.0376   -0.9197   -1.3917 H   0  0  0  0  0  0  0  0  0  0  0  0
    3.8978   -1.7513   -0.4036 H   0  0  0  0  0  0  0  0  0  0  0  0
    5.1507   -1.5959    0.8222 H   0  0  0  0  0  0  0  0  0  0  0  0
    1.2279   -2.2681    2.0348 H   0  0  0  0  0  0  0  0  0  0  0  0
    2.6570   -2.7086    1.1055 H   0  0  0  0  0  0  0  0  0  0  0  0
   -0.4105   -0.4410    0.6679 H   0  0  0  0  0  0  0  0  0  0  0  0
   -0.8385   -0.9337   -4.1096 H   0  0  0  0  0  0  0  0  0  0  0  0
   -2.7656    0.0590   -5.2363 H   0  0  0  0  0  0  0  0  0  0  0  0
   -5.8918    3.0038   -0.2811 H   0  0  0  0  0  0  0  0  0  0  0  0
   -6.6415    3.1696    2.0753 H   0  0  0  0  0  0  0  0  0  0  0  0
   -6.6386    0.3150    4.1790 H   0  0  0  0  0  0  0  0  0  0  0  0
   -5.1042   -1.2110    0.2899 H   0  0  0  0  0  0  0  0  0  0  0  0
   -2.7344   -0.2884   -0.2784 H   0  0  0  0  0  0  0  0  0  0  0  0
    0.4917   -2.6759   -2.9209 H   0  0  0  0  0  0  0  0  0  0  0  0
    3.5542    1.7390    1.8780 H   0  0  0  0  0  0  0  0  0  0  0  0
    4.9321    0.7393    2.3389 H   0  0  0  0  0  0  0  0  0  0  0  0
    4.4759    2.2345   -0.2963 H   0  0  0  0  0  0  0  0  0  0  0  0
    5.6997    2.6025    0.8962 H   0  0  0  0  0  0  0  0  0  0  0  0
  1  2  1  0
  2  3  1  0
  3  4  1  0
  4  5  1  0
  5  6  1  0
  6  7  2  0
  6  8  1  0
  8  9  1  0
  9 10  1  0
 10 11  2  0
 11 12  1  0
 12 13  1  0
 13 14  2  0
 14 15  1  0
 15 16  2  0
 16 17  1  0
 17 18  2  0
 18 19  1  0
 19 20  2  0
 20 21  1  0
 21 22  2  0
 22 23  1  0
 22 24  1  0
 24 25  1  0
 24 26  2  0
 18 27  1  0
 27 28  1  0
 11 29  1  0
 29 30  2  0
  5 31  1  0
 31 32  1  0
 32  2  1  0
 30  9  1  0
 28 12  2  0
 27 15  1  0
 26 19  1  0
  1 33  1  0
  1 34  1  0
  1 35  1  0
  3 36  1  0
  3 37  1  0
  4 38  1  0
  4 39  1  0
  8 40  1  0
  8 41  1  0
 10 42  1  0
 13 43  1  0
 14 44  1  0
 20 45  1  0
 21 46  1  0
 23 47  1  0
 26 48  1  0
 28 49  1  0
 29 50  1  0
 31 51  1  0
 31 52  1  0
 32 53  1  0
 32 54  1  0
M  END
$$$$
