MODEL        10USER    Run = 10USERUSER    Estimated Free Energy of Binding    = -10.92 kcal/mol  [=(1)+(2)+(3)-(4)]USERUSER    (1) Final Intermolecular Energy     = -13.90 kcal/molUSER        vdW + Hbond + desolv Energy     = -13.55 kcal/molUSER        Electrostatic Energy            =  -0.36 kcal/molUSER        Moving Ligand-Fixed Receptor    = -13.90 kcal/molUSER        Moving Ligand-Moving Receptor   =  +0.00 kcal/molUSER    (2) Final Total Internal Energy     =  -2.95 kcal/molUSER    (3) Torsional Free Energy           =  +2.98 kcal/molUSER    (4) Unbound System's Energy         =  -2.95 kcal/molUSERUSERREMARK SMILES Oc1nc2ccccc2n1C1CCN(Cc2ccc(-c3nc(OCCN4CCOCC4)cnc3-c3ncccn3)cc2)CC1REMARK SMILES IDX 16 1 17 2 18 3 19 4 41 5 42 6 15 7 14 8 11 9 12 10 44 11REMARK SMILES IDX 13 12 43 13 10 14 2 15 3 16 4 17 9 18 5 19 8 20 6 21 7 22REMARK SMILES IDX 1 23 20 25 21 26 34 27 22 28 33 29 32 30 35 31 36 32 40 33REMARK SMILES IDX 37 34 39 35 38 36 23 37 24 38 25 39 26 40 27 41 31 42 28 43REMARK SMILES IDX 30 44 29 45REMARK H PARENT 1 24USER                              x       y       z     vdW  Elec       q    TypeUSER                           _______ _______ _______ _____ _____    ______ ____ROOTATOM      1  C   UNL     1      33.076  43.752  15.823 -0.29 +0.02    -0.034 A  ATOM      2  C   UNL     1      33.354  45.124  15.818 -0.33 -0.00    +0.006 A  ATOM      3  C   UNL     1      34.645  45.590  16.089 -0.30 -0.01    +0.011 A  ATOM      4  C   UNL     1      35.691  44.699  16.386 -0.32 -0.00    +0.003 A  ATOM      5  C   UNL     1      35.405  43.324  16.376 -0.41 -0.00    +0.011 A  ATOM      6  C   UNL     1      34.116  42.857  16.104 -0.34 -0.00    +0.006 A  ENDROOTBRANCH   1   7ATOM      7  C   UNL     1      31.676  43.245  15.546 -0.34 -0.06    +0.120 C  BRANCH   7   8ATOM      8  N   UNL     1      30.870  43.050  16.760 -0.11 +0.10    -0.299 NA ATOM      9  C   UNL     1      28.330  41.852  15.794 -0.27 -0.04    +0.095 C  ATOM     10  C   UNL     1      29.577  41.003  16.085 -0.43 -0.01    +0.041 C  ATOM     11  C   UNL     1      28.590  43.366  15.756 -0.26 -0.03    +0.041 C  ATOM     12  C   UNL     1      30.560  41.648  17.060 -0.31 -0.02    +0.087 C  ATOM     13  C   UNL     1      29.642  43.850  16.752 -0.25 -0.02    +0.087 C  BRANCH   9  14ATOM     14  N   UNL     1      27.160  41.471  16.580 -0.08 +0.05    -0.291 N  ATOM     15  C   UNL     1      26.288  40.445  16.349 -0.16 +0.01    +0.295 A  ATOM     16  N   UNL     1      25.338  40.355  17.239 -0.21 +0.00    -0.195 NA ATOM     17  C   UNL     1      25.590  41.382  18.112 -0.20 -0.01    +0.092 A  ATOM     18  C   UNL     1      26.722  42.105  17.732 -0.18 -0.01    +0.072 A  ATOM     19  C   UNL     1      24.880  41.756  19.264 -0.32 -0.01    +0.031 A  ATOM     20  C   UNL     1      27.182  43.207  18.466 -0.24 -0.00    +0.029 A  ATOM     21  C   UNL     1      25.328  42.853  20.007 -0.47 -0.00    +0.002 A  ATOM     22  C   UNL     1      26.460  43.566  19.612 -0.37 -0.00    +0.002 A  BRANCH  15  23ATOM     23  O   UNL     1      26.354  39.603  15.343 -0.65 -0.20    -0.480 OA ATOM     24  H   UNL     1      26.379  40.213  14.583 +0.17 -0.05    +0.296 HD ENDBRANCH  15  23ENDBRANCH   9  14ENDBRANCH   7   8ENDBRANCH   1   7BRANCH   4  25ATOM     25  C   UNL     1      37.056  45.177  16.666 -0.28 -0.04    +0.104 A  ATOM     26  N   UNL     1      37.523  44.815  17.901 -0.23 +0.05    -0.210 NA ATOM     27  C   UNL     1      37.850  45.907  15.764 -0.28 -0.05    +0.134 A  ATOM     28  C   UNL     1      38.791  45.171  18.191 -0.25 -0.03    +0.232 A  ATOM     29  N   UNL     1      39.142  46.253  16.076 -0.23 +0.06    -0.245 NA ATOM     30  C   UNL     1      39.582  45.869  17.297 -0.31 -0.03    +0.180 A  BRANCH  27  31ATOM     31  C   UNL     1      37.351  46.379  14.463 -0.28 -0.08    +0.180 A  ATOM     32  N   UNL     1      37.106  45.454  13.510 -0.28 +0.09    -0.235 NA ATOM     33  N   UNL     1      37.174  47.709  14.302 -0.32 +0.14    -0.235 NA ATOM     34  C   UNL     1      36.645  45.915  12.334 -0.52 -0.04    +0.115 A  ATOM     35  C   UNL     1      36.705  48.108  13.106 -0.51 -0.05    +0.115 A  ATOM     36  C   UNL     1      36.422  47.245  12.074 -0.64 -0.02    +0.040 A  ENDBRANCH  27  31BRANCH  28  37ATOM     37  O   UNL     1      39.340  44.858  19.415 -0.13 +0.02    -0.475 OA BRANCH  37  38ATOM     38  C   UNL     1      38.417  44.892  20.511 -0.23 -0.00    +0.247 C  BRANCH  38  39ATOM     39  C   UNL     1      37.686  43.551  20.723 -0.31 -0.00    +0.126 C  BRANCH  39  40ATOM     40  N   UNL     1      36.437  43.402  19.939 -0.19 +0.02    -0.295 NA ATOM     41  C   UNL     1      35.550  44.562  20.185 -0.13 -0.01    +0.113 C  ATOM     42  C   UNL     1      35.702  42.167  20.294 -0.44 -0.00    +0.113 C  ATOM     43  C   UNL     1      34.211  44.419  19.447 -0.33 -0.04    +0.175 C  ATOM     44  C   UNL     1      34.349  42.081  19.566 -0.25 +0.00    +0.175 C  ATOM     45  O   UNL     1      33.529  43.223  19.846 -0.74 -0.02    -0.379 OA ENDBRANCH  39  40ENDBRANCH  38  39ENDBRANCH  37  38ENDBRANCH  28  37ENDBRANCH   4  25TORSDOF 10TERENDMDL