REMARK SMILES Oc1nc2ccccc2n1C1CCN(Cc2ccc(-c3nc(OCCN4CCOCC4)cnc3-c3ncccn3)cc2)CC1
REMARK SMILES IDX 16 1 17 2 18 3 19 4 41 5 42 6 15 7 14 8 11 9 12 10 44 11
REMARK SMILES IDX 13 12 43 13 10 14 2 15 3 16 4 17 9 18 5 19 8 20 6 21 7 22
REMARK SMILES IDX 1 23 20 25 21 26 34 27 22 28 33 29 32 30 35 31 36 32 40 33
REMARK SMILES IDX 37 34 39 35 38 36 23 37 24 38 25 39 26 40 27 41 31 42 28 43
REMARK SMILES IDX 30 44 29 45
REMARK H PARENT 1 24
ROOT
ATOM      1  C   UNL     1       0.908  -1.594  -0.032  1.00  0.00    -0.034 A 
ATOM      2  C   UNL     1       0.771  -1.653  -1.424  1.00  0.00     0.006 A 
ATOM      3  C   UNL     1      -0.481  -1.477  -2.023  1.00  0.00     0.011 A 
ATOM      4  C   UNL     1      -1.632  -1.251  -1.248  1.00  0.00     0.003 A 
ATOM      5  C   UNL     1      -1.481  -1.181   0.146  1.00  0.00     0.011 A 
ATOM      6  C   UNL     1      -0.231  -1.356   0.747  1.00  0.00     0.006 A 
ENDROOT
BRANCH   1   7
ATOM      7  C   UNL     1       2.259  -1.800   0.621  1.00  0.00     0.120 C 
BRANCH   7   8
ATOM      8  N   UNL     1       2.684  -0.671   1.462  1.00  0.00    -0.299 NA
ATOM      9  C   UNL     1       5.428  -0.026   0.527  1.00  0.00     0.095 C 
ATOM     10  C   UNL     1       4.175   0.532  -0.165  1.00  0.00     0.041 C 
ATOM     11  C   UNL     1       5.147  -1.156   1.530  1.00  0.00     0.041 C 
ATOM     12  C   UNL     1       2.934   0.572   0.725  1.00  0.00     0.087 C 
ATOM     13  C   UNL     1       3.839  -1.002   2.302  1.00  0.00     0.087 C 
BRANCH   9  14
ATOM     14  N   UNL     1       6.331   1.005   1.033  1.00  0.00    -0.291 N 
ATOM     15  C   UNL     1       6.117   1.882   2.058  1.00  0.00     0.295 A 
ATOM     16  N   UNL     1       7.122   2.685   2.278  1.00  0.00    -0.195 NA
ATOM     17  C   UNL     1       8.058   2.324   1.344  1.00  0.00     0.092 A 
ATOM     18  C   UNL     1       7.599   1.276   0.544  1.00  0.00     0.072 A 
ATOM     19  C   UNL     1       9.337   2.858   1.123  1.00  0.00     0.031 A 
ATOM     20  C   UNL     1       8.377   0.731  -0.487  1.00  0.00     0.029 A 
ATOM     21  C   UNL     1      10.125   2.324   0.098  1.00  0.00     0.002 A 
ATOM     22  C   UNL     1       9.650   1.278  -0.693  1.00  0.00     0.002 A 
BRANCH  15  23
ATOM     23  O   UNL     1       5.024   1.953   2.783  1.00  0.00    -0.480 OA
ATOM     24  H   UNL     1       5.241   2.687   3.387  1.00  0.00     0.296 HD
ENDBRANCH  15  23
ENDBRANCH   9  14
ENDBRANCH   7   8
ENDBRANCH   1   7
BRANCH   4  25
ATOM     25  C   UNL     1      -2.954  -1.057  -1.869  1.00  0.00     0.104 A 
ATOM     26  N   UNL     1      -3.549   0.130  -1.535  1.00  0.00    -0.210 NA
ATOM     27  C   UNL     1      -3.564  -1.962  -2.755  1.00  0.00     0.134 A 
ATOM     28  C   UNL     1      -4.734   0.393  -2.122  1.00  0.00     0.232 A 
ATOM     29  N   UNL     1      -4.768  -1.671  -3.348  1.00  0.00    -0.245 NA
ATOM     30  C   UNL     1      -5.326  -0.485  -3.011  1.00  0.00     0.180 A 
BRANCH  27  31
ATOM     31  C   UNL     1      -2.989  -3.278  -3.072  1.00  0.00     0.180 A 
ATOM     32  N   UNL     1      -2.748  -4.123  -2.046  1.00  0.00    -0.235 NA
ATOM     33  N   UNL     1      -2.733  -3.558  -4.369  1.00  0.00    -0.235 NA
ATOM     34  C   UNL     1      -2.228  -5.321  -2.367  1.00  0.00     0.115 A 
ATOM     35  C   UNL     1      -2.219  -4.774  -4.628  1.00  0.00     0.115 A 
ATOM     36  C   UNL     1      -1.942  -5.705  -3.655  1.00  0.00     0.040 A 
ENDBRANCH  27  31
BRANCH  28  37
ATOM     37  O   UNL     1      -5.410   1.559  -1.836  1.00  0.00    -0.475 OA
BRANCH  37  38
ATOM     38  C   UNL     1      -4.730   2.437  -0.930  1.00  0.00     0.247 C 
BRANCH  38  39
ATOM     39  C   UNL     1      -4.903   2.028   0.547  1.00  0.00     0.126 C 
BRANCH  39  40
ATOM     40  N   UNL     1      -6.176   2.472   1.161  1.00  0.00    -0.295 NA
ATOM     41  C   UNL     1      -6.158   2.186   2.614  1.00  0.00     0.113 C 
ATOM     42  C   UNL     1      -7.348   1.792   0.564  1.00  0.00     0.113 C 
ATOM     43  C   UNL     1      -7.487   2.566   3.283  1.00  0.00     0.175 C 
ATOM     44  C   UNL     1      -8.653   2.167   1.288  1.00  0.00     0.175 C 
ATOM     45  O   UNL     1      -8.583   1.861   2.687  1.00  0.00    -0.379 OA
ENDBRANCH  39  40
ENDBRANCH  38  39
ENDBRANCH  37  38
ENDBRANCH  28  37
ENDBRANCH   4  25
TORSDOF 10
