REMARK SMILES Nc1ncc(-c2ccc(C(=O)c3ccc(O)c(N4CCOCC4)c3F)cc2F)c(N2CCC[C@H]2Cn2ccnn2)n1
REMARK SMILES IDX 6 1 7 2 8 3 9 4 26 5 27 6 28 7 5 8 2 9 3 10 41 11 4 12 29 13
REMARK SMILES IDX 1 14 30 17 31 18 34 19 32 20 33 21 35 22 36 23 37 24 40 25
REMARK SMILES IDX 38 26 39 27 10 28 11 29 12 30 13 31 24 32 14 33 17 34 15 35
REMARK SMILES IDX 25 36 18 37 19 38 23 39 20 40 22 41 21 42 16 43
REMARK H PARENT 1 15 1 16 16 44
ROOT
ATOM      1  C   UNL     1      -1.746   1.129  -2.017  1.00  0.00     0.023 A 
ATOM      2  C   UNL     1      -0.800   1.308  -0.997  1.00  0.00     0.013 A 
ATOM      3  C   UNL     1       0.247   0.398  -0.816  1.00  0.00     0.013 A 
ATOM      4  C   UNL     1       0.359  -0.719  -1.650  1.00  0.00     0.026 A 
ATOM      5  C   UNL     1      -0.555  -0.885  -2.697  1.00  0.00     0.052 A 
ATOM      6  C   UNL     1      -1.587   0.033  -2.871  1.00  0.00     0.131 A 
ATOM      7  F   UNL     1      -2.464  -0.170  -3.866  1.00  0.00    -0.206 F 
ENDROOT
BRANCH   1   8
ATOM      8  C   UNL     1      -2.875   2.054  -2.153  1.00  0.00     0.046 A 
ATOM      9  C   UNL     1      -4.832   3.912  -2.400  1.00  0.00     0.221 A 
ATOM     10  N   UNL     1      -3.905   3.877  -3.354  1.00  0.00    -0.221 NA
ATOM     11  N   UNL     1      -4.890   3.083  -1.355  1.00  0.00    -0.195 NA
ATOM     12  C   UNL     1      -2.940   2.950  -3.204  1.00  0.00     0.127 A 
ATOM     13  C   UNL     1      -3.924   2.149  -1.232  1.00  0.00     0.142 A 
BRANCH   9  14
ATOM     14  N   UNL     1      -5.833   4.850  -2.527  1.00  0.00    -0.368 N 
ATOM     15  H   UNL     1      -6.667   4.538  -2.052  1.00  0.00     0.159 HD
ATOM     16  H   UNL     1      -5.913   5.134  -3.494  1.00  0.00     0.159 HD
ENDBRANCH   9  14
BRANCH  13  17
ATOM     17  N   UNL     1      -3.998   1.246  -0.155  1.00  0.00    -0.351 N 
ATOM     18  C   UNL     1      -4.498  -0.075  -0.565  1.00  0.00     0.118 C 
ATOM     19  C   UNL     1      -4.715   1.694   1.060  1.00  0.00     0.105 C 
ATOM     20  C   UNL     1      -5.036  -0.677   0.726  1.00  0.00     0.024 C 
ATOM     21  C   UNL     1      -5.648   0.526   1.421  1.00  0.00     0.029 C 
BRANCH  19  22
ATOM     22  C   UNL     1      -3.727   2.099   2.168  1.00  0.00     0.171 C 
BRANCH  22  23
ATOM     23  N   UNL     1      -2.904   1.042   2.714  1.00  0.00    -0.251 N 
ATOM     24  C   UNL     1      -3.122   0.317   3.851  1.00  0.00     0.131 A 
ATOM     25  N   UNL     1      -1.698   0.759   2.190  1.00  0.00    -0.067 NA
ATOM     26  C   UNL     1      -1.999  -0.466   3.964  1.00  0.00     0.157 A 
ATOM     27  N   UNL     1      -1.145  -0.187   2.937  1.00  0.00    -0.139 NA
ENDBRANCH  22  23
ENDBRANCH  19  22
ENDBRANCH  13  17
ENDBRANCH   1   8
BRANCH   4  28
ATOM     28  C   UNL     1       1.424  -1.744  -1.476  1.00  0.00     0.196 C 
ATOM     29  O   UNL     1       1.618  -2.582  -2.352  1.00  0.00    -0.288 OA
BRANCH  28  30
ATOM     30  C   UNL     1       2.250  -1.801  -0.257  1.00  0.00     0.061 A 
ATOM     31  C   UNL     1       1.655  -1.946   1.005  1.00  0.00     0.019 A 
ATOM     32  C   UNL     1       3.641  -1.748  -0.387  1.00  0.00     0.161 A 
ATOM     33  C   UNL     1       2.460  -2.021   2.140  1.00  0.00     0.049 A 
ATOM     34  C   UNL     1       4.468  -1.831   0.742  1.00  0.00     0.116 A 
ATOM     35  C   UNL     1       3.842  -1.965   1.994  1.00  0.00     0.141 A 
ATOM     36  F   UNL     1       4.191  -1.583  -1.602  1.00  0.00    -0.204 F 
BRANCH  34  37
ATOM     37  N   UNL     1       5.892  -1.788   0.736  1.00  0.00    -0.362 N 
ATOM     38  C   UNL     1       6.398  -0.489   0.217  1.00  0.00     0.145 C 
ATOM     39  C   UNL     1       6.467  -2.909  -0.058  1.00  0.00     0.145 C 
ATOM     40  C   UNL     1       7.936  -0.488   0.278  1.00  0.00     0.181 C 
ATOM     41  C   UNL     1       8.002  -2.837   0.013  1.00  0.00     0.181 C 
ATOM     42  O   UNL     1       8.493  -1.578  -0.477  1.00  0.00    -0.378 OA
ENDBRANCH  34  37
BRANCH  35  43
ATOM     43  O   UNL     1       4.632  -2.046   3.110  1.00  0.00    -0.506 OA
ATOM     44  H   UNL     1       5.539  -1.992   2.738  1.00  0.00     0.293 HD
ENDBRANCH  35  43
ENDBRANCH  28  30
ENDBRANCH   4  28
TORSDOF 9
