MODEL        7USER    Run = 7USERUSER    Estimated Free Energy of Binding    = -10.06 kcal/mol  [=(1)+(2)+(3)-(4)]USERUSER    (1) Final Intermolecular Energy     = -11.85 kcal/molUSER        vdW + Hbond + desolv Energy     = -11.69 kcal/molUSER        Electrostatic Energy            =  -0.16 kcal/molUSER        Moving Ligand-Fixed Receptor    = -11.85 kcal/molUSER        Moving Ligand-Moving Receptor   =  +0.00 kcal/molUSER    (2) Final Total Internal Energy     =  -2.02 kcal/molUSER    (3) Torsional Free Energy           =  +1.79 kcal/molUSER    (4) Unbound System's Energy         =  -2.02 kcal/molUSERUSERREMARK SMILES O=C(Nc1cccc(-c2cn3ccccc3n2)c1CCN1CCOCC1)c1ccc(F)cc1REMARK SMILES IDX 4 1 5 2 6 3 7 4 8 5 18 6 3 7 2 8 1 9 27 11 28 12 33 13 29 14REMARK SMILES IDX 32 15 30 16 31 17 19 18 20 19 21 20 22 21 26 22 23 23 25 24REMARK SMILES IDX 24 25 9 26 10 27 17 28 11 29 16 30 12 31 15 32 13 33 14 34REMARK H PARENT 3 10USER                              x       y       z     vdW  Elec       q    TypeUSER                           _______ _______ _______ _____ _____    ______ ____ROOTATOM      1  C   UNL     1      35.324  44.406  18.187 -0.30 -0.01    +0.045 A  ATOM      2  C   UNL     1      35.019  43.402  19.112 -0.37 -0.00    +0.026 A  ATOM      3  C   UNL     1      35.937  43.013  20.085 -0.44 -0.00    +0.003 A  ATOM      4  C   UNL     1      37.181  43.628  20.149 -0.37 -0.00    +0.011 A  ATOM      5  C   UNL     1      37.532  44.630  19.232 -0.35 -0.00    +0.007 A  ATOM      6  C   UNL     1      36.607  45.020  18.227 -0.33 +0.00    -0.014 A  ENDROOTBRANCH   1   7ATOM      7  N   UNL     1      34.384  44.824  17.208 -0.09 +0.17    -0.322 N  ATOM      8  C   UNL     1      33.008  44.666  17.220 -0.19 -0.11    +0.255 C  ATOM      9  O   UNL     1      32.325  44.166  18.105 -0.22 +0.05    -0.269 OA ATOM     10  H   UNL     1      34.752  45.378  16.450 +0.11 -0.13    +0.170 HD BRANCH   8  11ATOM     11  C   UNL     1      32.306  45.208  16.019 -0.32 -0.03    +0.040 A  ATOM     12  C   UNL     1      33.006  45.748  14.929 -0.19 -0.02    +0.017 A  ATOM     13  C   UNL     1      30.905  45.144  15.982 -0.34 -0.01    +0.017 A  ATOM     14  C   UNL     1      32.305  46.243  13.827 -0.24 -0.03    +0.040 A  ATOM     15  C   UNL     1      30.208  45.640  14.878 -0.42 -0.02    +0.040 A  ATOM     16  C   UNL     1      30.915  46.187  13.814 -0.49 -0.08    +0.123 A  ATOM     17  F   UNL     1      30.248  46.661  12.752 -0.24 +0.11    -0.207 F  ENDBRANCH   8  11ENDBRANCH   1   7BRANCH   6  18ATOM     18  C   UNL     1      36.995  46.080  17.203 -0.37 -0.02    +0.054 C  BRANCH  18  19ATOM     19  C   UNL     1      37.030  45.518  15.770 -0.35 -0.04    +0.089 C  BRANCH  19  20ATOM     20  N   UNL     1      36.184  46.288  14.835 -0.18 +0.20    -0.298 NA ATOM     21  C   UNL     1      36.562  47.722  14.835 -0.36 -0.10    +0.113 C  ATOM     22  C   UNL     1      36.277  45.739  13.459 -0.46 -0.05    +0.113 C  ATOM     23  C   UNL     1      37.505  48.108  13.684 -0.46 -0.07    +0.175 C  ATOM     24  C   UNL     1      35.980  46.799  12.388 -0.57 -0.09    +0.175 C  ATOM     25  O   UNL     1      36.936  47.869  12.388 -0.99 +0.10    -0.379 OA ENDBRANCH  19  20ENDBRANCH  18  19ENDBRANCH   6  18BRANCH   5  26ATOM     26  C   UNL     1      38.845  45.244  19.368 -0.33 -0.01    +0.090 A  ATOM     27  C   UNL     1      39.595  45.277  20.526 -0.29 +0.00    +0.121 A  ATOM     28  N   UNL     1      39.504  45.877  18.340 -0.28 +0.03    -0.229 NA ATOM     29  N   UNL     1      40.747  45.945  20.197 -0.19 -0.02    -0.306 N  ATOM     30  C   UNL     1      40.643  46.291  18.854 -0.37 -0.00    +0.137 A  ATOM     31  C   UNL     1      41.851  46.254  20.989 -0.29 +0.01    +0.093 A  ATOM     32  C   UNL     1      41.735  47.001  18.280 -0.47 -0.00    +0.048 A  ATOM     33  C   UNL     1      42.880  46.924  20.441 -0.41 +0.00    +0.018 A  ATOM     34  C   UNL     1      42.807  47.305  19.037 -0.55 +0.00    +0.005 A  ENDBRANCH   5  26TORSDOF 6TERENDMDL