MODEL        2USER    Run = 2USERUSER    Estimated Free Energy of Binding    = -10.48 kcal/mol  [=(1)+(2)+(3)-(4)]USERUSER    (1) Final Intermolecular Energy     = -12.87 kcal/molUSER        vdW + Hbond + desolv Energy     = -12.88 kcal/molUSER        Electrostatic Energy            =  +0.01 kcal/molUSER        Moving Ligand-Fixed Receptor    = -12.87 kcal/molUSER        Moving Ligand-Moving Receptor   =  +0.00 kcal/molUSER    (2) Final Total Internal Energy     =  -2.74 kcal/molUSER    (3) Torsional Free Energy           =  +2.39 kcal/molUSER    (4) Unbound System's Energy         =  -2.74 kcal/molUSERUSERREMARK SMILES CC[C@@H]1NC=Nc2c(Nc3ccccc3F)nc(N3CC[C@@H](CNS(=O)(=O)c4ccccc4)C3)nc21REMARK SMILES IDX 19 1 20 2 21 3 22 4 34 5 18 6 3 7 4 8 36 9 5 10 35 11 7 12REMARK SMILES IDX 6 13 8 14 17 15 2 17 1 18 9 19 10 21 11 22 15 23 12 24 14 25REMARK SMILES IDX 13 26 16 27 23 28 24 29 25 31 26 32 27 33 28 34 29 35 33 36REMARK SMILES IDX 30 37 32 38 31 39REMARK H PARENT 4 16 9 20 24 30USER                              x       y       z     vdW  Elec       q    TypeUSER                           _______ _______ _______ _____ _____    ______ ____ROOTATOM      1  N   UNL     1      37.613  44.058  20.136 -0.15 +0.01    -0.340 N  ATOM      2  C   UNL     1      37.325  43.168  21.249 -0.37 +0.00    +0.120 C  ATOM      3  C   UNL     1      36.351  42.144  20.660 -0.53 -0.00    +0.028 C  ATOM      4  C   UNL     1      35.744  42.841  19.438 -0.46 -0.00    +0.025 C  ATOM      5  C   UNL     1      36.934  43.658  18.918 -0.22 -0.02    +0.124 C  ENDROOTBRANCH   1   6ATOM      6  C   UNL     1      38.821  44.702  20.066 -0.22 -0.00    +0.227 A  ATOM      7  C   UNL     1      41.310  46.056  22.431 -0.21 +0.01    +0.131 C  ATOM      8  N   UNL     1      42.397  47.005  22.217 -0.11 -0.06    -0.368 N  ATOM      9  C   UNL     1      40.614  45.690  21.133 -0.25 +0.01    +0.096 A  ATOM     10  C   UNL     1      42.964  47.107  20.983 -0.31 +0.05    +0.193 C  ATOM     11  N   UNL     1      39.424  45.044  21.212 -0.22 -0.01    -0.213 NA ATOM     12  C   UNL     1      41.255  45.971  19.936 -0.32 +0.01    +0.131 A  ATOM     13  N   UNL     1      42.494  46.651  19.874 -0.31 -0.05    -0.234 NA ATOM     14  C   UNL     1      40.568  45.536  18.804 -0.35 -0.00    +0.162 A  ATOM     15  N   UNL     1      39.358  44.935  18.862 -0.28 +0.01    -0.193 NA ATOM     16  H   UNL     1      42.989  47.184  23.019 +0.07 +0.03    +0.162 HD BRANCH   7  17ATOM     17  C   UNL     1      40.360  46.610  23.510 -0.27 +0.00    +0.028 C  ATOM     18  C   UNL     1      40.706  48.014  23.994 -0.36 +0.00    +0.006 C  ENDBRANCH   7  17BRANCH  14  19ATOM     19  N   UNL     1      41.065  45.731  17.492 -0.21 +0.01    -0.336 N  ATOM     20  H   UNL     1      42.074  45.765  17.618 -0.18 -0.01    +0.168 HD BRANCH  19  21ATOM     21  C   UNL     1      40.674  46.777  16.618 -0.40 -0.01    +0.076 A  ATOM     22  C   UNL     1      39.997  46.432  15.441 -0.42 -0.00    +0.029 A  ATOM     23  C   UNL     1      41.046  48.119  16.793 -0.43 -0.02    +0.146 A  ATOM     24  C   UNL     1      39.648  47.406  14.500 -0.44 -0.00    +0.002 A  ATOM     25  C   UNL     1      40.700  49.095  15.860 -0.58 -0.01    +0.041 A  ATOM     26  C   UNL     1      39.992  48.741  14.713 -0.54 -0.00    +0.003 A  ATOM     27  F   UNL     1      41.776  48.495  17.854 -0.20 -0.00    -0.205 F  ENDBRANCH  19  21ENDBRANCH  14  19ENDBRANCH   1   6BRANCH   4  28ATOM     28  C   UNL     1      34.562  43.755  19.783 -0.39 -0.01    +0.104 C  BRANCH  28  29ATOM     29  N   UNL     1      34.903  45.136  19.437 -0.24 +0.06    -0.211 NA ATOM     30  H   UNL     1      35.824  45.504  19.664 +0.06 -0.02    +0.141 HD BRANCH  29  31ATOM     31  S   UNL     1      34.133  45.915  18.171 -0.51 -0.16    +0.240 S  ATOM     32  O   UNL     1      32.877  45.239  17.930 -0.31 +0.08    -0.207 OA ATOM     33  O   UNL     1      34.194  47.330  18.462 -1.15 +0.19    -0.207 OA BRANCH  31  34ATOM     34  C   UNL     1      35.216  45.595  16.800 -0.28 -0.06    +0.082 A  ATOM     35  C   UNL     1      35.918  46.658  16.224 -0.33 -0.02    +0.022 A  ATOM     36  C   UNL     1      35.324  44.302  16.280 -0.32 -0.01    +0.022 A  ATOM     37  C   UNL     1      36.752  46.418  15.131 -0.39 -0.00    +0.001 A  ATOM     38  C   UNL     1      36.159  44.070  15.187 -0.36 -0.00    +0.001 A  ATOM     39  C   UNL     1      36.873  45.126  14.616 -0.40 -0.00    +0.000 A  ENDBRANCH  31  34ENDBRANCH  29  31ENDBRANCH  28  29ENDBRANCH   4  28TORSDOF 8TERENDMDL