REMARK SMILES O=C(Nc1cccc(-c2cn3ccccc3n2)c1CCN1CCOCC1)c1ccc(F)cc1
REMARK SMILES IDX 4 1 5 2 6 3 7 4 8 5 18 6 3 7 2 8 1 9 27 11 28 12 33 13 29 14
REMARK SMILES IDX 32 15 30 16 31 17 19 18 20 19 21 20 22 21 26 22 23 23 25 24
REMARK SMILES IDX 24 25 9 26 10 27 17 28 11 29 16 30 12 31 15 32 13 33 14 34
REMARK H PARENT 3 10
ROOT
ATOM      1  C   UNL     1       1.419  -0.443   2.275  1.00  0.00     0.045 A 
ATOM      2  C   UNL     1       1.526  -0.422   3.670  1.00  0.00     0.026 A 
ATOM      3  C   UNL     1       0.741   0.432   4.442  1.00  0.00     0.003 A 
ATOM      4  C   UNL     1      -0.170   1.281   3.827  1.00  0.00     0.011 A 
ATOM      5  C   UNL     1      -0.300   1.301   2.430  1.00  0.00     0.007 A 
ATOM      6  C   UNL     1       0.509   0.445   1.635  1.00  0.00    -0.014 A 
ENDROOT
BRANCH   1   7
ATOM      7  N   UNL     1       2.198  -1.328   1.484  1.00  0.00    -0.322 N 
ATOM      8  C   UNL     1       3.097  -2.291   1.910  1.00  0.00     0.255 C 
ATOM      9  O   UNL     1       3.365  -2.598   3.065  1.00  0.00    -0.269 OA
ATOM     10  H   UNL     1       2.015  -1.312   0.492  1.00  0.00     0.170 HD
BRANCH   8  11
ATOM     11  C   UNL     1       3.770  -3.047   0.813  1.00  0.00     0.040 A 
ATOM     12  C   UNL     1       4.112  -2.442  -0.406  1.00  0.00     0.017 A 
ATOM     13  C   UNL     1       4.090  -4.396   1.033  1.00  0.00     0.017 A 
ATOM     14  C   UNL     1       4.743  -3.191  -1.403  1.00  0.00     0.040 A 
ATOM     15  C   UNL     1       4.720  -5.140   0.034  1.00  0.00     0.040 A 
ATOM     16  C   UNL     1       5.037  -4.531  -1.175  1.00  0.00     0.123 A 
ATOM     17  F   UNL     1       5.644  -5.244  -2.134  1.00  0.00    -0.207 F 
ENDBRANCH   8  11
ENDBRANCH   1   7
BRANCH   6  18
ATOM     18  C   UNL     1       0.402   0.489   0.116  1.00  0.00     0.054 C 
BRANCH  18  19
ATOM     19  C   UNL     1      -0.524  -0.612  -0.433  1.00  0.00     0.089 C 
BRANCH  19  20
ATOM     20  N   UNL     1      -0.466  -0.724  -1.905  1.00  0.00    -0.298 NA
ATOM     21  C   UNL     1      -1.261  -1.882  -2.381  1.00  0.00     0.113 C 
ATOM     22  C   UNL     1      -0.948   0.522  -2.553  1.00  0.00     0.113 C 
ATOM     23  C   UNL     1      -2.673  -1.504  -2.857  1.00  0.00     0.175 C 
ATOM     24  C   UNL     1      -1.506   0.268  -3.961  1.00  0.00     0.175 C 
ATOM     25  O   UNL     1      -2.666  -0.576  -3.952  1.00  0.00    -0.379 OA
ENDBRANCH  19  20
ENDBRANCH  18  19
ENDBRANCH   6  18
BRANCH   5  26
ATOM     26  C   UNL     1      -1.287   2.203   1.853  1.00  0.00     0.090 A 
ATOM     27  C   UNL     1      -1.440   3.534   2.181  1.00  0.00     0.121 A 
ATOM     28  N   UNL     1      -2.201   1.826   0.896  1.00  0.00    -0.229 NA
ATOM     29  N   UNL     1      -2.474   3.987   1.402  1.00  0.00    -0.306 N 
ATOM     30  C   UNL     1      -2.904   2.908   0.637  1.00  0.00     0.137 A 
ATOM     31  C   UNL     1      -3.039   5.258   1.327  1.00  0.00     0.093 A 
ATOM     32  C   UNL     1      -3.983   3.139  -0.263  1.00  0.00     0.048 A 
ATOM     33  C   UNL     1      -4.057   5.471   0.475  1.00  0.00     0.018 A 
ATOM     34  C   UNL     1      -4.536   4.365  -0.342  1.00  0.00     0.005 A 
ENDBRANCH   5  26
TORSDOF 6
