MODEL        5USER    Run = 5USERUSER    Estimated Free Energy of Binding    = -11.22 kcal/mol  [=(1)+(2)+(3)-(4)]USERUSER    (1) Final Intermolecular Energy     = -13.90 kcal/molUSER        vdW + Hbond + desolv Energy     = -13.81 kcal/molUSER        Electrostatic Energy            =  -0.10 kcal/molUSER        Moving Ligand-Fixed Receptor    = -13.90 kcal/molUSER        Moving Ligand-Moving Receptor   =  +0.00 kcal/molUSER    (2) Final Total Internal Energy     =  -2.29 kcal/molUSER    (3) Torsional Free Energy           =  +2.68 kcal/molUSER    (4) Unbound System's Energy         =  -2.29 kcal/molUSERUSERREMARK SMILES Nc1ncc(-c2ccc(C(=O)c3ccc(O)c(N4CCOCC4)c3F)cc2F)c(N2CCC[C@H]2Cn2ccnn2)n1REMARK SMILES IDX 6 1 7 2 8 3 9 4 26 5 27 6 28 7 5 8 2 9 3 10 41 11 4 12 29 13REMARK SMILES IDX 1 14 30 17 31 18 34 19 32 20 33 21 35 22 36 23 37 24 40 25REMARK SMILES IDX 38 26 39 27 10 28 11 29 12 30 13 31 24 32 14 33 17 34 15 35REMARK SMILES IDX 25 36 18 37 19 38 23 39 20 40 22 41 21 42 16 43REMARK H PARENT 1 15 1 16 16 44USER                              x       y       z     vdW  Elec       q    TypeUSER                           _______ _______ _______ _____ _____    ______ ____ROOTATOM      1  C   UNL     1      38.705  46.359  16.642 -0.40 -0.01    +0.023 A  ATOM      2  C   UNL     1      38.308  45.253  17.407 -0.37 -0.00    +0.013 A  ATOM      3  C   UNL     1      39.048  44.845  18.523 -0.39 -0.00    +0.013 A  ATOM      4  C   UNL     1      40.210  45.534  18.885 -0.44 -0.00    +0.026 A  ATOM      5  C   UNL     1      40.591  46.664  18.153 -0.46 -0.00    +0.052 A  ATOM      6  C   UNL     1      39.841  47.064  17.051 -0.39 -0.03    +0.131 A  ATOM      7  F   UNL     1      40.250  48.134  16.352 -0.15 +0.05    -0.206 F  ENDROOTBRANCH   1   8ATOM      8  C   UNL     1      37.958  46.735  15.438 -0.37 -0.02    +0.046 A  ATOM      9  C   UNL     1      36.587  47.617  13.273 -0.42 -0.11    +0.221 A  ATOM     10  N   UNL     1      37.822  48.083  13.440 -0.73 +0.07    -0.221 NA ATOM     11  N   UNL     1      35.989  46.726  14.067 -0.32 +0.13    -0.195 NA ATOM     12  C   UNL     1      38.479  47.635  14.527 -0.40 -0.05    +0.127 A  ATOM     13  C   UNL     1      36.670  46.276  15.141 -0.28 -0.09    +0.142 A  BRANCH   9  14ATOM     14  N   UNL     1      35.891  48.057  12.168 -0.28 +0.21    -0.368 N  ATOM     15  H   UNL     1      35.406  47.288  11.731 +0.01 -0.12    +0.159 HD ATOM     16  H   UNL     1      36.493  48.630  11.592 -0.35 -0.06    +0.159 HD ENDBRANCH   9  14BRANCH  13  17ATOM     17  N   UNL     1      36.062  45.308  15.963 -0.10 +0.19    -0.351 N  ATOM     18  C   UNL     1      36.177  43.951  15.408 -0.37 -0.04    +0.118 C  ATOM     19  C   UNL     1      34.665  45.556  16.386 -0.31 -0.09    +0.105 C  ATOM     20  C   UNL     1      35.036  43.190  16.070 -0.45 -0.01    +0.024 C  ATOM     21  C   UNL     1      33.932  44.230  16.123 -0.37 -0.02    +0.029 C  BRANCH  19  22ATOM     22  C   UNL     1      34.607  46.049  17.842 -0.38 -0.13    +0.171 C  BRANCH  22  23ATOM     23  N   UNL     1      34.567  45.028  18.866 -0.25 +0.09    -0.251 N  ATOM     24  C   UNL     1      35.609  44.288  19.349 -0.29 -0.02    +0.131 A  ATOM     25  N   UNL     1      33.397  44.589  19.365 -0.42 +0.02    -0.067 NA ATOM     26  C   UNL     1      35.013  43.403  20.214 -0.27 -0.00    +0.157 A  ATOM     27  N   UNL     1      33.664  43.607  20.215 -0.82 -0.01    -0.139 NA ENDBRANCH  22  23ENDBRANCH  19  22ENDBRANCH  13  17ENDBRANCH   1   8BRANCH   4  28ATOM     28  C   UNL     1      41.061  45.118  20.033 -0.32 +0.02    +0.196 C  ATOM     29  O   UNL     1      41.559  43.996  20.053 -0.22 -0.04    -0.288 OA BRANCH  28  30ATOM     30  C   UNL     1      41.309  46.015  21.176 -0.27 +0.01    +0.061 A  ATOM     31  C   UNL     1      42.493  46.763  21.255 -0.33 +0.00    +0.019 A  ATOM     32  C   UNL     1      40.323  46.135  22.160 -0.12 +0.01    +0.161 A  ATOM     33  C   UNL     1      42.693  47.621  22.334 -0.27 +0.01    +0.049 A  ATOM     34  C   UNL     1      40.502  47.000  23.249 -0.17 +0.01    +0.116 A  ATOM     35  C   UNL     1      41.704  47.729  23.306 -0.21 +0.02    +0.141 A  ATOM     36  F   UNL     1      39.207  45.391  22.080 -0.08 -0.01    -0.204 F  BRANCH  34  37ATOM     37  N   UNL     1      39.574  47.206  24.309 -0.12 -0.04    -0.362 N  ATOM     38  C   UNL     1      38.839  45.957  24.644 -0.22 +0.01    +0.145 C  ATOM     39  C   UNL     1      38.607  48.291  23.983 -0.33 +0.02    +0.145 C  ATOM     40  C   UNL     1      37.888  46.234  25.822 -0.26 +0.00    +0.181 C  ATOM     41  C   UNL     1      37.665  48.499  25.182 -0.37 +0.02    +0.181 C  ATOM     42  O   UNL     1      36.962  47.290  25.514 -0.70 -0.02    -0.378 OA ENDBRANCH  34  37BRANCH  35  43ATOM     43  O   UNL     1      41.899  48.578  24.362 -0.18 -0.09    -0.506 OA ATOM     44  H   UNL     1      41.448  48.113  25.100 +0.12 +0.04    +0.293 HD ENDBRANCH  35  43ENDBRANCH  28  30ENDBRANCH   4  28TORSDOF 9TERENDMDL