REMARK SMILES CC[C@@H]1NC=Nc2c(Nc3ccccc3F)nc(N3CC[C@@H](CNS(=O)(=O)c4ccccc4)C3)nc21
REMARK SMILES IDX 19 1 20 2 21 3 22 4 34 5 18 6 3 7 4 8 36 9 5 10 35 11 7 12
REMARK SMILES IDX 6 13 8 14 17 15 2 17 1 18 9 19 10 21 11 22 15 23 12 24 14 25
REMARK SMILES IDX 13 26 16 27 23 28 24 29 25 31 26 32 27 33 28 34 29 35 33 36
REMARK SMILES IDX 30 37 32 38 31 39
REMARK H PARENT 4 16 9 20 24 30
ROOT
ATOM      1  N   UNL     1       0.484  -0.172  -1.037  1.00  0.00    -0.340 N 
ATOM      2  C   UNL     1       0.978   0.845  -1.950  1.00  0.00     0.120 C 
ATOM      3  C   UNL     1       2.124   0.150  -2.692  1.00  0.00     0.028 C 
ATOM      4  C   UNL     1       2.541  -1.002  -1.772  1.00  0.00     0.025 C 
ATOM      5  C   UNL     1       1.195  -1.429  -1.172  1.00  0.00     0.124 C 
ENDROOT
BRANCH   1   6
ATOM      6  C   UNL     1      -0.832  -0.168  -0.652  1.00  0.00     0.227 A 
ATOM      7  C   UNL     1      -3.208  -2.527   0.899  1.00  0.00     0.131 C 
ATOM      8  N   UNL     1      -4.666  -2.499   0.955  1.00  0.00    -0.368 N 
ATOM      9  C   UNL     1      -2.642  -1.273   0.259  1.00  0.00     0.096 A 
ATOM     10  C   UNL     1      -5.316  -1.304   0.894  1.00  0.00     0.193 C 
ATOM     11  N   UNL     1      -1.337  -1.283  -0.108  1.00  0.00    -0.213 NA
ATOM     12  C   UNL     1      -3.462  -0.161   0.144  1.00  0.00     0.131 A 
ATOM     13  N   UNL     1      -4.824  -0.172   0.528  1.00  0.00    -0.234 NA
ATOM     14  C   UNL     1      -2.832   0.961  -0.393  1.00  0.00     0.162 A 
ATOM     15  N   UNL     1      -1.546   0.954  -0.810  1.00  0.00    -0.193 NA
ATOM     16  H   UNL     1      -5.100  -3.240   1.492  1.00  0.00     0.162 HD
BRANCH   7  17
ATOM     17  C   UNL     1      -2.753  -3.831   0.217  1.00  0.00     0.028 C 
ATOM     18  C   UNL     1      -3.188  -3.967  -1.239  1.00  0.00     0.006 C 
ENDBRANCH   7  17
BRANCH  14  19
ATOM     19  N   UNL     1      -3.506   2.191  -0.587  1.00  0.00    -0.336 N 
ATOM     20  H   UNL     1      -2.784   2.808  -0.954  1.00  0.00     0.168 HD
BRANCH  19  21
ATOM     21  C   UNL     1      -4.243   2.884   0.406  1.00  0.00     0.076 A 
ATOM     22  C   UNL     1      -5.249   3.764  -0.015  1.00  0.00     0.029 A 
ATOM     23  C   UNL     1      -3.934   2.846   1.775  1.00  0.00     0.146 A 
ATOM     24  C   UNL     1      -5.964   4.534   0.908  1.00  0.00     0.002 A 
ATOM     25  C   UNL     1      -4.644   3.610   2.700  1.00  0.00     0.041 A 
ATOM     26  C   UNL     1      -5.667   4.451   2.268  1.00  0.00     0.003 A 
ATOM     27  F   UNL     1      -2.920   2.093   2.228  1.00  0.00    -0.205 F 
ENDBRANCH  19  21
ENDBRANCH  14  19
ENDBRANCH   1   6
BRANCH   4  28
ATOM     28  C   UNL     1       3.521  -0.578  -0.672  1.00  0.00     0.104 C 
BRANCH  28  29
ATOM     29  N   UNL     1       4.832  -0.313  -1.269  1.00  0.00    -0.211 NA
ATOM     30  H   UNL     1       4.973   0.522  -1.833  1.00  0.00     0.141 HD
BRANCH  29  31
ATOM     31  S   UNL     1       6.226  -0.935  -0.582  1.00  0.00     0.240 S 
ATOM     32  O   UNL     1       6.047  -2.362  -0.426  1.00  0.00    -0.207 OA
ATOM     33  O   UNL     1       7.333  -0.383  -1.330  1.00  0.00    -0.207 OA
BRANCH  31  34
ATOM     34  C   UNL     1       6.233  -0.189   1.029  1.00  0.00     0.082 A 
ATOM     35  C   UNL     1       6.662   1.135   1.165  1.00  0.00     0.022 A 
ATOM     36  C   UNL     1       5.858  -0.937   2.149  1.00  0.00     0.022 A 
ATOM     37  C   UNL     1       6.693   1.720   2.432  1.00  0.00     0.001 A 
ATOM     38  C   UNL     1       5.892  -0.345   3.412  1.00  0.00     0.001 A 
ATOM     39  C   UNL     1       6.307   0.981   3.552  1.00  0.00     0.000 A 
ENDBRANCH  31  34
ENDBRANCH  29  31
ENDBRANCH  28  29
ENDBRANCH   4  28
TORSDOF 8
