REMARK SMILES NC=Nc1cc(-c2ccc(OCCN3CCCCC3)cc2)ncc1CCO
REMARK SMILES IDX 4 1 5 2 6 3 22 4 23 5 24 6 3 7 2 8 1 9 25 12 26 13 27 14
REMARK SMILES IDX 7 16 8 17 21 18 9 19 20 20 10 21 11 22 12 23 13 24 14 25
REMARK SMILES IDX 15 26 19 27 16 28 18 29 17 30
REMARK H PARENT 1 10 1 11 27 15
ROOT
ATOM      1  C   UNL     1      -5.012   0.679   0.045  1.00  0.00     0.072 A 
ATOM      2  C   UNL     1      -3.666   0.823   0.386  1.00  0.00     0.057 A 
ATOM      3  C   UNL     1      -2.750  -0.153   0.006  1.00  0.00     0.072 A 
ATOM      4  N   UNL     1      -3.141  -1.252  -0.685  1.00  0.00    -0.256 NA
ATOM      5  C   UNL     1      -4.443  -1.355  -1.034  1.00  0.00     0.117 A 
ATOM      6  C   UNL     1      -5.420  -0.425  -0.706  1.00  0.00    -0.002 A 
ENDROOT
BRANCH   1   7
ATOM      7  N   UNL     1      -5.920   1.676   0.435  1.00  0.00    -0.239 NA
BRANCH   7   8
ATOM      8  C   UNL     1      -6.527   1.558   1.567  1.00  0.00     0.190 C 
ATOM      9  N   UNL     1      -6.442   0.580   2.512  1.00  0.00    -0.390 N 
ATOM     10  H   UNL     1      -6.659   0.843   3.466  1.00  0.00     0.157 HD
ATOM     11  H   UNL     1      -5.655  -0.053   2.430  1.00  0.00     0.157 HD
ENDBRANCH   7   8
ENDBRANCH   1   7
BRANCH   6  12
ATOM     12  C   UNL     1      -6.838  -0.616  -1.166  1.00  0.00     0.067 C 
BRANCH  12  13
ATOM     13  C   UNL     1      -7.236   0.352  -2.280  1.00  0.00     0.161 C 
BRANCH  13  14
ATOM     14  O   UNL     1      -8.511  -0.007  -2.808  1.00  0.00    -0.396 OA
ATOM     15  H   UNL     1      -8.413  -0.867  -3.251  1.00  0.00     0.210 HD
ENDBRANCH  13  14
ENDBRANCH  12  13
ENDBRANCH   6  12
BRANCH   3  16
ATOM     16  C   UNL     1      -1.310  -0.077   0.334  1.00  0.00     0.000 A 
ATOM     17  C   UNL     1      -0.632   1.146   0.456  1.00  0.00     0.014 A 
ATOM     18  C   UNL     1      -0.554  -1.248   0.528  1.00  0.00     0.014 A 
ATOM     19  C   UNL     1       0.731   1.192   0.776  1.00  0.00     0.047 A 
ATOM     20  C   UNL     1       0.811  -1.204   0.850  1.00  0.00     0.047 A 
ATOM     21  C   UNL     1       1.458   0.020   0.983  1.00  0.00     0.119 A 
BRANCH  21  22
ATOM     22  O   UNL     1       2.774   0.218   1.289  1.00  0.00    -0.492 OA
BRANCH  22  23
ATOM     23  C   UNL     1       3.588  -0.911   1.614  1.00  0.00     0.245 C 
BRANCH  23  24
ATOM     24  C   UNL     1       4.196  -1.588   0.367  1.00  0.00     0.126 C 
BRANCH  24  25
ATOM     25  N   UNL     1       5.334  -0.917  -0.281  1.00  0.00    -0.300 NA
ATOM     26  C   UNL     1       6.569  -0.927   0.508  1.00  0.00     0.084 C 
ATOM     27  C   UNL     1       4.994   0.376  -0.874  1.00  0.00     0.084 C 
ATOM     28  C   UNL     1       7.240   0.442   0.643  1.00  0.00     0.016 C 
ATOM     29  C   UNL     1       6.200   0.949  -1.618  1.00  0.00     0.016 C 
ATOM     30  C   UNL     1       7.420   1.120  -0.711  1.00  0.00     0.003 C 
ENDBRANCH  24  25
ENDBRANCH  23  24
ENDBRANCH  22  23
ENDBRANCH  21  22
ENDBRANCH   3  16
TORSDOF 10
