REMARK SMILES CCOc1ccc(NC(=O)C2CCCC2)cc1-c1ccccc1OC
REMARK SMILES IDX 4 1 5 2 6 3 7 4 16 5 17 6 3 7 2 8 1 9 18 10 19 11 23 12
REMARK SMILES IDX 20 13 22 14 21 15 24 16 25 17 8 18 9 19 10 21 11 22 12 23
REMARK SMILES IDX 15 24 13 25 14 26
REMARK H PARENT 8 20
ROOT
ATOM      1  C   UNL     1      -1.759   1.420  -1.502  1.00  0.00     0.127 A 
ATOM      2  C   UNL     1      -0.671   2.005  -2.150  1.00  0.00     0.049 A 
ATOM      3  C   UNL     1       0.615   1.509  -1.935  1.00  0.00     0.030 A 
ATOM      4  C   UNL     1       0.823   0.417  -1.085  1.00  0.00     0.042 A 
ATOM      5  C   UNL     1      -0.282  -0.182  -0.472  1.00  0.00     0.038 A 
ATOM      6  C   UNL     1      -1.593   0.302  -0.667  1.00  0.00     0.030 A 
ENDROOT
BRANCH   1   7
ATOM      7  O   UNL     1      -3.003   1.937  -1.764  1.00  0.00    -0.493 OA
BRANCH   7   8
ATOM      8  C   UNL     1      -3.346   2.919  -0.777  1.00  0.00     0.226 C 
ATOM      9  C   UNL     1      -4.791   3.322  -1.003  1.00  0.00     0.049 C 
ENDBRANCH   7   8
ENDBRANCH   1   7
BRANCH   6  10
ATOM     10  C   UNL     1      -2.732  -0.373  -0.013  1.00  0.00     0.028 A 
ATOM     11  C   UNL     1      -3.721  -0.995  -0.795  1.00  0.00     0.013 A 
ATOM     12  C   UNL     1      -2.867  -0.434   1.388  1.00  0.00     0.126 A 
ATOM     13  C   UNL     1      -4.811  -1.642  -0.205  1.00  0.00     0.001 A 
ATOM     14  C   UNL     1      -3.969  -1.064   1.979  1.00  0.00     0.047 A 
ATOM     15  C   UNL     1      -4.935  -1.674   1.181  1.00  0.00     0.004 A 
BRANCH  12  16
ATOM     16  O   UNL     1      -1.945   0.215   2.175  1.00  0.00    -0.496 OA
ATOM     17  C   UNL     1      -1.267  -0.689   3.048  1.00  0.00     0.278 C 
ENDBRANCH  12  16
ENDBRANCH   6  10
BRANCH   4  18
ATOM     18  N   UNL     1       2.154  -0.014  -0.908  1.00  0.00    -0.326 N 
ATOM     19  C   UNL     1       2.618  -1.019  -0.071  1.00  0.00     0.227 C 
ATOM     20  H   UNL     1       2.853   0.492  -1.438  1.00  0.00     0.169 HD
ATOM     21  O   UNL     1       1.935  -1.722   0.664  1.00  0.00    -0.274 OA
BRANCH  19  22
ATOM     22  C   UNL     1       4.135  -1.187  -0.175  1.00  0.00     0.079 C 
ATOM     23  C   UNL     1       4.686  -2.336   0.678  1.00  0.00     0.013 C 
ATOM     24  C   UNL     1       4.899   0.067   0.285  1.00  0.00     0.013 C 
ATOM     25  C   UNL     1       6.073  -1.868   1.087  1.00  0.00     0.001 C 
ATOM     26  C   UNL     1       5.855  -0.396   1.380  1.00  0.00     0.001 C 
ENDBRANCH  19  22
ENDBRANCH   4  18
TORSDOF 6
