MODEL        2USER    Run = 2USERUSER    Estimated Free Energy of Binding    =  -8.61 kcal/mol  [=(1)+(2)+(3)-(4)]USERUSER    (1) Final Intermolecular Energy     = -11.89 kcal/molUSER        vdW + Hbond + desolv Energy     = -12.06 kcal/molUSER        Electrostatic Energy            =  +0.17 kcal/molUSER        Moving Ligand-Fixed Receptor    = -11.89 kcal/molUSER        Moving Ligand-Moving Receptor   =  +0.00 kcal/molUSER    (2) Final Total Internal Energy     =  -3.51 kcal/molUSER    (3) Torsional Free Energy           =  +3.28 kcal/molUSER    (4) Unbound System's Energy         =  -3.51 kcal/molUSERUSERREMARK SMILES CCN(C[C@H](C)NC1=CCC(C)(C)c2c1[nH]c(C)c2CCN(C)C)C(=O)OC(C)(C)CREMARK SMILES IDX 5 1 6 2 4 3 3 4 2 5 1 6 25 7 26 8 27 9 28 10 29 11 30 12REMARK SMILES IDX 31 13 7 14 8 16 9 17 15 18 10 19 14 20 16 21 11 22 19 23REMARK SMILES IDX 17 24 12 26 13 27 18 28 20 29 21 30 22 31 23 32 24 33REMARK H PARENT 7 15 16 25USER                              x       y       z     vdW  Elec       q    TypeUSER                           _______ _______ _______ _____ _____    ______ ____ROOTATOM      1  C   UNL     1      36.155  43.571  19.232 -0.37 -0.01    +0.095 C  ATOM      2  C   UNL     1      37.026  42.893  20.288 -0.37 -0.00    +0.032 C  ENDROOTBRANCH   1   3ATOM      3  C   UNL     1      35.238  44.663  19.834 -0.21 -0.03    +0.147 C  BRANCH   3   4ATOM      4  N   UNL     1      34.174  45.142  18.949 -0.23 +0.12    -0.306 N  BRANCH   4   5ATOM      5  C   UNL     1      32.873  44.475  18.990 -0.36 -0.02    +0.120 C  ATOM      6  C   UNL     1      32.980  42.969  19.182 -0.44 -0.00    +0.027 C  ENDBRANCH   4   5BRANCH   4   7ATOM      7  C   UNL     1      34.416  46.253  18.154 -0.24 -0.30    +0.410 C  ATOM      8  O   UNL     1      34.033  47.381  18.436 -1.15 +0.22    -0.224 OA BRANCH   7   9ATOM      9  O   UNL     1      35.112  45.936  17.032 -0.12 +0.36    -0.444 OA BRANCH   9  10ATOM     10  C   UNL     1      34.492  45.208  15.943 -0.31 -0.08    +0.106 C  ATOM     11  C   UNL     1      34.800  43.709  16.031 -0.37 -0.02    +0.056 C  ATOM     12  C   UNL     1      35.155  45.770  14.676 -0.40 -0.04    +0.056 C  ATOM     13  C   UNL     1      32.986  45.482  15.870 -0.31 -0.05    +0.056 C  ENDBRANCH   9  10ENDBRANCH   7   9ENDBRANCH   4   7ENDBRANCH   3   4ENDBRANCH   1   3BRANCH   1  14ATOM     14  N   UNL     1      37.021  44.187  18.222 -0.09 +0.08    -0.379 N  ATOM     15  H   UNL     1      36.545  44.394  17.353 +0.11 -0.05    +0.160 HD BRANCH  14  16ATOM     16  C   UNL     1      38.155  44.949  18.442 -0.40 -0.01    +0.054 C  ATOM     17  C   UNL     1      39.025  44.747  19.455 -0.44 -0.00    +0.002 C  ATOM     18  C   UNL     1      38.526  46.032  17.588 -0.35 -0.02    +0.066 A  ATOM     19  C   UNL     1      40.276  45.580  19.677 -0.44 +0.00    +0.041 C  ATOM     20  C   UNL     1      39.743  46.698  17.507 -0.46 +0.00    -0.011 A  ATOM     21  N   UNL     1      37.658  46.623  16.721 -0.15 +0.17    -0.357 N  ATOM     22  C   UNL     1      40.890  46.225  18.383 -0.56 +0.00    -0.004 C  ATOM     23  C   UNL     1      39.595  47.734  16.525 -0.47 +0.01    -0.022 A  ATOM     24  C   UNL     1      38.288  47.645  16.054 -0.41 -0.01    +0.016 A  ATOM     25  H   UNL     1      36.688  46.374  16.604 +0.11 -0.10    +0.166 HD ATOM     26  C   UNL     1      41.707  45.149  17.632 -0.07 +0.00    +0.016 C  ATOM     27  C   UNL     1      41.844  47.343  18.825 -0.54 +0.00    +0.016 C  ATOM     28  C   UNL     1      37.565  48.455  15.038 -0.55 -0.05    +0.064 C  BRANCH  23  29ATOM     29  C   UNL     1      40.599  48.752  16.060 -0.62 -0.01    +0.053 C  BRANCH  29  30ATOM     30  C   UNL     1      40.914  48.631  14.561 -0.53 -0.01    +0.088 C  BRANCH  30  31ATOM     31  N   UNL     1      41.519  49.850  13.979 -0.39 +0.07    -0.309 NA ATOM     32  C   UNL     1      42.659  49.482  13.135 -0.46 -0.02    +0.104 C  ATOM     33  C   UNL     1      41.954  50.790  15.012 -0.49 -0.02    +0.104 C  ENDBRANCH  30  31ENDBRANCH  29  30ENDBRANCH  23  29ENDBRANCH  14  16ENDBRANCH   1  14TORSDOF 11TERENDMDL