REMARK SMILES Cc1ncccc1-c1cccc(C(=O)Nc2cccc(Cl)c2Cl)c1O
REMARK SMILES IDX 8 1 9 2 10 3 11 4 12 5 24 6 7 7 2 8 3 9 4 10 6 11 5 12 1 13
REMARK SMILES IDX 25 14 13 16 15 17 14 18 16 20 17 21 22 22 18 23 20 24 19 25
REMARK SMILES IDX 23 26 21 27
REMARK H PARENT 25 15 15 19
ROOT
ATOM      1  C   UNL     1      -2.083   0.585   0.738  1.00  0.00     0.026 A 
ATOM      2  C   UNL     1      -2.496   1.353   1.840  1.00  0.00     0.013 A 
ATOM      3  C   UNL     1      -1.567   2.023   2.631  1.00  0.00     0.002 A 
ATOM      4  C   UNL     1      -0.209   1.937   2.332  1.00  0.00     0.018 A 
ATOM      5  C   UNL     1       0.247   1.182   1.236  1.00  0.00     0.082 A 
ATOM      6  C   UNL     1      -0.703   0.510   0.443  1.00  0.00     0.136 A 
ENDROOT
BRANCH   1   7
ATOM      7  C   UNL     1      -3.102  -0.105  -0.066  1.00  0.00     0.007 A 
ATOM      8  C   UNL     1      -3.492  -1.433   0.172  1.00  0.00     0.045 A 
ATOM      9  N   UNL     1      -4.409  -2.077  -0.595  1.00  0.00    -0.261 NA
ATOM     10  C   UNL     1      -4.972  -1.394  -1.614  1.00  0.00     0.111 A 
ATOM     11  C   UNL     1      -3.712   0.564  -1.137  1.00  0.00     0.012 A 
ATOM     12  C   UNL     1      -4.660  -0.084  -1.922  1.00  0.00     0.021 A 
ATOM     13  C   UNL     1      -2.905  -2.238   1.297  1.00  0.00     0.067 C 
ENDBRANCH   1   7
BRANCH   6  14
ATOM     14  O   UNL     1      -0.270  -0.229  -0.635  1.00  0.00    -0.506 OA
ATOM     15  H   UNL     1      -1.034  -0.619  -1.100  1.00  0.00     0.293 HD
ENDBRANCH   6  14
BRANCH   5  16
ATOM     16  C   UNL     1       1.735   1.160   1.004  1.00  0.00     0.259 C 
ATOM     17  N   UNL     1       2.183   0.416  -0.068  1.00  0.00    -0.320 N 
ATOM     18  O   UNL     1       2.452   1.797   1.771  1.00  0.00    -0.269 OA
ATOM     19  H   UNL     1       1.460  -0.056  -0.614  1.00  0.00     0.170 HD
BRANCH  17  20
ATOM     20  C   UNL     1       3.511   0.215  -0.518  1.00  0.00     0.061 A 
ATOM     21  C   UNL     1       4.619   0.785   0.119  1.00  0.00     0.028 A 
ATOM     22  C   UNL     1       3.727  -0.594  -1.657  1.00  0.00     0.083 A 
ATOM     23  C   UNL     1       5.914   0.562  -0.357  1.00  0.00     0.004 A 
ATOM     24  C   UNL     1       5.030  -0.814  -2.130  1.00  0.00     0.061 A 
ATOM     25  C   UNL     1       6.121  -0.235  -1.478  1.00  0.00     0.022 A 
ATOM     26  Cl  UNL     1       2.363  -1.312  -2.466  1.00  0.00    -0.080 Cl
ATOM     27  Cl  UNL     1       5.365  -1.792  -3.518  1.00  0.00    -0.083 Cl
ENDBRANCH  17  20
ENDBRANCH   5  16
TORSDOF 4
