REMARK SMILES CO[C@]1(c2ccc3[nH]cc(-c4ccncc4)c3c2C)CC=CC=C1O
REMARK SMILES IDX 3 1 20 2 21 3 22 4 23 5 24 6 2 7 1 8 4 9 5 10 18 11 6 12
REMARK SMILES IDX 17 13 7 14 10 15 8 16 9 17 19 18 11 20 12 21 16 22 13 23
REMARK SMILES IDX 15 24 14 25 25 26
REMARK H PARENT 8 19 25 27
ROOT
ATOM      1  C   UNL     1      -2.337   0.174   0.223  1.00  0.00     0.153 C 
ATOM      2  C   UNL     1      -2.614   1.712   0.010  1.00  0.00     0.076 C 
ATOM      3  C   UNL     1      -4.053   2.149   0.110  1.00  0.00    -0.023 C 
ATOM      4  C   UNL     1      -5.068   1.285   0.004  1.00  0.00    -0.001 C 
ATOM      5  C   UNL     1      -4.830  -0.114  -0.231  1.00  0.00     0.045 C 
ATOM      6  C   UNL     1      -3.605  -0.658  -0.130  1.00  0.00     0.129 C 
ENDROOT
BRANCH   1   7
ATOM      7  O   UNL     1      -2.088   0.011   1.645  1.00  0.00    -0.365 OA
ATOM      8  C   UNL     1      -1.924  -1.324   2.105  1.00  0.00     0.196 C 
ENDBRANCH   1   7
BRANCH   1   9
ATOM      9  C   UNL     1      -1.069  -0.150  -0.639  1.00  0.00    -0.005 A 
ATOM     10  C   UNL     1      -1.276  -0.615  -1.956  1.00  0.00     0.009 A 
ATOM     11  C   UNL     1       0.279   0.080  -0.198  1.00  0.00    -0.035 A 
ATOM     12  C   UNL     1      -0.231  -0.935  -2.821  1.00  0.00     0.027 A 
ATOM     13  C   UNL     1       1.356  -0.319  -1.057  1.00  0.00     0.011 A 
ATOM     14  C   UNL     1       1.065  -0.794  -2.337  1.00  0.00     0.046 A 
ATOM     15  C   UNL     1       2.793  -0.355  -0.942  1.00  0.00     0.007 A 
ATOM     16  N   UNL     1       2.255  -1.065  -2.972  1.00  0.00    -0.361 N 
ATOM     17  C   UNL     1       3.305  -0.812  -2.139  1.00  0.00     0.092 A 
ATOM     18  C   UNL     1       0.578   0.715   1.138  1.00  0.00     0.045 C 
ATOM     19  H   UNL     1       2.330  -1.421  -3.914  1.00  0.00     0.166 HD
BRANCH  15  20
ATOM     20  C   UNL     1       3.668  -0.066   0.178  1.00  0.00    -0.013 A 
ATOM     21  C   UNL     1       4.553   1.009   0.125  1.00  0.00     0.029 A 
ATOM     22  C   UNL     1       3.639  -0.873   1.315  1.00  0.00     0.029 A 
ATOM     23  C   UNL     1       5.369   1.236   1.220  1.00  0.00     0.111 A 
ATOM     24  C   UNL     1       4.496  -0.564   2.356  1.00  0.00     0.111 A 
ATOM     25  N   UNL     1       5.362   0.473   2.335  1.00  0.00    -0.265 NA
ENDBRANCH  15  20
ENDBRANCH   1   9
BRANCH   6  26
ATOM     26  O   UNL     1      -3.424  -2.024  -0.321  1.00  0.00    -0.509 OA
ATOM     27  H   UNL     1      -4.289  -2.435  -0.486  1.00  0.00     0.293 HD
ENDBRANCH   6  26
TORSDOF 4
