MODEL        7USER    Run = 7USERUSER    Estimated Free Energy of Binding    =  -9.25 kcal/mol  [=(1)+(2)+(3)-(4)]USERUSER    (1) Final Intermolecular Energy     = -12.23 kcal/molUSER        vdW + Hbond + desolv Energy     = -11.97 kcal/molUSER        Electrostatic Energy            =  -0.27 kcal/molUSER        Moving Ligand-Fixed Receptor    = -12.23 kcal/molUSER        Moving Ligand-Moving Receptor   =  +0.00 kcal/molUSER    (2) Final Total Internal Energy     =  -2.11 kcal/molUSER    (3) Torsional Free Energy           =  +2.98 kcal/molUSER    (4) Unbound System's Energy         =  -2.11 kcal/molUSERUSERREMARK SMILES NC=Nc1cc(-c2ccc(OCCN3CCCCC3)cc2)ncc1CCOREMARK SMILES IDX 4 1 5 2 6 3 22 4 23 5 24 6 3 7 2 8 1 9 25 12 26 13 27 14REMARK SMILES IDX 7 16 8 17 21 18 9 19 20 20 10 21 11 22 12 23 13 24 14 25REMARK SMILES IDX 15 26 19 27 16 28 18 29 17 30REMARK H PARENT 1 10 1 11 27 15USER                              x       y       z     vdW  Elec       q    TypeUSER                           _______ _______ _______ _____ _____    ______ ____ROOTATOM      1  C   UNL     1      39.644  46.463  16.912 -0.41 -0.01    +0.072 A  ATOM      2  C   UNL     1      38.668  45.754  17.614 -0.37 -0.01    +0.057 A  ATOM      3  C   UNL     1      37.324  45.937  17.302 -0.31 -0.03    +0.072 A  ATOM      4  N   UNL     1      36.940  46.801  16.331 -0.22 +0.17    -0.256 NA ATOM      5  C   UNL     1      37.903  47.453  15.641 -0.36 -0.07    +0.117 A  ATOM      6  C   UNL     1      39.265  47.322  15.879 -0.48 +0.00    -0.002 A  ENDROOTBRANCH   1   7ATOM      7  N   UNL     1      40.994  46.263  17.240 -0.27 +0.02    -0.239 NA BRANCH   7   8ATOM      8  C   UNL     1      41.446  46.749  18.346 -0.45 -0.01    +0.190 C  ATOM      9  N   UNL     1      42.624  47.380  18.612 -0.29 -0.02    -0.390 N  ATOM     10  H   UNL     1      42.633  48.027  19.392 -0.09 -0.00    +0.157 HD ATOM     11  H   UNL     1      43.151  47.700  17.808 -0.41 -0.01    +0.157 HD ENDBRANCH   7   8ENDBRANCH   1   7BRANCH   6  12ATOM     12  C   UNL     1      40.260  48.070  15.037 -0.56 -0.01    +0.067 C  BRANCH  12  13ATOM     13  C   UNL     1      40.796  49.325  15.725 -0.58 -0.04    +0.161 C  BRANCH  13  14ATOM     14  O   UNL     1      41.791  48.970  16.683 -0.83 -0.07    -0.396 OA ATOM     15  H   UNL     1      42.035  48.042  16.523 -0.31 -0.00    +0.210 HD ENDBRANCH  13  14ENDBRANCH  12  13ENDBRANCH   6  12BRANCH   3  16ATOM     16  C   UNL     1      36.232  45.228  18.002 -0.33 -0.00    +0.000 A  ATOM     17  C   UNL     1      36.427  43.996  18.645 -0.33 -0.00    +0.014 A  ATOM     18  C   UNL     1      34.933  45.769  18.041 -0.41 -0.01    +0.014 A  ATOM     19  C   UNL     1      35.378  43.348  19.309 -0.37 -0.01    +0.047 A  ATOM     20  C   UNL     1      33.881  45.123  18.707 -0.41 -0.02    +0.047 A  ATOM     21  C   UNL     1      34.102  43.911  19.352 -0.32 -0.02    +0.119 A  BRANCH  21  22ATOM     22  O   UNL     1      33.181  43.170  20.035 -0.69 -0.07    -0.492 OA BRANCH  22  23ATOM     23  C   UNL     1      32.117  42.547  19.311 -0.21 -0.00    +0.245 C  BRANCH  23  24ATOM     24  C   UNL     1      32.576  41.297  18.532 -0.37 -0.01    +0.126 C  BRANCH  24  25ATOM     25  N   UNL     1      32.403  39.990  19.185 -0.47 -0.06    -0.300 NA ATOM     26  C   UNL     1      32.408  38.850  18.264 -0.39 -0.00    +0.084 C  ATOM     27  C   UNL     1      31.334  39.968  20.183 -0.19 +0.01    +0.084 C  ATOM     28  C   UNL     1      31.240  37.880  18.457 -0.46 +0.00    +0.016 C  ATOM     29  C   UNL     1      31.297  38.613  20.888 -0.53 +0.00    +0.016 C  ATOM     30  C   UNL     1      31.094  37.451  19.913 -0.55 +0.00    +0.003 C  ENDBRANCH  24  25ENDBRANCH  23  24ENDBRANCH  22  23ENDBRANCH  21  22ENDBRANCH   3  16TORSDOF 10TERENDMDL