REMARK SMILES CCN(C[C@H](C)NC1=CCC(C)(C)c2c1[nH]c(C)c2CCN(C)C)C(=O)OC(C)(C)C
REMARK SMILES IDX 5 1 6 2 4 3 3 4 2 5 1 6 25 7 26 8 27 9 28 10 29 11 30 12
REMARK SMILES IDX 31 13 7 14 8 16 9 17 15 18 10 19 14 20 16 21 11 22 19 23
REMARK SMILES IDX 17 24 12 26 13 27 18 28 20 29 21 30 22 31 23 32 24 33
REMARK H PARENT 7 15 16 25
ROOT
ATOM      1  C   UNL     1      -1.960   0.045  -0.390  1.00  0.00     0.095 C 
ATOM      2  C   UNL     1      -2.544  -1.073   0.472  1.00  0.00     0.032 C 
ENDROOT
BRANCH   1   3
ATOM      3  C   UNL     1      -2.780   1.355  -0.293  1.00  0.00     0.147 C 
BRANCH   3   4
ATOM      4  N   UNL     1      -4.170   1.256  -0.744  1.00  0.00    -0.306 N 
BRANCH   4   5
ATOM      5  C   UNL     1      -4.444   1.260  -2.180  1.00  0.00     0.120 C 
ATOM      6  C   UNL     1      -4.704  -0.130  -2.743  1.00  0.00     0.027 C 
ENDBRANCH   4   5
BRANCH   4   7
ATOM      7  C   UNL     1      -5.170   1.094   0.204  1.00  0.00     0.410 C 
ATOM      8  O   UNL     1      -4.954   1.021   1.407  1.00  0.00    -0.224 OA
BRANCH   7   9
ATOM      9  O   UNL     1      -6.402   1.017  -0.361  1.00  0.00    -0.444 OA
BRANCH   9  10
ATOM     10  C   UNL     1      -7.589   0.820   0.448  1.00  0.00     0.106 C 
ATOM     11  C   UNL     1      -7.546  -0.528   1.177  1.00  0.00     0.056 C 
ATOM     12  C   UNL     1      -8.745   0.793  -0.563  1.00  0.00     0.056 C 
ATOM     13  C   UNL     1      -7.810   1.989   1.414  1.00  0.00     0.056 C 
ENDBRANCH   9  10
ENDBRANCH   7   9
ENDBRANCH   4   7
ENDBRANCH   3   4
ENDBRANCH   1   3
BRANCH   1  14
ATOM     14  N   UNL     1      -0.586   0.316   0.045  1.00  0.00    -0.379 N 
ATOM     15  H   UNL     1      -0.531   0.777   0.944  1.00  0.00     0.160 HD
BRANCH  14  16
ATOM     16  C   UNL     1       0.557  -0.379  -0.307  1.00  0.00     0.054 C 
ATOM     17  C   UNL     1       0.671  -1.154  -1.407  1.00  0.00     0.002 C 
ATOM     18  C   UNL     1       1.755  -0.324   0.469  1.00  0.00     0.066 A 
ATOM     19  C   UNL     1       1.937  -1.899  -1.793  1.00  0.00     0.041 C 
ATOM     20  C   UNL     1       3.038  -0.723   0.117  1.00  0.00    -0.011 A 
ATOM     21  N   UNL     1       1.782   0.110   1.760  1.00  0.00    -0.357 N 
ATOM     22  C   UNL     1       3.276  -1.251  -1.287  1.00  0.00    -0.004 C 
ATOM     23  C   UNL     1       3.880  -0.499   1.258  1.00  0.00    -0.022 A 
ATOM     24  C   UNL     1       3.062   0.029   2.252  1.00  0.00     0.016 A 
ATOM     25  H   UNL     1       0.982   0.417   2.291  1.00  0.00     0.166 HD
ATOM     26  C   UNL     1       3.646  -0.081  -2.226  1.00  0.00     0.016 C 
ATOM     27  C   UNL     1       4.375  -2.318  -1.378  1.00  0.00     0.016 C 
ATOM     28  C   UNL     1       3.373   0.450   3.644  1.00  0.00     0.064 C 
BRANCH  23  29
ATOM     29  C   UNL     1       5.350  -0.771   1.421  1.00  0.00     0.053 C 
BRANCH  29  30
ATOM     30  C   UNL     1       6.226   0.368   0.875  1.00  0.00     0.088 C 
BRANCH  30  31
ATOM     31  N   UNL     1       7.667   0.205   1.169  1.00  0.00    -0.309 NA
ATOM     32  C   UNL     1       8.386   1.432   0.816  1.00  0.00     0.104 C 
ATOM     33  C   UNL     1       8.246  -0.930   0.449  1.00  0.00     0.104 C 
ENDBRANCH  30  31
ENDBRANCH  29  30
ENDBRANCH  23  29
ENDBRANCH  14  16
ENDBRANCH   1  14
TORSDOF 11
