MODEL        8USER    Run = 8USERUSER    Estimated Free Energy of Binding    =  -8.80 kcal/mol  [=(1)+(2)+(3)-(4)]USERUSER    (1) Final Intermolecular Energy     = -10.00 kcal/molUSER        vdW + Hbond + desolv Energy     =  -9.99 kcal/molUSER        Electrostatic Energy            =  -0.01 kcal/molUSER        Moving Ligand-Fixed Receptor    = -10.00 kcal/molUSER        Moving Ligand-Moving Receptor   =  +0.00 kcal/molUSER    (2) Final Total Internal Energy     =  -1.37 kcal/molUSER    (3) Torsional Free Energy           =  +1.19 kcal/molUSER    (4) Unbound System's Energy         =  -1.37 kcal/molUSERUSERREMARK SMILES Cc1ncccc1-c1cccc(C(=O)Nc2cccc(Cl)c2Cl)c1OREMARK SMILES IDX 8 1 9 2 10 3 11 4 12 5 24 6 7 7 2 8 3 9 4 10 6 11 5 12 1 13REMARK SMILES IDX 25 14 13 16 15 17 14 18 16 20 17 21 22 22 18 23 20 24 19 25REMARK SMILES IDX 23 26 21 27REMARK H PARENT 25 15 15 19USER                              x       y       z     vdW  Elec       q    TypeUSER                           _______ _______ _______ _____ _____    ______ ____ROOTATOM      1  C   UNL     1      38.054  46.169  15.543 -0.37 -0.01    +0.026 A  ATOM      2  C   UNL     1      39.321  46.668  15.890 -0.44 -0.00    +0.013 A  ATOM      3  C   UNL     1      39.811  46.532  17.186 -0.47 -0.00    +0.002 A  ATOM      4  C   UNL     1      39.042  45.893  18.157 -0.40 -0.00    +0.018 A  ATOM      5  C   UNL     1      37.769  45.377  17.851 -0.32 -0.02    +0.082 A  ATOM      6  C   UNL     1      37.286  45.520  16.536 -0.27 -0.05    +0.136 A  ENDROOTBRANCH   1   7ATOM      7  C   UNL     1      37.580  46.339  14.162 -0.43 -0.00    +0.007 A  ATOM      8  C   UNL     1      37.343  47.597  13.585 -0.52 -0.02    +0.045 A  ATOM      9  N   UNL     1      36.873  47.747  12.320 -1.02 +0.08    -0.261 NA ATOM     10  C   UNL     1      36.644  46.633  11.595 -0.55 -0.04    +0.111 A  ATOM     11  C   UNL     1      37.326  45.209  13.371 -0.44 -0.00    +0.012 A  ATOM     12  C   UNL     1      36.854  45.353  12.071 -0.55 -0.01    +0.021 A  ATOM     13  C   UNL     1      37.588  48.871  14.343 -0.49 -0.04    +0.067 C  ENDBRANCH   1   7BRANCH   6  14ATOM     14  O   UNL     1      36.044  45.015  16.223 -0.02 +0.25    -0.506 OA ATOM     15  H   UNL     1      35.420  45.189  16.953 +0.21 -0.16    +0.293 HD ENDBRANCH   6  14BRANCH   5  16ATOM     16  C   UNL     1      37.026  44.705  18.975 -0.22 -0.04    +0.259 C  ATOM     17  N   UNL     1      37.780  43.956  19.855 -0.14 +0.02    -0.320 N  ATOM     18  O   UNL     1      35.810  44.861  19.042 -0.26 +0.06    -0.269 OA ATOM     19  H   UNL     1      38.783  43.925  19.665 +0.10 -0.01    +0.170 HD BRANCH  17  20ATOM     20  C   UNL     1      37.354  43.222  20.989 -0.33 +0.00    +0.061 A  ATOM     21  C   UNL     1      36.674  42.003  20.888 -0.46 -0.00    +0.028 A  ATOM     22  C   UNL     1      37.628  43.740  22.276 -0.32 +0.01    +0.083 A  ATOM     23  C   UNL     1      36.271  41.309  22.032 -0.55 +0.00    +0.004 A  ATOM     24  C   UNL     1      37.220  43.038  23.421 -0.35 +0.01    +0.061 A  ATOM     25  C   UNL     1      36.542  41.823  23.296 -0.47 +0.00    +0.022 A  ATOM     26  Cl  UNL     1      38.472  45.255  22.425 -0.46 -0.01    -0.080 Cl ATOM     27  Cl  UNL     1      37.521  43.616  25.024 -0.44 -0.00    -0.083 Cl ENDBRANCH  17  20ENDBRANCH   5  16TORSDOF 4TERENDMDL