MODEL        6USER    Run = 6USERUSER    Estimated Free Energy of Binding    =  -9.36 kcal/mol  [=(1)+(2)+(3)-(4)]USERUSER    (1) Final Intermolecular Energy     = -10.56 kcal/molUSER        vdW + Hbond + desolv Energy     = -10.28 kcal/molUSER        Electrostatic Energy            =  -0.28 kcal/molUSER        Moving Ligand-Fixed Receptor    = -10.56 kcal/molUSER        Moving Ligand-Moving Receptor   =  +0.00 kcal/molUSER    (2) Final Total Internal Energy     =  -1.05 kcal/molUSER    (3) Torsional Free Energy           =  +1.19 kcal/molUSER    (4) Unbound System's Energy         =  -1.05 kcal/molUSERUSERREMARK SMILES CO[C@]1(c2ccc3[nH]cc(-c4ccncc4)c3c2C)CC=CC=C1OREMARK SMILES IDX 3 1 20 2 21 3 22 4 23 5 24 6 2 7 1 8 4 9 5 10 18 11 6 12REMARK SMILES IDX 17 13 7 14 10 15 8 16 9 17 19 18 11 20 12 21 16 22 13 23REMARK SMILES IDX 15 24 14 25 25 26REMARK H PARENT 8 19 25 27USER                              x       y       z     vdW  Elec       q    TypeUSER                           _______ _______ _______ _____ _____    ______ ____ROOTATOM      1  C   UNL     1      35.009  45.360  16.583 -0.28 -0.11    +0.153 C  ATOM      2  C   UNL     1      35.589  43.893  16.559 -0.36 -0.03    +0.076 C  ATOM      3  C   UNL     1      35.090  42.963  17.635 -0.42 +0.01    -0.023 C  ATOM      4  C   UNL     1      34.506  43.413  18.750 -0.42 +0.00    -0.001 C  ATOM      5  C   UNL     1      34.342  44.823  18.985 -0.44 -0.01    +0.045 C  ATOM      6  C   UNL     1      34.550  45.737  18.023 -0.41 -0.08    +0.129 C  ENDROOTBRANCH   1   7ATOM      7  O   UNL     1      33.825  45.330  15.741 -0.15 +0.31    -0.365 OA ATOM      8  C   UNL     1      32.574  45.378  16.413 -0.22 -0.13    +0.196 C  ENDBRANCH   1   7BRANCH   1   9ATOM      9  C   UNL     1      36.136  46.270  15.985 -0.37 +0.00    -0.005 A  ATOM     10  C   UNL     1      35.843  46.978  14.799 -0.29 -0.01    +0.009 A  ATOM     11  C   UNL     1      37.407  46.489  16.617 -0.34 +0.02    -0.035 A  ATOM     12  C   UNL     1      36.760  47.820  14.172 -0.49 -0.02    +0.027 A  ATOM     13  C   UNL     1      38.379  47.294  15.935 -0.43 -0.01    +0.011 A  ATOM     14  C   UNL     1      38.018  47.940  14.752 -0.49 -0.02    +0.046 A  ATOM     15  C   UNL     1      39.755  47.653  16.174 -0.51 -0.00    +0.007 A  ATOM     16  N   UNL     1      39.097  48.677  14.322 -0.19 +0.16    -0.361 N  ATOM     17  C   UNL     1      40.154  48.506  15.166 -0.50 -0.03    +0.092 A  ATOM     18  C   UNL     1      37.738  45.887  17.961 -0.34 -0.01    +0.045 C  ATOM     19  H   UNL     1      39.103  49.243  13.486 -0.23 -0.07    +0.166 HD BRANCH  15  20ATOM     20  C   UNL     1      40.690  47.221  17.195 -0.51 +0.00    -0.013 A  ATOM     21  C   UNL     1      40.665  45.910  17.668 -0.46 -0.00    +0.029 A  ATOM     22  C   UNL     1      41.616  48.121  17.722 -0.41 -0.00    +0.029 A  ATOM     23  C   UNL     1      41.577  45.553  18.647 -0.31 +0.01    +0.111 A  ATOM     24  C   UNL     1      42.484  47.667  18.699 -0.45 +0.00    +0.111 A  ATOM     25  N   UNL     1      42.486  46.402  19.175 -0.26 -0.05    -0.265 NA ENDBRANCH  15  20ENDBRANCH   1   9BRANCH   6  26ATOM     26  O   UNL     1      34.338  47.088  18.278 -0.69 +0.49    -0.509 OA ATOM     27  H   UNL     1      33.979  47.506  17.477 -0.29 -0.70    +0.293 HD ENDBRANCH   6  26TORSDOF 4TERENDMDL