MODEL        6USER    Run = 6USERUSER    Estimated Free Energy of Binding    =  -8.38 kcal/mol  [=(1)+(2)+(3)-(4)]USERUSER    (1) Final Intermolecular Energy     = -10.17 kcal/molUSER        vdW + Hbond + desolv Energy     = -10.14 kcal/molUSER        Electrostatic Energy            =  -0.03 kcal/molUSER        Moving Ligand-Fixed Receptor    = -10.17 kcal/molUSER        Moving Ligand-Moving Receptor   =  +0.00 kcal/molUSER    (2) Final Total Internal Energy     =  -1.31 kcal/molUSER    (3) Torsional Free Energy           =  +1.79 kcal/molUSER    (4) Unbound System's Energy         =  -1.31 kcal/molUSERUSERREMARK SMILES CCOc1ccc(NC(=O)C2CCCC2)cc1-c1ccccc1OCREMARK SMILES IDX 4 1 5 2 6 3 7 4 16 5 17 6 3 7 2 8 1 9 18 10 19 11 23 12REMARK SMILES IDX 20 13 22 14 21 15 24 16 25 17 8 18 9 19 10 21 11 22 12 23REMARK SMILES IDX 15 24 13 25 14 26REMARK H PARENT 8 20USER                              x       y       z     vdW  Elec       q    TypeUSER                           _______ _______ _______ _____ _____    ______ ____ROOTATOM      1  C   UNL     1      39.909  46.903  16.442 -0.39 -0.03    +0.127 A  ATOM      2  C   UNL     1      40.613  46.552  17.593 -0.47 -0.01    +0.049 A  ATOM      3  C   UNL     1      39.963  45.877  18.627 -0.43 -0.00    +0.030 A  ATOM      4  C   UNL     1      38.611  45.534  18.512 -0.37 -0.01    +0.042 A  ATOM      5  C   UNL     1      37.928  45.860  17.336 -0.36 -0.01    +0.038 A  ATOM      6  C   UNL     1      38.559  46.547  16.277 -0.39 -0.01    +0.030 A  ENDROOTBRANCH   1   7ATOM      7  O   UNL     1      40.602  47.550  15.450 -0.15 +0.07    -0.493 OA BRANCH   7   8ATOM      8  C   UNL     1      40.813  48.922  15.810 -0.49 -0.04    +0.226 C  ATOM      9  C   UNL     1      41.418  49.630  14.613 -0.73 -0.01    +0.049 C  ENDBRANCH   7   8ENDBRANCH   1   7BRANCH   6  10ATOM     10  C   UNL     1      37.804  46.855  15.046 -0.40 -0.01    +0.028 A  ATOM     11  C   UNL     1      37.654  48.190  14.632 -0.53 -0.01    +0.013 A  ATOM     12  C   UNL     1      37.227  45.850  14.246 -0.32 -0.05    +0.126 A  ATOM     13  C   UNL     1      36.945  48.514  13.471 -0.55 -0.00    +0.001 A  ATOM     14  C   UNL     1      36.499  46.174  13.094 -0.52 -0.02    +0.047 A  ATOM     15  C   UNL     1      36.367  47.506  12.705 -0.67 -0.00    +0.004 A  BRANCH  12  16ATOM     16  O   UNL     1      37.309  44.541  14.658 -0.05 +0.16    -0.496 OA ATOM     17  C   UNL     1      36.113  44.118  15.315 -0.24 -0.11    +0.278 C  ENDBRANCH  12  16ENDBRANCH   6  10BRANCH   4  18ATOM     18  N   UNL     1      38.023  44.867  19.607 -0.17 +0.02    -0.326 N  ATOM     19  C   UNL     1      36.941  43.999  19.592 -0.28 -0.02    +0.227 C  ATOM     20  H   UNL     1      38.427  45.071  20.513 +0.09 +0.00    +0.169 HD ATOM     21  O   UNL     1      36.306  43.650  18.604 -0.19 +0.05    -0.274 OA BRANCH  19  22ATOM     22  C   UNL     1      36.614  43.476  20.993 -0.43 +0.00    +0.079 C  ATOM     23  C   UNL     1      37.849  43.294  21.883 -0.41 +0.00    +0.013 C  ATOM     24  C   UNL     1      35.925  42.101  20.962 -0.55 +0.00    +0.013 C  ATOM     25  C   UNL     1      37.495  42.117  22.778 -0.51 +0.00    +0.001 C  ATOM     26  C   UNL     1      36.778  41.179  21.827 -0.64 +0.00    +0.001 C  ENDBRANCH  19  22ENDBRANCH   4  18TORSDOF 6TERENDMDL