MODEL        1USER    Run = 1USERUSER    Estimated Free Energy of Binding    = -10.58 kcal/mol  [=(1)+(2)+(3)-(4)]USERUSER    (1) Final Intermolecular Energy     = -13.27 kcal/molUSER        vdW + Hbond + desolv Energy     = -13.21 kcal/molUSER        Electrostatic Energy            =  -0.06 kcal/molUSER        Moving Ligand-Fixed Receptor    = -13.27 kcal/molUSER        Moving Ligand-Moving Receptor   =  +0.00 kcal/molUSER    (2) Final Total Internal Energy     =  -0.94 kcal/molUSER    (3) Torsional Free Energy           =  +2.68 kcal/molUSER    (4) Unbound System's Energy         =  -0.94 kcal/molUSERUSERREMARK SMILES Cc1[nH]c2ccccc2c1CCCC[C@@H](CO)c1ccc(-c2nnc[nH]2)cc1REMARK SMILES IDX 13 1 12 2 11 3 10 4 2 5 3 6 4 7 9 8 5 9 8 10 6 11 7 12 1 13REMARK SMILES IDX 14 15 15 16 16 17 17 18 18 20 19 21 28 22 20 23 27 24 21 25REMARK SMILES IDX 22 26 23 27 26 28 24 29 25 30REMARK H PARENT 3 14 17 19 26 31USER                              x       y       z     vdW  Elec       q    TypeUSER                           _______ _______ _______ _____ _____    ______ ____ROOTATOM      1  C   UNL     1      38.027  45.839  17.989 -0.41 -0.00    +0.001 C  ENDROOTBRANCH   1   2ATOM      2  C   UNL     1      38.924  44.903  18.809 -0.45 -0.00    +0.005 C  BRANCH   2   3ATOM      3  C   UNL     1      40.398  44.888  18.391 -0.46 -0.00    +0.038 C  BRANCH   3   4ATOM      4  C   UNL     1      40.955  46.250  18.092 -0.49 +0.00    -0.020 A  ATOM      5  C   UNL     1      41.858  46.965  18.867 -0.52 +0.00    +0.016 A  ATOM      6  N   UNL     1      42.098  48.159  18.235 -0.27 +0.00    -0.358 N  ATOM      7  C   UNL     1      41.392  48.237  17.060 -0.43 -0.00    +0.046 A  ATOM      8  C   UNL     1      40.669  47.053  16.937 -0.51 -0.00    +0.003 A  ATOM      9  C   UNL     1      41.347  49.260  16.104 -0.47 -0.00    +0.026 A  ATOM     10  C   UNL     1      39.860  46.883  15.796 -0.47 -0.00    +0.010 A  ATOM     11  C   UNL     1      40.535  49.065  14.983 -0.61 -0.00    +0.002 A  ATOM     12  C   UNL     1      39.801  47.892  14.828 -0.52 -0.00    +0.001 A  ATOM     13  C   UNL     1      42.515  46.634  20.158 -0.44 +0.01    +0.064 C  ATOM     14  H   UNL     1      42.717  48.882  18.575 -0.13 +0.00    +0.166 HD ENDBRANCH   3   4ENDBRANCH   2   3ENDBRANCH   1   2BRANCH   1  15ATOM     15  C   UNL     1      36.786  45.139  17.424 -0.39 -0.00    +0.011 C  BRANCH  15  16ATOM     16  C   UNL     1      35.508  45.442  18.239 -0.38 -0.02    +0.045 C  BRANCH  16  17ATOM     17  C   UNL     1      34.694  46.631  17.688 -0.31 -0.17    +0.164 C  BRANCH  17  18ATOM     18  O   UNL     1      33.993  47.321  18.719 -1.00 +0.29    -0.396 OA ATOM     19  H   UNL     1      33.955  46.723  19.487 -0.42 -0.11    +0.210 HD ENDBRANCH  17  18ENDBRANCH  16  17BRANCH  16  20ATOM     20  C   UNL     1      34.653  44.189  18.388 -0.31 +0.01    -0.043 A  ATOM     21  C   UNL     1      33.534  44.156  19.230 -0.43 -0.00    +0.005 A  ATOM     22  C   UNL     1      34.974  43.032  17.666 -0.36 -0.00    +0.005 A  ATOM     23  C   UNL     1      32.756  42.998  19.352 -0.40 -0.00    +0.012 A  ATOM     24  C   UNL     1      34.197  41.876  17.789 -0.40 -0.00    +0.012 A  ATOM     25  C   UNL     1      33.077  41.840  18.633 -0.39 -0.00    +0.019 A  BRANCH  25  26ATOM     26  C   UNL     1      32.295  40.606  18.728 -0.26 -0.00    +0.161 A  ATOM     27  N   UNL     1      32.029  39.918  19.825 -0.86 -0.04    -0.131 NA ATOM     28  N   UNL     1      31.703  39.952  17.676 -0.21 +0.05    -0.328 N  ATOM     29  N   UNL     1      31.267  38.823  19.488 -0.39 -0.02    -0.139 NA ATOM     30  C   UNL     1      31.080  38.859  18.193 -0.24 +0.03    +0.223 A  ATOM     31  H   UNL     1      31.724  40.227  16.707 -0.30 -0.08    +0.169 HD ENDBRANCH  25  26ENDBRANCH  16  20ENDBRANCH  15  16ENDBRANCH   1  15TORSDOF 9TERENDMDL