MODEL        8USER    Run = 8USERUSER    Estimated Free Energy of Binding    = -11.05 kcal/mol  [=(1)+(2)+(3)-(4)]USERUSER    (1) Final Intermolecular Energy     = -13.73 kcal/molUSER        vdW + Hbond + desolv Energy     = -13.59 kcal/molUSER        Electrostatic Energy            =  -0.14 kcal/molUSER        Moving Ligand-Fixed Receptor    = -13.73 kcal/molUSER        Moving Ligand-Moving Receptor   =  +0.00 kcal/molUSER    (2) Final Total Internal Energy     =  -1.36 kcal/molUSER    (3) Torsional Free Energy           =  +2.68 kcal/molUSER    (4) Unbound System's Energy         =  -1.36 kcal/molUSERUSERREMARK SMILES Cc1[nH]c2ccccc2c1C=CCC[C@H](c1ccc(-c2nnc[nH]2)cc1)[C@H](C)OREMARK SMILES IDX 13 1 12 2 11 3 10 4 2 5 3 6 4 7 9 8 5 9 8 10 6 11 7 12 1 13REMARK SMILES IDX 14 15 15 16 16 17 17 18 26 19 18 20 25 21 19 22 20 23 21 24REMARK SMILES IDX 24 25 22 26 23 27 27 29 28 30 29 31REMARK H PARENT 3 14 24 28 29 32USER                              x       y       z     vdW  Elec       q    TypeUSER                           _______ _______ _______ _____ _____    ______ ____ROOTATOM      1  C   UNL     1      35.422  45.878  16.827 -0.39 -0.02    +0.028 C  ENDROOTBRANCH   1   2ATOM      2  C   UNL     1      36.329  44.920  16.099 -0.38 +0.01    -0.026 C  BRANCH   2   3ATOM      3  C   UNL     1      37.267  45.220  15.185 -0.43 -0.00    +0.006 C  BRANCH   3   4ATOM      4  C   UNL     1      37.807  46.520  14.928 -0.41 -0.00    +0.002 A  ATOM      5  C   UNL     1      37.368  47.439  13.990 -0.50 -0.01    +0.020 A  ATOM      6  N   UNL     1      38.184  48.542  14.092 -0.24 +0.17    -0.358 N  ATOM      7  C   UNL     1      39.158  48.346  15.041 -0.50 -0.02    +0.046 A  ATOM      8  C   UNL     1      38.950  47.080  15.585 -0.45 -0.00    +0.007 A  ATOM      9  C   UNL     1      40.196  49.190  15.454 -0.57 -0.01    +0.027 A  ATOM     10  C   UNL     1      39.826  46.636  16.600 -0.46 -0.00    +0.011 A  ATOM     11  C   UNL     1      41.051  48.724  16.457 -0.57 -0.00    +0.002 A  ATOM     12  C   UNL     1      40.870  47.466  17.025 -0.50 -0.00    +0.001 A  ATOM     13  C   UNL     1      36.273  47.403  12.985 -0.65 -0.03    +0.065 C  ATOM     14  H   UNL     1      38.099  49.378  13.532 -0.35 -0.08    +0.166 HD ENDBRANCH   3   4ENDBRANCH   2   3ENDBRANCH   1   2BRANCH   1  15ATOM     15  C   UNL     1      34.245  45.261  17.596 -0.42 -0.01    +0.015 C  BRANCH  15  16ATOM     16  C   UNL     1      33.516  44.144  16.808 -0.34 -0.02    +0.048 C  BRANCH  16  17ATOM     17  C   UNL     1      32.592  44.792  15.779 -0.32 +0.03    -0.042 A  ATOM     18  C   UNL     1      33.070  45.677  14.805 -0.18 -0.00    +0.005 A  ATOM     19  C   UNL     1      31.225  44.484  15.782 -0.35 -0.00    +0.005 A  ATOM     20  C   UNL     1      32.205  46.252  13.865 -0.32 -0.01    +0.012 A  ATOM     21  C   UNL     1      30.362  45.057  14.841 -0.39 -0.01    +0.012 A  ATOM     22  C   UNL     1      30.837  45.952  13.872 -0.56 -0.01    +0.019 A  BRANCH  22  23ATOM     23  C   UNL     1      29.896  46.531  12.913 -0.44 -0.10    +0.161 A  ATOM     24  N   UNL     1      30.184  47.346  11.912 -0.94 +0.03    -0.131 NA ATOM     25  N   UNL     1      28.541  46.309  12.889 -0.11 +0.32    -0.328 N  ATOM     26  N   UNL     1      29.022  47.657  11.244 -0.78 +0.05    -0.139 NA ATOM     27  C   UNL     1      28.045  47.024  11.843 -0.32 -0.13    +0.223 A  ATOM     28  H   UNL     1      28.017  45.720  13.515 -0.36 -0.22    +0.169 HD ENDBRANCH  22  23ENDBRANCH  16  17BRANCH  16  29ATOM     29  C   UNL     1      32.820  43.089  17.716 -0.30 -0.03    +0.118 C  ATOM     30  C   UNL     1      33.079  43.301  19.204 -0.44 -0.00    +0.039 C  BRANCH  29  31ATOM     31  O   UNL     1      33.185  41.750  17.385 -0.18 +0.16    -0.393 OA ATOM     32  H   UNL     1      33.130  41.654  16.419 -0.43 -0.16    +0.210 HD ENDBRANCH  29  31ENDBRANCH  16  29ENDBRANCH  15  16ENDBRANCH   1  15TORSDOF 9TERENDMDL