REMARK SMILES Cc1[nH]c2ccccc2c1C=CCC[C@H](c1ccc(-c2nnc[nH]2)cc1)[C@H](C)O
REMARK SMILES IDX 13 1 12 2 11 3 10 4 2 5 3 6 4 7 9 8 5 9 8 10 6 11 7 12 1 13
REMARK SMILES IDX 14 15 15 16 16 17 17 18 26 19 18 20 25 21 19 22 20 23 21 24
REMARK SMILES IDX 24 25 22 26 23 27 27 29 28 30 29 31
REMARK H PARENT 3 14 24 28 29 32
ROOT
ATOM      1  C   UNL     1      -0.786   0.397   2.297  1.00  0.00     0.028 C 
ENDROOT
BRANCH   1   2
ATOM      2  C   UNL     1      -2.205   0.263   1.809  1.00  0.00    -0.026 C 
BRANCH   2   3
ATOM      3  C   UNL     1      -2.616  -0.052   0.569  1.00  0.00     0.006 C 
BRANCH   3   4
ATOM      4  C   UNL     1      -3.976  -0.155   0.134  1.00  0.00     0.002 A 
ATOM      5  C   UNL     1      -5.050  -0.649   0.855  1.00  0.00     0.020 A 
ATOM      6  N   UNL     1      -6.156  -0.562   0.041  1.00  0.00    -0.358 N 
ATOM      7  C   UNL     1      -5.819  -0.062  -1.194  1.00  0.00     0.046 A 
ATOM      8  C   UNL     1      -4.451   0.202  -1.169  1.00  0.00     0.007 A 
ATOM      9  C   UNL     1      -6.619   0.174  -2.319  1.00  0.00     0.027 A 
ATOM     10  C   UNL     1      -3.852   0.735  -2.331  1.00  0.00     0.011 A 
ATOM     11  C   UNL     1      -5.999   0.698  -3.457  1.00  0.00     0.002 A 
ATOM     12  C   UNL     1      -4.635   0.977  -3.466  1.00  0.00     0.001 A 
ATOM     13  C   UNL     1      -5.166  -1.215   2.224  1.00  0.00     0.065 C 
ATOM     14  H   UNL     1      -7.090  -0.846   0.301  1.00  0.00     0.166 HD
ENDBRANCH   3   4
ENDBRANCH   2   3
ENDBRANCH   1   2
BRANCH   1  15
ATOM     15  C   UNL     1       0.323   0.168   1.261  1.00  0.00     0.015 C 
BRANCH  15  16
ATOM     16  C   UNL     1       1.747   0.395   1.827  1.00  0.00     0.048 C 
BRANCH  16  17
ATOM     17  C   UNL     1       2.744   0.380   0.670  1.00  0.00    -0.042 A 
ATOM     18  C   UNL     1       3.051  -0.794  -0.030  1.00  0.00     0.005 A 
ATOM     19  C   UNL     1       3.362   1.572   0.270  1.00  0.00     0.005 A 
ATOM     20  C   UNL     1       3.962  -0.781  -1.094  1.00  0.00     0.012 A 
ATOM     21  C   UNL     1       4.270   1.583  -0.794  1.00  0.00     0.012 A 
ATOM     22  C   UNL     1       4.587   0.408  -1.489  1.00  0.00     0.019 A 
BRANCH  22  23
ATOM     23  C   UNL     1       5.547   0.467  -2.592  1.00  0.00     0.161 A 
ATOM     24  N   UNL     1       6.098   1.553  -3.108  1.00  0.00    -0.131 NA
ATOM     25  N   UNL     1       6.048  -0.615  -3.274  1.00  0.00    -0.328 N 
ATOM     26  N   UNL     1       6.948   1.180  -4.123  1.00  0.00    -0.139 NA
ATOM     27  C   UNL     1       6.907  -0.126  -4.208  1.00  0.00     0.223 A 
ATOM     28  H   UNL     1       5.832  -1.584  -3.107  1.00  0.00     0.169 HD
ENDBRANCH  22  23
ENDBRANCH  16  17
BRANCH  16  29
ATOM     29  C   UNL     1       2.115  -0.560   2.999  1.00  0.00     0.118 C 
ATOM     30  C   UNL     1       3.550  -0.397   3.490  1.00  0.00     0.039 C 
BRANCH  29  31
ATOM     31  O   UNL     1       1.906  -1.935   2.677  1.00  0.00    -0.393 OA
ATOM     32  H   UNL     1       0.948  -2.087   2.618  1.00  0.00     0.210 HD
ENDBRANCH  29  31
ENDBRANCH  16  29
ENDBRANCH  15  16
ENDBRANCH   1  15
TORSDOF 9
