MODEL        2USER    Run = 2USERUSER    Estimated Free Energy of Binding    = -10.42 kcal/mol  [=(1)+(2)+(3)-(4)]USERUSER    (1) Final Intermolecular Energy     = -13.10 kcal/molUSER        vdW + Hbond + desolv Energy     = -12.98 kcal/molUSER        Electrostatic Energy            =  -0.12 kcal/molUSER        Moving Ligand-Fixed Receptor    = -13.10 kcal/molUSER        Moving Ligand-Moving Receptor   =  +0.00 kcal/molUSER    (2) Final Total Internal Energy     =  -2.00 kcal/molUSER    (3) Torsional Free Energy           =  +2.68 kcal/molUSER    (4) Unbound System's Energy         =  -2.00 kcal/molUSERUSERREMARK SMILES Cc1[nH]c2ccccc2c1C=CCC[C@@H](CO)c1ccc(-c2ncon2)cc1REMARK SMILES IDX 13 1 12 2 11 3 10 4 2 5 3 6 4 7 9 8 5 9 8 10 6 11 7 12 1 13REMARK SMILES IDX 14 15 15 16 16 17 17 18 18 20 19 21 28 22 20 23 27 24 21 25REMARK SMILES IDX 22 26 23 27 26 28 24 29 25 30REMARK H PARENT 3 14 17 19USER                              x       y       z     vdW  Elec       q    TypeUSER                           _______ _______ _______ _____ _____    ______ ____ROOTATOM      1  C   UNL     1      37.616  43.980  19.449 -0.37 -0.00    +0.028 C  ENDROOTBRANCH   1   2ATOM      2  C   UNL     1      38.474  45.178  19.162 -0.41 +0.00    -0.026 C  BRANCH   2   3ATOM      3  C   UNL     1      39.508  45.173  18.305 -0.48 -0.00    +0.006 C  BRANCH   3   4ATOM      4  C   UNL     1      40.257  46.321  17.905 -0.48 -0.00    +0.002 A  ATOM      5  C   UNL     1      41.314  46.832  18.640 -0.49 -0.00    +0.020 A  ATOM      6  N   UNL     1      41.795  47.922  17.955 -0.30 +0.01    -0.358 N  ATOM      7  C   UNL     1      41.064  48.141  16.811 -0.51 -0.01    +0.046 A  ATOM      8  C   UNL     1      40.076  47.157  16.757 -0.50 -0.00    +0.007 A  ATOM      9  C   UNL     1      41.201  49.138  15.836 -0.56 -0.00    +0.027 A  ATOM     10  C   UNL     1      39.161  47.194  15.681 -0.46 -0.00    +0.011 A  ATOM     11  C   UNL     1      40.292  49.138  14.775 -0.51 -0.00    +0.002 A  ATOM     12  C   UNL     1      39.282  48.184  14.698 -0.53 -0.00    +0.001 A  ATOM     13  C   UNL     1      41.931  46.390  19.918 -0.43 +0.01    +0.065 C  ATOM     14  H   UNL     1      42.574  48.494  18.249 +0.03 +0.01    +0.166 HD ENDBRANCH   3   4ENDBRANCH   2   3ENDBRANCH   1   2BRANCH   1  15ATOM     15  C   UNL     1      36.148  44.331  19.722 -0.43 -0.00    +0.015 C  BRANCH  15  16ATOM     16  C   UNL     1      35.153  43.933  18.606 -0.37 -0.01    +0.045 C  BRANCH  16  17ATOM     17  C   UNL     1      33.682  44.215  18.973 -0.35 -0.04    +0.164 C  BRANCH  17  18ATOM     18  O   UNL     1      33.324  43.645  20.228 -0.79 -0.03    -0.396 OA ATOM     19  H   UNL     1      33.142  44.388  20.831 -0.24 -0.01    +0.210 HD ENDBRANCH  17  18ENDBRANCH  16  17BRANCH  16  20ATOM     20  C   UNL     1      35.490  44.567  17.257 -0.28 +0.02    -0.043 A  ATOM     21  C   UNL     1      35.451  45.965  17.128 -0.36 -0.00    +0.005 A  ATOM     22  C   UNL     1      35.871  43.810  16.140 -0.39 -0.00    +0.005 A  ATOM     23  C   UNL     1      35.774  46.585  15.917 -0.32 -0.01    +0.012 A  ATOM     24  C   UNL     1      36.194  44.432  14.929 -0.34 -0.00    +0.012 A  ATOM     25  C   UNL     1      36.149  45.826  14.802 -0.37 -0.01    +0.023 A  BRANCH  25  26ATOM     26  C   UNL     1      36.491  46.462  13.534 -0.35 -0.10    +0.202 A  ATOM     27  N   UNL     1      36.783  45.734  12.397 -0.42 +0.07    -0.194 NA ATOM     28  N   UNL     1      36.553  47.794  13.352 -0.64 +0.03    -0.058 NA ATOM     29  C   UNL     1      37.023  46.672  11.518 -0.28 -0.11    +0.344 A  ATOM     30  O   UNL     1      36.903  47.929  12.010 -1.01 +0.08    -0.342 OA ENDBRANCH  25  26ENDBRANCH  16  20ENDBRANCH  15  16ENDBRANCH   1  15TORSDOF 9TERENDMDL