
     RDKit          3D

 43 45  0  0  0  0  0  0  0  0999 V2000
   -4.7522    1.9345   -2.1585 C   0  0  0  0  0  0  0  0  0  0  0  0
   -4.5001    0.4421   -1.9990 C   0  0  0  0  0  0  0  0  0  0  0  0
   -3.6941    0.1304   -0.7579 C   0  0  0  0  0  0  0  0  0  0  0  0
   -2.2869    0.1900   -0.8506 C   0  0  0  0  0  0  0  0  0  0  0  0
   -1.4614   -0.0797    0.2499 C   0  0  0  0  0  0  0  0  0  0  0  0
   -0.0677   -0.0049    0.0476 N   0  0  0  0  0  0  0  0  0  0  0  0
    0.9259   -0.0381    1.0177 C   0  0  0  0  0  0  0  0  0  0  0  0
    0.7269   -0.0288    2.2243 O   0  0  0  0  0  0  0  0  0  0  0  0
    2.1742   -0.0898    0.4112 N   0  0  0  0  0  0  0  0  0  0  0  0
    3.4459    0.0178    1.0360 C   0  0  0  0  0  0  0  0  0  0  0  0
    3.5667    0.5053    2.3420 C   0  0  0  0  0  0  0  0  0  0  0  0
    4.8157    0.6275    2.9400 C   0  0  0  0  0  0  0  0  0  0  0  0
    5.9585    0.2706    2.2321 C   0  0  0  0  0  0  0  0  0  0  0  0
    5.8919   -0.2041    0.9339 C   0  0  0  0  0  0  0  0  0  0  0  0
    7.0544   -0.5144    0.3336 N   0  0  0  0  0  0  0  0  0  0  0  0
    7.0214   -0.9800   -0.9296 C   0  0  0  0  0  0  0  0  0  0  0  0
    5.8577   -1.1567   -1.6433 C   0  0  0  0  0  0  0  0  0  0  0  0
    4.6557   -0.8341   -1.0197 C   0  0  0  0  0  0  0  0  0  0  0  0
    4.6277   -0.3382    0.3079 C   0  0  0  0  0  0  0  0  0  0  0  0
   -2.0526   -0.4255    1.4622 C   0  0  0  0  0  0  0  0  0  0  0  0
   -3.4453   -0.4834    1.5799 C   0  0  0  0  0  0  0  0  0  0  0  0
   -4.2733   -0.2077    0.4800 C   0  0  0  0  0  0  0  0  0  0  0  0
   -5.7470   -0.2551    0.6713 C   0  0  0  0  0  0  0  0  0  0  0  0
   -6.5680    0.4704    0.1322 O   0  0  0  0  0  0  0  0  0  0  0  0
   -6.0764   -1.2865    1.5045 O   0  0  0  0  0  0  0  0  0  0  0  0
   -7.5235   -1.2040    1.7786 O   0  0  0  0  0  0  0  0  0  0  0  0
   -5.3447    2.1230   -3.0594 H   0  0  0  0  0  0  0  0  0  0  0  0
   -3.8110    2.4868   -2.2526 H   0  0  0  0  0  0  0  0  0  0  0  0
   -5.2947    2.3471   -1.3022 H   0  0  0  0  0  0  0  0  0  0  0  0
   -5.4450   -0.1110   -2.0022 H   0  0  0  0  0  0  0  0  0  0  0  0
   -3.9581    0.0746   -2.8802 H   0  0  0  0  0  0  0  0  0  0  0  0
   -1.8395    0.4588   -1.8062 H   0  0  0  0  0  0  0  0  0  0  0  0
    0.2327    0.2856   -0.8706 H   0  0  0  0  0  0  0  0  0  0  0  0
    2.1616   -0.4350   -0.5325 H   0  0  0  0  0  0  0  0  0  0  0  0
    2.7022    0.8145    2.9220 H   0  0  0  0  0  0  0  0  0  0  0  0
    4.8987    1.0050    3.9560 H   0  0  0  0  0  0  0  0  0  0  0  0
    6.9323    0.3702    2.7070 H   0  0  0  0  0  0  0  0  0  0  0  0
    7.9896   -1.2150   -1.3622 H   0  0  0  0  0  0  0  0  0  0  0  0
    5.8818   -1.5380   -2.6578 H   0  0  0  0  0  0  0  0  0  0  0  0
    3.7477   -0.9844   -1.5922 H   0  0  0  0  0  0  0  0  0  0  0  0
   -1.4593   -0.6581    2.3419 H   0  0  0  0  0  0  0  0  0  0  0  0
   -3.8708   -0.7363    2.5498 H   0  0  0  0  0  0  0  0  0  0  0  0
   -7.7975   -0.7451    0.9566 H   0  0  0  0  0  0  0  0  0  0  0  0
  1  2  1  0
  2  3  1  0
  3  4  2  0
  4  5  1  0
  5  6  1  0
  6  7  1  0
  7  8  2  0
  7  9  1  0
  9 10  1  0
 10 11  2  0
 11 12  1  0
 12 13  2  0
 13 14  1  0
 14 15  2  0
 15 16  1  0
 16 17  2  0
 17 18  1  0
 18 19  2  0
  5 20  2  0
 20 21  1  0
 21 22  2  0
 22 23  1  0
 23 24  2  0
 23 25  1  0
 25 26  1  0
 22  3  1  0
 19 10  1  0
 19 14  1  0
  1 27  1  0
  1 28  1  0
  1 29  1  0
  2 30  1  0
  2 31  1  0
  4 32  1  0
  6 33  1  0
  9 34  1  0
 11 35  1  0
 12 36  1  0
 13 37  1  0
 16 38  1  0
 17 39  1  0
 18 40  1  0
 20 41  1  0
 21 42  1  0
 26 43  1  0
M  END
$$$$
