
     RDKit          3D

 40 43  0  0  0  0  0  0  0  0999 V2000
   -5.5918    1.8686    1.2604 N   0  0  0  0  0  0  0  0  0  0  0  0
   -6.1552    1.1350    0.1177 C   0  0  0  0  0  0  0  0  0  0  0  0
   -5.2596   -0.0216   -0.3707 C   0  0  0  0  0  0  0  0  0  0  0  0
   -3.9001    0.4547   -0.6160 N   0  0  0  0  0  0  0  0  0  0  0  0
   -3.0298   -0.2921   -1.3554 C   0  0  0  0  0  0  0  0  0  0  0  0
   -3.2202   -1.1735   -2.4000 C   0  0  0  0  0  0  0  0  0  0  0  0
   -1.9482   -1.6550   -2.8015 C   0  0  0  0  0  0  0  0  0  0  0  0
   -1.0064   -1.0572   -1.9913 C   0  0  0  0  0  0  0  0  0  0  0  0
    0.4033   -1.1422   -1.9020 C   0  0  0  0  0  0  0  0  0  0  0  0
    1.0446   -0.4410   -0.9535 C   0  0  0  0  0  0  0  0  0  0  0  0
    2.5198   -0.5435   -0.8535 C   0  0  0  0  0  0  0  0  0  0  0  0
    3.2216   -0.6067   -1.8584 O   0  0  0  0  0  0  0  0  0  0  0  0
    3.0731   -0.5673    0.4977 C   0  0  0  0  0  0  0  0  0  0  0  0
    2.4366   -0.9621    1.6686 C   0  0  0  0  0  0  0  0  0  0  0  0
    3.3256   -0.8499    2.7085 N   0  0  0  0  0  0  0  0  0  0  0  0
    4.5311   -0.4140    2.2405 C   0  0  0  0  0  0  0  0  0  0  0  0
    5.6123   -0.2120    3.0140 N   0  0  0  0  0  0  0  0  0  0  0  0
    6.6913    0.2094    2.3086 C   0  0  0  0  0  0  0  0  0  0  0  0
    6.7253    0.4244    0.9358 C   0  0  0  0  0  0  0  0  0  0  0  0
    8.4650    1.0696    0.0131 I   0  0  0  0  0  0  0  0  0  0  0  0
    5.5725    0.2015    0.1826 C   0  0  0  0  0  0  0  0  0  0  0  0
    4.4213   -0.2371    0.8656 C   0  0  0  0  0  0  0  0  0  0  0  0
    0.2042    0.4406   -0.1047 C   0  0  0  0  0  0  0  0  0  0  0  0
   -1.0863    0.5574   -0.1401 N   0  0  0  0  0  0  0  0  0  0  0  0
   -1.6656   -0.2197   -1.1100 N   0  0  0  0  0  0  0  0  0  0  0  0
   -4.7516    2.3496    0.9352 H   0  0  0  0  0  0  0  0  0  0  0  0
   -6.2400    2.6105    1.5229 H   0  0  0  0  0  0  0  0  0  0  0  0
   -6.3122    1.8444   -0.7032 H   0  0  0  0  0  0  0  0  0  0  0  0
   -7.1353    0.7348    0.3981 H   0  0  0  0  0  0  0  0  0  0  0  0
   -5.7065   -0.4377   -1.2808 H   0  0  0  0  0  0  0  0  0  0  0  0
   -5.2328   -0.8145    0.3864 H   0  0  0  0  0  0  0  0  0  0  0  0
   -3.4900    0.8722    0.2237 H   0  0  0  0  0  0  0  0  0  0  0  0
   -4.1722   -1.4373   -2.8393 H   0  0  0  0  0  0  0  0  0  0  0  0
   -1.7486   -2.3603   -3.5978 H   0  0  0  0  0  0  0  0  0  0  0  0
    0.9412   -1.7888   -2.5904 H   0  0  0  0  0  0  0  0  0  0  0  0
    1.4356   -1.3285    1.8607 H   0  0  0  0  0  0  0  0  0  0  0  0
    3.1504   -1.0678    3.6795 H   0  0  0  0  0  0  0  0  0  0  0  0
    7.5752    0.3758    2.9207 H   0  0  0  0  0  0  0  0  0  0  0  0
    5.5523    0.3521   -0.8926 H   0  0  0  0  0  0  0  0  0  0  0  0
    0.7498    1.0660    0.6210 H   0  0  0  0  0  0  0  0  0  0  0  0
  1  2  1  0
  2  3  1  0
  3  4  1  0
  4  5  1  0
  5  6  2  0
  6  7  1  0
  7  8  2  0
  8  9  1  0
  9 10  2  0
 10 11  1  0
 11 12  2  0
 11 13  1  0
 13 14  2  0
 14 15  1  0
 15 16  1  0
 16 17  2  0
 17 18  1  0
 18 19  2  0
 19 20  1  0
 19 21  1  0
 21 22  2  0
 10 23  1  0
 23 24  2  0
 24 25  1  0
 25  5  1  0
 25  8  1  0
 22 13  1  0
 22 16  1  0
  1 26  1  0
  1 27  1  0
  2 28  1  0
  2 29  1  0
  3 30  1  0
  3 31  1  0
  4 32  1  0
  6 33  1  0
  7 34  1  0
  9 35  1  0
 14 36  1  0
 15 37  1  0
 18 38  1  0
 21 39  1  0
 23 40  1  0
M  END
$$$$
