
     RDKit          3D

 62 66  0  0  0  0  0  0  0  0999 V2000
   -7.7121    3.6366    1.0142 C   0  0  0  0  0  0  0  0  0  0  0  0
   -7.8733    2.5100    0.0931 N   0  0  0  0  0  0  0  0  0  0  0  0
   -7.0343    2.6680   -1.1129 C   0  0  0  0  0  0  0  0  0  0  0  0
   -5.6023    2.0971   -1.0170 C   0  0  0  0  0  0  0  0  0  0  0  0
   -5.6023    0.6857   -0.5985 N   0  0  0  0  0  0  0  0  0  0  0  0
   -4.3869    0.0341   -0.5849 C   0  0  0  0  0  0  0  0  0  0  0  0
   -4.2329   -1.2835   -0.1751 C   0  0  0  0  0  0  0  0  0  0  0  0
   -2.9629   -1.8657   -0.0911 C   0  0  0  0  0  0  0  0  0  0  0  0
   -2.9030   -3.2354    0.2595 N   0  0  0  0  0  0  0  0  0  0  0  0
   -1.8405   -1.1360   -0.5349 C   0  0  0  0  0  0  0  0  0  0  0  0
   -0.5089   -1.6278   -0.5496 C   0  0  0  0  0  0  0  0  0  0  0  0
    0.5608   -0.8428   -1.0088 C   0  0  0  0  0  0  0  0  0  0  0  0
    1.8561   -1.3903   -0.9303 N   0  0  0  0  0  0  0  0  0  0  0  0
    3.0060   -0.8817   -1.4916 C   0  0  0  0  0  0  0  0  0  0  0  0
    3.0757    0.0095   -2.3257 O   0  0  0  0  0  0  0  0  0  0  0  0
    4.1134   -1.5499   -1.0198 N   0  0  0  0  0  0  0  0  0  0  0  0
    5.4600   -1.0758   -1.3619 C   0  0  0  0  0  0  0  0  0  0  0  0
    6.3835   -2.2723   -1.7001 C   0  0  0  0  0  0  0  0  0  0  0  0
    5.7473   -3.4560   -2.0011 N   0  0  0  0  0  0  0  0  0  0  0  0
    7.6070   -2.2117   -1.7811 O   0  0  0  0  0  0  0  0  0  0  0  0
    5.9879   -0.3130   -0.1737 C   0  0  0  0  0  0  0  0  0  0  0  0
    6.4861   -0.7902    1.0239 C   0  0  0  0  0  0  0  0  0  0  0  0
    6.8896    0.2473    1.9272 C   0  0  0  0  0  0  0  0  0  0  0  0
    7.4520    0.1728    3.2244 C   0  0  0  0  0  0  0  0  0  0  0  0
    7.8010    1.3433    3.9101 C   0  0  0  0  0  0  0  0  0  0  0  0
    7.5730    2.5860    3.3383 C   0  0  0  0  0  0  0  0  0  0  0  0
    7.0044    2.6881    2.0663 C   0  0  0  0  0  0  0  0  0  0  0  0
    6.6729    1.5089    1.3721 C   0  0  0  0  0  0  0  0  0  0  0  0
    5.9835    1.3959   -0.1992 S   0  0  0  0  0  0  0  0  0  0  0  0
    0.2909    0.4355   -1.4794 C   0  0  0  0  0  0  0  0  0  0  0  0
   -1.0223    0.9250   -1.4624 C   0  0  0  0  0  0  0  0  0  0  0  0
   -2.0861    0.1708   -0.9907 C   0  0  0  0  0  0  0  0  0  0  0  0
   -3.3076    0.7254   -1.0027 N   0  0  0  0  0  0  0  0  0  0  0  0
   -6.8557    0.1578   -0.0538 C   0  0  0  0  0  0  0  0  0  0  0  0
   -7.5718    1.2394    0.7938 C   0  0  0  0  0  0  0  0  0  0  0  0
   -6.6797    3.7368    1.3700 H   0  0  0  0  0  0  0  0  0  0  0  0
   -8.0002    4.5775    0.5298 H   0  0  0  0  0  0  0  0  0  0  0  0
   -8.3672    3.5181    1.8849 H   0  0  0  0  0  0  0  0  0  0  0  0
   -6.9920    3.7202   -1.4238 H   0  0  0  0  0  0  0  0  0  0  0  0
   -7.5508    2.1498   -1.9339 H   0  0  0  0  0  0  0  0  0  0  0  0
   -5.1386    2.1991   -2.0055 H   0  0  0  0  0  0  0  0  0  0  0  0
   -5.0246    2.6947   -0.3016 H   0  0  0  0  0  0  0  0  0  0  0  0
   -5.0847   -1.8869    0.1123 H   0  0  0  0  0  0  0  0  0  0  0  0
   -3.2021   -3.8174   -0.5203 H   0  0  0  0  0  0  0  0  0  0  0  0
   -1.9947   -3.5317    0.5904 H   0  0  0  0  0  0  0  0  0  0  0  0
   -0.3047   -2.6333   -0.1908 H   0  0  0  0  0  0  0  0  0  0  0  0
    1.9378   -2.3187   -0.5442 H   0  0  0  0  0  0  0  0  0  0  0  0
    4.0227   -1.9410   -0.0939 H   0  0  0  0  0  0  0  0  0  0  0  0
    5.4261   -0.4560   -2.2644 H   0  0  0  0  0  0  0  0  0  0  0  0
    6.3496   -4.1558   -2.4155 H   0  0  0  0  0  0  0  0  0  0  0  0
    4.8010   -3.3976   -2.3606 H   0  0  0  0  0  0  0  0  0  0  0  0
    6.5875   -1.8453    1.2437 H   0  0  0  0  0  0  0  0  0  0  0  0
    7.6324   -0.7946    3.6900 H   0  0  0  0  0  0  0  0  0  0  0  0
    8.2501    1.2751    4.8982 H   0  0  0  0  0  0  0  0  0  0  0  0
    7.8523    3.4916    3.8744 H   0  0  0  0  0  0  0  0  0  0  0  0
    6.8338    3.6612    1.6154 H   0  0  0  0  0  0  0  0  0  0  0  0
    1.0734    1.0842   -1.8590 H   0  0  0  0  0  0  0  0  0  0  0  0
   -1.2171    1.9239   -1.8368 H   0  0  0  0  0  0  0  0  0  0  0  0
   -6.7080   -0.7079    0.6018 H   0  0  0  0  0  0  0  0  0  0  0  0
   -7.4984   -0.1664   -0.8830 H   0  0  0  0  0  0  0  0  0  0  0  0
   -6.9359    1.4224    1.6737 H   0  0  0  0  0  0  0  0  0  0  0  0
   -8.5166    0.8285    1.1724 H   0  0  0  0  0  0  0  0  0  0  0  0
  1  2  1  0
  2  3  1  0
  3  4  1  0
  4  5  1  0
  5  6  1  0
  6  7  2  0
  7  8  1  0
  8  9  1  0
  8 10  2  0
 10 11  1  0
 11 12  2  0
 12 13  1  0
 13 14  1  0
 14 15  2  0
 14 16  1  0
 16 17  1  0
 17 18  1  0
 18 19  1  0
 18 20  2  0
 17 21  1  0
 21 22  2  0
 22 23  1  0
 23 24  2  0
 24 25  1  0
 25 26  2  0
 26 27  1  0
 27 28  2  0
 28 29  1  0
 12 30  1  0
 30 31  2  0
 31 32  1  0
 32 33  2  0
  5 34  1  0
 34 35  1  0
 35  2  1  0
 33  6  1  0
 32 10  1  0
 29 21  1  0
 28 23  1  0
  1 36  1  0
  1 37  1  0
  1 38  1  0
  3 39  1  0
  3 40  1  0
  4 41  1  0
  4 42  1  0
  7 43  1  0
  9 44  1  0
  9 45  1  0
 11 46  1  0
 13 47  1  0
 16 48  1  0
 17 49  1  0
 19 50  1  0
 19 51  1  0
 22 52  1  0
 24 53  1  0
 25 54  1  0
 26 55  1  0
 27 56  1  0
 30 57  1  0
 31 58  1  0
 34 59  1  0
 34 60  1  0
 35 61  1  0
 35 62  1  0
M  END
$$$$
