
     RDKit          3D

 62 65  0  0  0  0  0  0  0  0999 V2000
   -1.5430    4.8769    0.3393 C   0  0  0  0  0  0  0  0  0  0  0  0
   -1.4282    3.7464   -0.5160 O   0  0  0  0  0  0  0  0  0  0  0  0
   -0.2096    3.1231   -0.5454 C   0  0  0  0  0  0  0  0  0  0  0  0
    0.8986    3.4446    0.1473 C   0  0  0  0  0  0  0  0  0  0  0  0
    1.9503    2.5162   -0.3403 C   0  0  0  0  0  0  0  0  0  0  0  0
    1.2006    1.4440   -1.0861 C   0  0  0  0  0  0  0  0  0  0  0  0
   -0.0482    1.9983   -1.3563 N   0  0  0  0  0  0  0  0  0  0  0  0
   -1.1541    1.3409   -2.0468 C   0  0  0  0  0  0  0  0  0  0  0  0
   -1.9879    0.4875   -1.0865 C   0  0  0  0  0  0  0  0  0  0  0  0
   -3.1176   -0.2201   -1.8456 C   0  0  0  0  0  0  0  0  0  0  0  0
   -4.0301   -1.0310   -1.0455 N   0  0  0  0  0  0  0  0  0  0  0  0
   -3.4059   -1.9728   -0.1279 C   0  0  0  0  0  0  0  0  0  0  0  0
   -4.3522   -3.1421    0.1665 C   0  0  0  0  0  0  0  0  0  0  0  0
   -5.8217   -2.7281    0.2532 C   0  0  0  0  0  0  0  0  0  0  0  0
   -5.9513   -1.2413    0.5486 C   0  0  0  0  0  0  0  0  0  0  0  0
   -5.2507   -0.3864   -0.5331 C   0  0  0  0  0  0  0  0  0  0  0  0
   -5.0840    1.0369    0.0119 C   0  0  0  0  0  0  0  0  0  0  0  0
    1.5854    0.1645   -1.2105 C   0  0  0  0  0  0  0  0  0  0  0  0
    2.6622   -0.5013   -0.4950 C   0  0  0  0  0  0  0  0  0  0  0  0
    2.0845   -1.9292    0.3548 Cl  0  0  0  0  0  0  0  0  0  0  0  0
    3.9668   -0.1491   -0.4568 C   0  0  0  0  0  0  0  0  0  0  0  0
    4.9425   -0.9672    0.3049 C   0  0  0  0  0  0  0  0  0  0  0  0
    5.5183   -2.1121   -0.2649 C   0  0  0  0  0  0  0  0  0  0  0  0
    6.4478   -2.8669    0.4556 C   0  0  0  0  0  0  0  0  0  0  0  0
    6.8077   -2.4670    1.7498 C   0  0  0  0  0  0  0  0  0  0  0  0
    7.7849   -3.2573    2.5095 N   0  0  0  0  0  0  0  0  0  0  0  0
    8.2747   -4.2532    1.9575 O   0  0  0  0  0  0  0  0  0  0  0  0
    8.0641   -2.8822    3.6573 O   0  0  0  0  0  0  0  0  0  0  0  0
    6.2462   -1.3193    2.3242 C   0  0  0  0  0  0  0  0  0  0  0  0
    5.3171   -0.5710    1.5970 C   0  0  0  0  0  0  0  0  0  0  0  0
    4.4819    0.9926   -1.1871 C   0  0  0  0  0  0  0  0  0  0  0  0
    4.1130    2.2689   -1.0440 C   0  0  0  0  0  0  0  0  0  0  0  0
    3.1935    2.8278   -0.2028 N   0  0  0  0  0  0  0  0  0  0  0  0
   -1.3717    4.5975    1.3840 H   0  0  0  0  0  0  0  0  0  0  0  0
   -2.5648    5.2596    0.2560 H   0  0  0  0  0  0  0  0  0  0  0  0
   -0.8578    5.6734    0.0307 H   0  0  0  0  0  0  0  0  0  0  0  0
    1.0907    4.2610    0.8163 H   0  0  0  0  0  0  0  0  0  0  0  0
   -1.7915    2.0963   -2.5238 H   0  0  0  0  0  0  0  0  0  0  0  0
   -0.7655    0.7211   -2.8644 H   0  0  0  0  0  0  0  0  0  0  0  0
   -2.3897    1.1206   -0.2901 H   0  0  0  0  0  0  0  0  0  0  0  0
   -1.3418   -0.2507   -0.5977 H   0  0  0  0  0  0  0  0  0  0  0  0
   -3.6868    0.5027   -2.4439 H   0  0  0  0  0  0  0  0  0  0  0  0
   -2.6562   -0.8880   -2.5856 H   0  0  0  0  0  0  0  0  0  0  0  0
   -3.1215   -1.4700    0.8051 H   0  0  0  0  0  0  0  0  0  0  0  0
   -2.4862   -2.3923   -0.5546 H   0  0  0  0  0  0  0  0  0  0  0  0
   -4.2503   -3.9121   -0.6083 H   0  0  0  0  0  0  0  0  0  0  0  0
   -4.0461   -3.6107    1.1097 H   0  0  0  0  0  0  0  0  0  0  0  0
   -6.3201   -2.9517   -0.6985 H   0  0  0  0  0  0  0  0  0  0  0  0
   -6.3328   -3.3196    1.0207 H   0  0  0  0  0  0  0  0  0  0  0  0
   -7.0123   -0.9688    0.6021 H   0  0  0  0  0  0  0  0  0  0  0  0
   -5.5215   -1.0380    1.5383 H   0  0  0  0  0  0  0  0  0  0  0  0
   -5.9389   -0.3228   -1.3866 H   0  0  0  0  0  0  0  0  0  0  0  0
   -4.3930    1.0617    0.8609 H   0  0  0  0  0  0  0  0  0  0  0  0
   -4.7219    1.7287   -0.7548 H   0  0  0  0  0  0  0  0  0  0  0  0
   -6.0476    1.4271    0.3602 H   0  0  0  0  0  0  0  0  0  0  0  0
    0.9128   -0.5239   -1.7160 H   0  0  0  0  0  0  0  0  0  0  0  0
    5.2399   -2.4248   -1.2690 H   0  0  0  0  0  0  0  0  0  0  0  0
    6.8772   -3.7559   -0.0023 H   0  0  0  0  0  0  0  0  0  0  0  0
    6.5187   -0.9940    3.3259 H   0  0  0  0  0  0  0  0  0  0  0  0
    4.8829    0.3245    2.0403 H   0  0  0  0  0  0  0  0  0  0  0  0
    5.2919    0.7708   -1.8793 H   0  0  0  0  0  0  0  0  0  0  0  0
    4.6487    3.0073   -1.6411 H   0  0  0  0  0  0  0  0  0  0  0  0
  1  2  1  0
  2  3  1  0
  3  4  2  0
  4  5  1  0
  5  6  1  0
  6  7  1  0
  7  8  1  0
  8  9  1  0
  9 10  1  0
 10 11  1  0
 11 12  1  0
 12 13  1  0
 13 14  1  0
 14 15  1  0
 15 16  1  0
 16 17  1  0
  6 18  2  3
 18 19  1  0
 19 20  1  0
 19 21  2  3
 21 22  1  0
 22 23  2  0
 23 24  1  0
 24 25  2  0
 25 26  1  0
 26 27  2  0
 26 28  1  0
 25 29  1  0
 29 30  2  0
 21 31  1  0
 31 32  2  3
 32 33  1  0
  7  3  1  0
 16 11  1  0
 30 22  1  0
 33  5  2  3
  1 34  1  0
  1 35  1  0
  1 36  1  0
  4 37  1  0
  8 38  1  0
  8 39  1  0
  9 40  1  0
  9 41  1  0
 10 42  1  0
 10 43  1  0
 12 44  1  0
 12 45  1  0
 13 46  1  0
 13 47  1  0
 14 48  1  0
 14 49  1  0
 15 50  1  0
 15 51  1  0
 16 52  1  0
 17 53  1  0
 17 54  1  0
 17 55  1  0
 18 56  1  0
 23 57  1  0
 24 58  1  0
 29 59  1  0
 30 60  1  0
 31 61  1  0
 32 62  1  0
M  CHG  2  26   1  28  -1
M  END
$$$$
