
     RDKit          3D

 52 54  0  0  0  0  0  0  0  0999 V2000
    1.4754    1.1389   -0.2865 O   0  0  0  0  0  0  0  0  0  0  0  0
    0.9538    0.1210    0.1441 C   0  0  0  0  0  0  0  0  0  0  0  0
   -0.5132   -0.0805    0.2380 C   0  0  0  0  0  0  0  0  0  0  0  0
   -1.4369    0.7013   -0.3409 C   0  0  0  0  0  0  0  0  0  0  0  0
   -1.2371    1.8731   -1.1768 C   0  0  0  0  0  0  0  0  0  0  0  0
   -2.4520    2.3527   -1.5120 C   0  0  0  0  0  0  0  0  0  0  0  0
   -2.7530    3.5597   -2.3277 C   0  0  0  0  0  0  0  0  0  0  0  0
   -3.4563    4.4844   -1.6238 F   0  0  0  0  0  0  0  0  0  0  0  0
   -3.4821    3.2678   -3.4340 F   0  0  0  0  0  0  0  0  0  0  0  0
   -1.6261    4.1832   -2.7616 F   0  0  0  0  0  0  0  0  0  0  0  0
   -3.4920    1.5058   -0.9133 C   0  0  0  0  0  0  0  0  0  0  0  0
   -4.9430    1.7074   -0.9630 C   0  0  0  0  0  0  0  0  0  0  0  0
   -5.5507    2.4279    0.0768 C   0  0  0  0  0  0  0  0  0  0  0  0
   -6.9281    2.6578    0.0726 C   0  0  0  0  0  0  0  0  0  0  0  0
   -7.7137    2.1722   -0.9703 C   0  0  0  0  0  0  0  0  0  0  0  0
   -7.1232    1.4552   -2.0108 C   0  0  0  0  0  0  0  0  0  0  0  0
   -5.7444    1.2230   -2.0099 C   0  0  0  0  0  0  0  0  0  0  0  0
   -5.0802    0.3162   -3.3245 Cl  0  0  0  0  0  0  0  0  0  0  0  0
   -2.8801    0.5093   -0.2364 C   0  0  0  0  0  0  0  0  0  0  0  0
   -3.4218   -0.4555    0.5638 O   0  0  0  0  0  0  0  0  0  0  0  0
   -3.9353   -1.8431   -0.1032 P   0  0  0  0  0  0  0  0  0  0  0  0
    1.6662   -0.9702    0.5808 N   0  0  0  0  0  0  0  0  0  0  0  0
    3.1346   -1.0135    0.4993 C   0  0  2  0  0  0  0  0  0  0  0  0
    3.5811   -1.2865   -0.9507 C   0  0  0  0  0  0  0  0  0  0  0  0
    3.0466   -2.5270   -1.4187 O   0  0  0  0  0  0  0  0  0  0  0  0
    3.6709   -2.0654    1.4910 C   0  0  0  0  0  0  0  0  0  0  0  0
    5.1676   -2.0192    1.6796 C   0  0  0  0  0  0  0  0  0  0  0  0
    5.7554   -1.0147    2.4606 C   0  0  0  0  0  0  0  0  0  0  0  0
    7.1406   -0.9660    2.6238 C   0  0  0  0  0  0  0  0  0  0  0  0
    7.9501   -1.9186    2.0080 C   0  0  0  0  0  0  0  0  0  0  0  0
    7.3757   -2.9206    1.2283 C   0  0  0  0  0  0  0  0  0  0  0  0
    5.9908   -2.9716    1.0642 C   0  0  0  0  0  0  0  0  0  0  0  0
   -0.8351   -0.9224    0.8410 H   0  0  0  0  0  0  0  0  0  0  0  0
   -0.2861    2.2977   -1.4641 H   0  0  0  0  0  0  0  0  0  0  0  0
   -4.9525    2.8188    0.8983 H   0  0  0  0  0  0  0  0  0  0  0  0
   -7.3865    3.2200    0.8830 H   0  0  0  0  0  0  0  0  0  0  0  0
   -8.7857    2.3544   -0.9749 H   0  0  0  0  0  0  0  0  0  0  0  0
   -7.7428    1.0814   -2.8223 H   0  0  0  0  0  0  0  0  0  0  0  0
   -4.6626   -2.3403    1.0042 H   0  0  0  0  0  0  0  0  0  0  0  0
   -5.0796   -1.3464   -0.7722 H   0  0  0  0  0  0  0  0  0  0  0  0
    1.1847   -1.8328    0.7988 H   0  0  0  0  0  0  0  0  0  0  0  0
    3.5049   -0.0206    0.7844 H   0  0  0  0  0  0  0  0  0  0  0  0
    3.2390   -0.4967   -1.6282 H   0  0  0  0  0  0  0  0  0  0  0  0
    4.6707   -1.3334   -1.0315 H   0  0  0  0  0  0  0  0  0  0  0  0
    2.1083   -2.3554   -1.6119 H   0  0  0  0  0  0  0  0  0  0  0  0
    3.3601   -3.0734    1.1862 H   0  0  0  0  0  0  0  0  0  0  0  0
    3.2040   -1.9123    2.4740 H   0  0  0  0  0  0  0  0  0  0  0  0
    5.1379   -0.2632    2.9481 H   0  0  0  0  0  0  0  0  0  0  0  0
    7.5886   -0.1837    3.2309 H   0  0  0  0  0  0  0  0  0  0  0  0
    9.0288   -1.8793    2.1343 H   0  0  0  0  0  0  0  0  0  0  0  0
    8.0064   -3.6619    0.7446 H   0  0  0  0  0  0  0  0  0  0  0  0
    5.5580   -3.7549    0.4446 H   0  0  0  0  0  0  0  0  0  0  0  0
  1  2  2  0
  2  3  1  0
  3  4  2  3
  4  5  1  0
  5  6  2  0
  6  7  1  0
  7  8  1  0
  7  9  1  0
  7 10  1  0
  6 11  1  0
 11 12  1  0
 12 13  2  0
 13 14  1  0
 14 15  2  0
 15 16  1  0
 16 17  2  0
 17 18  1  0
 11 19  2  0
 19 20  1  0
 20 21  1  0
  2 22  1  0
 22 23  1  0
 23 24  1  0
 24 25  1  0
 23 26  1  0
 26 27  1  0
 27 28  2  0
 28 29  1  0
 29 30  2  0
 30 31  1  0
 31 32  2  0
 19  4  1  0
 32 27  1  0
 17 12  1  0
  3 33  1  0
  5 34  1  0
 13 35  1  0
 14 36  1  0
 15 37  1  0
 16 38  1  0
 21 39  1  0
 21 40  1  0
 22 41  1  0
 23 42  1  1
 24 43  1  0
 24 44  1  0
 25 45  1  0
 26 46  1  0
 26 47  1  0
 28 48  1  0
 29 49  1  0
 30 50  1  0
 31 51  1  0
 32 52  1  0
M  END
$$$$
