REMARK SMILES O=C(Nc1cccc(-c2cn3ccccc3n2)c1CCN1CCN(c2ccncc2)CC1)c1ccccc1
REMARK SMILES IDX 19 1 18 2 4 3 5 4 6 5 8 6 7 7 3 8 2 9 1 10 33 12 34 13 38 14
REMARK SMILES IDX 35 15 37 16 36 17 9 18 10 19 17 20 11 21 16 22 12 23 15 24
REMARK SMILES IDX 13 25 14 26 20 27 21 28 22 29 32 30 23 31 31 32 24 33 25 34
REMARK SMILES IDX 26 35 30 36 27 37 29 38 28 39
REMARK H PARENT 3 11
ROOT
ATOM      1  C   UNL     1       0.975  -0.428   0.389  1.00  0.00     0.054 C 
ENDROOT
BRANCH   1   2
ATOM      2  C   UNL     1       2.407  -0.776   0.774  1.00  0.00    -0.014 A 
ATOM      3  C   UNL     1       3.381   0.233   1.004  1.00  0.00     0.045 A 
ATOM      4  C   UNL     1       4.682  -0.146   1.364  1.00  0.00     0.026 A 
ATOM      5  C   UNL     1       5.040  -1.490   1.478  1.00  0.00     0.003 A 
ATOM      6  C   UNL     1       2.792  -2.138   0.874  1.00  0.00     0.007 A 
ATOM      7  C   UNL     1       4.102  -2.482   1.229  1.00  0.00     0.011 A 
BRANCH   3   8
ATOM      8  N   UNL     1       3.014   1.595   0.878  1.00  0.00    -0.322 N 
ATOM      9  C   UNL     1       3.826   2.712   0.964  1.00  0.00     0.255 C 
ATOM     10  O   UNL     1       5.045   2.732   1.087  1.00  0.00    -0.269 OA
ATOM     11  H   UNL     1       2.054   1.778   0.626  1.00  0.00     0.170 HD
BRANCH   9  12
ATOM     12  C   UNL     1       3.107   4.012   0.816  1.00  0.00     0.040 A 
ATOM     13  C   UNL     1       3.758   5.063   0.157  1.00  0.00     0.014 A 
ATOM     14  C   UNL     1       1.814   4.205   1.324  1.00  0.00     0.014 A 
ATOM     15  C   UNL     1       3.107   6.284  -0.028  1.00  0.00     0.001 A 
ATOM     16  C   UNL     1       1.167   5.429   1.137  1.00  0.00     0.001 A 
ATOM     17  C   UNL     1       1.811   6.463   0.455  1.00  0.00     0.000 A 
ENDBRANCH   9  12
ENDBRANCH   3   8
BRANCH   6  18
ATOM     18  C   UNL     1       1.860  -3.220   0.634  1.00  0.00     0.090 A 
ATOM     19  C   UNL     1       1.712  -3.886  -0.565  1.00  0.00     0.121 A 
ATOM     20  N   UNL     1       0.981  -3.684   1.579  1.00  0.00    -0.229 NA
ATOM     21  N   UNL     1       0.715  -4.800  -0.345  1.00  0.00    -0.306 N 
ATOM     22  C   UNL     1       0.314  -4.649   0.982  1.00  0.00     0.137 A 
ATOM     23  C   UNL     1       0.163  -5.738  -1.215  1.00  0.00     0.093 A 
ATOM     24  C   UNL     1      -0.719  -5.510   1.449  1.00  0.00     0.048 A 
ATOM     25  C   UNL     1      -0.810  -6.551  -0.766  1.00  0.00     0.018 A 
ATOM     26  C   UNL     1      -1.256  -6.423   0.615  1.00  0.00     0.005 A 
ENDBRANCH   6  18
ENDBRANCH   1   2
BRANCH   1  27
ATOM     27  C   UNL     1       0.838  -0.196  -1.129  1.00  0.00     0.089 C 
BRANCH  27  28
ATOM     28  N   UNL     1      -0.505   0.120  -1.627  1.00  0.00    -0.299 NA
ATOM     29  C   UNL     1      -0.953   1.484  -1.302  1.00  0.00     0.106 C 
ATOM     30  C   UNL     1      -1.526  -0.899  -1.320  1.00  0.00     0.106 C 
ATOM     31  C   UNL     1      -2.483   1.673  -1.419  1.00  0.00     0.132 C 
ATOM     32  C   UNL     1      -2.543  -0.522  -0.213  1.00  0.00     0.132 C 
ATOM     33  N   UNL     1      -3.179   0.784  -0.476  1.00  0.00    -0.369 N 
BRANCH  33  34
ATOM     34  C   UNL     1      -4.495   1.009  -0.093  1.00  0.00     0.040 A 
ATOM     35  C   UNL     1      -5.056   0.362   1.013  1.00  0.00     0.046 A 
ATOM     36  C   UNL     1      -5.330   1.904  -0.768  1.00  0.00     0.046 A 
ATOM     37  C   UNL     1      -6.375   0.612   1.375  1.00  0.00     0.113 A 
ATOM     38  C   UNL     1      -6.641   2.089  -0.341  1.00  0.00     0.113 A 
ATOM     39  N   UNL     1      -7.185   1.460   0.718  1.00  0.00    -0.265 NA
ENDBRANCH  33  34
ENDBRANCH  27  28
ENDBRANCH   1  27
TORSDOF 7
