MODEL        2USER    Run = 2USERUSER    Estimated Free Energy of Binding    = -10.00 kcal/mol  [=(1)+(2)+(3)-(4)]USERUSER    (1) Final Intermolecular Energy     = -11.79 kcal/molUSER        vdW + Hbond + desolv Energy     = -11.72 kcal/molUSER        Electrostatic Energy            =  -0.06 kcal/molUSER        Moving Ligand-Fixed Receptor    = -11.79 kcal/molUSER        Moving Ligand-Moving Receptor   =  +0.00 kcal/molUSER    (2) Final Total Internal Energy     =  -2.15 kcal/molUSER    (3) Torsional Free Energy           =  +1.79 kcal/molUSER    (4) Unbound System's Energy         =  -2.15 kcal/molUSERUSERREMARK SMILES CC[C@H]1NC=Nc2c(Nc3ccccc3F)nc(N3CC[C@@H](CN4CCN(C)CC4)C3)nc21REMARK SMILES IDX 3 1 4 2 5 3 6 4 7 5 8 6 17 7 18 8 32 9 33 10 2 12 1 13 19 14REMARK SMILES IDX 20 15 31 16 21 17 22 18 23 19 24 20 25 21 30 22 26 23 29 24REMARK SMILES IDX 27 25 28 26 9 27 10 29 11 30 15 31 12 32 14 33 13 34 16 35REMARK H PARENT 4 11 9 28USER                              x       y       z     vdW  Elec       q    TypeUSER                           _______ _______ _______ _____ _____    ______ ____ROOTATOM      1  C   UNL     1      41.381  46.643  17.837 -0.40 -0.01    +0.131 C  ATOM      2  N   UNL     1      42.562  46.626  18.692 -0.25 -0.04    -0.368 N  ATOM      3  C   UNL     1      42.425  46.569  20.048 -0.34 +0.04    +0.193 C  ATOM      4  N   UNL     1      41.365  46.240  20.703 -0.21 -0.02    -0.234 NA ATOM      5  C   UNL     1      40.239  45.881  19.919 -0.27 +0.00    +0.131 A  ATOM      6  C   UNL     1      39.096  45.333  20.491 -0.25 +0.00    +0.162 A  ATOM      7  N   UNL     1      38.021  44.976  19.759 -0.24 +0.01    -0.193 NA ATOM      8  C   UNL     1      38.073  45.120  18.427 -0.23 -0.04    +0.227 A  ATOM      9  N   UNL     1      39.134  45.635  17.788 -0.27 +0.03    -0.213 NA ATOM     10  C   UNL     1      40.196  46.012  18.541 -0.40 -0.01    +0.096 A  ATOM     11  H   UNL     1      43.404  47.038  18.312 -0.29 +0.02    +0.162 HD ENDROOTBRANCH   1  12ATOM     12  C   UNL     1      41.036  48.087  17.428 -0.52 -0.00    +0.028 C  ATOM     13  C   UNL     1      40.357  48.179  16.068 -0.64 -0.00    +0.006 C  ENDBRANCH   1  12BRANCH   8  14ATOM     14  N   UNL     1      36.997  44.712  17.685 -0.12 +0.09    -0.340 N  ATOM     15  C   UNL     1      35.802  44.190  18.313 -0.30 -0.03    +0.120 C  ATOM     16  C   UNL     1      37.196  44.190  16.346 -0.32 -0.04    +0.124 C  ATOM     17  C   UNL     1      35.228  43.231  17.266 -0.41 -0.01    +0.028 C  ATOM     18  C   UNL     1      35.786  43.733  15.927 -0.44 -0.01    +0.024 C  BRANCH  18  19ATOM     19  C   UNL     1      34.992  44.905  15.304 -0.30 -0.05    +0.090 C  BRANCH  19  20ATOM     20  N   UNL     1      35.706  45.801  14.387 -0.19 +0.19    -0.300 NA ATOM     21  C   UNL     1      36.564  45.170  13.391 -0.44 -0.04    +0.100 C  ATOM     22  C   UNL     1      36.383  46.924  15.055 -0.38 -0.08    +0.100 C  ATOM     23  C   UNL     1      37.043  46.173  12.303 -0.57 -0.03    +0.099 C  ATOM     24  C   UNL     1      37.492  47.599  14.204 -0.50 -0.05    +0.099 C  ATOM     25  N   UNL     1      37.279  47.568  12.746 -0.85 +0.08    -0.304 NA ATOM     26  C   UNL     1      36.151  48.425  12.371 -0.36 -0.05    +0.105 C  ENDBRANCH  19  20ENDBRANCH  18  19ENDBRANCH   8  14BRANCH   6  27ATOM     27  N   UNL     1      39.041  45.257  21.918 -0.16 -0.02    -0.336 N  ATOM     28  H   UNL     1      40.017  45.259  22.224 +0.09 +0.01    +0.168 HD BRANCH  27  29ATOM     29  C   UNL     1      38.333  44.250  22.618 -0.29 +0.00    +0.076 A  ATOM     30  C   UNL     1      38.143  43.012  21.992 -0.30 +0.00    +0.029 A  ATOM     31  C   UNL     1      37.696  44.475  23.847 -0.24 +0.02    +0.146 A  ATOM     32  C   UNL     1      37.395  42.006  22.610 -0.47 +0.00    +0.002 A  ATOM     33  C   UNL     1      36.948  43.478  24.468 -0.34 +0.00    +0.041 A  ATOM     34  C   UNL     1      36.803  42.236  23.852 -0.43 +0.00    +0.003 A  ATOM     35  F   UNL     1      37.756  45.680  24.435 -0.09 -0.04    -0.205 F  ENDBRANCH  27  29ENDBRANCH   6  27TORSDOF 6TERENDMDL