MODEL        4USER    Run = 4USERUSER    Estimated Free Energy of Binding    = -11.31 kcal/mol  [=(1)+(2)+(3)-(4)]USERUSER    (1) Final Intermolecular Energy     = -13.40 kcal/molUSER        vdW + Hbond + desolv Energy     = -13.34 kcal/molUSER        Electrostatic Energy            =  -0.06 kcal/molUSER        Moving Ligand-Fixed Receptor    = -13.40 kcal/molUSER        Moving Ligand-Moving Receptor   =  +0.00 kcal/molUSER    (2) Final Total Internal Energy     =  -2.04 kcal/molUSER    (3) Torsional Free Energy           =  +2.09 kcal/molUSER    (4) Unbound System's Energy         =  -2.04 kcal/molUSERUSERREMARK SMILES O=C(Nc1cccc(-c2cn3ccccc3n2)c1CCN1CCN(c2ccncc2)CC1)c1ccccc1REMARK SMILES IDX 19 1 18 2 4 3 5 4 6 5 8 6 7 7 3 8 2 9 1 10 33 12 34 13 38 14REMARK SMILES IDX 35 15 37 16 36 17 9 18 10 19 17 20 11 21 16 22 12 23 15 24REMARK SMILES IDX 13 25 14 26 20 27 21 28 22 29 32 30 23 31 31 32 24 33 25 34REMARK SMILES IDX 26 35 30 36 27 37 29 38 28 39REMARK H PARENT 3 11USER                              x       y       z     vdW  Elec       q    TypeUSER                           _______ _______ _______ _____ _____    ______ ____ROOTATOM      1  C   UNL     1      37.106  44.693  17.911 -0.37 -0.01    +0.054 C  ENDROOTBRANCH   1   2ATOM      2  C   UNL     1      38.503  45.265  18.116 -0.39 +0.00    -0.014 A  ATOM      3  C   UNL     1      39.216  45.069  19.330 -0.37 -0.00    +0.045 A  ATOM      4  C   UNL     1      40.502  45.612  19.459 -0.41 +0.00    +0.026 A  ATOM      5  C   UNL     1      41.082  46.355  18.430 -0.51 -0.00    +0.003 A  ATOM      6  C   UNL     1      39.098  46.040  17.087 -0.42 -0.00    +0.007 A  ATOM      7  C   UNL     1      40.382  46.574  17.251 -0.49 -0.00    +0.011 A  BRANCH   3   8ATOM      8  N   UNL     1      38.618  44.322  20.374 -0.15 +0.00    -0.322 N  ATOM      9  C   UNL     1      38.319  44.735  21.659 -0.26 +0.01    +0.255 C  ATOM     10  O   UNL     1      38.441  45.864  22.120 -0.27 -0.03    -0.269 OA ATOM     11  H   UNL     1      38.308  43.391  20.136 +0.11 -0.00    +0.170 HD BRANCH   9  12ATOM     12  C   UNL     1      37.718  43.677  22.525 -0.34 +0.00    +0.040 A  ATOM     13  C   UNL     1      37.773  43.842  23.915 -0.31 +0.00    +0.014 A  ATOM     14  C   UNL     1      37.116  42.532  21.984 -0.45 +0.00    +0.014 A  ATOM     15  C   UNL     1      37.196  42.890  24.757 -0.37 +0.00    +0.001 A  ATOM     16  C   UNL     1      36.541  41.581  22.831 -0.52 +0.00    +0.001 A  ATOM     17  C   UNL     1      36.575  41.765  24.214 -0.40 -0.00    +0.000 A  ENDBRANCH   9  12ENDBRANCH   3   8BRANCH   6  18ATOM     18  C   UNL     1      38.424  46.298  15.831 -0.33 -0.03    +0.090 A  ATOM     19  C   UNL     1      38.014  47.541  15.394 -0.37 -0.07    +0.121 A  ATOM     20  N   UNL     1      38.081  45.313  14.941 -0.21 +0.07    -0.229 NA ATOM     21  N   UNL     1      37.408  47.312  14.187 -0.23 +0.15    -0.306 N  ATOM     22  C   UNL     1      37.490  45.941  13.947 -0.33 -0.05    +0.137 A  ATOM     23  C   UNL     1      36.816  48.215  13.306 -0.49 -0.04    +0.093 A  ATOM     24  C   UNL     1      36.928  45.461  12.730 -0.50 -0.02    +0.048 A  ATOM     25  C   UNL     1      36.291  47.755  12.156 -0.55 -0.01    +0.018 A  ATOM     26  C   UNL     1      36.357  46.328  11.870 -0.64 -0.00    +0.005 A  ENDBRANCH   6  18ENDBRANCH   1   2BRANCH   1  27ATOM     27  C   UNL     1      36.031  45.797  17.951 -0.30 -0.04    +0.089 C  BRANCH  27  28ATOM     28  N   UNL     1      34.652  45.364  18.201 -0.20 +0.14    -0.299 NA ATOM     29  C   UNL     1      34.539  44.295  19.206 -0.38 -0.02    +0.106 C  ATOM     30  C   UNL     1      33.872  45.080  16.982 -0.32 -0.07    +0.106 C  ATOM     31  C   UNL     1      33.191  43.540  19.152 -0.38 -0.01    +0.132 C  ATOM     32  C   UNL     1      33.612  43.581  16.682 -0.30 -0.06    +0.132 C  ATOM     33  N   UNL     1      33.027  42.884  17.845 -0.07 +0.10    -0.369 N  BRANCH  33  34ATOM     34  C   UNL     1      32.124  41.846  17.655 -0.32 -0.01    +0.040 A  ATOM     35  C   UNL     1      31.007  41.991  16.826 -0.28 -0.02    +0.046 A  ATOM     36  C   UNL     1      32.284  40.594  18.255 -0.39 -0.01    +0.046 A  ATOM     37  C   UNL     1      30.123  40.932  16.651 -0.30 -0.02    +0.113 A  ATOM     38  C   UNL     1      31.347  39.591  18.030 -0.34 -0.00    +0.113 A  ATOM     39  N   UNL     1      30.265  39.732  17.240 -0.20 -0.02    -0.265 NA ENDBRANCH  33  34ENDBRANCH  27  28ENDBRANCH   1  27TORSDOF 7TERENDMDL