REMARK SMILES CC[C@H]1NC=Nc2c(Nc3ccccc3F)nc(N3CC[C@@H](CN4CCN(C)CC4)C3)nc21
REMARK SMILES IDX 3 1 4 2 5 3 6 4 7 5 8 6 17 7 18 8 32 9 33 10 2 12 1 13 19 14
REMARK SMILES IDX 20 15 31 16 21 17 22 18 23 19 24 20 25 21 30 22 26 23 29 24
REMARK SMILES IDX 27 25 28 26 9 27 10 29 11 30 15 31 12 32 14 33 13 34 16 35
REMARK H PARENT 4 11 9 28
ROOT
ATOM      1  C   UNL     1      -4.018  -3.218  -0.645  1.00  0.00     0.131 C 
ATOM      2  N   UNL     1      -5.386  -3.008  -1.106  1.00  0.00    -0.368 N 
ATOM      3  C   UNL     1      -6.067  -1.885  -0.740  1.00  0.00     0.193 C 
ATOM      4  N   UNL     1      -5.565  -0.804  -0.248  1.00  0.00    -0.234 NA
ATOM      5  C   UNL     1      -4.155  -0.789  -0.099  1.00  0.00     0.131 A 
ATOM      6  C   UNL     1      -3.470   0.372   0.244  1.00  0.00     0.162 A 
ATOM      7  N   UNL     1      -2.128   0.407   0.380  1.00  0.00    -0.193 NA
ATOM      8  C   UNL     1      -1.428  -0.710   0.136  1.00  0.00     0.227 A 
ATOM      9  N   UNL     1      -2.002  -1.874  -0.204  1.00  0.00    -0.213 NA
ATOM     10  C   UNL     1      -3.353  -1.897  -0.311  1.00  0.00     0.096 A 
ATOM     11  H   UNL     1      -5.918  -3.836  -1.342  1.00  0.00     0.162 HD
ENDROOT
BRANCH   1  12
ATOM     12  C   UNL     1      -4.004  -4.136   0.591  1.00  0.00     0.028 C 
ATOM     13  C   UNL     1      -4.479  -5.552   0.291  1.00  0.00     0.006 C 
ENDBRANCH   1  12
BRANCH   8  14
ATOM     14  N   UNL     1      -0.063  -0.657   0.229  1.00  0.00    -0.340 N 
ATOM     15  C   UNL     1       0.734  -1.863   0.318  1.00  0.00     0.120 C 
ATOM     16  C   UNL     1       0.577   0.482   0.859  1.00  0.00     0.124 C 
ATOM     17  C   UNL     1       1.971  -1.425   1.107  1.00  0.00     0.028 C 
ATOM     18  C   UNL     1       2.067   0.090   0.878  1.00  0.00     0.024 C 
BRANCH  18  19
ATOM     19  C   UNL     1       2.756   0.493  -0.447  1.00  0.00     0.090 C 
BRANCH  19  20
ATOM     20  N   UNL     1       4.220   0.585  -0.454  1.00  0.00    -0.300 NA
ATOM     21  C   UNL     1       4.954  -0.631  -0.122  1.00  0.00     0.100 C 
ATOM     22  C   UNL     1       4.749   1.754   0.267  1.00  0.00     0.100 C 
ATOM     23  C   UNL     1       6.473  -0.507  -0.432  1.00  0.00     0.099 C 
ATOM     24  C   UNL     1       6.245   1.636   0.665  1.00  0.00     0.099 C 
ATOM     25  N   UNL     1       7.081   0.832  -0.244  1.00  0.00    -0.304 NA
ATOM     26  C   UNL     1       7.242   1.510  -1.533  1.00  0.00     0.105 C 
ENDBRANCH  19  20
ENDBRANCH  18  19
ENDBRANCH   8  14
BRANCH   6  27
ATOM     27  N   UNL     1      -4.247   1.529   0.567  1.00  0.00    -0.336 N 
ATOM     28  H   UNL     1      -5.100   1.442   0.009  1.00  0.00     0.168 HD
BRANCH  27  29
ATOM     29  C   UNL     1      -3.753   2.852   0.466  1.00  0.00     0.076 A 
ATOM     30  C   UNL     1      -4.082   3.765   1.475  1.00  0.00     0.029 A 
ATOM     31  C   UNL     1      -3.066   3.329  -0.660  1.00  0.00     0.146 A 
ATOM     32  C   UNL     1      -3.676   5.100   1.392  1.00  0.00     0.002 A 
ATOM     33  C   UNL     1      -2.659   4.658  -0.750  1.00  0.00     0.041 A 
ATOM     34  C   UNL     1      -2.958   5.545   0.283  1.00  0.00     0.003 A 
ATOM     35  F   UNL     1      -2.822   2.520  -1.703  1.00  0.00    -0.205 F 
ENDBRANCH  27  29
ENDBRANCH   6  27
TORSDOF 6
