MODEL        6USER    Run = 6USERUSER    Estimated Free Energy of Binding    = -11.01 kcal/mol  [=(1)+(2)+(3)-(4)]USERUSER    (1) Final Intermolecular Energy     = -12.80 kcal/molUSER        vdW + Hbond + desolv Energy     = -12.63 kcal/molUSER        Electrostatic Energy            =  -0.17 kcal/molUSER        Moving Ligand-Fixed Receptor    = -12.80 kcal/molUSER        Moving Ligand-Moving Receptor   =  +0.00 kcal/molUSER    (2) Final Total Internal Energy     =  -1.54 kcal/molUSER    (3) Torsional Free Energy           =  +1.79 kcal/molUSER    (4) Unbound System's Energy         =  -1.54 kcal/molUSERUSERREMARK SMILES Oc1nc2ccccc2n1C1CCN(Cc2ccc(-c3nc4ccc(F)cc4nc3N3CCOCC3)cc2)CC1REMARK SMILES IDX 11 1 12 2 13 3 14 4 39 5 40 6 10 7 2 8 3 9 4 10 9 11 5 12REMARK SMILES IDX 8 13 6 14 7 15 1 16 15 18 16 19 17 20 38 21 18 22 37 23REMARK SMILES IDX 19 24 20 25 21 26 30 27 22 28 29 29 23 30 28 31 24 32 27 33REMARK SMILES IDX 25 34 26 35 31 36 32 37 36 38 33 39 35 40 34 41REMARK H PARENT 1 17USER                              x       y       z     vdW  Elec       q    TypeUSER                           _______ _______ _______ _____ _____    ______ ____ROOTATOM      1  C   UNL     1      30.711  40.230  19.141 -0.10 +0.00    +0.095 C  ATOM      2  C   UNL     1      32.021  40.911  19.577 -0.24 +0.00    +0.041 C  ATOM      3  C   UNL     1      33.023  41.005  18.426 -0.31 -0.01    +0.087 C  ATOM      4  N   UNL     1      32.474  41.614  17.210 -0.11 +0.13    -0.299 NA ATOM      5  C   UNL     1      31.140  41.112  16.845 -0.18 -0.03    +0.087 C  ATOM      6  C   UNL     1      30.695  39.887  17.644 -0.40 -0.00    +0.041 C  ENDROOTBRANCH   1   7ATOM      7  N   UNL     1      30.352  39.086  19.966 -0.17 -0.03    -0.291 N  ATOM      8  C   UNL     1      31.168  38.428  20.844 -0.26 +0.04    +0.295 A  ATOM      9  N   UNL     1      30.582  37.428  21.441 -0.31 -0.01    -0.195 NA ATOM     10  C   UNL     1      29.311  37.415  20.919 -0.27 +0.00    +0.092 A  ATOM     11  C   UNL     1      29.132  38.446  19.995 -0.26 +0.01    +0.072 A  ATOM     12  C   UNL     1      28.249  36.536  21.186 -0.31 -0.01    +0.031 A  ATOM     13  C   UNL     1      27.921  38.647  19.318 -0.25 +0.00    +0.029 A  ATOM     14  C   UNL     1      27.034  36.718  20.514 -0.30 -0.00    +0.002 A  ATOM     15  C   UNL     1      26.873  37.758  19.597 -0.24 -0.00    +0.002 A  BRANCH   8  16ATOM     16  O   UNL     1      32.429  38.732  21.063 -0.87 -0.23    -0.480 OA ATOM     17  H   UNL     1      32.532  38.464  21.995 -0.06 +0.07    +0.296 HD ENDBRANCH   8  16ENDBRANCH   1   7BRANCH   4  18ATOM     18  C   UNL     1      32.495  43.084  17.217 -0.29 -0.04    +0.120 C  BRANCH  18  19ATOM     19  C   UNL     1      33.885  43.676  17.274 -0.29 +0.01    -0.034 A  ATOM     20  C   UNL     1      34.147  44.816  18.039 -0.36 -0.00    +0.006 A  ATOM     21  C   UNL     1      34.933  43.103  16.545 -0.41 -0.00    +0.006 A  ATOM     22  C   UNL     1      35.429  45.371  18.067 -0.36 -0.00    +0.011 A  ATOM     23  C   UNL     1      36.211  43.673  16.564 -0.38 -0.00    +0.011 A  ATOM     24  C   UNL     1      36.494  44.816  17.332 -0.33 -0.00    +0.004 A  BRANCH  24  25ATOM     25  C   UNL     1      37.826  45.470  17.332 -0.30 -0.03    +0.113 A  ATOM     26  N   UNL     1      38.557  45.201  18.457 -0.24 +0.03    -0.242 NA ATOM     27  C   UNL     1      38.321  46.335  16.324 -0.29 -0.06    +0.156 A  ATOM     28  C   UNL     1      39.734  45.821  18.599 -0.38 -0.01    +0.090 A  ATOM     29  N   UNL     1      39.512  46.962  16.497 -0.29 +0.06    -0.227 NA ATOM     30  C   UNL     1      40.495  45.587  19.738 -0.39 +0.00    +0.033 A  ATOM     31  C   UNL     1      40.212  46.716  17.616 -0.42 -0.01    +0.094 A  ATOM     32  C   UNL     1      41.721  46.222  19.928 -0.40 +0.01    +0.041 A  ATOM     33  C   UNL     1      41.430  47.347  17.813 -0.44 -0.01    +0.070 A  ATOM     34  C   UNL     1      42.175  47.101  18.959 -0.44 +0.01    +0.125 A  ATOM     35  F   UNL     1      43.350  47.721  19.129 -0.23 -0.03    -0.207 F  BRANCH  27  36ATOM     36  N   UNL     1      37.638  46.566  15.120 -0.13 +0.16    -0.350 N  ATOM     37  C   UNL     1      36.293  47.170  15.298 -0.27 -0.14    +0.146 C  ATOM     38  C   UNL     1      37.668  45.446  14.159 -0.36 -0.05    +0.146 C  ATOM     39  C   UNL     1      35.190  46.231  14.772 -0.29 -0.16    +0.181 C  ATOM     40  C   UNL     1      36.725  45.765  12.988 -0.46 -0.07    +0.181 C  ATOM     41  O   UNL     1      35.348  45.883  13.386 -0.22 +0.22    -0.378 OA ENDBRANCH  27  36ENDBRANCH  24  25ENDBRANCH  18  19ENDBRANCH   4  18TORSDOF 6TERENDMDL