MODEL        7USER    Run = 7USERUSER    Estimated Free Energy of Binding    = -12.51 kcal/mol  [=(1)+(2)+(3)-(4)]USERUSER    (1) Final Intermolecular Energy     = -14.30 kcal/molUSER        vdW + Hbond + desolv Energy     = -14.19 kcal/molUSER        Electrostatic Energy            =  -0.12 kcal/molUSER        Moving Ligand-Fixed Receptor    = -14.30 kcal/molUSER        Moving Ligand-Moving Receptor   =  +0.00 kcal/molUSER    (2) Final Total Internal Energy     =  -1.90 kcal/molUSER    (3) Torsional Free Energy           =  +1.79 kcal/molUSER    (4) Unbound System's Energy         =  -1.90 kcal/molUSERUSERREMARK SMILES Oc1nc2ccccc2n1C1CCN(Cc2ccc(-c3cc4ccccc4nc3-c3ccccc3)cc2)CC1REMARK SMILES IDX 11 1 12 2 13 3 14 4 38 5 39 6 10 7 2 8 3 9 4 10 9 11 5 12REMARK SMILES IDX 8 13 6 14 7 15 1 16 15 18 16 19 17 20 37 21 18 22 36 23REMARK SMILES IDX 19 24 20 25 21 26 29 27 22 28 28 29 23 30 27 31 24 32 26 33REMARK SMILES IDX 25 34 30 35 31 36 35 37 32 38 34 39 33 40REMARK H PARENT 1 17USER                              x       y       z     vdW  Elec       q    TypeUSER                           _______ _______ _______ _____ _____    ______ ____ROOTATOM      1  C   UNL     1      31.389  39.987  17.430 -0.28 -0.02    +0.095 C  ATOM      2  C   UNL     1      32.633  40.714  17.960 -0.46 -0.01    +0.041 C  ATOM      3  C   UNL     1      32.371  42.124  18.480 -0.36 -0.01    +0.087 C  ATOM      4  N   UNL     1      31.528  42.939  17.602 -0.10 +0.07    -0.299 NA ATOM      5  C   UNL     1      30.231  42.292  17.383 -0.25 -0.02    +0.087 C  ATOM      6  C   UNL     1      30.318  40.887  16.795 -0.39 -0.01    +0.041 C  ENDROOTBRANCH   1   7ATOM      7  N   UNL     1      30.862  38.966  18.334 -0.22 -0.04    -0.291 N  ATOM      8  C   UNL     1      31.588  37.874  18.746 -0.28 +0.07    +0.295 A  ATOM      9  N   UNL     1      30.927  37.070  19.528 -0.66 -0.08    -0.195 NA ATOM     10  C   UNL     1      29.697  37.657  19.650 -0.31 +0.02    +0.092 A  ATOM     11  C   UNL     1      29.619  38.854  18.924 -0.31 +0.01    +0.072 A  ATOM     12  C   UNL     1      28.586  37.206  20.383 -0.30 -0.00    +0.031 A  ATOM     13  C   UNL     1      28.449  39.623  18.923 -0.21 +0.00    +0.029 A  ATOM     14  C   UNL     1      27.415  37.968  20.379 -0.29 -0.00    +0.002 A  ATOM     15  C   UNL     1      27.353  39.158  19.661 -0.25 -0.00    +0.002 A  BRANCH   8  16ATOM     16  O   UNL     1      32.837  37.625  18.408 -0.19 -0.03    -0.480 OA ATOM     17  H   UNL     1      32.906  38.120  17.571 +0.21 -0.03    +0.296 HD ENDBRANCH   8  16ENDBRANCH   1   7BRANCH   4  18ATOM     18  C   UNL     1      32.221  43.321  16.361 -0.30 -0.05    +0.120 C  BRANCH  18  19ATOM     19  C   UNL     1      33.598  43.902  16.601 -0.30 +0.02    -0.034 A  ATOM     20  C   UNL     1      33.757  45.137  17.241 -0.34 -0.00    +0.006 A  ATOM     21  C   UNL     1      34.740  43.206  16.183 -0.39 -0.00    +0.006 A  ATOM     22  C   UNL     1      35.033  45.666  17.456 -0.37 -0.01    +0.009 A  ATOM     23  C   UNL     1      36.014  43.741  16.391 -0.38 -0.00    +0.009 A  ATOM     24  C   UNL     1      36.179  44.980  17.026 -0.32 +0.01    -0.016 A  BRANCH  24  25ATOM     25  C   UNL     1      37.521  45.537  17.252 -0.36 -0.00    +0.009 A  ATOM     26  C   UNL     1      38.175  45.274  18.465 -0.37 -0.00    +0.021 A  ATOM     27  C   UNL     1      38.222  46.301  16.304 -0.34 -0.03    +0.079 A  ATOM     28  C   UNL     1      39.472  45.746  18.701 -0.43 -0.00    +0.001 A  ATOM     29  N   UNL     1      39.491  46.755  16.516 -0.27 +0.06    -0.247 NA ATOM     30  C   UNL     1      40.146  45.491  19.908 -0.39 +0.00    +0.010 A  ATOM     31  C   UNL     1      40.096  46.488  17.684 -0.43 -0.01    +0.071 A  ATOM     32  C   UNL     1      41.439  45.970  20.110 -0.40 +0.00    +0.001 A  ATOM     33  C   UNL     1      41.385  46.954  17.907 -0.47 -0.00    +0.029 A  ATOM     34  C   UNL     1      42.061  46.704  19.105 -0.52 +0.00    +0.002 A  BRANCH  27  35ATOM     35  C   UNL     1      37.673  46.693  14.993 -0.41 -0.00    +0.001 A  ATOM     36  C   UNL     1      37.391  48.043  14.714 -0.51 -0.01    +0.010 A  ATOM     37  C   UNL     1      37.393  45.745  13.994 -0.43 -0.00    +0.010 A  ATOM     38  C   UNL     1      36.873  48.431  13.475 -0.56 -0.00    +0.001 A  ATOM     39  C   UNL     1      36.875  46.131  12.755 -0.59 -0.00    +0.001 A  ATOM     40  C   UNL     1      36.619  47.476  12.495 -0.68 -0.00    +0.000 A  ENDBRANCH  27  35ENDBRANCH  24  25ENDBRANCH  18  19ENDBRANCH   4  18TORSDOF 6TERENDMDL