MODEL        7USER    Run = 7USERUSER    Estimated Free Energy of Binding    =  -6.49 kcal/mol  [=(1)+(2)+(3)-(4)]USERUSER    (1) Final Intermolecular Energy     = -10.96 kcal/molUSER        vdW + Hbond + desolv Energy     = -11.68 kcal/molUSER        Electrostatic Energy            =  -0.29 kcal/molUSER        Moving Ligand-Fixed Receptor    = -11.97 kcal/molUSER        Moving Ligand-Moving Receptor   =  +1.01 kcal/molUSER    (2) Final Total Internal Energy     =  -2.23 kcal/molUSER    (3) Torsional Free Energy           =  +4.47 kcal/molUSER    (4) Unbound System's Energy         =  -2.23 kcal/molUSERUSERREMARK SMILES COc1ccc(O)c(C(=O)c2ccc(CN[C@@H]3CCCNC[C@H]3NC(=O)c3ccncc3)cc2)c1FREMARK SMILES IDX 16 1 15 3 14 4 11 5 12 6 34 7 13 8 33 9 9 10 10 11 8 12 3 13REMARK SMILES IDX 4 14 35 15 5 16 6 17 36 18 2 19 1 20 7 21 17 23 18 24 23 26REMARK SMILES IDX 22 27 21 28 20 30 19 31 24 33 25 34 26 36 27 37 28 38 32 39REMARK SMILES IDX 29 40 31 41 30 42REMARK H PARENT 16 2 7 22 21 29 24 35REMARK Flexibility Score:   99.900USER                              x       y       z     vdW  Elec       q    TypeUSER                           _______ _______ _______ _____ _____    ______ ____ROOTATOM      1  N   UNL     1      37.438  43.839  19.838 -0.15 +0.02    -0.308 NA ATOM      2  H   UNL     1      38.264  43.843  19.235 +0.07 -0.01    +0.123 HD ENDROOTBRANCH   1   3ATOM      3  C   UNL     1      37.789  44.456  21.119 -0.34 +0.00    +0.117 C  BRANCH   3   4ATOM      4  C   UNL     1      39.164  45.077  21.135 -0.33 -0.00    -0.034 A  ATOM      5  C   UNL     1      41.725  46.239  21.187 -0.31 +0.00    +0.023 A  ATOM      6  C   UNL     1      40.820  46.493  22.222 -0.12 +0.00    +0.012 A  ATOM      7  C   UNL     1      41.340  45.426  20.114 -0.38 +0.00    +0.012 A  ATOM      8  C   UNL     1      39.552  45.908  22.198 -0.28 +0.00    +0.006 A  ATOM      9  C   UNL     1      40.071  44.844  20.092 -0.38 +0.00    +0.006 A  BRANCH   5  10ATOM     10  C   UNL     1      43.067  46.869  21.146 -0.31 +0.06    +0.199 C  ATOM     11  O   UNL     1      43.479  47.328  20.080 -0.38 -0.09    -0.288 OA BRANCH  10  12ATOM     12  C   UNL     1      43.923  47.032  22.341 -0.26 +0.04    +0.104 A  ATOM     13  C   UNL     1      45.706  46.269  23.818 -0.07 +0.05    +0.155 A  ATOM     14  C   UNL     1      45.512  47.390  24.627 -0.09 +0.01    +0.053 A  ATOM     15  C   UNL     1      44.911  46.104  22.674 -0.12 +0.11    +0.179 A  ATOM     16  C   UNL     1      44.550  48.344  24.283 -0.22 +0.01    +0.051 A  ATOM     17  C   UNL     1      43.775  48.172  23.140 -0.26 +0.03    +0.130 A  ATOM     18  F   UNL     1      45.133  45.042  21.882 -0.00 -0.22    -0.202 F  BRANCH  13  19ATOM     19  O   UNL     1      46.630  45.282  24.040 +0.01 -0.14    -0.494 OA ATOM     20  C   UNL     1      47.797  45.289  23.229 -0.05 +0.12    +0.278 C  ENDBRANCH  13  19BRANCH  17  21ATOM     21  O   UNL     1      42.881  49.171  22.855 -0.75 -0.20    -0.507 OA ATOM     22  H   UNL     1      42.915  49.335  21.884 -0.29 +0.01    +0.293 HD ENDBRANCH  17  21ENDBRANCH  10  12ENDBRANCH   5  10ENDBRANCH   3   4ENDBRANCH   1   3BRANCH   1  23ATOM     23  C   UNL     1      36.333  44.533  19.121 -0.36 -0.01    +0.077 C  BRANCH  23  24ATOM     24  C   UNL     1      35.080  43.660  19.264 -0.43 -0.00    +0.022 CG0ATOM     25  G   UNL     1      33.759  44.424  19.352 +0.00 +0.00    +0.000 G0 ENDBRANCH  23  24BRANCH  23  26ATOM     26  C   UNL     1      36.744  44.792  17.637 -0.32 -0.03    +0.113 C  BRANCH  26  27ATOM     27  C   UNL     1      35.567  45.355  16.803 -0.32 -0.06    +0.107 C  BRANCH  27  28ATOM     28  N   UNL     1      34.456  45.995  17.499 -0.20 +0.27    -0.315 NA ATOM     29  H   UNL     1      34.017  46.674  16.872 -0.34 -0.23    +0.122 HD BRANCH  28  30ATOM     30  C   UNL     1      33.416  45.135  18.044 -0.39 -0.04    +0.081 C  BRANCH  30  31ATOM     31  C   UNL     1      33.761  44.426  19.351 -0.46 -0.00    +0.017 CG0ATOM     32  G   UNL     1      35.081  43.660  19.282 +0.00 +0.00    +0.000 G0 ENDBRANCH  30  31ENDBRANCH  28  30ENDBRANCH  27  28ENDBRANCH  26  27BRANCH  26  33ATOM     33  N   UNL     1      37.876  45.740  17.597 -0.16 +0.10    -0.346 N  ATOM     34  C   UNL     1      38.403  46.181  16.403 -0.28 -0.08    +0.251 C  ATOM     35  H   UNL     1      38.194  46.123  18.475 +0.08 -0.03    +0.164 HD ATOM     36  O   UNL     1      38.045  45.756  15.312 -0.22 +0.09    -0.269 OA BRANCH  34  37ATOM     37  C   UNL     1      39.480  47.203  16.484 -0.45 -0.01    +0.042 A  ATOM     38  C   UNL     1      39.484  48.227  15.537 -0.51 -0.01    +0.034 A  ATOM     39  C   UNL     1      40.452  47.183  17.485 -0.48 -0.01    +0.034 A  ATOM     40  C   UNL     1      40.483  49.178  15.611 -0.53 -0.03    +0.112 A  ATOM     41  C   UNL     1      41.408  48.184  17.474 -0.37 -0.01    +0.112 A  ATOM     42  N   UNL     1      41.450  49.172  16.555 -0.94 -0.01    -0.265 NA ENDBRANCH  34  37ENDBRANCH  26  33ENDBRANCH  23  26ENDBRANCH   1  23TORSDOF 9TERENDMDL