MODEL        4USER    Run = 4USERUSER    Estimated Free Energy of Binding    = -13.04 kcal/mol  [=(1)+(2)+(3)-(4)]USERUSER    (1) Final Intermolecular Energy     = -14.83 kcal/molUSER        vdW + Hbond + desolv Energy     = -14.81 kcal/molUSER        Electrostatic Energy            =  -0.02 kcal/molUSER        Moving Ligand-Fixed Receptor    = -14.83 kcal/molUSER        Moving Ligand-Moving Receptor   =  +0.00 kcal/molUSER    (2) Final Total Internal Energy     =  -0.71 kcal/molUSER    (3) Torsional Free Energy           =  +1.79 kcal/molUSER    (4) Unbound System's Energy         =  -0.71 kcal/molUSERUSERREMARK SMILES Cn1ccc2ccc3c4[nH]c5c(CCCN[C@H]6CC[C@H](O)CC6)cccc5c4c4c(c3c21)C(=O)NC4=OREMARK SMILES IDX 15 1 14 2 13 3 12 4 2 5 3 6 32 7 4 8 31 9 5 10 30 11 8 12REMARK SMILES IDX 6 13 29 14 33 15 7 16 9 17 28 18 36 19 35 20 10 21 27 22REMARK SMILES IDX 11 23 26 24 25 25 24 26 1 27 34 28 37 29 16 32 17 34 23 35REMARK SMILES IDX 18 36 22 37 19 38 20 39 21 40REMARK H PARENT 35 30 10 31 16 33 21 41USER                              x       y       z     vdW  Elec       q    TypeUSER                           _______ _______ _______ _____ _____    ______ ____ROOTATOM      1  C   UNL     1      38.074  45.700  24.626 -0.29 +0.01    +0.081 C  ENDROOTBRANCH   1   2ATOM      2  C   UNL     1      38.331  45.294  23.172 -0.35 +0.00    +0.020 C  BRANCH   2   3ATOM      3  C   UNL     1      38.158  43.790  22.929 -0.35 +0.00    +0.039 C  BRANCH   3   4ATOM      4  C   UNL     1      37.367  43.453  21.689 -0.38 -0.00    -0.024 A  ATOM      5  N   UNL     1      39.394  48.133  14.674 -0.25 +0.12    -0.350 N  ATOM      6  C   UNL     1      40.487  48.918  14.390 -0.41 -0.02    +0.086 A  ATOM      7  C   UNL     1      39.589  47.435  15.860 -0.46 -0.02    +0.057 A  ATOM      8  C   UNL     1      41.304  48.910  15.489 -0.52 -0.00    +0.028 A  ATOM      9  C   UNL     1      38.868  46.382  16.537 -0.40 -0.01    +0.022 A  ATOM     10  C   UNL     1      40.713  48.046  16.447 -0.56 -0.00    +0.000 A  ATOM     11  C   UNL     1      37.887  45.519  16.022 -0.32 -0.02    +0.063 A  ATOM     12  C   UNL     1      39.211  46.185  17.912 -0.42 -0.00    +0.009 A  ATOM     13  C   UNL     1      41.070  47.738  17.770 -0.50 -0.00    +0.011 A  ATOM     14  C   UNL     1      37.170  44.626  16.826 -0.30 -0.02    +0.063 A  ATOM     15  C   UNL     1      37.487  45.202  14.640 -0.25 -0.09    +0.259 C  ATOM     16  C   UNL     1      40.290  46.854  18.509 -0.32 -0.00    +0.012 A  ATOM     17  C   UNL     1      38.453  45.269  18.707 -0.36 -0.01    +0.055 A  ATOM     18  C   UNL     1      37.408  44.489  18.196 -0.33 -0.00    +0.022 A  ATOM     19  C   UNL     1      36.253  43.880  15.966 -0.27 -0.09    +0.259 C  ATOM     20  N   UNL     1      36.417  44.370  14.713 -0.20 +0.11    -0.288 N  ATOM     21  N   UNL     1      38.552  44.948  20.043 -0.16 +0.01    -0.354 N  ATOM     22  C   UNL     1      36.872  43.712  19.278 -0.33 -0.00    +0.008 A  ATOM     23  C   UNL     1      37.608  44.024  20.422 -0.34 -0.00    +0.050 A  ATOM     24  C   UNL     1      35.829  42.771  19.402 -0.40 -0.00    +0.011 A  ATOM     25  C   UNL     1      35.562  42.183  20.642 -0.45 +0.00    +0.001 A  ATOM     26  C   UNL     1      36.318  42.519  21.760 -0.43 +0.00    +0.006 A  ATOM     27  C   UNL     1      38.163  48.293  13.928 -0.44 -0.06    +0.149 C  ATOM     28  O   UNL     1      38.060  45.516  13.617 -0.29 +0.08    -0.269 OA ATOM     29  O   UNL     1      35.526  42.959  16.275 -0.34 +0.10    -0.269 OA ATOM     30  H   UNL     1      36.044  43.898  13.904 +0.15 -0.06    +0.173 HD ATOM     31  H   UNL     1      39.218  45.356  20.681 +0.09 +0.00    +0.167 HD ENDBRANCH   3   4ENDBRANCH   2   3ENDBRANCH   1   2BRANCH   1  32ATOM     32  N   UNL     1      36.804  45.123  25.070 -0.47 -0.03    -0.314 NA ATOM     33  H   UNL     1      36.216  45.847  25.482 -0.48 -0.01    +0.122 HD BRANCH  32  34ATOM     34  C   UNL     1      36.982  44.019  26.024 -0.36 -0.00    +0.053 C  ATOM     35  C   UNL     1      36.240  44.248  27.358 -0.48 -0.00    +0.021 C  ATOM     36  C   UNL     1      36.513  42.732  25.315 -0.44 -0.00    +0.021 C  ATOM     37  C   UNL     1      34.853  43.608  27.369 -0.62 -0.01    +0.033 C  ATOM     38  C   UNL     1      36.135  41.655  26.322 -0.52 -0.01    +0.033 C  ATOM     39  C   UNL     1      34.940  42.089  27.176 -0.56 -0.03    +0.114 C  BRANCH  39  40ATOM     40  O   UNL     1      35.057  41.448  28.446 -0.28 +0.22    -0.393 OA ATOM     41  H   UNL     1      35.917  41.699  28.824 -0.42 -0.17    +0.210 HD ENDBRANCH  39  40ENDBRANCH  32  34ENDBRANCH   1  32TORSDOF 6TERENDMDL