MODEL        5USER    Run = 5USERUSER    Estimated Free Energy of Binding    =  -6.42 kcal/mol  [=(1)+(2)+(3)-(4)]USERUSER    (1) Final Intermolecular Energy     = -10.90 kcal/molUSER        vdW + Hbond + desolv Energy     = -11.39 kcal/molUSER        Electrostatic Energy            =  +0.02 kcal/molUSER        Moving Ligand-Fixed Receptor    = -11.37 kcal/molUSER        Moving Ligand-Moving Receptor   =  +0.47 kcal/molUSER    (2) Final Total Internal Energy     =  -3.19 kcal/molUSER    (3) Torsional Free Energy           =  +4.47 kcal/molUSER    (4) Unbound System's Energy         =  -3.19 kcal/molUSERUSERREMARK SMILES COc1ccc(O)c(C(=O)c2ccc(C(=O)O[C@@H]3CCCNC[C@H]3NC(=O)c3ccncc3)cc2)c1FREMARK SMILES IDX 17 1 15 2 16 3 14 4 11 5 12 6 35 7 13 8 34 9 9 10 10 11 8 12REMARK SMILES IDX 3 13 4 14 36 15 5 16 6 17 37 18 2 19 1 20 7 21 18 23 24 25REMARK SMILES IDX 23 26 22 27 21 29 20 30 19 31 25 33 26 34 27 36 28 37 29 38REMARK SMILES IDX 33 39 30 40 32 41 31 42REMARK H PARENT 7 22 22 28 25 35REMARK Flexibility Score:   99.900USER                              x       y       z     vdW  Elec       q    TypeUSER                           _______ _______ _______ _____ _____    ______ ____ROOTATOM      1  O   UNL     1      37.598  45.247  19.052 -0.10 +0.06    -0.457 OA ENDROOTBRANCH   1   2ATOM      2  C   UNL     1      37.059  44.232  19.773 -0.20 -0.03    +0.338 C  ATOM      3  O   UNL     1      37.465  43.795  20.841 -0.27 -0.00    -0.246 OA BRANCH   2   4ATOM      4  C   UNL     1      35.838  43.731  19.094 -0.33 -0.01    +0.060 A  ATOM      5  C   UNL     1      33.496  42.769  17.882 -0.34 -0.01    +0.023 A  ATOM      6  C   UNL     1      34.646  42.992  17.113 -0.38 -0.00    +0.013 A  ATOM      7  C   UNL     1      33.526  43.026  19.260 -0.40 -0.00    +0.013 A  ATOM      8  C   UNL     1      35.813  43.471  17.718 -0.32 -0.00    +0.016 A  ATOM      9  C   UNL     1      34.694  43.495  19.867 -0.40 -0.00    +0.016 A  BRANCH   5  10ATOM     10  C   UNL     1      32.221  42.286  17.284 -0.24 -0.07    +0.199 C  ATOM     11  O   UNL     1      31.932  41.094  17.292 -0.22 +0.11    -0.288 OA BRANCH  10  12ATOM     12  C   UNL     1      31.280  43.228  16.666 -0.24 -0.04    +0.104 A  ATOM     13  C   UNL     1      30.898  45.060  15.123 -0.31 -0.09    +0.155 A  ATOM     14  C   UNL     1      29.550  45.079  15.503 -0.30 -0.03    +0.053 A  ATOM     15  C   UNL     1      31.759  44.131  15.719 -0.23 -0.09    +0.179 A  ATOM     16  C   UNL     1      29.066  44.161  16.443 -0.25 -0.02    +0.051 A  ATOM     17  C   UNL     1      29.930  43.231  17.017 -0.18 -0.03    +0.130 A  ATOM     18  F   UNL     1      33.046  44.082  15.340 -0.06 +0.11    -0.202 F  BRANCH  13  19ATOM     19  O   UNL     1      31.469  45.872  14.179 -0.23 +0.34    -0.494 OA ATOM     20  C   UNL     1      30.624  46.377  13.153 -0.44 -0.17    +0.278 C  ENDBRANCH  13  19BRANCH  17  21ATOM     21  O   UNL     1      29.460  42.319  17.918 +0.03 +0.07    -0.507 OA ATOM     22  H   UNL     1      29.938  41.479  17.823 +0.17 -0.04    +0.293 HD ENDBRANCH  17  21ENDBRANCH  10  12ENDBRANCH   5  10ENDBRANCH   2   4ENDBRANCH   1   2BRANCH   1  23ATOM     23  C   UNL     1      39.047  45.311  19.002 -0.33 -0.02    +0.200 CG0ATOM     24  G   UNL     1      39.530  45.662  20.409 +0.00 +0.00    +0.000 G0 BRANCH  23  25ATOM     25  C   UNL     1      39.418  46.351  17.925 -0.39 -0.02    +0.137 C  BRANCH  25  26ATOM     26  C   UNL     1      40.773  46.101  17.232 -0.42 -0.01    +0.109 C  BRANCH  26  27ATOM     27  N   UNL     1      41.896  45.913  18.153 -0.19 -0.01    -0.315 NA ATOM     28  H   UNL     1      42.744  46.247  17.694 -0.42 -0.03    +0.122 HD BRANCH  27  29ATOM     29  C   UNL     1      41.777  46.578  19.454 -0.47 +0.01    +0.081 C  BRANCH  29  30ATOM     30  C   UNL     1      41.042  45.838  20.580 -0.40 +0.00    +0.019 C  BRANCH  30  31ATOM     31  C   UNL     1      39.529  45.662  20.409 -0.33 +0.00    +0.049 CG0ATOM     32  G   UNL     1      39.040  45.311  19.004 +0.00 +0.00    +0.000 G0 ENDBRANCH  30  31ENDBRANCH  29  30ENDBRANCH  27  29ENDBRANCH  26  27ENDBRANCH  25  26BRANCH  25  33ATOM     33  N   UNL     1      38.343  46.414  16.926 -0.18 +0.12    -0.344 N  ATOM     34  C   UNL     1      38.419  47.217  15.815 -0.31 -0.11    +0.251 C  ATOM     35  H   UNL     1      37.703  45.631  16.919 +0.11 -0.06    +0.164 HD ATOM     36  O   UNL     1      39.350  47.978  15.583 -0.33 +0.10    -0.269 OA BRANCH  34  37ATOM     37  C   UNL     1      37.289  47.113  14.863 -0.40 -0.02    +0.042 A  ATOM     38  C   UNL     1      36.165  46.379  15.238 -0.36 -0.03    +0.034 A  ATOM     39  C   UNL     1      37.350  47.698  13.599 -0.53 -0.01    +0.034 A  ATOM     40  C   UNL     1      35.126  46.282  14.332 -0.32 -0.09    +0.112 A  ATOM     41  C   UNL     1      36.259  47.535  12.764 -0.56 -0.06    +0.112 A  ATOM     42  N   UNL     1      35.147  46.847  13.105 -0.32 +0.19    -0.265 NA ENDBRANCH  34  37ENDBRANCH  25  33ENDBRANCH  23  25ENDBRANCH   1  23TORSDOF 9TERENDMDL