MODEL        10USER    Run = 10USERUSER    Estimated Free Energy of Binding    =  -6.88 kcal/mol  [=(1)+(2)+(3)-(4)]USERUSER    (1) Final Intermolecular Energy     = -11.35 kcal/molUSER        vdW + Hbond + desolv Energy     = -11.65 kcal/molUSER        Electrostatic Energy            =  -0.04 kcal/molUSER        Moving Ligand-Fixed Receptor    = -11.70 kcal/molUSER        Moving Ligand-Moving Receptor   =  +0.34 kcal/molUSER    (2) Final Total Internal Energy     =  -2.20 kcal/molUSER    (3) Torsional Free Energy           =  +4.47 kcal/molUSER    (4) Unbound System's Energy         =  -2.20 kcal/molUSERUSERREMARK SMILES COc1ccc(O)c(C(=O)c2ccc(CN[C@@H]3CCCNC[C@H]3NC(=O)c3ccncc3)cc2)c1FREMARK SMILES IDX 16 1 15 3 14 4 11 5 12 6 34 7 13 8 33 9 9 10 10 11 8 12 3 13REMARK SMILES IDX 4 14 35 15 5 16 6 17 36 18 2 19 1 20 7 21 17 23 18 24 23 26REMARK SMILES IDX 22 27 21 28 20 30 19 31 24 33 25 34 26 36 27 37 28 38 32 39REMARK SMILES IDX 29 40 31 41 30 42REMARK H PARENT 16 2 7 22 21 29 24 35REMARK Flexibility Score:   99.900USER                              x       y       z     vdW  Elec       q    TypeUSER                           _______ _______ _______ _____ _____    ______ ____ROOTATOM      1  N   UNL     1      35.629  42.097  17.445 -0.15 +0.11    -0.308 NA ATOM      2  H   UNL     1      36.529  42.558  17.595 +0.10 -0.03    +0.123 HD ENDROOTBRANCH   1   3ATOM      3  C   UNL     1      34.799  42.288  18.636 -0.39 -0.02    +0.117 C  BRANCH   3   4ATOM      4  C   UNL     1      35.582  42.698  19.860 -0.42 +0.00    -0.034 A  ATOM      5  C   UNL     1      37.043  43.441  22.146 -0.38 +0.00    +0.023 A  ATOM      6  C   UNL     1      36.447  42.177  22.076 -0.49 +0.00    +0.012 A  ATOM      7  C   UNL     1      36.886  44.340  21.085 -0.35 +0.00    +0.012 A  ATOM      8  C   UNL     1      35.729  41.808  20.935 -0.44 +0.00    +0.006 A  ATOM      9  C   UNL     1      36.166  43.969  19.947 -0.41 -0.00    +0.006 A  BRANCH   5  10ATOM     10  C   UNL     1      37.779  43.894  23.350 -0.26 +0.02    +0.199 C  ATOM     11  O   UNL     1      38.868  44.455  23.209 -0.14 -0.02    -0.288 OA BRANCH  10  12ATOM     12  C   UNL     1      37.248  43.764  24.723 -0.27 +0.01    +0.104 A  ATOM     13  C   UNL     1      36.453  42.416  26.594 -0.33 -0.03    +0.155 A  ATOM     14  C   UNL     1      36.229  43.579  27.333 -0.41 -0.01    +0.053 A  ATOM     15  C   UNL     1      36.969  42.521  25.293 -0.26 -0.01    +0.179 A  ATOM     16  C   UNL     1      36.537  44.828  26.786 -0.31 -0.01    +0.051 A  ATOM     17  C   UNL     1      37.058  44.915  25.497 -0.26 +0.00    +0.130 A  ATOM     18  F   UNL     1      37.217  41.393  24.606 -0.07 +0.01    -0.202 F  BRANCH  13  19ATOM     19  O   UNL     1      36.211  41.141  27.030 -0.22 +0.17    -0.494 OA ATOM     20  C   UNL     1      34.885  40.647  26.896 -0.39 -0.14    +0.278 C  ENDBRANCH  13  19BRANCH  17  21ATOM     21  O   UNL     1      37.367  46.173  25.050 -0.68 -0.09    -0.507 OA ATOM     22  H   UNL     1      38.112  46.089  24.411 +0.14 +0.05    +0.293 HD ENDBRANCH  17  21ENDBRANCH  10  12ENDBRANCH   5  10ENDBRANCH   3   4ENDBRANCH   1   3BRANCH   1  23ATOM     23  C   UNL     1      35.026  42.646  16.199 -0.40 -0.03    +0.077 C  BRANCH  23  24ATOM     24  C   UNL     1      36.152  43.327  15.411 -0.43 -0.01    +0.022 CG0ATOM     25  G   UNL     1      36.836  44.493  16.123 +0.00 +0.00    +0.000 G0 ENDBRANCH  23  24BRANCH  23  26ATOM     26  C   UNL     1      33.849  43.607  16.559 -0.32 -0.05    +0.113 C  BRANCH  26  27ATOM     27  C   UNL     1      33.893  44.910  15.723 -0.31 -0.07    +0.107 C  BRANCH  27  28ATOM     28  N   UNL     1      34.796  45.980  16.136 -0.10 +0.33    -0.315 NA ATOM     29  H   UNL     1      34.718  46.107  17.148 +0.04 -0.12    +0.122 HD BRANCH  28  30ATOM     30  C   UNL     1      36.204  45.842  15.797 -0.36 -0.05    +0.081 C  BRANCH  30  31ATOM     31  C   UNL     1      36.837  44.493  16.126 -0.40 -0.01    +0.017 CG0ATOM     32  G   UNL     1      36.155  43.327  15.412 +0.00 +0.00    +0.000 G0 ENDBRANCH  30  31ENDBRANCH  28  30ENDBRANCH  27  28ENDBRANCH  26  27BRANCH  26  33ATOM     33  N   UNL     1      32.563  42.918  16.332 -0.12 +0.17    -0.346 N  ATOM     34  C   UNL     1      31.361  43.581  16.450 -0.20 -0.09    +0.251 C  ATOM     35  H   UNL     1      32.597  41.965  16.001 -0.49 -0.14    +0.164 HD ATOM     36  O   UNL     1      31.267  44.739  16.837 -0.67 +0.05    -0.269 OA BRANCH  34  37ATOM     37  C   UNL     1      30.136  42.811  16.111 -0.28 -0.02    +0.042 A  ATOM     38  C   UNL     1      30.246  41.426  15.985 -0.34 -0.01    +0.034 A  ATOM     39  C   UNL     1      28.893  43.423  15.950 -0.23 -0.02    +0.034 A  ATOM     40  C   UNL     1      29.108  40.709  15.671 -0.34 -0.02    +0.112 A  ATOM     41  C   UNL     1      27.813  42.615  15.639 -0.14 -0.07    +0.112 A  ATOM     42  N   UNL     1      27.896  41.277  15.487 -0.19 +0.11    -0.265 NA ENDBRANCH  34  37ENDBRANCH  26  33ENDBRANCH  23  26ENDBRANCH   1  23TORSDOF 9TERENDMDL