MODEL        5USER    Run = 5USERUSER    Estimated Free Energy of Binding    =  -7.06 kcal/mol  [=(1)+(2)+(3)-(4)]USERUSER    (1) Final Intermolecular Energy     = -11.23 kcal/molUSER        vdW + Hbond + desolv Energy     = -11.44 kcal/molUSER        Electrostatic Energy            =  -0.16 kcal/molUSER        Moving Ligand-Fixed Receptor    = -11.60 kcal/molUSER        Moving Ligand-Moving Receptor   =  +0.37 kcal/molUSER    (2) Final Total Internal Energy     =  -2.80 kcal/molUSER    (3) Torsional Free Energy           =  +4.18 kcal/molUSER    (4) Unbound System's Energy         =  -2.80 kcal/molUSERUSERREMARK SMILES COc1ccc(O)c(C(=O)c2ccc(C(=O)N[C@@H]3CCCNC[C@H]3NC(=O)c3ccncc3)cc2)c1FREMARK SMILES IDX 15 1 16 2 17 3 14 5 11 6 12 7 35 8 13 9 34 10 9 11 10 12REMARK SMILES IDX 8 13 3 14 4 15 36 16 5 17 6 18 37 19 2 20 1 21 7 22 18 24REMARK SMILES IDX 19 25 24 27 23 28 22 29 21 31 20 32 25 34 26 35 27 37 28 38REMARK SMILES IDX 29 39 33 40 30 41 32 42 31 43REMARK H PARENT 17 4 7 23 22 30 25 36REMARK Flexibility Score:   88.900USER                              x       y       z     vdW  Elec       q    TypeUSER                           _______ _______ _______ _____ _____    ______ ____ROOTATOM      1  C   UNL     1      38.935  43.389  22.837 -0.19 +0.01    +0.251 C  ATOM      2  O   UNL     1      38.718  42.186  22.754 -0.22 -0.03    -0.269 OA ATOM      3  N   UNL     1      38.692  44.127  23.978 -0.06 -0.02    -0.347 N  ATOM      4  H   UNL     1      38.700  45.135  23.903 +0.08 +0.01    +0.164 HD ENDROOTBRANCH   1   5ATOM      5  C   UNL     1      39.418  44.150  21.650 -0.27 +0.00    +0.039 A  ATOM      6  C   UNL     1      40.412  45.474  19.388 -0.42 +0.00    +0.023 A  ATOM      7  C   UNL     1      41.270  44.711  20.186 -0.36 +0.00    +0.013 A  ATOM      8  C   UNL     1      39.057  45.577  19.722 -0.34 -0.00    +0.013 A  ATOM      9  C   UNL     1      40.776  44.060  21.321 -0.30 +0.00    +0.014 A  ATOM     10  C   UNL     1      38.561  44.924  20.859 -0.33 +0.00    +0.014 A  BRANCH   6  11ATOM     11  C   UNL     1      40.965  46.077  18.156 -0.41 -0.01    +0.199 C  ATOM     12  O   UNL     1      42.173  45.957  17.944 -0.19 +0.00    -0.288 OA BRANCH  11  13ATOM     13  C   UNL     1      40.149  46.774  17.134 -0.42 -0.02    +0.104 A  ATOM     14  C   UNL     1      38.170  46.948  15.716 -0.31 -0.07    +0.155 A  ATOM     15  C   UNL     1      38.644  48.157  15.200 -0.48 -0.03    +0.053 A  ATOM     16  C   UNL     1      38.929  46.268  16.684 -0.29 -0.05    +0.179 A  ATOM     17  C   UNL     1      39.850  48.688  15.663 -0.53 -0.02    +0.051 A  ATOM     18  C   UNL     1      40.586  48.008  16.631 -0.44 -0.02    +0.130 A  ATOM     19  F   UNL     1      38.441  45.126  17.196 -0.08 +0.04    -0.202 F  BRANCH  14  20ATOM     20  O   UNL     1      36.999  46.338  15.354 -0.05 +0.28    -0.494 OA ATOM     21  C   UNL     1      36.370  46.795  14.160 -0.31 -0.18    +0.278 C  ENDBRANCH  14  20BRANCH  18  22ATOM     22  O   UNL     1      41.740  48.620  17.047 -0.65 -0.04    -0.507 OA ATOM     23  H   UNL     1      42.437  47.925  17.105 -0.31 -0.02    +0.293 HD ENDBRANCH  18  22ENDBRANCH  11  13ENDBRANCH   6  11ENDBRANCH   1   5BRANCH   3  24ATOM     24  C   UNL     1      37.960  43.544  25.109 -0.25 +0.00    +0.106 C  BRANCH  24  25ATOM     25  C   UNL     1      36.646  42.925  24.614 -0.41 +0.00    +0.028 CG0ATOM     26  G   UNL     1      35.790  42.231  25.685 +0.00 +0.00    +0.000 G0 ENDBRANCH  24  25BRANCH  24  27ATOM     27  C   UNL     1      37.775  44.599  26.237 -0.26 -0.01    +0.118 C  BRANCH  27  28ATOM     28  C   UNL     1      37.689  44.017  27.668 -0.32 -0.02    +0.108 C  BRANCH  28  29ATOM     29  N   UNL     1      36.630  43.037  27.929 -0.12 +0.10    -0.315 NA ATOM     30  H   UNL     1      37.034  42.107  28.018 -0.11 -0.04    +0.122 HD BRANCH  29  31ATOM     31  C   UNL     1      35.530  43.007  26.973 -0.52 -0.02    +0.081 C  BRANCH  31  32ATOM     32  C   UNL     1      35.786  42.230  25.684 -0.31 -0.00    +0.017 CG0ATOM     33  G   UNL     1      36.643  42.923  24.613 +0.00 +0.00    +0.000 G0 ENDBRANCH  31  32ENDBRANCH  29  31ENDBRANCH  28  29ENDBRANCH  27  28BRANCH  27  34ATOM     34  N   UNL     1      38.822  45.624  26.146 -0.06 -0.00    -0.346 N  ATOM     35  C   UNL     1      38.670  46.742  25.359 -0.19 +0.02    +0.251 C  ATOM     36  H   UNL     1      39.521  45.632  26.873 +0.05 +0.00    +0.164 HD ATOM     37  O   UNL     1      37.714  46.925  24.617 -0.66 -0.06    -0.269 OA BRANCH  35  38ATOM     38  C   UNL     1      39.732  47.773  25.466 -0.24 +0.00    +0.042 A  ATOM     39  C   UNL     1      40.654  47.883  24.425 -0.27 +0.00    +0.034 A  ATOM     40  C   UNL     1      39.846  48.604  26.582 -0.24 +0.00    +0.034 A  ATOM     41  C   UNL     1      41.642  48.842  24.533 -0.32 +0.02    +0.112 A  ATOM     42  C   UNL     1      40.872  49.531  26.594 -0.16 +0.02    +0.112 A  ATOM     43  N   UNL     1      41.769  49.671  25.591 -0.18 -0.04    -0.265 NA ENDBRANCH  35  38ENDBRANCH  27  34ENDBRANCH  24  27ENDBRANCH   3  24TORSDOF 8TERENDMDL