MODEL        5USER    Run = 5USERUSER    Estimated Free Energy of Binding    = -12.99 kcal/mol  [=(1)+(2)+(3)-(4)]USERUSER    (1) Final Intermolecular Energy     = -14.78 kcal/molUSER        vdW + Hbond + desolv Energy     = -14.71 kcal/molUSER        Electrostatic Energy            =  -0.08 kcal/molUSER        Moving Ligand-Fixed Receptor    = -14.78 kcal/molUSER        Moving Ligand-Moving Receptor   =  +0.00 kcal/molUSER    (2) Final Total Internal Energy     =  -1.81 kcal/molUSER    (3) Torsional Free Energy           =  +1.79 kcal/molUSER    (4) Unbound System's Energy         =  -1.81 kcal/molUSERUSERREMARK SMILES Oc1nc2ccccc2n1C1CCN(Cc2ccc(-c3nc4ccccc4nc3-c3ccccc3)cc2)CC1REMARK SMILES IDX 11 1 12 2 13 3 14 4 38 5 39 6 10 7 2 8 3 9 4 10 9 11 5 12REMARK SMILES IDX 8 13 6 14 7 15 1 16 15 18 16 19 17 20 37 21 18 22 36 23REMARK SMILES IDX 19 24 20 25 21 26 29 27 22 28 28 29 23 30 27 31 24 32 26 33REMARK SMILES IDX 25 34 30 35 31 36 35 37 32 38 34 39 33 40REMARK H PARENT 1 17USER                              x       y       z     vdW  Elec       q    TypeUSER                           _______ _______ _______ _____ _____    ______ ____ROOTATOM      1  C   UNL     1      38.924  47.409  15.464 -0.47 -0.03    +0.095 C  ATOM      2  C   UNL     1      37.800  46.866  16.363 -0.41 -0.02    +0.041 C  ATOM      3  C   UNL     1      36.418  47.274  15.854 -0.30 -0.09    +0.087 C  ATOM      4  N   UNL     1      36.256  47.135  14.403 -0.21 +0.23    -0.299 NA ATOM      5  C   UNL     1      37.264  47.890  13.642 -0.56 -0.04    +0.087 C  ATOM      6  C   UNL     1      38.410  48.466  14.480 -0.56 -0.02    +0.041 C  ENDROOTBRANCH   1   7ATOM      7  N   UNL     1      40.081  47.856  16.225 -0.30 +0.07    -0.291 N  ATOM      8  C   UNL     1      40.792  49.006  16.023 -0.34 -0.06    +0.295 A  ATOM      9  N   UNL     1      41.779  49.159  16.861 -0.88 -0.04    -0.195 NA ATOM     10  C   UNL     1      41.712  48.052  17.671 -0.35 -0.00    +0.092 A  ATOM     11  C   UNL     1      40.656  47.215  17.304 -0.47 -0.01    +0.072 A  ATOM     12  C   UNL     1      42.528  47.696  18.756 -0.51 +0.00    +0.031 A  ATOM     13  C   UNL     1      40.370  46.023  17.984 -0.46 -0.00    +0.029 A  ATOM     14  C   UNL     1      42.258  46.508  19.446 -0.45 +0.00    +0.002 A  ATOM     15  C   UNL     1      41.196  45.688  19.064 -0.46 +0.00    +0.002 A  BRANCH   8  16ATOM     16  O   UNL     1      40.526  49.900  15.092 -0.20 +0.21    -0.480 OA ATOM     17  H   UNL     1      39.784  50.385  15.498 -0.20 -0.22    +0.296 HD ENDBRANCH   8  16ENDBRANCH   1   7BRANCH   4  18ATOM     18  C   UNL     1      36.160  45.740  13.940 -0.41 -0.06    +0.120 C  BRANCH  18  19ATOM     19  C   UNL     1      35.466  44.817  14.918 -0.22 +0.02    -0.034 A  ATOM     20  C   UNL     1      34.176  45.102  15.378 -0.30 -0.00    +0.006 A  ATOM     21  C   UNL     1      36.112  43.667  15.391 -0.38 -0.00    +0.006 A  ATOM     22  C   UNL     1      33.539  44.242  16.279 -0.32 -0.01    +0.011 A  ATOM     23  C   UNL     1      35.472  42.809  16.289 -0.44 -0.00    +0.011 A  ATOM     24  C   UNL     1      34.167  43.072  16.738 -0.38 -0.00    +0.002 A  BRANCH  24  25ATOM     25  C   UNL     1      33.472  42.170  17.671 -0.32 -0.03    +0.097 A  ATOM     26  N   UNL     1      32.379  41.557  17.130 -0.05 +0.11    -0.244 NA ATOM     27  C   UNL     1      33.846  41.945  19.005 -0.29 -0.01    +0.097 A  ATOM     28  C   UNL     1      31.656  40.758  17.934 -0.32 -0.02    +0.089 A  ATOM     29  N   UNL     1      33.099  41.142  19.817 -0.06 -0.06    -0.244 NA ATOM     30  C   UNL     1      30.527  40.121  17.431 -0.34 -0.00    +0.030 A  ATOM     31  C   UNL     1      32.016  40.552  19.284 -0.29 +0.01    +0.089 A  ATOM     32  C   UNL     1      29.746  39.286  18.231 -0.35 +0.00    +0.002 A  ATOM     33  C   UNL     1      31.232  39.719  20.073 -0.30 +0.00    +0.030 A  ATOM     34  C   UNL     1      30.101  39.085  19.559 -0.33 +0.00    +0.002 A  BRANCH  27  35ATOM     35  C   UNL     1      35.045  42.503  19.658 -0.44 -0.00    +0.002 A  ATOM     36  C   UNL     1      35.457  43.818  19.380 -0.38 -0.00    +0.010 A  ATOM     37  C   UNL     1      35.794  41.768  20.595 -0.41 -0.00    +0.010 A  ATOM     38  C   UNL     1      36.588  44.369  19.990 -0.37 -0.00    +0.001 A  ATOM     39  C   UNL     1      36.927  42.315  21.204 -0.47 +0.00    +0.001 A  ATOM     40  C   UNL     1      37.325  43.614  20.899 -0.39 +0.00    +0.000 A  ENDBRANCH  27  35ENDBRANCH  24  25ENDBRANCH  18  19ENDBRANCH   4  18TORSDOF 6TERENDMDL