MODEL        7USER    Run = 7USERUSER    Estimated Free Energy of Binding    = -12.27 kcal/mol  [=(1)+(2)+(3)-(4)]USERUSER    (1) Final Intermolecular Energy     = -14.06 kcal/molUSER        vdW + Hbond + desolv Energy     = -13.81 kcal/molUSER        Electrostatic Energy            =  -0.25 kcal/molUSER        Moving Ligand-Fixed Receptor    = -14.06 kcal/molUSER        Moving Ligand-Moving Receptor   =  +0.00 kcal/molUSER    (2) Final Total Internal Energy     =  -2.05 kcal/molUSER    (3) Torsional Free Energy           =  +1.79 kcal/molUSER    (4) Unbound System's Energy         =  -2.05 kcal/molUSERUSERREMARK SMILES Oc1nc2ccccc2n1C1CCN(Cc2ccc(-c3cc4ccccc4nc3-c3ccccc3)cc2)CC1REMARK SMILES IDX 11 1 12 2 13 3 14 4 38 5 39 6 10 7 2 8 3 9 4 10 9 11 5 12REMARK SMILES IDX 8 13 6 14 7 15 1 16 15 18 16 19 17 20 37 21 18 22 36 23REMARK SMILES IDX 19 24 20 25 21 26 29 27 22 28 28 29 23 30 27 31 24 32 26 33REMARK SMILES IDX 25 34 30 35 31 36 35 37 32 38 34 39 33 40REMARK H PARENT 1 17USER                              x       y       z     vdW  Elec       q    TypeUSER                           _______ _______ _______ _____ _____    ______ ____ROOTATOM      1  C   UNL     1      26.036  41.540  17.056 -0.25 -0.01    +0.095 C  ATOM      2  C   UNL     1      27.566  41.565  17.182 -0.23 -0.01    +0.041 C  ATOM      3  C   UNL     1      28.137  42.872  17.722 -0.19 -0.01    +0.087 C  ATOM      4  N   UNL     1      27.565  44.074  17.111 -0.11 +0.04    -0.299 NA ATOM      5  C   UNL     1      26.112  44.108  17.297 -0.39 -0.00    +0.087 C  ATOM      6  C   UNL     1      25.376  42.891  16.742 -0.35 -0.00    +0.041 C  ENDROOTBRANCH   1   7ATOM      7  N   UNL     1      25.362  40.768  18.099 -0.11 +0.02    -0.291 N  ATOM      8  C   UNL     1      24.954  39.466  17.930 -0.14 -0.03    +0.295 A  ATOM      9  N   UNL     1      24.348  38.967  18.969 -0.27 +0.10    -0.195 NA ATOM     10  C   UNL     1      24.357  39.986  19.883 -0.28 -0.03    +0.092 A  ATOM     11  C   UNL     1      24.993  41.129  19.378 -0.27 -0.01    +0.072 A  ATOM     12  C   UNL     1      23.828  39.992  21.185 -0.35 -0.01    +0.031 A  ATOM     13  C   UNL     1      25.124  42.286  20.157 -0.44 -0.01    +0.029 A  ATOM     14  C   UNL     1      23.952  41.146  21.963 -0.55 -0.00    +0.002 A  ATOM     15  C   UNL     1      24.592  42.272  21.453 -0.61 -0.00    +0.002 A  BRANCH   8  16ATOM     16  O   UNL     1      25.137  38.752  16.838 -0.76 -0.06    -0.480 OA ATOM     17  H   UNL     1      24.239  38.404  16.690 -0.23 -0.16    +0.296 HD ENDBRANCH   8  16ENDBRANCH   1   7BRANCH   4  18ATOM     18  C   UNL     1      27.993  44.245  15.712 -0.24 -0.06    +0.120 C  BRANCH  18  19ATOM     19  C   UNL     1      29.470  44.542  15.572 -0.28 +0.02    -0.034 A  ATOM     20  C   UNL     1      30.406  43.506  15.469 -0.31 -0.00    +0.006 A  ATOM     21  C   UNL     1      29.924  45.867  15.543 -0.34 -0.00    +0.006 A  ATOM     22  C   UNL     1      31.769  43.791  15.341 -0.36 -0.00    +0.009 A  ATOM     23  C   UNL     1      31.287  46.149  15.424 -0.42 -0.01    +0.009 A  ATOM     24  C   UNL     1      32.230  45.116  15.327 -0.38 +0.01    -0.016 A  BRANCH  24  25ATOM     25  C   UNL     1      33.663  45.415  15.193 -0.27 -0.01    +0.009 A  ATOM     26  C   UNL     1      34.096  46.227  14.134 -0.18 -0.02    +0.021 A  ATOM     27  C   UNL     1      34.644  44.964  16.091 -0.26 -0.05    +0.079 A  ATOM     28  C   UNL     1      35.446  46.574  13.998 -0.45 -0.00    +0.001 A  ATOM     29  N   UNL     1      35.960  45.306  15.978 -0.17 +0.14    -0.247 NA ATOM     30  C   UNL     1      35.901  47.388  12.946 -0.59 -0.01    +0.010 A  ATOM     31  C   UNL     1      36.349  46.085  14.958 -0.34 -0.04    +0.071 A  ATOM     32  C   UNL     1      37.250  47.719  12.842 -0.51 -0.00    +0.001 A  ATOM     33  C   UNL     1      37.689  46.431  14.834 -0.39 -0.01    +0.029 A  ATOM     34  C   UNL     1      38.148  47.239  13.790 -0.49 -0.00    +0.002 A  BRANCH  27  35ATOM     35  C   UNL     1      34.367  44.082  17.240 -0.30 -0.00    +0.001 A  ATOM     36  C   UNL     1      33.827  44.607  18.428 -0.37 -0.00    +0.010 A  ATOM     37  C   UNL     1      34.649  42.705  17.200 -0.40 -0.00    +0.010 A  ATOM     38  C   UNL     1      33.556  43.783  19.524 -0.43 -0.00    +0.001 A  ATOM     39  C   UNL     1      34.379  41.880  18.295 -0.39 -0.00    +0.001 A  ATOM     40  C   UNL     1      33.829  42.419  19.456 -0.39 +0.00    +0.000 A  ENDBRANCH  27  35ENDBRANCH  24  25ENDBRANCH  18  19ENDBRANCH   4  18TORSDOF 6TERENDMDL