MODEL        8USER    Run = 8USERUSER    Estimated Free Energy of Binding    =  -6.69 kcal/mol  [=(1)+(2)+(3)-(4)]USERUSER    (1) Final Intermolecular Energy     = -11.17 kcal/molUSER        vdW + Hbond + desolv Energy     = -12.02 kcal/molUSER        Electrostatic Energy            =  -0.40 kcal/molUSER        Moving Ligand-Fixed Receptor    = -12.41 kcal/molUSER        Moving Ligand-Moving Receptor   =  +1.25 kcal/molUSER    (2) Final Total Internal Energy     =  -2.46 kcal/molUSER    (3) Torsional Free Energy           =  +4.47 kcal/molUSER    (4) Unbound System's Energy         =  -2.46 kcal/molUSERUSERREMARK SMILES COc1ccc(O)c(C(=O)c2ccc(CO[C@@H]3CCCNC[C@@H]3NC(=O)c3ccncc3)cc2)c1FREMARK SMILES IDX 16 1 15 2 14 3 11 4 12 5 34 6 13 7 33 8 9 9 10 10 8 11 3 12REMARK SMILES IDX 4 13 35 14 5 15 6 16 36 17 2 18 1 19 7 20 17 22 18 23 23 25REMARK SMILES IDX 22 26 21 27 20 29 19 30 24 32 25 33 26 35 27 36 28 37 32 38REMARK SMILES IDX 29 39 31 40 30 41REMARK H PARENT 7 21 21 28 24 34REMARK Flexibility Score:   99.900USER                              x       y       z     vdW  Elec       q    TypeUSER                           _______ _______ _______ _____ _____    ______ ____ROOTATOM      1  O   UNL     1      39.006  46.110  15.188 -0.19 +0.09    -0.371 OA ENDROOTBRANCH   1   2ATOM      2  C   UNL     1      39.470  47.213  15.964 -0.40 -0.05    +0.196 C  BRANCH   2   3ATOM      3  C   UNL     1      39.831  46.704  17.336 -0.46 +0.00    -0.022 A  ATOM      4  C   UNL     1      40.534  45.745  19.882 -0.38 +0.00    +0.023 A  ATOM      5  C   UNL     1      41.399  46.601  19.194 -0.46 +0.00    +0.012 A  ATOM      6  C   UNL     1      39.305  45.395  19.312 -0.40 -0.00    +0.012 A  ATOM      7  C   UNL     1      41.050  47.071  17.926 -0.53 -0.00    +0.007 A  ATOM      8  C   UNL     1      38.958  45.867  18.044 -0.41 -0.00    +0.007 A  BRANCH   4   9ATOM      9  C   UNL     1      40.846  45.248  21.243 -0.25 +0.02    +0.199 C  ATOM     10  O   UNL     1      39.929  45.123  22.060 -0.15 -0.02    -0.288 OA BRANCH   9  11ATOM     11  C   UNL     1      42.219  44.951  21.703 -0.22 +0.02    +0.104 A  ATOM     12  C   UNL     1      44.528  45.612  22.122 -0.09 +0.11    +0.155 A  ATOM     13  C   UNL     1      44.805  44.331  22.605 -0.18 +0.02    +0.053 A  ATOM     14  C   UNL     1      43.234  45.907  21.668 -0.17 +0.07    +0.179 A  ATOM     15  C   UNL     1      43.805  43.355  22.613 -0.26 +0.01    +0.051 A  ATOM     16  C   UNL     1      42.526  43.660  22.153 -0.25 +0.01    +0.130 A  ATOM     17  F   UNL     1      42.989  47.131  21.173 -0.12 -0.05    -0.202 F  BRANCH  12  18ATOM     18  O   UNL     1      45.427  46.642  22.050 -0.62 -0.58    -0.494 OA ATOM     19  C   UNL     1      45.698  47.358  23.248 -0.14 +0.12    +0.278 C  ENDBRANCH  12  18BRANCH  16  20ATOM     20  O   UNL     1      41.615  42.639  22.167 -0.17 +0.01    -0.507 OA ATOM     21  H   UNL     1      40.716  43.038  22.221 +0.15 +0.01    +0.293 HD ENDBRANCH  16  20ENDBRANCH   9  11ENDBRANCH   4   9ENDBRANCH   2   3ENDBRANCH   1   2BRANCH   1  22ATOM     22  C   UNL     1      38.547  46.487  13.871 -0.33 -0.04    +0.142 C  BRANCH  22  23ATOM     23  C   UNL     1      38.314  48.002  13.961 -0.56 -0.01    +0.035 CG0ATOM     24  G   UNL     1      36.896  48.547  13.837 +0.00 +0.00    +0.000 G0 ENDBRANCH  22  23BRANCH  22  25ATOM     25  C   UNL     1      37.313  45.633  13.495 -0.44 -0.04    +0.125 C  BRANCH  25  26ATOM     26  C   UNL     1      36.809  45.983  12.073 -0.60 -0.04    +0.108 C  BRANCH  26  27ATOM     27  N   UNL     1      36.918  47.381  11.661 -0.86 +0.11    -0.315 NA ATOM     28  H   UNL     1      36.601  47.457  10.693 -0.08 -0.08    +0.122 HD BRANCH  27  29ATOM     29  C   UNL     1      36.202  48.320  12.512 -0.47 -0.04    +0.081 C  BRANCH  29  30ATOM     30  C   UNL     1      36.895  48.546  13.849 -0.60 -0.01    +0.018 CG0ATOM     31  G   UNL     1      38.311  47.996  13.972 +0.00 +0.00    +0.000 G0 ENDBRANCH  29  30ENDBRANCH  27  29ENDBRANCH  26  27ENDBRANCH  25  26BRANCH  25  32ATOM     32  N   UNL     1      36.278  45.706  14.537 -0.15 +0.19    -0.345 N  ATOM     33  C   UNL     1      36.206  44.764  15.542 -0.24 -0.11    +0.251 C  ATOM     34  H   UNL     1      36.008  46.647  14.795 +0.13 -0.13    +0.164 HD ATOM     35  O   UNL     1      36.906  43.762  15.587 -0.27 +0.09    -0.269 OA BRANCH  33  36ATOM     36  C   UNL     1      35.235  45.042  16.635 -0.29 -0.02    +0.042 A  ATOM     37  C   UNL     1      34.180  44.150  16.826 -0.29 -0.02    +0.034 A  ATOM     38  C   UNL     1      35.331  46.177  17.440 -0.36 -0.03    +0.034 A  ATOM     39  C   UNL     1      33.271  44.423  17.831 -0.25 -0.04    +0.112 A  ATOM     40  C   UNL     1      34.369  46.361  18.417 -0.39 -0.08    +0.112 A  ATOM     41  N   UNL     1      33.346  45.507  18.633 -0.26 +0.12    -0.265 NA ENDBRANCH  33  36ENDBRANCH  25  32ENDBRANCH  22  25ENDBRANCH   1  22TORSDOF 9TERENDMDL