MODEL        2USER    Run = 2USERUSER    Estimated Free Energy of Binding    =  -7.36 kcal/mol  [=(1)+(2)+(3)-(4)]USERUSER    (1) Final Intermolecular Energy     = -11.84 kcal/molUSER        vdW + Hbond + desolv Energy     = -12.20 kcal/molUSER        Electrostatic Energy            =  -0.30 kcal/molUSER        Moving Ligand-Fixed Receptor    = -12.50 kcal/molUSER        Moving Ligand-Moving Receptor   =  +0.66 kcal/molUSER    (2) Final Total Internal Energy     =  -3.09 kcal/molUSER    (3) Torsional Free Energy           =  +4.47 kcal/molUSER    (4) Unbound System's Energy         =  -3.09 kcal/molUSERUSERREMARK SMILES COc1ccc(O)c(C(=O)c2ccc(NC[C@@H]3CCCNC[C@@H]3NC(=O)c3ccncc3)cc2)c1FREMARK SMILES IDX 16 1 15 2 14 4 11 5 12 6 34 7 13 8 33 9 9 10 10 11 8 12 3 13REMARK SMILES IDX 4 14 35 15 5 16 6 17 36 18 2 19 1 20 7 21 17 23 18 24 23 26REMARK SMILES IDX 22 27 21 28 20 30 19 31 24 33 25 34 26 36 27 37 28 38 32 39REMARK SMILES IDX 29 40 31 41 30 42REMARK H PARENT 15 3 7 22 21 29 24 35REMARK Flexibility Score:   99.900USER                              x       y       z     vdW  Elec       q    TypeUSER                           _______ _______ _______ _____ _____    ______ ____ROOTATOM      1  C   UNL     1      39.108  47.239  16.020 -0.44 -0.04    +0.118 C  ENDROOTBRANCH   1   2ATOM      2  N   UNL     1      40.191  46.363  16.475 -0.16 +0.05    -0.385 N  ATOM      3  H   UNL     1      40.032  45.383  16.263 +0.13 -0.02    +0.160 HD BRANCH   2   4ATOM      4  C   UNL     1      40.874  46.573  17.670 -0.48 -0.00    +0.034 A  ATOM      5  C   UNL     1      42.299  46.826  20.103 -0.39 +0.00    +0.023 A  ATOM      6  C   UNL     1      42.456  47.773  19.089 -0.38 +0.00    +0.014 A  ATOM      7  C   UNL     1      41.475  45.721  19.885 -0.40 +0.00    +0.014 A  ATOM      8  C   UNL     1      41.755  47.640  17.883 -0.44 -0.00    +0.026 A  ATOM      9  C   UNL     1      40.778  45.601  18.676 -0.45 -0.00    +0.026 A  BRANCH   5  10ATOM     10  C   UNL     1      43.085  46.988  21.349 -0.31 +0.06    +0.199 C  ATOM     11  O   UNL     1      44.274  46.662  21.354 -0.57 -0.24    -0.288 OA BRANCH  10  12ATOM     12  C   UNL     1      42.503  47.473  22.619 -0.24 +0.02    +0.104 A  ATOM     13  C   UNL     1      40.716  47.516  24.280 -0.19 +0.02    +0.155 A  ATOM     14  C   UNL     1      41.455  48.419  25.047 -0.28 +0.01    +0.053 A  ATOM     15  C   UNL     1      41.247  47.057  23.064 -0.13 +0.02    +0.179 A  ATOM     16  C   UNL     1      42.698  48.869  24.595 -0.34 +0.01    +0.051 A  ATOM     17  C   UNL     1      43.209  48.409  23.384 -0.29 +0.03    +0.130 A  ATOM     18  F   UNL     1      40.509  46.222  22.315 -0.06 -0.02    -0.202 F  BRANCH  13  19ATOM     19  O   UNL     1      39.483  47.020  24.609 -0.05 -0.04    -0.494 OA ATOM     20  C   UNL     1      38.383  47.920  24.554 -0.28 +0.04    +0.278 C  ENDBRANCH  13  19BRANCH  17  21ATOM     21  O   UNL     1      44.418  48.925  22.999 -0.22 -0.15    -0.507 OA ATOM     22  H   UNL     1      44.554  48.700  22.050 -0.45 +0.03    +0.293 HD ENDBRANCH  17  21ENDBRANCH  10  12ENDBRANCH   5  10ENDBRANCH   2   4ENDBRANCH   1   2BRANCH   1  23ATOM     23  C   UNL     1      38.810  47.058  14.511 -0.51 -0.01    +0.032 C  BRANCH  23  24ATOM     24  C   UNL     1      38.356  48.397  13.896 -0.53 -0.00    +0.009 CG0ATOM     25  G   UNL     1      36.860  48.705  13.830 +0.00 +0.00    +0.000 G0 ENDBRANCH  23  24BRANCH  23  26ATOM     26  C   UNL     1      37.848  45.867  14.292 -0.40 -0.03    +0.101 C  BRANCH  26  27ATOM     27  C   UNL     1      37.184  45.921  12.895 -0.50 -0.04    +0.106 C  BRANCH  27  28ATOM     28  N   UNL     1      35.908  46.646  12.840 -0.34 +0.18    -0.315 NA ATOM     29  H   UNL     1      35.394  46.297  12.028 -0.01 -0.08    +0.122 HD BRANCH  28  30ATOM     30  C   UNL     1      36.077  48.090  12.677 -0.55 -0.04    +0.081 C  BRANCH  30  31ATOM     31  C   UNL     1      36.854  48.705  13.835 -0.54 -0.01    +0.016 CG0ATOM     32  G   UNL     1      38.351  48.399  13.895 +0.00 +0.00    +0.000 G0 ENDBRANCH  30  31ENDBRANCH  28  30ENDBRANCH  27  28ENDBRANCH  26  27BRANCH  26  33ATOM     33  N   UNL     1      36.815  45.767  15.320 -0.11 +0.17    -0.348 N  ATOM     34  C   UNL     1      37.004  45.128  16.521 -0.24 -0.10    +0.251 C  ATOM     35  H   UNL     1      35.901  46.102  15.037 +0.12 -0.12    +0.164 HD ATOM     36  O   UNL     1      38.058  44.581  16.827 -0.22 +0.06    -0.269 OA BRANCH  34  37ATOM     37  C   UNL     1      35.849  45.098  17.456 -0.30 -0.02    +0.042 A  ATOM     38  C   UNL     1      35.613  43.923  18.171 -0.30 -0.01    +0.034 A  ATOM     39  C   UNL     1      35.021  46.203  17.660 -0.40 -0.03    +0.034 A  ATOM     40  C   UNL     1      34.543  43.894  19.045 -0.30 -0.02    +0.112 A  ATOM     41  C   UNL     1      33.977  46.072  18.559 -0.42 -0.07    +0.112 A  ATOM     42  N   UNL     1      33.717  44.943  19.250 -0.22 +0.09    -0.265 NA ENDBRANCH  34  37ENDBRANCH  26  33ENDBRANCH  23  26ENDBRANCH   1  23TORSDOF 9TERENDMDL