MODEL        2USER    Run = 2USERUSER    Estimated Free Energy of Binding    =  -8.54 kcal/mol  [=(1)+(2)+(3)-(4)]USERUSER    (1) Final Intermolecular Energy     = -13.02 kcal/molUSER        vdW + Hbond + desolv Energy     = -13.11 kcal/molUSER        Electrostatic Energy            =  -0.08 kcal/molUSER        Moving Ligand-Fixed Receptor    = -13.19 kcal/molUSER        Moving Ligand-Moving Receptor   =  +0.17 kcal/molUSER    (2) Final Total Internal Energy     =  -1.47 kcal/molUSER    (3) Torsional Free Energy           =  +4.47 kcal/molUSER    (4) Unbound System's Energy         =  -1.47 kcal/molUSERUSERREMARK SMILES COc1ccc(O)c(C(=O)c2ccc(/C=C/[C@@H]3CCCNC[C@H]3NC(=O)c3ccncc3)cc2)c1FREMARK SMILES IDX 16 1 15 2 14 3 11 4 12 5 34 6 13 7 33 8 9 9 10 10 8 11 3 12REMARK SMILES IDX 4 13 35 14 5 15 6 16 36 17 2 18 1 19 7 20 17 22 18 23 23 25REMARK SMILES IDX 22 26 21 27 20 29 19 30 24 32 25 33 26 35 27 36 28 37 32 38REMARK SMILES IDX 29 39 31 40 30 41REMARK H PARENT 7 21 21 28 24 34REMARK Flexibility Score:   99.900USER                              x       y       z     vdW  Elec       q    TypeUSER                           _______ _______ _______ _____ _____    ______ ____ROOTATOM      1  C   UNL     1      35.244  43.381  19.037 -0.43 +0.00    -0.021 C  ENDROOTBRANCH   1   2ATOM      2  C   UNL     1      36.080  42.559  19.691 -0.45 -0.00    +0.004 C  BRANCH   2   3ATOM      3  C   UNL     1      36.416  42.710  21.112 -0.45 -0.00    -0.026 A  ATOM      4  C   UNL     1      37.087  42.922  23.829 -0.37 +0.00    +0.023 A  ATOM      5  C   UNL     1      36.642  41.701  23.314 -0.46 +0.00    +0.013 A  ATOM      6  C   UNL     1      37.236  44.026  22.984 -0.34 +0.00    +0.013 A  ATOM      7  C   UNL     1      36.313  41.599  21.958 -0.55 +0.00    +0.009 A  ATOM      8  C   UNL     1      36.894  43.920  21.634 -0.39 +0.00    +0.009 A  BRANCH   4   9ATOM      9  C   UNL     1      37.474  43.061  25.249 -0.25 -0.00    +0.199 C  ATOM     10  O   UNL     1      38.656  42.905  25.561 -0.13 +0.00    -0.288 OA BRANCH   9  11ATOM     11  C   UNL     1      36.495  43.329  26.327 -0.32 -0.01    +0.104 A  ATOM     12  C   UNL     1      35.619  44.737  28.116 -0.36 -0.04    +0.155 A  ATOM     13  C   UNL     1      34.618  43.796  28.360 -0.59 -0.01    +0.053 A  ATOM     14  C   UNL     1      36.554  44.492  27.099 -0.28 -0.03    +0.179 A  ATOM     15  C   UNL     1      34.568  42.616  27.613 -0.45 -0.01    +0.051 A  ATOM     16  C   UNL     1      35.508  42.380  26.615 -0.40 -0.02    +0.130 A  ATOM     17  F   UNL     1      37.535  45.386  26.898 -0.07 +0.02    -0.202 F  BRANCH  12  18ATOM     18  O   UNL     1      35.781  45.916  28.792 -0.17 +0.11    -0.494 OA ATOM     19  C   UNL     1      34.641  46.755  28.924 -0.23 -0.06    +0.278 C  ENDBRANCH  12  18BRANCH  16  20ATOM     20  O   UNL     1      35.404  41.186  25.952 -0.17 +0.19    -0.507 OA ATOM     21  H   UNL     1      36.178  40.633  26.206 -0.25 -0.16    +0.293 HD ENDBRANCH  16  20ENDBRANCH   9  11ENDBRANCH   4   9ENDBRANCH   2   3ENDBRANCH   1   2BRANCH   1  22ATOM     22  C   UNL     1      35.555  44.806  18.585 -0.39 -0.01    +0.035 C  BRANCH  22  23ATOM     23  C   UNL     1      34.262  45.624  18.769 -0.50 -0.01    +0.011 CG0ATOM     24  G   UNL     1      32.970  45.081  18.170 +0.00 +0.00    +0.000 G0 ENDBRANCH  22  23BRANCH  22  25ATOM     25  C   UNL     1      36.219  44.964  17.183 -0.32 -0.04    +0.103 C  BRANCH  25  26ATOM     26  C   UNL     1      35.204  45.511  16.139 -0.32 -0.08    +0.106 C  BRANCH  26  27ATOM     27  N   UNL     1      33.966  44.770  15.929 -0.12 +0.20    -0.315 NA ATOM     28  H   UNL     1      34.125  43.782  16.134 +0.08 -0.06    +0.122 HD BRANCH  27  29ATOM     29  C   UNL     1      32.814  45.263  16.668 -0.31 -0.05    +0.081 C  BRANCH  29  30ATOM     30  C   UNL     1      32.970  45.080  18.170 -0.36 -0.01    +0.016 CG0ATOM     31  G   UNL     1      34.261  45.626  18.768 +0.00 +0.00    +0.000 G0 ENDBRANCH  29  30ENDBRANCH  27  29ENDBRANCH  26  27ENDBRANCH  25  26BRANCH  25  32ATOM     32  N   UNL     1      37.369  45.878  17.237 -0.14 +0.13    -0.347 N  ATOM     33  C   UNL     1      38.271  45.974  16.200 -0.27 -0.08    +0.251 C  ATOM     34  H   UNL     1      37.381  46.576  17.969 +0.08 -0.06    +0.164 HD ATOM     35  O   UNL     1      38.192  45.316  15.171 -0.23 +0.08    -0.269 OA BRANCH  33  36ATOM     36  C   UNL     1      39.362  46.965  16.372 -0.43 -0.01    +0.042 A  ATOM     37  C   UNL     1      40.296  46.857  17.402 -0.48 -0.00    +0.034 A  ATOM     38  C   UNL     1      39.462  48.007  15.452 -0.51 -0.01    +0.034 A  ATOM     39  C   UNL     1      41.282  47.822  17.480 -0.41 -0.01    +0.112 A  ATOM     40  C   UNL     1      40.483  48.923  15.620 -0.52 -0.03    +0.112 A  ATOM     41  N   UNL     1      41.389  48.858  16.620 -0.89 +0.00    -0.265 NA ENDBRANCH  33  36ENDBRANCH  25  32ENDBRANCH  22  25ENDBRANCH   1  22TORSDOF 9TERENDMDL