MODEL        8USER    Run = 8USERUSER    Estimated Free Energy of Binding    =  -9.71 kcal/mol  [=(1)+(2)+(3)-(4)]USERUSER    (1) Final Intermolecular Energy     = -12.09 kcal/molUSER        vdW + Hbond + desolv Energy     = -11.60 kcal/molUSER        Electrostatic Energy            =  -0.49 kcal/molUSER        Moving Ligand-Fixed Receptor    = -12.09 kcal/molUSER        Moving Ligand-Moving Receptor   =  +0.00 kcal/molUSER    (2) Final Total Internal Energy     =  -1.37 kcal/molUSER    (3) Torsional Free Energy           =  +2.39 kcal/molUSER    (4) Unbound System's Energy         =  -1.37 kcal/molUSERUSERREMARK SMILES CN(C)c1cc(C(=O)N2CCC(NC(=O)c3ccc(C(=O)c4cc(O)cc(F)c4O)cc3)CC2)ccn1REMARK SMILES IDX 16 1 17 2 18 3 19 4 31 5 32 6 14 7 13 8 15 10 12 11 7 12REMARK SMILES IDX 9 13 10 14 34 15 11 16 33 17 8 18 6 19 4 20 5 21 37 22 36 23REMARK SMILES IDX 35 24 2 25 1 26 3 27 20 28 21 29 22 30 23 31 29 32 24 33REMARK SMILES IDX 27 34 26 35 28 36 30 37 25 39REMARK H PARENT 13 9 30 38 25 40USER                              x       y       z     vdW  Elec       q    TypeUSER                           _______ _______ _______ _____ _____    ______ ____ROOTATOM      1  C   UNL     1      37.272  42.988  23.116 -0.37 +0.00    +0.039 A  ATOM      2  C   UNL     1      36.539  41.823  22.844 -0.51 +0.00    +0.014 A  ATOM      3  C   UNL     1      35.825  41.702  21.648 -0.43 +0.00    +0.013 A  ATOM      4  C   UNL     1      35.849  42.750  20.725 -0.43 +0.00    +0.023 A  ATOM      5  C   UNL     1      36.619  43.894  20.964 -0.40 +0.00    +0.013 A  ATOM      6  C   UNL     1      37.329  44.014  22.161 -0.38 +0.00    +0.014 A  ENDROOTBRANCH   1   7ATOM      7  C   UNL     1      37.976  43.090  24.426 -0.21 +0.01    +0.251 C  ATOM      8  N   UNL     1      37.814  44.280  25.109 -0.09 -0.01    -0.349 N  ATOM      9  H   UNL     1      37.084  44.903  24.795 +0.07 +0.02    +0.164 HD ATOM     10  O   UNL     1      38.597  42.133  24.867 -0.14 -0.02    -0.269 OA BRANCH   8  11ATOM     11  C   UNL     1      38.294  44.437  26.481 -0.23 -0.00    +0.085 C  ATOM     12  C   UNL     1      34.716  45.293  28.737 -0.29 -0.07    +0.254 C  ATOM     13  N   UNL     1      35.954  45.069  28.111 -0.25 +0.09    -0.338 N  ATOM     14  C   UNL     1      36.187  43.699  27.662 -0.43 -0.03    +0.122 C  ATOM     15  C   UNL     1      36.562  46.115  27.281 -0.16 -0.03    +0.122 C  ATOM     16  C   UNL     1      37.664  43.414  27.430 -0.36 -0.01    +0.046 C  ATOM     17  C   UNL     1      38.039  45.856  27.001 -0.30 -0.00    +0.046 C  ATOM     18  O   UNL     1      33.841  44.435  28.824 -0.62 +0.03    -0.269 OA BRANCH  12  19ATOM     19  C   UNL     1      34.444  46.616  29.341 -0.35 -0.01    +0.045 A  ATOM     20  C   UNL     1      32.917  48.289  30.156 -0.27 -0.00    +0.128 A  ATOM     21  C   UNL     1      33.137  47.028  29.611 -0.24 -0.00    +0.060 A  ATOM     22  N   UNL     1      33.960  49.105  30.429 -0.14 +0.01    -0.239 NA ATOM     23  C   UNL     1      35.213  48.704  30.120 -0.24 -0.01    +0.114 A  ATOM     24  C   UNL     1      35.508  47.478  29.570 -0.26 -0.01    +0.034 A  BRANCH  20  25ATOM     25  N   UNL     1      31.610  48.707  30.470 -0.14 -0.02    -0.363 N  ATOM     26  C   UNL     1      31.508  49.447  31.729 -0.21 +0.00    +0.144 C  ATOM     27  C   UNL     1      30.612  47.649  30.309 -0.48 +0.01    +0.144 C  ENDBRANCH  20  25ENDBRANCH  12  19ENDBRANCH   8  11ENDBRANCH   1   7BRANCH   4  28ATOM     28  C   UNL     1      35.085  42.670  19.466 -0.35 -0.02    +0.196 C  ATOM     29  O   UNL     1      34.493  41.621  19.210 -0.08 +0.01    -0.288 OA BRANCH  28  30ATOM     30  C   UNL     1      35.026  43.806  18.503 -0.29 -0.02    +0.071 A  ATOM     31  C   UNL     1      34.666  45.099  18.919 -0.36 -0.02    +0.062 A  ATOM     32  C   UNL     1      35.381  43.593  17.160 -0.23 -0.06    +0.162 A  ATOM     33  C   UNL     1      34.636  46.141  17.992 -0.38 -0.09    +0.119 A  ATOM     34  C   UNL     1      35.341  44.653  16.253 -0.21 -0.09    +0.169 A  ATOM     35  C   UNL     1      34.964  45.927  16.661 -0.26 -0.08    +0.089 A  ATOM     36  F   UNL     1      35.671  44.460  14.968 -0.07 +0.09    -0.203 F  BRANCH  32  37ATOM     37  O   UNL     1      35.787  42.373  16.686 -0.18 +0.20    -0.504 OA ATOM     38  H   UNL     1      35.325  41.671  17.199 -0.13 -0.15    +0.293 HD ENDBRANCH  32  37BRANCH  33  39ATOM     39  O   UNL     1      34.288  47.408  18.357 -0.89 +0.52    -0.508 OA ATOM     40  H   UNL     1      33.925  47.887  17.596 -0.31 -0.76    +0.293 HD ENDBRANCH  33  39ENDBRANCH  28  30ENDBRANCH   4  28TORSDOF 8TERENDMDL