MODEL        10USER    Run = 10USERUSER    Estimated Free Energy of Binding    =  -9.41 kcal/mol  [=(1)+(2)+(3)-(4)]USERUSER    (1) Final Intermolecular Energy     = -11.79 kcal/molUSER        vdW + Hbond + desolv Energy     = -11.56 kcal/molUSER        Electrostatic Energy            =  -0.23 kcal/molUSER        Moving Ligand-Fixed Receptor    = -11.79 kcal/molUSER        Moving Ligand-Moving Receptor   =  +0.00 kcal/molUSER    (2) Final Total Internal Energy     =  -2.25 kcal/molUSER    (3) Torsional Free Energy           =  +2.39 kcal/molUSER    (4) Unbound System's Energy         =  -2.25 kcal/molUSERUSERREMARK SMILES O=C(N[C@@H](Cc1ccc(F)cc1)C(=O)N1Cc2[nH]c(C(F)(F)F)nc2[C@@H](O)C1)c1ccncc1REMARK SMILES IDX 4 1 3 2 2 3 1 4 29 6 30 7 34 8 31 9 33 10 32 11 5 12 6 13REMARK SMILES IDX 7 14 12 15 8 16 11 17 9 18 10 19 13 20 14 21 15 22 16 23REMARK SMILES IDX 28 24 17 25 26 26 18 27 25 28 19 29 24 30 27 32 20 34 21 35REMARK SMILES IDX 22 36 23 37REMARK H PARENT 3 5 18 31 27 33USER                              x       y       z     vdW  Elec       q    TypeUSER                           _______ _______ _______ _____ _____    ______ ____ROOTATOM      1  C   UNL     1      36.544  44.332  18.010 -0.27 -0.05    +0.176 C  ENDROOTBRANCH   1   2ATOM      2  N   UNL     1      36.674  45.233  16.852 -0.11 +0.14    -0.340 N  ATOM      3  C   UNL     1      36.651  44.797  15.543 -0.25 -0.10    +0.252 C  ATOM      4  O   UNL     1      36.380  43.657  15.188 -0.31 +0.09    -0.269 OA ATOM      5  H   UNL     1      37.222  46.063  17.029 +0.10 -0.07    +0.164 HD BRANCH   3   6ATOM      6  C   UNL     1      37.003  45.813  14.519 -0.37 -0.02    +0.042 A  ATOM      7  C   UNL     1      37.764  46.939  14.835 -0.41 -0.02    +0.034 A  ATOM      8  C   UNL     1      36.525  45.643  13.221 -0.48 -0.01    +0.034 A  ATOM      9  C   UNL     1      38.034  47.839  13.820 -0.44 -0.04    +0.112 A  ATOM     10  C   UNL     1      36.855  46.599  12.279 -0.56 -0.04    +0.112 A  ATOM     11  N   UNL     1      37.603  47.690  12.549 -0.92 +0.03    -0.265 NA ENDBRANCH   3   6ENDBRANCH   1   2BRANCH   1  12ATOM     12  C   UNL     1      37.686  44.425  19.042 -0.37 -0.01    +0.070 C  BRANCH  12  13ATOM     13  C   UNL     1      37.411  43.638  20.306 -0.33 +0.00    -0.045 A  ATOM     14  C   UNL     1      36.731  42.411  20.252 -0.34 -0.00    +0.007 A  ATOM     15  C   UNL     1      37.850  44.121  21.547 -0.37 +0.00    +0.007 A  ATOM     16  C   UNL     1      36.500  41.682  21.420 -0.53 +0.00    +0.039 A  ATOM     17  C   UNL     1      37.622  43.390  22.713 -0.35 +0.00    +0.039 A  ATOM     18  C   UNL     1      36.950  42.177  22.638 -0.41 +0.01    +0.123 A  ATOM     19  F   UNL     1      36.733  41.473  23.757 -0.15 +0.00    -0.207 F  ENDBRANCH  12  13ENDBRANCH   1  12BRANCH   1  20ATOM     20  C   UNL     1      35.148  44.517  18.667 -0.25 -0.07    +0.245 C  ATOM     21  O   UNL     1      35.045  44.880  19.844 -0.27 +0.06    -0.272 OA BRANCH  20  22ATOM     22  N   UNL     1      34.008  44.256  17.900 -0.08 +0.12    -0.332 N  ATOM     23  C   UNL     1      34.035  43.045  17.060 -0.30 -0.07    +0.175 C  ATOM     24  C   UNL     1      32.641  44.720  18.281 -0.22 -0.04    +0.158 C  ATOM     25  C   UNL     1      33.164  42.049  17.732 -0.34 -0.02    +0.061 A  ATOM     26  C   UNL     1      31.904  43.684  19.182 -0.26 -0.01    +0.184 C  ATOM     27  N   UNL     1      33.185  40.692  17.604 -0.20 +0.14    -0.336 N  ATOM     28  C   UNL     1      32.185  42.314  18.662 -0.29 -0.01    +0.094 A  ATOM     29  C   UNL     1      32.212  40.182  18.445 -0.24 -0.01    +0.213 A  ATOM     30  N   UNL     1      31.606  41.161  19.110 -0.19 +0.00    -0.226 NA ATOM     31  H   UNL     1      33.802  40.143  17.017 -0.42 -0.15    +0.168 HD BRANCH  26  32ATOM     32  O   UNL     1      32.370  43.819  20.529 -0.72 -0.04    -0.385 OA ATOM     33  H   UNL     1      32.991  44.575  20.502 -0.24 -0.04    +0.211 HD ENDBRANCH  26  32BRANCH  29  34ATOM     34  C   UNL     1      31.983  38.705  18.515 -0.19 +0.04    +0.449 C  ATOM     35  F   UNL     1      30.797  38.314  17.990 -0.15 -0.05    -0.163 F  ATOM     36  F   UNL     1      32.958  38.028  17.851 -0.20 +0.01    -0.163 F  ATOM     37  F   UNL     1      32.019  38.259  19.800 -0.16 -0.04    -0.163 F  ENDBRANCH  29  34ENDBRANCH  20  22ENDBRANCH   1  20TORSDOF 8TERENDMDL