REMARK SMILES O=C(N[C@@H](Cc1ccc(F)cc1)C(=O)N1Cc2[nH]c(C(F)(F)F)nc2[C@@H](O)C1)c1ccncc1
REMARK SMILES IDX 4 1 3 2 2 3 1 4 29 6 30 7 34 8 31 9 33 10 32 11 5 12 6 13
REMARK SMILES IDX 7 14 12 15 8 16 11 17 9 18 10 19 13 20 14 21 15 22 16 23
REMARK SMILES IDX 28 24 17 25 26 26 18 27 25 28 19 29 24 30 27 32 20 34 21 35
REMARK SMILES IDX 22 36 23 37
REMARK H PARENT 3 5 18 31 27 33
ROOT
ATOM      1  C   UNL     1      -0.526  -0.370  -0.477  1.00  0.00     0.176 C 
ENDROOT
BRANCH   1   2
ATOM      2  N   UNL     1      -1.531   0.426   0.248  1.00  0.00    -0.340 N 
ATOM      3  C   UNL     1      -2.422   1.275  -0.376  1.00  0.00     0.252 C 
ATOM      4  O   UNL     1      -2.582   1.358  -1.587  1.00  0.00    -0.269 OA
ATOM      5  H   UNL     1      -1.260   0.686   1.186  1.00  0.00     0.164 HD
BRANCH   3   6
ATOM      6  C   UNL     1      -3.218   2.148   0.524  1.00  0.00     0.042 A 
ATOM      7  C   UNL     1      -3.587   1.737   1.805  1.00  0.00     0.034 A 
ATOM      8  C   UNL     1      -3.629   3.393   0.051  1.00  0.00     0.034 A 
ATOM      9  C   UNL     1      -4.339   2.611   2.570  1.00  0.00     0.112 A 
ATOM     10  C   UNL     1      -4.374   4.193   0.897  1.00  0.00     0.112 A 
ATOM     11  N   UNL     1      -4.733   3.831   2.148  1.00  0.00    -0.265 NA
ENDBRANCH   3   6
ENDBRANCH   1   2
BRANCH   1  12
ATOM     12  C   UNL     1      -1.071  -1.181  -1.670  1.00  0.00     0.070 C 
BRANCH  12  13
ATOM     13  C   UNL     1      -2.104  -2.212  -1.266  1.00  0.00    -0.045 A 
ATOM     14  C   UNL     1      -1.716  -3.409  -0.644  1.00  0.00     0.007 A 
ATOM     15  C   UNL     1      -3.467  -1.972  -1.495  1.00  0.00     0.007 A 
ATOM     16  C   UNL     1      -2.677  -4.345  -0.257  1.00  0.00     0.039 A 
ATOM     17  C   UNL     1      -4.426  -2.906  -1.104  1.00  0.00     0.039 A 
ATOM     18  C   UNL     1      -4.022  -4.083  -0.488  1.00  0.00     0.123 A 
ATOM     19  F   UNL     1      -4.944  -4.979  -0.109  1.00  0.00    -0.207 F 
ENDBRANCH  12  13
ENDBRANCH   1  12
BRANCH   1  20
ATOM     20  C   UNL     1       0.669   0.536  -0.885  1.00  0.00     0.245 C 
ATOM     21  O   UNL     1       0.578   1.767  -0.829  1.00  0.00    -0.272 OA
BRANCH  20  22
ATOM     22  N   UNL     1       1.849  -0.072  -1.325  1.00  0.00    -0.332 N 
ATOM     23  C   UNL     1       2.965   0.823  -1.680  1.00  0.00     0.175 C 
ATOM     24  C   UNL     1       2.259  -1.450  -0.923  1.00  0.00     0.158 C 
ATOM     25  C   UNL     1       3.951   0.723  -0.575  1.00  0.00     0.061 A 
ATOM     26  C   UNL     1       3.103  -1.449   0.387  1.00  0.00     0.184 C 
ATOM     27  N   UNL     1       4.910   1.625  -0.221  1.00  0.00    -0.336 N 
ATOM     28  C   UNL     1       4.050  -0.296   0.343  1.00  0.00     0.094 A 
ATOM     29  C   UNL     1       5.567   1.117   0.886  1.00  0.00     0.213 A 
ATOM     30  N   UNL     1       5.040  -0.048   1.251  1.00  0.00    -0.226 NA
ATOM     31  H   UNL     1       5.109   2.513  -0.666  1.00  0.00     0.168 HD
BRANCH  26  32
ATOM     32  O   UNL     1       2.223  -1.338   1.511  1.00  0.00    -0.385 OA
ATOM     33  H   UNL     1       2.791  -1.018   2.240  1.00  0.00     0.211 HD
ENDBRANCH  26  32
BRANCH  29  34
ATOM     34  C   UNL     1       6.694   1.882   1.504  1.00  0.00     0.449 C 
ATOM     35  F   UNL     1       7.314   1.219   2.510  1.00  0.00    -0.163 F 
ATOM     36  F   UNL     1       7.644   2.184   0.578  1.00  0.00    -0.163 F 
ATOM     37  F   UNL     1       6.267   3.070   2.010  1.00  0.00    -0.163 F 
ENDBRANCH  29  34
ENDBRANCH  20  22
ENDBRANCH   1  20
TORSDOF 8
