REMARK SMILES CN(C)c1cc(C(=O)N2CCC(NC(=O)c3ccc(C(=O)c4cc(O)cc(F)c4O)cc3)CC2)ccn1
REMARK SMILES IDX 16 1 17 2 18 3 19 4 31 5 32 6 14 7 13 8 15 10 12 11 7 12
REMARK SMILES IDX 9 13 10 14 34 15 11 16 33 17 8 18 6 19 4 20 5 21 37 22 36 23
REMARK SMILES IDX 35 24 2 25 1 26 3 27 20 28 21 29 22 30 23 31 29 32 24 33
REMARK SMILES IDX 27 34 26 35 28 36 30 37 25 39
REMARK H PARENT 13 9 30 38 25 40
ROOT
ATOM      1  C   UNL     1      -2.575  -1.995  -1.075  1.00  0.00     0.039 A 
ATOM      2  C   UNL     1      -3.682  -2.539  -0.405  1.00  0.00     0.014 A 
ATOM      3  C   UNL     1      -4.918  -1.888  -0.441  1.00  0.00     0.013 A 
ATOM      4  C   UNL     1      -5.044  -0.691  -1.151  1.00  0.00     0.023 A 
ATOM      5  C   UNL     1      -3.960  -0.168  -1.865  1.00  0.00     0.013 A 
ATOM      6  C   UNL     1      -2.724  -0.819  -1.825  1.00  0.00     0.014 A 
ENDROOT
BRANCH   1   7
ATOM      7  C   UNL     1      -1.267  -2.700  -0.966  1.00  0.00     0.251 C 
ATOM      8  N   UNL     1      -0.141  -1.907  -1.076  1.00  0.00    -0.349 N 
ATOM      9  H   UNL     1      -0.266  -0.907  -1.011  1.00  0.00     0.164 HD
ATOM     10  O   UNL     1      -1.232  -3.900  -0.729  1.00  0.00    -0.269 OA
BRANCH   8  11
ATOM     11  C   UNL     1       1.192  -2.442  -0.802  1.00  0.00     0.085 C 
ATOM     12  C   UNL     1       3.043   0.596   1.641  1.00  0.00     0.254 C 
ATOM     13  N   UNL     1       2.571  -0.441   0.819  1.00  0.00    -0.338 N 
ATOM     14  C   UNL     1       1.560  -1.305   1.423  1.00  0.00     0.122 C 
ATOM     15  C   UNL     1       2.439  -0.235  -0.627  1.00  0.00     0.122 C 
ATOM     16  C   UNL     1       1.435  -2.637   0.698  1.00  0.00     0.046 C 
ATOM     17  C   UNL     1       2.284  -1.545  -1.394  1.00  0.00     0.046 C 
ATOM     18  O   UNL     1       2.582   0.834   2.755  1.00  0.00    -0.269 OA
BRANCH  12  19
ATOM     19  C   UNL     1       4.160   1.441   1.164  1.00  0.00     0.045 A 
ATOM     20  C   UNL     1       6.326   1.696   0.145  1.00  0.00     0.128 A 
ATOM     21  C   UNL     1       5.283   0.873   0.558  1.00  0.00     0.060 A 
ATOM     22  N   UNL     1       6.249   3.035   0.322  1.00  0.00    -0.239 NA
ATOM     23  C   UNL     1       5.173   3.559   0.949  1.00  0.00     0.114 A 
ATOM     24  C   UNL     1       4.109   2.809   1.395  1.00  0.00     0.034 A 
BRANCH  20  25
ATOM     25  N   UNL     1       7.449   1.147  -0.502  1.00  0.00    -0.363 N 
ATOM     26  C   UNL     1       8.082   0.049   0.231  1.00  0.00     0.144 C 
ATOM     27  C   UNL     1       8.382   2.161  -0.996  1.00  0.00     0.144 C 
ENDBRANCH  20  25
ENDBRANCH  12  19
ENDBRANCH   8  11
ENDBRANCH   1   7
BRANCH   4  28
ATOM     28  C   UNL     1      -6.325   0.039  -1.187  1.00  0.00     0.196 C 
ATOM     29  O   UNL     1      -6.839   0.258  -2.284  1.00  0.00    -0.288 OA
BRANCH  28  30
ATOM     30  C   UNL     1      -6.994   0.524   0.053  1.00  0.00     0.071 A 
ATOM     31  C   UNL     1      -6.319   0.550   1.285  1.00  0.00     0.062 A 
ATOM     32  C   UNL     1      -8.311   1.008  -0.016  1.00  0.00     0.162 A 
ATOM     33  C   UNL     1      -6.972   1.025   2.423  1.00  0.00     0.119 A 
ATOM     34  C   UNL     1      -8.942   1.476   1.138  1.00  0.00     0.169 A 
ATOM     35  C   UNL     1      -8.281   1.482   2.360  1.00  0.00     0.089 A 
ATOM     36  F   UNL     1     -10.201   1.934   1.085  1.00  0.00    -0.203 F 
BRANCH  32  37
ATOM     37  O   UNL     1      -9.021   1.059  -1.187  1.00  0.00    -0.504 OA
ATOM     38  H   UNL     1      -8.429   0.778  -1.922  1.00  0.00     0.293 HD
ENDBRANCH  32  37
BRANCH  33  39
ATOM     39  O   UNL     1      -6.351   1.062   3.636  1.00  0.00    -0.508 OA
ATOM     40  H   UNL     1      -5.450   0.709   3.561  1.00  0.00     0.293 HD
ENDBRANCH  33  39
ENDBRANCH  28  30
ENDBRANCH   4  28
TORSDOF 8
