MODEL        4USER    Run = 4USERUSER    Estimated Free Energy of Binding    = -10.35 kcal/mol  [=(1)+(2)+(3)-(4)]USERUSER    (1) Final Intermolecular Energy     = -12.44 kcal/molUSER        vdW + Hbond + desolv Energy     = -12.25 kcal/molUSER        Electrostatic Energy            =  -0.19 kcal/molUSER        Moving Ligand-Fixed Receptor    = -12.44 kcal/molUSER        Moving Ligand-Moving Receptor   =  +0.00 kcal/molUSER    (2) Final Total Internal Energy     =  -2.48 kcal/molUSER    (3) Torsional Free Energy           =  +2.09 kcal/molUSER    (4) Unbound System's Energy         =  -2.48 kcal/molUSERUSERREMARK SMILES CC(C)Cc1nnc2ccc(-c3ccnc(N[C@H]4CCN[C@@H](CO)C4)c3)cn12REMARK SMILES IDX 12 1 13 2 14 3 15 4 16 5 26 6 11 7 5 8 6 9 28 10 7 11 27 12REMARK SMILES IDX 8 13 9 14 10 15 4 16 2 17 1 18 3 19 17 20 18 22 19 23 25 24REMARK SMILES IDX 20 25 22 26 21 27 23 29 24 30REMARK H PARENT 17 21 21 28 24 31USER                              x       y       z     vdW  Elec       q    TypeUSER                           _______ _______ _______ _____ _____    ______ ____ROOTATOM      1  C   UNL     1      37.652  47.216  14.498 -0.46 +0.01    -0.012 A  ATOM      2  C   UNL     1      37.588  47.405  13.121 -0.53 -0.01    +0.029 A  ATOM      3  C   UNL     1      36.439  47.006  12.468 -0.58 -0.05    +0.114 A  ATOM      4  N   UNL     1      35.380  46.437  13.086 -0.36 +0.15    -0.240 NA ATOM      5  C   UNL     1      35.449  46.234  14.415 -0.32 -0.10    +0.126 A  ATOM      6  C   UNL     1      36.567  46.622  15.149 -0.36 -0.04    +0.055 A  ENDROOTBRANCH   1   7ATOM      7  C   UNL     1      38.844  47.637  15.250 -0.50 +0.00    -0.001 A  ATOM      8  C   UNL     1      41.007  46.719  18.118 -0.42 -0.01    +0.137 A  ATOM      9  N   UNL     1      42.038  47.470  18.456 -0.49 +0.00    -0.135 NA ATOM     10  N   UNL     1      40.377  47.278  17.025 -0.30 +0.05    -0.286 N  ATOM     11  N   UNL     1      42.101  48.538  17.593 -0.57 -0.01    -0.130 NA ATOM     12  C   UNL     1      39.257  46.886  16.293 -0.38 -0.03    +0.103 A  ATOM     13  C   UNL     1      41.109  48.421  16.740 -0.39 -0.02    +0.160 A  ATOM     14  C   UNL     1      40.686  49.220  15.644 -0.60 -0.01    +0.050 A  ATOM     15  C   UNL     1      39.605  48.849  14.933 -0.49 -0.01    +0.014 A  BRANCH   8  16ATOM     16  C   UNL     1      40.590  45.460  18.800 -0.46 -0.00    +0.081 C  BRANCH  16  17ATOM     17  C   UNL     1      39.158  45.537  19.359 -0.45 +0.00    -0.010 C  ATOM     18  C   UNL     1      38.167  44.720  18.525 -0.43 -0.00    +0.008 C  ATOM     19  C   UNL     1      39.138  45.043  20.808 -0.41 +0.00    +0.008 C  ENDBRANCH  16  17ENDBRANCH   8  16ENDBRANCH   1   7BRANCH   5  20ATOM     20  N   UNL     1      34.367  45.677  15.111 -0.11 +0.34    -0.367 N  ATOM     21  H   UNL     1      33.542  46.258  14.995 -0.23 -0.23    +0.162 HD BRANCH  20  22ATOM     22  C   UNL     1      34.601  45.310  16.517 -0.32 -0.06    +0.083 C  ATOM     23  C   UNL     1      34.731  46.553  17.413 -0.29 -0.05    +0.040 C  ATOM     24  C   UNL     1      33.437  44.429  16.980 -0.34 -0.02    +0.046 C  ATOM     25  C   UNL     1      33.958  46.424  18.724 -0.49 -0.05    +0.083 C  ATOM     26  C   UNL     1      33.627  44.016  18.451 -0.36 -0.02    +0.081 C  ATOM     27  N   UNL     1      34.125  45.102  19.310 -0.15 +0.11    -0.312 NA ATOM     28  H   UNL     1      33.695  45.068  20.235 -0.31 -0.06    +0.123 HD BRANCH  26  29ATOM     29  C   UNL     1      32.333  43.387  19.012 -0.33 -0.01    +0.175 C  BRANCH  29  30ATOM     30  O   UNL     1      32.195  43.624  20.410 -0.71 -0.04    -0.395 OA ATOM     31  H   UNL     1      32.475  44.541  20.579 -0.14 -0.02    +0.210 HD ENDBRANCH  29  30ENDBRANCH  26  29ENDBRANCH  20  22ENDBRANCH   5  20TORSDOF 7TERENDMDL