MODEL        10USER    Run = 10USERUSER    Estimated Free Energy of Binding    = -10.34 kcal/mol  [=(1)+(2)+(3)-(4)]USERUSER    (1) Final Intermolecular Energy     = -11.83 kcal/molUSER        vdW + Hbond + desolv Energy     = -11.64 kcal/molUSER        Electrostatic Energy            =  -0.19 kcal/molUSER        Moving Ligand-Fixed Receptor    = -11.83 kcal/molUSER        Moving Ligand-Moving Receptor   =  +0.00 kcal/molUSER    (2) Final Total Internal Energy     =  -1.13 kcal/molUSER    (3) Torsional Free Energy           =  +1.49 kcal/molUSER    (4) Unbound System's Energy         =  -1.13 kcal/molUSERUSERREMARK SMILES CC(C)Cc1nnc2ccc(-c3ccnc(NC4CCN(C)CC4)c3)cn12REMARK SMILES IDX 5 1 6 2 7 3 8 4 9 5 10 6 11 7 26 8 27 9 4 10 2 11 1 12 3 13REMARK SMILES IDX 12 14 13 15 25 16 14 17 16 18 15 19 17 20 18 22 19 23 24 24REMARK SMILES IDX 20 25 23 26 21 27 22 28REMARK H PARENT 17 21USER                              x       y       z     vdW  Elec       q    TypeUSER                           _______ _______ _______ _____ _____    ______ ____ROOTATOM      1  C   UNL     1      31.879  44.459  16.229 -0.24 -0.06    +0.137 A  ATOM      2  N   UNL     1      31.498  44.173  17.459 -0.32 +0.02    -0.135 NA ATOM      3  N   UNL     1      32.489  44.574  18.325 -0.26 +0.03    -0.130 NA ATOM      4  C   UNL     1      33.460  45.094  17.610 -0.24 -0.08    +0.160 A  ATOM      5  C   UNL     1      34.712  45.667  17.957 -0.39 -0.03    +0.050 A  ATOM      6  C   UNL     1      35.525  46.125  16.985 -0.36 -0.01    +0.014 A  ATOM      7  C   UNL     1      35.158  46.048  15.569 -0.31 +0.00    -0.001 A  ATOM      8  C   UNL     1      33.965  45.504  15.249 -0.23 -0.09    +0.103 A  ATOM      9  N   UNL     1      33.130  45.038  16.263 -0.15 +0.19    -0.286 N  ENDROOTBRANCH   1  10ATOM     10  C   UNL     1      31.093  44.205  14.989 -0.38 -0.05    +0.081 C  BRANCH  10  11ATOM     11  C   UNL     1      30.394  45.470  14.457 -0.51 +0.01    -0.010 C  ATOM     12  C   UNL     1      30.584  46.624  15.443 -0.45 -0.00    +0.008 C  ATOM     13  C   UNL     1      30.921  45.878  13.078 -0.65 -0.01    +0.008 C  ENDBRANCH  10  11ENDBRANCH   1  10BRANCH   7  14ATOM     14  C   UNL     1      36.023  46.541  14.488 -0.42 +0.01    -0.012 A  ATOM     15  C   UNL     1      35.814  46.136  13.175 -0.49 -0.02    +0.029 A  ATOM     16  C   UNL     1      37.067  47.425  14.770 -0.42 -0.04    +0.055 A  ATOM     17  C   UNL     1      36.653  46.647  12.205 -0.58 -0.05    +0.114 A  ATOM     18  C   UNL     1      37.877  47.885  13.735 -0.42 -0.05    +0.126 A  ATOM     19  N   UNL     1      37.663  47.506  12.459 -0.94 +0.03    -0.240 NA BRANCH  18  20ATOM     20  N   UNL     1      38.886  48.804  14.048 -0.10 +0.17    -0.367 N  ATOM     21  H   UNL     1      38.500  49.592  14.559 -0.41 -0.15    +0.162 HD BRANCH  20  22ATOM     22  C   UNL     1      40.105  48.272  14.675 -0.53 -0.02    +0.083 C  ATOM     23  C   UNL     1      40.494  49.215  15.825 -0.65 -0.01    +0.040 C  ATOM     24  C   UNL     1      39.918  46.825  15.163 -0.51 -0.01    +0.040 C  ATOM     25  C   UNL     1      41.319  48.470  16.869 -0.47 -0.00    +0.086 C  ATOM     26  C   UNL     1      39.555  46.767  16.644 -0.47 -0.02    +0.086 C  ATOM     27  N   UNL     1      40.538  47.412  17.523 -0.29 +0.05    -0.306 NA ATOM     28  C   UNL     1      41.419  46.442  18.170 -0.48 -0.00    +0.105 C  ENDBRANCH  20  22ENDBRANCH  18  20ENDBRANCH   7  14TORSDOF 5TERENDMDL