REMARK SMILES CC(C)Cc1nnc2ccc(-c3ccnc(N[C@@H]4CO[C@@H](N)C4)c3)cn12
REMARK SMILES IDX 12 1 13 2 14 3 15 4 16 5 24 6 11 7 5 8 6 9 26 10 7 11 25 12
REMARK SMILES IDX 8 13 9 14 10 15 4 16 2 17 1 18 3 19 17 20 18 22 19 23 23 24
REMARK SMILES IDX 20 25 21 26 22 27
REMARK H PARENT 17 21 22 28 22 29
ROOT
ATOM      1  C   UNL     1       0.294   1.634   1.175  1.00  0.00    -0.012 A 
ATOM      2  C   UNL     1       0.435   2.948   0.741  1.00  0.00     0.029 A 
ATOM      3  C   UNL     1       1.662   3.332   0.237  1.00  0.00     0.114 A 
ATOM      4  N   UNL     1       2.731   2.510   0.151  1.00  0.00    -0.240 NA
ATOM      5  C   UNL     1       2.598   1.242   0.590  1.00  0.00     0.126 A 
ATOM      6  C   UNL     1       1.392   0.772   1.102  1.00  0.00     0.055 A 
ENDROOT
BRANCH   1   7
ATOM      7  C   UNL     1      -0.992   1.162   1.707  1.00  0.00    -0.001 A 
ATOM      8  C   UNL     1      -4.028  -0.767   0.812  1.00  0.00     0.137 A 
ATOM      9  N   UNL     1      -4.992  -0.955   1.695  1.00  0.00    -0.135 NA
ATOM     10  N   UNL     1      -3.024  -0.019   1.395  1.00  0.00    -0.286 N 
ATOM     11  N   UNL     1      -4.649  -0.313   2.861  1.00  0.00    -0.130 NA
ATOM     12  C   UNL     1      -1.796   0.428   0.909  1.00  0.00     0.103 A 
ATOM     13  C   UNL     1      -3.474   0.244   2.680  1.00  0.00     0.160 A 
ATOM     14  C   UNL     1      -2.638   1.019   3.527  1.00  0.00     0.050 A 
ATOM     15  C   UNL     1      -1.452   1.460   3.065  1.00  0.00     0.014 A 
BRANCH   8  16
ATOM     16  C   UNL     1      -3.990  -1.295  -0.584  1.00  0.00     0.081 C 
BRANCH  16  17
ATOM     17  C   UNL     1      -5.383  -1.385  -1.237  1.00  0.00    -0.010 C 
ATOM     18  C   UNL     1      -5.980   0.002  -1.495  1.00  0.00     0.008 C 
ATOM     19  C   UNL     1      -5.292  -2.161  -2.555  1.00  0.00     0.008 C 
ENDBRANCH  16  17
ENDBRANCH   8  16
ENDBRANCH   1   7
BRANCH   5  20
ATOM     20  N   UNL     1       3.678   0.339   0.510  1.00  0.00    -0.365 N 
ATOM     21  H   UNL     1       3.824  -0.040   1.444  1.00  0.00     0.162 HD
BRANCH  20  22
ATOM     22  C   UNL     1       4.919   0.910  -0.048  1.00  0.00     0.110 C 
ATOM     23  C   UNL     1       4.858   1.093  -1.570  1.00  0.00     0.187 C 
ATOM     24  C   UNL     1       6.040  -0.102   0.081  1.00  0.00     0.075 C 
ATOM     25  O   UNL     1       5.389  -0.097  -2.189  1.00  0.00    -0.361 OA
ATOM     26  C   UNL     1       5.834  -0.961  -1.152  1.00  0.00     0.185 C 
BRANCH  26  27
ATOM     27  N   UNL     1       7.056  -1.617  -1.559  1.00  0.00    -0.306 NA
ATOM     28  H   UNL     1       6.904  -1.950  -2.509  1.00  0.00     0.121 HD
ATOM     29  H   UNL     1       7.206  -2.440  -0.982  1.00  0.00     0.121 HD
ENDBRANCH  26  27
ENDBRANCH  20  22
ENDBRANCH   5  20
TORSDOF 6
