MODEL        7USER    Run = 7USERUSER    Estimated Free Energy of Binding    =  -9.94 kcal/mol  [=(1)+(2)+(3)-(4)]USERUSER    (1) Final Intermolecular Energy     = -11.43 kcal/molUSER        vdW + Hbond + desolv Energy     = -11.29 kcal/molUSER        Electrostatic Energy            =  -0.14 kcal/molUSER        Moving Ligand-Fixed Receptor    = -11.43 kcal/molUSER        Moving Ligand-Moving Receptor   =  +0.00 kcal/molUSER    (2) Final Total Internal Energy     =  -1.35 kcal/molUSER    (3) Torsional Free Energy           =  +1.49 kcal/molUSER    (4) Unbound System's Energy         =  -1.35 kcal/molUSERUSERREMARK SMILES CC(C)Cc1nnc2ccc(-c3ccnc(NC4CCNCC4)c3)cn12REMARK SMILES IDX 5 1 6 2 7 3 8 4 9 5 10 6 11 7 25 8 26 9 4 10 2 11 1 12 3 13REMARK SMILES IDX 12 14 13 15 24 16 14 17 16 18 15 19 17 20 18 22 19 23 23 24REMARK SMILES IDX 20 25 22 26 21 27REMARK H PARENT 17 21 21 28USER                              x       y       z     vdW  Elec       q    TypeUSER                           _______ _______ _______ _____ _____    ______ ____ROOTATOM      1  C   UNL     1      41.045  47.230  17.631 -0.42 -0.01    +0.137 A  ATOM      2  N   UNL     1      41.802  48.278  17.360 -0.74 -0.00    -0.135 NA ATOM      3  N   UNL     1      41.157  49.053  16.425 -0.92 +0.01    -0.130 NA ATOM      4  C   UNL     1      40.023  48.462  16.131 -0.41 -0.05    +0.160 A  ATOM      5  C   UNL     1      38.966  48.799  15.244 -0.45 -0.03    +0.050 A  ATOM      6  C   UNL     1      37.899  47.982  15.140 -0.50 -0.01    +0.014 A  ATOM      7  C   UNL     1      37.794  46.746  15.919 -0.40 +0.00    -0.001 A  ATOM      8  C   UNL     1      38.802  46.435  16.761 -0.35 -0.03    +0.103 A  ATOM      9  N   UNL     1      39.900  47.289  16.864 -0.29 +0.07    -0.286 N  ENDROOTBRANCH   1  10ATOM     10  C   UNL     1      41.380  46.142  18.596 -0.50 +0.00    +0.081 C  BRANCH  10  11ATOM     11  C   UNL     1      40.281  45.849  19.637 -0.45 -0.00    -0.010 C  ATOM     12  C   UNL     1      40.816  45.791  21.067 -0.36 +0.00    +0.008 C  ATOM     13  C   UNL     1      39.482  44.584  19.314 -0.43 -0.00    +0.008 C  ENDBRANCH  10  11ENDBRANCH   1  10BRANCH   7  14ATOM     14  C   UNL     1      36.646  45.835  15.825 -0.35 +0.01    -0.012 A  ATOM     15  C   UNL     1      35.485  46.227  15.172 -0.34 -0.03    +0.029 A  ATOM     16  C   UNL     1      36.709  44.558  16.390 -0.31 -0.02    +0.055 A  ATOM     17  C   UNL     1      34.441  45.325  15.132 -0.20 -0.09    +0.114 A  ATOM     18  C   UNL     1      35.616  43.699  16.292 -0.30 -0.05    +0.126 A  ATOM     19  N   UNL     1      34.488  44.091  15.681 -0.16 +0.12    -0.240 NA BRANCH  18  20ATOM     20  N   UNL     1      35.713  42.453  16.906 -0.18 +0.14    -0.367 N  ATOM     21  H   UNL     1      35.530  41.723  16.223 -0.20 -0.09    +0.162 HD BRANCH  20  22ATOM     22  C   UNL     1      35.060  42.144  18.192 -0.42 -0.02    +0.083 C  ATOM     23  C   UNL     1      35.747  42.774  19.407 -0.45 -0.00    +0.040 C  ATOM     24  C   UNL     1      33.532  42.240  18.157 -0.43 -0.01    +0.040 C  ATOM     25  C   UNL     1      34.985  43.928  20.047 -0.36 -0.01    +0.083 C  ATOM     26  C   UNL     1      32.951  43.445  18.888 -0.39 -0.01    +0.083 C  ATOM     27  N   UNL     1      33.565  43.614  20.206 -0.72 -0.02    -0.317 NA ATOM     28  H   UNL     1      33.112  44.398  20.678 -0.29 -0.01    +0.122 HD ENDBRANCH  20  22ENDBRANCH  18  20ENDBRANCH   7  14TORSDOF 5TERENDMDL