REMARK SMILES CC(C)Cc1nnc2ccc(-c3ccnc(N[C@H]4CCN[C@@H](CO)C4)c3)cn12
REMARK SMILES IDX 12 1 13 2 14 3 15 4 16 5 26 6 11 7 5 8 6 9 28 10 7 11 27 12
REMARK SMILES IDX 8 13 9 14 10 15 4 16 2 17 1 18 3 19 17 20 18 22 19 23 25 24
REMARK SMILES IDX 20 25 22 26 21 27 23 29 24 30
REMARK H PARENT 17 21 21 28 24 31
ROOT
ATOM      1  C   UNL     1       0.739  -1.322   1.073  1.00  0.00    -0.012 A 
ATOM      2  C   UNL     1       0.470  -2.653   0.773  1.00  0.00     0.029 A 
ATOM      3  C   UNL     1      -0.770  -2.958   0.248  1.00  0.00     0.114 A 
ATOM      4  N   UNL     1      -1.736  -2.042   0.017  1.00  0.00    -0.240 NA
ATOM      5  C   UNL     1      -1.485  -0.756   0.326  1.00  0.00     0.126 A 
ATOM      6  C   UNL     1      -0.254  -0.364   0.846  1.00  0.00     0.055 A 
ENDROOT
BRANCH   1   7
ATOM      7  C   UNL     1       2.049  -0.934   1.620  1.00  0.00    -0.001 A 
ATOM      8  C   UNL     1       5.162   0.909   0.813  1.00  0.00     0.137 A 
ATOM      9  N   UNL     1       6.153   0.979   1.682  1.00  0.00    -0.135 NA
ATOM     10  N   UNL     1       4.130   0.174   1.359  1.00  0.00    -0.286 N 
ATOM     11  N   UNL     1       5.790   0.287   2.813  1.00  0.00    -0.130 NA
ATOM     12  C   UNL     1       2.880  -0.190   0.860  1.00  0.00     0.103 A 
ATOM     13  C   UNL     1       4.582  -0.192   2.618  1.00  0.00     0.160 A 
ATOM     14  C   UNL     1       3.717  -0.974   3.428  1.00  0.00     0.050 A 
ATOM     15  C   UNL     1       2.508  -1.331   2.954  1.00  0.00     0.014 A 
BRANCH   8  16
ATOM     16  C   UNL     1       5.152   1.532  -0.542  1.00  0.00     0.081 C 
BRANCH  16  17
ATOM     17  C   UNL     1       5.988   0.740  -1.563  1.00  0.00    -0.010 C 
ATOM     18  C   UNL     1       5.357  -0.613  -1.903  1.00  0.00     0.008 C 
ATOM     19  C   UNL     1       6.160   1.562  -2.843  1.00  0.00     0.008 C 
ENDBRANCH  16  17
ENDBRANCH   8  16
ENDBRANCH   1   7
BRANCH   5  20
ATOM     20  N   UNL     1      -2.440   0.240   0.077  1.00  0.00    -0.367 N 
ATOM     21  H   UNL     1      -2.538   0.839   0.891  1.00  0.00     0.162 HD
BRANCH  20  22
ATOM     22  C   UNL     1      -3.739  -0.205  -0.452  1.00  0.00     0.083 C 
ATOM     23  C   UNL     1      -4.596  -0.874   0.636  1.00  0.00     0.040 C 
ATOM     24  C   UNL     1      -4.460   1.015  -1.034  1.00  0.00     0.046 C 
ATOM     25  C   UNL     1      -6.054  -0.421   0.606  1.00  0.00     0.083 C 
ATOM     26  C   UNL     1      -5.832   0.609  -1.602  1.00  0.00     0.081 C 
ATOM     27  N   UNL     1      -6.560  -0.352  -0.758  1.00  0.00    -0.312 NA
ATOM     28  H   UNL     1      -7.561  -0.156  -0.754  1.00  0.00     0.123 HD
BRANCH  26  29
ATOM     29  C   UNL     1      -6.684   1.858  -1.915  1.00  0.00     0.175 C 
BRANCH  29  30
ATOM     30  O   UNL     1      -6.024   2.732  -2.825  1.00  0.00    -0.395 OA
ATOM     31  H   UNL     1      -5.874   2.236  -3.649  1.00  0.00     0.210 HD
ENDBRANCH  29  30
ENDBRANCH  26  29
ENDBRANCH  20  22
ENDBRANCH   5  20
TORSDOF 7
