MODEL        4USER    Run = 4USERUSER    Estimated Free Energy of Binding    = -10.04 kcal/mol  [=(1)+(2)+(3)-(4)]USERUSER    (1) Final Intermolecular Energy     = -11.53 kcal/molUSER        vdW + Hbond + desolv Energy     = -11.52 kcal/molUSER        Electrostatic Energy            =  -0.01 kcal/molUSER        Moving Ligand-Fixed Receptor    = -11.53 kcal/molUSER        Moving Ligand-Moving Receptor   =  +0.00 kcal/molUSER    (2) Final Total Internal Energy     =  -1.02 kcal/molUSER    (3) Torsional Free Energy           =  +1.49 kcal/molUSER    (4) Unbound System's Energy         =  -1.02 kcal/molUSERUSERREMARK SMILES CC(C)Cc1nnc2ccc(-c3ccnc(N[C@@H]4CCNC[C@@H]4C)c3)cn12REMARK SMILES IDX 5 1 6 2 7 3 8 4 9 5 10 6 11 7 26 8 27 9 4 10 2 11 1 12 3 13REMARK SMILES IDX 12 14 13 15 25 16 14 17 16 18 15 19 17 20 18 22 19 23 23 24REMARK SMILES IDX 20 25 22 26 21 27 24 28REMARK H PARENT 17 21 21 29USER                              x       y       z     vdW  Elec       q    TypeUSER                           _______ _______ _______ _____ _____    ______ ____ROOTATOM      1  C   UNL     1      39.358  48.560  15.415 -0.42 -0.06    +0.137 A  ATOM      2  N   UNL     1      40.422  49.278  15.109 -0.50 +0.05    -0.135 NA ATOM      3  N   UNL     1      41.418  48.988  16.013 -1.02 +0.00    -0.130 NA ATOM      4  C   UNL     1      40.943  48.103  16.860 -0.41 -0.02    +0.160 A  ATOM      5  C   UNL     1      41.511  47.447  17.985 -0.48 -0.00    +0.050 A  ATOM      6  C   UNL     1      40.767  46.567  18.683 -0.47 -0.00    +0.014 A  ATOM      7  C   UNL     1      39.381  46.263  18.319 -0.41 +0.00    -0.001 A  ATOM      8  C   UNL     1      38.852  46.891  17.248 -0.31 -0.03    +0.103 A  ATOM      9  N   UNL     1      39.632  47.797  16.531 -0.28 +0.09    -0.286 N  ENDROOTBRANCH   1  10ATOM     10  C   UNL     1      38.060  48.565  14.682 -0.52 -0.05    +0.081 C  BRANCH  10  11ATOM     11  C   UNL     1      38.000  47.505  13.567 -0.58 +0.00    -0.010 C  ATOM     12  C   UNL     1      36.733  47.637  12.715 -0.72 -0.00    +0.008 C  ATOM     13  C   UNL     1      38.064  46.102  14.177 -0.49 -0.00    +0.008 C  ENDBRANCH  10  11ENDBRANCH   1  10BRANCH   7  14ATOM     14  C   UNL     1      38.544  45.316  19.067 -0.36 +0.00    -0.012 A  ATOM     15  C   UNL     1      37.453  44.703  18.458 -0.34 -0.01    +0.029 A  ATOM     16  C   UNL     1      38.836  45.017  20.399 -0.33 -0.00    +0.055 A  ATOM     17  C   UNL     1      36.702  43.829  19.219 -0.27 -0.01    +0.114 A  ATOM     18  C   UNL     1      38.031  44.119  21.096 -0.29 +0.00    +0.126 A  ATOM     19  N   UNL     1      36.967  43.532  20.511 -0.24 +0.01    -0.240 NA BRANCH  18  20ATOM     20  N   UNL     1      38.354  43.859  22.441 -0.11 -0.02    -0.367 N  ATOM     21  H   UNL     1      38.137  42.879  22.606 +0.10 +0.01    +0.162 HD BRANCH  20  22ATOM     22  C   UNL     1      37.726  44.731  23.445 -0.32 +0.01    +0.086 C  ATOM     23  C   UNL     1      38.750  45.659  24.106 -0.30 +0.00    +0.040 C  ATOM     24  C   UNL     1      36.994  43.906  24.547 -0.37 +0.00    +0.022 C  ATOM     25  C   UNL     1      38.031  46.660  25.020 -0.30 +0.01    +0.083 C  ATOM     26  C   UNL     1      36.937  44.686  25.879 -0.35 -0.00    +0.086 C  ATOM     27  N   UNL     1      36.831  46.129  25.679 -0.61 +0.00    -0.316 NA ATOM     28  C   UNL     1      37.591  42.520  24.827 -0.40 +0.00    +0.011 C  ATOM     29  H   UNL     1      36.012  46.334  25.105 -0.43 +0.02    +0.122 HD ENDBRANCH  20  22ENDBRANCH  18  20ENDBRANCH   7  14TORSDOF 5TERENDMDL