MODEL        10USER    Run = 10USERUSER    Estimated Free Energy of Binding    =  -9.58 kcal/mol  [=(1)+(2)+(3)-(4)]USERUSER    (1) Final Intermolecular Energy     = -11.07 kcal/molUSER        vdW + Hbond + desolv Energy     = -10.93 kcal/molUSER        Electrostatic Energy            =  -0.14 kcal/molUSER        Moving Ligand-Fixed Receptor    = -11.07 kcal/molUSER        Moving Ligand-Moving Receptor   =  +0.00 kcal/molUSER    (2) Final Total Internal Energy     =  -1.32 kcal/molUSER    (3) Torsional Free Energy           =  +1.49 kcal/molUSER    (4) Unbound System's Energy         =  -1.32 kcal/molUSERUSERREMARK SMILES CC(C)Cc1nnc2ccc(-c3ccnc(NC4CCOCC4)c3)cn12REMARK SMILES IDX 5 1 6 2 7 3 8 4 9 5 10 6 11 7 25 8 26 9 4 10 2 11 1 12 3 13REMARK SMILES IDX 12 14 13 15 24 16 14 17 16 18 15 19 17 20 18 22 19 23 23 24REMARK SMILES IDX 20 25 22 26 21 27REMARK H PARENT 17 21USER                              x       y       z     vdW  Elec       q    TypeUSER                           _______ _______ _______ _____ _____    ______ ____ROOTATOM      1  C   UNL     1      41.458  48.110  17.625 -0.36 -0.01    +0.137 A  ATOM      2  N   UNL     1      42.560  48.202  18.345 -0.47 -0.00    -0.135 NA ATOM      3  N   UNL     1      42.602  47.139  19.216 -0.47 -0.02    -0.130 NA ATOM      4  C   UNL     1      41.521  46.419  19.021 -0.37 +0.01    +0.160 A  ATOM      5  C   UNL     1      41.038  45.229  19.625 -0.38 +0.00    +0.050 A  ATOM      6  C   UNL     1      39.864  44.706  19.217 -0.40 -0.00    +0.014 A  ATOM      7  C   UNL     1      39.063  45.329  18.160 -0.41 +0.00    -0.001 A  ATOM      8  C   UNL     1      39.532  46.462  17.595 -0.38 -0.02    +0.103 A  ATOM      9  N   UNL     1      40.750  46.994  18.023 -0.31 +0.03    -0.286 N  ENDROOTBRANCH   1  10ATOM     10  C   UNL     1      41.030  49.069  16.565 -0.42 -0.01    +0.081 C  BRANCH  10  11ATOM     11  C   UNL     1      41.021  48.485  15.139 -0.63 +0.00    -0.010 C  ATOM     12  C   UNL     1      41.552  49.466  14.093 -0.67 -0.00    +0.008 C  ATOM     13  C   UNL     1      39.645  47.956  14.726 -0.58 -0.00    +0.008 C  ENDBRANCH  10  11ENDBRANCH   1  10BRANCH   7  14ATOM     14  C   UNL     1      37.777  44.785  17.699 -0.35 +0.00    -0.012 A  ATOM     15  C   UNL     1      36.976  44.045  18.564 -0.29 -0.01    +0.029 A  ATOM     16  C   UNL     1      37.338  44.995  16.388 -0.31 -0.02    +0.055 A  ATOM     17  C   UNL     1      35.774  43.567  18.080 -0.25 -0.03    +0.114 A  ATOM     18  C   UNL     1      36.117  44.470  15.976 -0.27 -0.05    +0.126 A  ATOM     19  N   UNL     1      35.336  43.770  16.819 -0.18 +0.09    -0.240 NA BRANCH  18  20ATOM     20  N   UNL     1      35.705  44.730  14.655 -0.06 +0.17    -0.367 N  ATOM     21  H   UNL     1      34.722  44.986  14.687 +0.11 -0.10    +0.162 HD BRANCH  20  22ATOM     22  C   UNL     1      36.503  45.718  13.909 -0.44 -0.04    +0.085 C  ATOM     23  C   UNL     1      35.866  47.097  14.095 -0.42 -0.04    +0.053 C  ATOM     24  C   UNL     1      36.555  45.365  12.415 -0.59 -0.02    +0.053 C  ATOM     25  C   UNL     1      36.635  48.160  13.316 -0.51 -0.08    +0.162 C  ATOM     26  C   UNL     1      36.554  46.604  11.528 -0.51 -0.07    +0.162 C  ATOM     27  O   UNL     1      37.286  47.652  12.153 -0.99 +0.06    -0.381 OA ENDBRANCH  20  22ENDBRANCH  18  20ENDBRANCH   7  14TORSDOF 5TERENDMDL