MODEL        6USER    Run = 6USERUSER    Estimated Free Energy of Binding    =  -9.54 kcal/mol  [=(1)+(2)+(3)-(4)]USERUSER    (1) Final Intermolecular Energy     = -11.03 kcal/molUSER        vdW + Hbond + desolv Energy     = -10.77 kcal/molUSER        Electrostatic Energy            =  -0.25 kcal/molUSER        Moving Ligand-Fixed Receptor    = -11.03 kcal/molUSER        Moving Ligand-Moving Receptor   =  +0.00 kcal/molUSER    (2) Final Total Internal Energy     =  -1.13 kcal/molUSER    (3) Torsional Free Energy           =  +1.49 kcal/molUSER    (4) Unbound System's Energy         =  -1.13 kcal/molUSERUSERREMARK SMILES CC(C)(C)Cc1nnc2ccc(-c3ccnc(NC4COC4)c3)cn12REMARK SMILES IDX 6 1 7 2 8 3 9 4 10 5 11 6 12 7 24 8 25 9 5 10 2 11 1 12 3 13REMARK SMILES IDX 4 14 13 15 14 16 23 17 15 18 17 19 16 20 18 21 19 23 20 24REMARK SMILES IDX 22 25 21 26REMARK H PARENT 18 22USER                              x       y       z     vdW  Elec       q    TypeUSER                           _______ _______ _______ _____ _____    ______ ____ROOTATOM      1  C   UNL     1      33.101  44.661  17.723 -0.23 -0.05    +0.137 A  ATOM      2  N   UNL     1      31.819  44.401  17.888 -0.28 +0.02    -0.135 NA ATOM      3  N   UNL     1      31.140  44.782  16.756 -0.70 +0.02    -0.130 NA ATOM      4  C   UNL     1      32.017  45.271  15.911 -0.24 -0.09    +0.160 A  ATOM      5  C   UNL     1      31.898  45.809  14.603 -0.44 -0.04    +0.050 A  ATOM      6  C   UNL     1      33.001  46.243  13.961 -0.03 -0.01    +0.014 A  ATOM      7  C   UNL     1      34.332  46.180  14.573 -0.21 +0.00    -0.001 A  ATOM      8  C   UNL     1      34.432  45.666  15.817 -0.18 -0.10    +0.103 A  ATOM      9  N   UNL     1      33.283  45.219  16.472 -0.15 +0.21    -0.286 N  ENDROOTBRANCH   1  10ATOM     10  C   UNL     1      34.226  44.419  18.678 -0.38 -0.02    +0.084 C  BRANCH  10  11ATOM     11  C   UNL     1      35.264  43.334  18.291 -0.38 +0.01    -0.031 C  ATOM     12  C   UNL     1      36.553  44.061  17.847 -0.37 -0.00    +0.011 C  ATOM     13  C   UNL     1      35.621  42.431  19.484 -0.48 -0.00    +0.011 C  ATOM     14  C   UNL     1      34.780  42.476  17.109 -0.48 -0.00    +0.011 C  ENDBRANCH  10  11ENDBRANCH   1  10BRANCH   7  15ATOM     15  C   UNL     1      35.551  46.637  13.888 -0.46 +0.01    -0.012 A  ATOM     16  C   UNL     1      35.822  46.252  12.579 -0.57 -0.02    +0.029 A  ATOM     17  C   UNL     1      36.468  47.451  14.559 -0.37 -0.04    +0.055 A  ATOM     18  C   UNL     1      36.995  46.700  12.002 -0.56 -0.04    +0.114 A  ATOM     19  C   UNL     1      37.619  47.869  13.898 -0.44 -0.06    +0.126 A  ATOM     20  N   UNL     1      37.889  47.492  12.633 -0.85 +0.03    -0.240 NA BRANCH  19  21ATOM     21  N   UNL     1      38.555  48.661  14.599 -0.22 +0.20    -0.363 N  ATOM     22  H   UNL     1      38.571  49.588  14.183 -0.38 -0.14    +0.162 HD BRANCH  21  23ATOM     23  C   UNL     1      39.888  48.174  14.862 -0.50 -0.04    +0.132 C  ATOM     24  C   UNL     1      40.260  48.095  16.349 -0.46 -0.04    +0.187 C  ATOM     25  C   UNL     1      40.957  49.272  14.814 -0.55 -0.04    +0.187 C  ATOM     26  O   UNL     1      41.448  48.905  16.129 -0.88 -0.00    -0.377 OA ENDBRANCH  21  23ENDBRANCH  19  21ENDBRANCH   7  15TORSDOF 5TERENDMDL