MODEL        5USER    Run = 5USERUSER    Estimated Free Energy of Binding    =  -9.14 kcal/mol  [=(1)+(2)+(3)-(4)]USERUSER    (1) Final Intermolecular Energy     = -10.63 kcal/molUSER        vdW + Hbond + desolv Energy     = -10.58 kcal/molUSER        Electrostatic Energy            =  -0.05 kcal/molUSER        Moving Ligand-Fixed Receptor    = -10.63 kcal/molUSER        Moving Ligand-Moving Receptor   =  +0.00 kcal/molUSER    (2) Final Total Internal Energy     =  -0.91 kcal/molUSER    (3) Torsional Free Energy           =  +1.49 kcal/molUSER    (4) Unbound System's Energy         =  -0.91 kcal/molUSERUSERREMARK SMILES CC(C)Cc1nnc2ccc(-c3ccnc(NC4CC4)c3)cn12REMARK SMILES IDX 5 1 6 2 7 3 8 4 9 5 10 6 11 7 22 8 23 9 4 10 2 11 1 12 3 13REMARK SMILES IDX 12 14 13 15 21 16 14 17 16 18 15 19 17 20 18 22 19 23 20 24REMARK H PARENT 17 21USER                              x       y       z     vdW  Elec       q    TypeUSER                           _______ _______ _______ _____ _____    ______ ____ROOTATOM      1  C   UNL     1      35.181  45.331  16.220 -0.23 -0.09    +0.137 A  ATOM      2  N   UNL     1      34.180  45.149  15.379 -0.26 +0.10    -0.135 NA ATOM      3  N   UNL     1      34.413  45.903  14.253 -0.28 +0.11    -0.130 NA ATOM      4  C   UNL     1      35.561  46.521  14.415 -0.28 -0.13    +0.160 A  ATOM      5  C   UNL     1      36.296  47.412  13.591 -0.50 -0.03    +0.050 A  ATOM      6  C   UNL     1      37.479  47.891  14.021 -0.53 -0.01    +0.014 A  ATOM      7  C   UNL     1      38.040  47.516  15.323 -0.47 +0.00    -0.001 A  ATOM      8  C   UNL     1      37.329  46.671  16.100 -0.32 -0.06    +0.103 A  ATOM      9  N   UNL     1      36.102  46.185  15.647 -0.17 +0.21    -0.286 N  ENDROOTBRANCH   1  10ATOM     10  C   UNL     1      35.331  44.699  17.565 -0.32 -0.03    +0.081 C  BRANCH  10  11ATOM     11  C   UNL     1      34.303  45.212  18.591 -0.49 +0.00    -0.010 C  ATOM     12  C   UNL     1      34.001  46.690  18.333 -0.61 -0.01    +0.008 C  ATOM     13  C   UNL     1      33.002  44.404  18.543 -0.43 -0.00    +0.008 C  ENDBRANCH  10  11ENDBRANCH   1  10BRANCH   7  14ATOM     14  C   UNL     1      39.327  48.026  15.819 -0.50 +0.00    -0.012 A  ATOM     15  C   UNL     1      39.979  47.383  16.866 -0.48 -0.01    +0.029 A  ATOM     16  C   UNL     1      39.913  49.162  15.252 -0.44 -0.02    +0.055 A  ATOM     17  C   UNL     1      41.192  47.896  17.286 -0.40 -0.01    +0.114 A  ATOM     18  C   UNL     1      41.131  49.625  15.745 -0.53 -0.02    +0.126 A  ATOM     19  N   UNL     1      41.774  48.986  16.745 -0.83 -0.04    -0.240 NA BRANCH  18  20ATOM     20  N   UNL     1      41.714  50.756  15.121 -0.34 +0.09    -0.367 N  ATOM     21  H   UNL     1      41.849  51.480  15.821 -0.37 -0.07    +0.162 HD BRANCH  20  22ATOM     22  C   UNL     1      42.866  50.536  14.240 -0.50 -0.02    +0.080 C  ATOM     23  C   UNL     1      42.750  49.622  13.051 -0.65 -0.01    +0.027 C  ATOM     24  C   UNL     1      42.904  51.101  12.848 -0.62 -0.01    +0.027 C  ENDBRANCH  20  22ENDBRANCH  18  20ENDBRANCH   7  14TORSDOF 5TERENDMDL