MODEL        10USER    Run = 10USERUSER    Estimated Free Energy of Binding    = -10.00 kcal/mol  [=(1)+(2)+(3)-(4)]USERUSER    (1) Final Intermolecular Energy     = -11.79 kcal/molUSER        vdW + Hbond + desolv Energy     = -11.54 kcal/molUSER        Electrostatic Energy            =  -0.25 kcal/molUSER        Moving Ligand-Fixed Receptor    = -11.79 kcal/molUSER        Moving Ligand-Moving Receptor   =  +0.00 kcal/molUSER    (2) Final Total Internal Energy     =  -0.90 kcal/molUSER    (3) Torsional Free Energy           =  +1.79 kcal/molUSER    (4) Unbound System's Energy         =  -0.90 kcal/molUSERUSERREMARK SMILES CC(C)Cc1nnc2ccc(-c3ccnc(N[C@@H]4CO[C@@H](N)C4)c3)cn12REMARK SMILES IDX 12 1 13 2 14 3 15 4 16 5 24 6 11 7 5 8 6 9 26 10 7 11 25 12REMARK SMILES IDX 8 13 9 14 10 15 4 16 2 17 1 18 3 19 17 20 18 22 19 23 23 24REMARK SMILES IDX 20 25 21 26 22 27REMARK H PARENT 17 21 22 28 22 29USER                              x       y       z     vdW  Elec       q    TypeUSER                           _______ _______ _______ _____ _____    ______ ____ROOTATOM      1  C   UNL     1      35.652  46.512  14.291 -0.42 +0.01    -0.012 A  ATOM      2  C   UNL     1      35.681  46.589  12.903 -0.55 -0.02    +0.029 A  ATOM      3  C   UNL     1      36.690  47.329  12.319 -0.58 -0.04    +0.114 A  ATOM      4  N   UNL     1      37.641  47.987  13.017 -0.83 +0.05    -0.240 NA ATOM      5  C   UNL     1      37.600  47.927  14.364 -0.43 -0.07    +0.126 A  ATOM      6  C   UNL     1      36.623  47.194  15.030 -0.36 -0.04    +0.055 A  ENDROOTBRANCH   1   7ATOM      7  C   UNL     1      34.612  45.727  14.970 -0.34 +0.00    -0.001 A  ATOM      8  C   UNL     1      34.097  43.087  17.520 -0.26 -0.05    +0.137 A  ATOM      9  N   UNL     1      32.881  42.679  17.833 -0.23 +0.04    -0.135 NA ATOM     10  N   UNL     1      34.008  44.064  16.549 -0.13 +0.14    -0.286 N  ATOM     11  N   UNL     1      31.977  43.362  17.055 -0.23 +0.04    -0.130 NA ATOM     12  C   UNL     1      34.982  44.825  15.903 -0.26 -0.06    +0.103 A  ATOM     13  C   UNL     1      32.652  44.189  16.290 -0.22 -0.08    +0.160 A  ATOM     14  C   UNL     1      32.251  45.132  15.307 -0.35 -0.03    +0.050 A  ATOM     15  C   UNL     1      33.184  45.868  14.674 -0.18 -0.01    +0.014 A  BRANCH   8  16ATOM     16  C   UNL     1      35.375  42.609  18.128 -0.38 -0.02    +0.081 C  BRANCH  16  17ATOM     17  C   UNL     1      35.651  43.216  19.517 -0.47 +0.00    -0.010 C  ATOM     18  C   UNL     1      36.121  42.155  20.517 -0.54 -0.00    +0.008 C  ATOM     19  C   UNL     1      36.705  44.322  19.404 -0.43 -0.00    +0.008 C  ENDBRANCH  16  17ENDBRANCH   8  16ENDBRANCH   1   7BRANCH   5  20ATOM     20  N   UNL     1      38.577  48.584  15.140 -0.24 +0.21    -0.365 N  ATOM     21  H   UNL     1      38.507  49.579  14.933 -0.40 -0.14    +0.162 HD BRANCH  20  22ATOM     22  C   UNL     1      39.952  48.083  14.954 -0.53 -0.03    +0.110 C  ATOM     23  C   UNL     1      40.682  47.840  16.282 -0.46 -0.03    +0.187 C  ATOM     24  C   UNL     1      40.808  49.176  14.345 -0.54 -0.02    +0.075 C  ATOM     25  O   UNL     1      41.402  49.041  16.627 -0.94 -0.00    -0.361 OA ATOM     26  C   UNL     1      41.221  49.972  15.568 -0.57 -0.04    +0.185 C  BRANCH  26  27ATOM     27  N   UNL     1      42.451  50.698  15.345 -0.38 +0.01    -0.306 NA ATOM     28  H   UNL     1      42.218  51.687  15.398 -0.29 -0.03    +0.121 HD ATOM     29  H   UNL     1      42.778  50.526  14.398 -0.01 -0.02    +0.121 HD ENDBRANCH  26  27ENDBRANCH  20  22ENDBRANCH   5  20TORSDOF 6TERENDMDL