MODEL        7USER    Run = 7USERUSER    Estimated Free Energy of Binding    = -10.26 kcal/mol  [=(1)+(2)+(3)-(4)]USERUSER    (1) Final Intermolecular Energy     = -11.75 kcal/molUSER        vdW + Hbond + desolv Energy     = -11.57 kcal/molUSER        Electrostatic Energy            =  -0.18 kcal/molUSER        Moving Ligand-Fixed Receptor    = -11.75 kcal/molUSER        Moving Ligand-Moving Receptor   =  +0.00 kcal/molUSER    (2) Final Total Internal Energy     =  -1.20 kcal/molUSER    (3) Torsional Free Energy           =  +1.49 kcal/molUSER    (4) Unbound System's Energy         =  -1.20 kcal/molUSERUSERREMARK SMILES CC(C)Cc1nnc2ccc(-c3ccnc(NC4CCN(C)CC4)c3)cn12REMARK SMILES IDX 5 1 6 2 7 3 8 4 9 5 10 6 11 7 26 8 27 9 4 10 2 11 1 12 3 13REMARK SMILES IDX 12 14 13 15 25 16 14 17 16 18 15 19 17 20 18 22 19 23 24 24REMARK SMILES IDX 20 25 23 26 21 27 22 28REMARK H PARENT 17 21USER                              x       y       z     vdW  Elec       q    TypeUSER                           _______ _______ _______ _____ _____    ______ ____ROOTATOM      1  C   UNL     1      31.857  44.426  16.218 -0.24 -0.06    +0.137 A  ATOM      2  N   UNL     1      31.476  44.123  17.443 -0.31 +0.02    -0.135 NA ATOM      3  N   UNL     1      32.473  44.495  18.314 -0.26 +0.03    -0.130 NA ATOM      4  C   UNL     1      33.449  45.017  17.606 -0.23 -0.08    +0.160 A  ATOM      5  C   UNL     1      34.708  45.568  17.962 -0.38 -0.03    +0.050 A  ATOM      6  C   UNL     1      35.524  46.034  16.996 -0.35 -0.01    +0.014 A  ATOM      7  C   UNL     1      35.154  45.988  15.579 -0.32 +0.00    -0.001 A  ATOM      8  C   UNL     1      33.953  45.465  15.253 -0.23 -0.09    +0.103 A  ATOM      9  N   UNL     1      33.115  44.989  16.260 -0.15 +0.19    -0.286 N  ENDROOTBRANCH   1  10ATOM     10  C   UNL     1      31.066  44.206  14.975 -0.38 -0.05    +0.081 C  BRANCH  10  11ATOM     11  C   UNL     1      30.383  45.489  14.467 -0.52 +0.01    -0.010 C  ATOM     12  C   UNL     1      30.562  46.614  15.488 -0.44 -0.00    +0.008 C  ATOM     13  C   UNL     1      30.936  45.933  13.109 -0.66 -0.01    +0.008 C  ENDBRANCH  10  11ENDBRANCH   1  10BRANCH   7  14ATOM     14  C   UNL     1      36.022  46.492  14.506 -0.42 +0.01    -0.012 A  ATOM     15  C   UNL     1      35.816  46.100  13.189 -0.48 -0.02    +0.029 A  ATOM     16  C   UNL     1      37.067  47.371  14.800 -0.41 -0.04    +0.055 A  ATOM     17  C   UNL     1      36.659  46.619  12.226 -0.57 -0.05    +0.114 A  ATOM     18  C   UNL     1      37.880  47.840  13.771 -0.42 -0.05    +0.126 A  ATOM     19  N   UNL     1      37.669  47.475  12.492 -0.94 +0.03    -0.240 NA BRANCH  18  20ATOM     20  N   UNL     1      38.890  48.755  14.097 -0.12 +0.16    -0.367 N  ATOM     21  H   UNL     1      38.500  49.548  14.598 -0.40 -0.14    +0.162 HD BRANCH  20  22ATOM     22  C   UNL     1      40.095  48.219  14.745 -0.53 -0.02    +0.083 C  ATOM     23  C   UNL     1      40.311  48.994  16.055 -0.60 -0.01    +0.040 C  ATOM     24  C   UNL     1      39.992  46.704  14.991 -0.49 -0.01    +0.040 C  ATOM     25  C   UNL     1      41.109  48.155  17.046 -0.52 -0.01    +0.086 C  ATOM     26  C   UNL     1      39.518  46.388  16.407 -0.44 -0.02    +0.086 C  ATOM     27  N   UNL     1      40.371  46.954  17.459 -0.28 +0.04    -0.306 NA ATOM     28  C   UNL     1      41.276  45.959  18.031 -0.46 -0.00    +0.105 C  ENDBRANCH  20  22ENDBRANCH  18  20ENDBRANCH   7  14TORSDOF 5TERENDMDL