MODEL        9USER    Run = 9USERUSER    Estimated Free Energy of Binding    =  -9.39 kcal/mol  [=(1)+(2)+(3)-(4)]USERUSER    (1) Final Intermolecular Energy     = -10.88 kcal/molUSER        vdW + Hbond + desolv Energy     = -10.72 kcal/molUSER        Electrostatic Energy            =  -0.16 kcal/molUSER        Moving Ligand-Fixed Receptor    = -10.88 kcal/molUSER        Moving Ligand-Moving Receptor   =  +0.00 kcal/molUSER    (2) Final Total Internal Energy     =  -0.97 kcal/molUSER    (3) Torsional Free Energy           =  +1.49 kcal/molUSER    (4) Unbound System's Energy         =  -0.97 kcal/molUSERUSERREMARK SMILES CC(C)Cc1nnc2ccc(-c3ccnc(NC4COC4)c3)cn12REMARK SMILES IDX 5 1 6 2 7 3 8 4 9 5 10 6 11 7 23 8 24 9 4 10 2 11 1 12 3 13REMARK SMILES IDX 12 14 13 15 22 16 14 17 16 18 15 19 17 20 18 22 19 23 21 24REMARK SMILES IDX 20 25REMARK H PARENT 17 21USER                              x       y       z     vdW  Elec       q    TypeUSER                           _______ _______ _______ _____ _____    ______ ____ROOTATOM      1  C   UNL     1      38.453  47.304  14.171 -0.38 -0.04    +0.137 A  ATOM      2  N   UNL     1      38.246  48.015  13.078 -0.67 +0.02    -0.135 NA ATOM      3  N   UNL     1      36.929  47.873  12.708 -1.08 +0.04    -0.130 NA ATOM      4  C   UNL     1      36.348  47.091  13.588 -0.41 -0.09    +0.160 A  ATOM      5  C   UNL     1      35.020  46.607  13.716 -0.40 -0.04    +0.050 A  ATOM      6  C   UNL     1      34.701  45.811  14.755 -0.33 -0.01    +0.014 A  ATOM      7  C   UNL     1      35.687  45.426  15.768 -0.35 +0.00    -0.001 A  ATOM      8  C   UNL     1      36.948  45.886  15.633 -0.30 -0.05    +0.103 A  ATOM      9  N   UNL     1      37.268  46.706  14.550 -0.19 +0.14    -0.286 N  ENDROOTBRANCH   1  10ATOM     10  C   UNL     1      39.737  47.173  14.922 -0.49 -0.02    +0.081 C  BRANCH  10  11ATOM     11  C   UNL     1      39.981  48.312  15.929 -0.62 +0.00    -0.010 C  ATOM     12  C   UNL     1      40.672  47.762  17.180 -0.60 -0.00    +0.008 C  ATOM     13  C   UNL     1      40.831  49.434  15.325 -0.72 -0.00    +0.008 C  ENDBRANCH  10  11ENDBRANCH   1  10BRANCH   7  14ATOM     14  C   UNL     1      35.364  44.555  16.909 -0.30 +0.01    -0.012 A  ATOM     15  C   UNL     1      35.679  44.940  18.210 -0.33 -0.01    +0.029 A  ATOM     16  C   UNL     1      34.714  43.336  16.703 -0.34 -0.02    +0.055 A  ATOM     17  C   UNL     1      35.332  44.086  19.240 -0.30 -0.02    +0.114 A  ATOM     18  C   UNL     1      34.413  42.530  17.796 -0.31 -0.04    +0.126 A  ATOM     19  N   UNL     1      34.711  42.901  19.057 -0.22 +0.03    -0.240 NA BRANCH  18  20ATOM     20  N   UNL     1      33.733  41.313  17.573 -0.17 +0.16    -0.363 N  ATOM     21  H   UNL     1      34.297  40.552  17.948 -0.45 -0.07    +0.162 HD BRANCH  20  22ATOM     22  C   UNL     1      32.343  41.162  17.949 -0.37 -0.03    +0.132 C  ATOM     23  C   UNL     1      31.996  39.725  18.362 -0.37 -0.00    +0.187 C  ATOM     24  C   UNL     1      32.066  41.483  19.426 -0.20 +0.01    +0.187 C  ATOM     25  O   UNL     1      32.110  40.070  19.770 -0.83 -0.11    -0.377 OA ENDBRANCH  20  22ENDBRANCH  18  20ENDBRANCH   7  14TORSDOF 5TERENDMDL