REMARK SMILES CC(C)Cc1nnc2ccc(-c3ccnc(NC4CCN(C)CC4)c3)cn12
REMARK SMILES IDX 5 1 6 2 7 3 8 4 9 5 10 6 11 7 26 8 27 9 4 10 2 11 1 12 3 13
REMARK SMILES IDX 12 14 13 15 25 16 14 17 16 18 15 19 17 20 18 22 19 23 24 24
REMARK SMILES IDX 20 25 23 26 21 27 22 28
REMARK H PARENT 17 21
ROOT
ATOM      1  C   UNL     1       5.357  -1.020   0.548  1.00  0.00     0.137 A 
ATOM      2  N   UNL     1       6.154  -2.050   0.756  1.00  0.00    -0.135 NA
ATOM      3  N   UNL     1       5.438  -3.030   1.403  1.00  0.00    -0.130 NA
ATOM      4  C   UNL     1       4.217  -2.581   1.583  1.00  0.00     0.160 A 
ATOM      5  C   UNL     1       3.060  -3.149   2.180  1.00  0.00     0.050 A 
ATOM      6  C   UNL     1       1.919  -2.434   2.227  1.00  0.00     0.014 A 
ATOM      7  C   UNL     1       1.832  -1.077   1.681  1.00  0.00    -0.001 A 
ATOM      8  C   UNL     1       2.936  -0.548   1.113  1.00  0.00     0.103 A 
ATOM      9  N   UNL     1       4.110  -1.298   1.066  1.00  0.00    -0.286 N 
ENDROOT
BRANCH   1  10
ATOM     10  C   UNL     1       5.729   0.249  -0.139  1.00  0.00     0.081 C 
BRANCH  10  11
ATOM     11  C   UNL     1       5.265   0.290  -1.607  1.00  0.00    -0.010 C 
ATOM     12  C   UNL     1       5.457   1.697  -2.175  1.00  0.00     0.008 C 
ATOM     13  C   UNL     1       6.018  -0.724  -2.474  1.00  0.00     0.008 C 
ENDBRANCH  10  11
ENDBRANCH   1  10
BRANCH   7  14
ATOM     14  C   UNL     1       0.601  -0.276   1.716  1.00  0.00    -0.012 A 
ATOM     15  C   UNL     1       0.382   0.638   2.740  1.00  0.00     0.029 A 
ATOM     16  C   UNL     1      -0.365  -0.425   0.718  1.00  0.00     0.055 A 
ATOM     17  C   UNL     1      -0.789   1.369   2.708  1.00  0.00     0.114 A 
ATOM     18  C   UNL     1      -1.526   0.343   0.765  1.00  0.00     0.126 A 
ATOM     19  N   UNL     1      -1.730   1.242   1.748  1.00  0.00    -0.240 NA
BRANCH  18  20
ATOM     20  N   UNL     1      -2.452   0.199  -0.276  1.00  0.00    -0.367 N 
ATOM     21  H   UNL     1      -2.646  -0.784  -0.443  1.00  0.00     0.162 HD
BRANCH  20  22
ATOM     22  C   UNL     1      -3.677   1.007  -0.198  1.00  0.00     0.083 C 
ATOM     23  C   UNL     1      -4.280   1.088  -1.610  1.00  0.00     0.040 C 
ATOM     24  C   UNL     1      -4.681   0.436   0.818  1.00  0.00     0.040 C 
ATOM     25  C   UNL     1      -5.780   1.349  -1.535  1.00  0.00     0.086 C 
ATOM     26  C   UNL     1      -5.729  -0.448   0.147  1.00  0.00     0.086 C 
ATOM     27  N   UNL     1      -6.495   0.232  -0.904  1.00  0.00    -0.306 NA
ATOM     28  C   UNL     1      -7.814   0.656  -0.440  1.00  0.00     0.105 C 
ENDBRANCH  20  22
ENDBRANCH  18  20
ENDBRANCH   7  14
TORSDOF 5
