REMARK SMILES CC(C)Cc1nnc2ccc(-c3ccnc(NC4COC4)c3)cn12
REMARK SMILES IDX 5 1 6 2 7 3 8 4 9 5 10 6 11 7 23 8 24 9 4 10 2 11 1 12 3 13
REMARK SMILES IDX 12 14 13 15 22 16 14 17 16 18 15 19 17 20 18 22 19 23 21 24
REMARK SMILES IDX 20 25
REMARK H PARENT 17 21
ROOT
ATOM      1  C   UNL     1       3.557  -0.646  -0.770  1.00  0.00     0.137 A 
ATOM      2  N   UNL     1       4.419  -1.630  -0.946  1.00  0.00    -0.135 NA
ATOM      3  N   UNL     1       3.722  -2.768  -1.278  1.00  0.00    -0.130 NA
ATOM      4  C   UNL     1       2.447  -2.459  -1.315  1.00  0.00     0.160 A 
ATOM      5  C   UNL     1       1.281  -3.217  -1.602  1.00  0.00     0.050 A 
ATOM      6  C   UNL     1       0.076  -2.616  -1.577  1.00  0.00     0.014 A 
ATOM      7  C   UNL     1      -0.075  -1.193  -1.263  1.00  0.00    -0.001 A 
ATOM      8  C   UNL     1       1.039  -0.483  -0.986  1.00  0.00     0.103 A 
ATOM      9  N   UNL     1       2.282  -1.117  -1.010  1.00  0.00    -0.286 N 
ENDROOT
BRANCH   1  10
ATOM     10  C   UNL     1       3.875   0.766  -0.404  1.00  0.00     0.081 C 
BRANCH  10  11
ATOM     11  C   UNL     1       5.216   0.923   0.336  1.00  0.00    -0.010 C 
ATOM     12  C   UNL     1       5.588   2.405   0.433  1.00  0.00     0.008 C 
ATOM     13  C   UNL     1       5.165   0.314   1.741  1.00  0.00     0.008 C 
ENDBRANCH  10  11
ENDBRANCH   1  10
BRANCH   7  14
ATOM     14  C   UNL     1      -1.380  -0.515  -1.226  1.00  0.00    -0.012 A 
ATOM     15  C   UNL     1      -1.741   0.390  -2.221  1.00  0.00     0.029 A 
ATOM     16  C   UNL     1      -2.286  -0.789  -0.199  1.00  0.00     0.055 A 
ATOM     17  C   UNL     1      -2.988   0.979  -2.139  1.00  0.00     0.114 A 
ATOM     18  C   UNL     1      -3.517  -0.141  -0.185  1.00  0.00     0.126 A 
ATOM     19  N   UNL     1      -3.873   0.732  -1.149  1.00  0.00    -0.240 NA
BRANCH  18  20
ATOM     20  N   UNL     1      -4.432  -0.447   0.845  1.00  0.00    -0.363 N 
ATOM     21  H   UNL     1      -3.949  -0.383   1.740  1.00  0.00     0.162 HD
BRANCH  20  22
ATOM     22  C   UNL     1      -5.724   0.204   0.905  1.00  0.00     0.132 C 
ATOM     23  C   UNL     1      -6.490  -0.123   2.195  1.00  0.00     0.187 C 
ATOM     24  C   UNL     1      -5.671   1.625   1.487  1.00  0.00     0.187 C 
ATOM     25  O   UNL     1      -6.075   1.134   2.796  1.00  0.00    -0.377 OA
ENDBRANCH  20  22
ENDBRANCH  18  20
ENDBRANCH   7  14
TORSDOF 5
