REMARK SMILES CC(C)(C)Cc1nnc2ccc(-c3ccnc(NC4COC4)c3)cn12
REMARK SMILES IDX 6 1 7 2 8 3 9 4 10 5 11 6 12 7 24 8 25 9 5 10 2 11 1 12 3 13
REMARK SMILES IDX 4 14 13 15 14 16 23 17 15 18 17 19 16 20 18 21 19 23 20 24
REMARK SMILES IDX 22 25 21 26
REMARK H PARENT 18 22
ROOT
ATOM      1  C   UNL     1      -3.137   0.792   0.369  1.00  0.00     0.137 A 
ATOM      2  N   UNL     1      -3.885   1.854   0.596  1.00  0.00    -0.135 NA
ATOM      3  N   UNL     1      -3.081   2.876   1.040  1.00  0.00    -0.130 NA
ATOM      4  C   UNL     1      -1.849   2.425   1.080  1.00  0.00     0.160 A 
ATOM      5  C   UNL     1      -0.616   3.022   1.452  1.00  0.00     0.050 A 
ATOM      6  C   UNL     1       0.518   2.297   1.388  1.00  0.00     0.014 A 
ATOM      7  C   UNL     1       0.524   0.900   0.945  1.00  0.00    -0.001 A 
ATOM      8  C   UNL     1      -0.655   0.343   0.593  1.00  0.00     0.103 A 
ATOM      9  N   UNL     1      -1.823   1.104   0.663  1.00  0.00    -0.286 N 
ENDROOT
BRANCH   1  10
ATOM     10  C   UNL     1      -3.564  -0.554  -0.124  1.00  0.00     0.084 C 
BRANCH  10  11
ATOM     11  C   UNL     1      -5.075  -0.759  -0.405  1.00  0.00    -0.031 C 
ATOM     12  C   UNL     1      -5.264  -2.212  -0.896  1.00  0.00     0.011 C 
ATOM     13  C   UNL     1      -5.923  -0.578   0.866  1.00  0.00     0.011 C 
ATOM     14  C   UNL     1      -5.583   0.180  -1.513  1.00  0.00     0.011 C 
ENDBRANCH  10  11
ENDBRANCH   1  10
BRANCH   7  15
ATOM     15  C   UNL     1       1.750   0.092   0.857  1.00  0.00    -0.012 A 
ATOM     16  C   UNL     1       1.974  -0.964   1.736  1.00  0.00     0.029 A 
ATOM     17  C   UNL     1       2.721   0.393  -0.102  1.00  0.00     0.055 A 
ATOM     18  C   UNL     1       3.156  -1.669   1.612  1.00  0.00     0.114 A 
ATOM     19  C   UNL     1       3.877  -0.379  -0.167  1.00  0.00     0.126 A 
ATOM     20  N   UNL     1       4.101  -1.397   0.687  1.00  0.00    -0.240 NA
BRANCH  19  21
ATOM     21  N   UNL     1       4.866  -0.041  -1.117  1.00  0.00    -0.363 N 
ATOM     22  H   UNL     1       4.418   0.081  -2.021  1.00  0.00     0.162 HD
BRANCH  21  23
ATOM     23  C   UNL     1       6.081  -0.812  -1.228  1.00  0.00     0.132 C 
ATOM     24  C   UNL     1       7.062  -0.634  -0.060  1.00  0.00     0.187 C 
ATOM     25  C   UNL     1       7.173  -0.113  -2.046  1.00  0.00     0.187 C 
ATOM     26  O   UNL     1       8.136  -0.277  -0.974  1.00  0.00    -0.377 OA
ENDBRANCH  21  23
ENDBRANCH  19  21
ENDBRANCH   7  15
TORSDOF 5
