MODEL        5USER    Run = 5USERUSER    Estimated Free Energy of Binding    =  -8.93 kcal/mol  [=(1)+(2)+(3)-(4)]USERUSER    (1) Final Intermolecular Energy     = -11.02 kcal/molUSER        vdW + Hbond + desolv Energy     = -10.78 kcal/molUSER        Electrostatic Energy            =  -0.24 kcal/molUSER        Moving Ligand-Fixed Receptor    = -11.02 kcal/molUSER        Moving Ligand-Moving Receptor   =  +0.00 kcal/molUSER    (2) Final Total Internal Energy     =  -1.87 kcal/molUSER    (3) Torsional Free Energy           =  +2.09 kcal/molUSER    (4) Unbound System's Energy         =  -1.87 kcal/molUSERUSERREMARK SMILES Cc1ccc(O)c(C(=O)c2ccc(C(=O)N[C@@H]3CCNC[C@H]3NC(=O)c3ccncc3)cc2)c1FREMARK SMILES IDX 10 1 11 2 12 3 13 4 32 5 33 6 8 7 9 8 7 9 2 10 3 11 34 12REMARK SMILES IDX 4 13 5 14 1 15 35 16 6 17 14 19 16 20 15 21 17 23 18 24REMARK SMILES IDX 22 25 19 26 21 27 20 28 23 30 24 31 25 33 26 34 27 35 31 36REMARK SMILES IDX 28 37 30 38 29 39REMARK H PARENT 6 18 16 22 20 29 23 32USER                              x       y       z     vdW  Elec       q    TypeUSER                           _______ _______ _______ _____ _____    ______ ____ROOTATOM      1  C   UNL     1      -0.867   2.393  -3.931 -0.34 +0.00    +0.023 A  ATOM      2  C   UNL     1      -0.290   3.246  -4.881 -0.19 -0.00    +0.013 A  ATOM      3  C   UNL     1       0.753   2.790  -5.695 -0.37 +0.00    +0.014 A  ATOM      4  C   UNL     1       1.239   1.485  -5.544 -0.37 +0.01    +0.039 A  ATOM      5  C   UNL     1       0.664   0.639  -4.584 -0.31 +0.00    +0.014 A  ATOM      6  C   UNL     1      -0.377   1.093  -3.772 -0.39 +0.00    +0.013 A  ENDROOTBRANCH   1   7ATOM      7  C   UNL     1      -1.953   2.924  -3.075 -0.20 -0.03    +0.199 C  ATOM      8  O   UNL     1      -3.088   3.016  -3.546 -0.11 +0.01    -0.288 OA BRANCH   7   9ATOM      9  C   UNL     1      -1.728   3.399  -1.691 -0.20 -0.03    +0.100 A  ATOM     10  C   UNL     1      -0.809   3.101   0.549 -0.39 +0.00    -0.014 A  ATOM     11  C   UNL     1      -1.315   4.353   0.917 -0.28 -0.00    +0.010 A  ATOM     12  C   UNL     1      -1.033   2.632  -0.753 -0.28 -0.03    +0.141 A  ATOM     13  C   UNL     1      -2.038   5.116  -0.003 -0.29 -0.03    +0.047 A  ATOM     14  C   UNL     1      -2.254   4.634  -1.292 -0.15 -0.06    +0.129 A  ATOM     15  C   UNL     1      -0.069   2.245   1.535 -0.47 -0.01    +0.047 C  ATOM     16  F   UNL     1      -0.585   1.407  -1.072 -0.13 +0.01    -0.206 F  BRANCH  14  17ATOM     17  O   UNL     1      -2.999   5.428  -2.124 -0.15 +0.19    -0.507 OA ATOM     18  H   UNL     1      -2.799   5.165  -3.052 -0.30 -0.13    +0.293 HD ENDBRANCH  14  17ENDBRANCH   7   9ENDBRANCH   1   7BRANCH   4  19ATOM     19  C   UNL     1       2.341   0.944  -6.388 -0.28 +0.02    +0.251 C  ATOM     20  N   UNL     1       1.972   0.276  -7.540 -0.12 -0.04    -0.347 N  ATOM     21  O   UNL     1       3.510   1.131  -6.066 -0.77 -0.02    -0.269 OA ATOM     22  H   UNL     1       1.022   0.388  -7.870 +0.07 +0.07    +0.164 HD BRANCH  20  23ATOM     23  C   UNL     1       2.981  -0.189  -8.496 -0.27 -0.04    +0.107 C  ATOM     24  C   UNL     1       2.827   0.518  -9.853 -0.23 -0.02    +0.042 C  ATOM     25  C   UNL     1       2.960  -1.729  -8.662 -0.27 -0.04    +0.118 C  ATOM     26  C   UNL     1       1.644  -0.022 -10.651 -0.15 -0.01    +0.083 C  ATOM     27  C   UNL     1       1.760  -2.165  -9.536 -0.23 +0.01    +0.108 C  ATOM     28  N   UNL     1       1.712  -1.471 -10.831 -0.05 +0.01    -0.315 NA ATOM     29  H   UNL     1       2.541  -1.720 -11.371 +0.04 -0.04    +0.122 HD BRANCH  25  30ATOM     30  N   UNL     1       4.229  -2.210  -9.226 -0.11 +0.36    -0.346 N  ATOM     31  C   UNL     1       4.746  -3.437  -8.863 -0.33 -0.15    +0.251 C  ATOM     32  H   UNL     1       4.561  -1.780 -10.078 -0.48 -0.31    +0.164 HD ATOM     33  O   UNL     1       4.218  -4.176  -8.040 -0.35 +0.07    -0.269 OA BRANCH  31  34ATOM     34  C   UNL     1       5.985  -3.860  -9.563 -0.38 -0.03    +0.042 A  ATOM     35  C   UNL     1       6.014  -4.979 -10.398 -0.32 -0.01    +0.034 A  ATOM     36  C   UNL     1       7.135  -3.090  -9.399 -0.50 -0.04    +0.034 A  ATOM     37  C   UNL     1       7.213  -5.293 -11.013 -0.38 -0.06    +0.112 A  ATOM     38  C   UNL     1       8.283  -3.491 -10.056 -0.48 -0.11    +0.112 A  ATOM     39  N   UNL     1       8.348  -4.580 -10.851 -0.28 +0.24    -0.265 NA ENDBRANCH  31  34ENDBRANCH  25  30ENDBRANCH  20  23ENDBRANCH   4  19TORSDOF 7TERENDMDL