MODEL        10USER    Run = 10USERUSER    Estimated Free Energy of Binding    =  -7.54 kcal/mol  [=(1)+(2)+(3)-(4)]USERUSER    (1) Final Intermolecular Energy     = -10.82 kcal/molUSER        vdW + Hbond + desolv Energy     = -10.83 kcal/molUSER        Electrostatic Energy            =  +0.01 kcal/molUSER        Moving Ligand-Fixed Receptor    = -10.82 kcal/molUSER        Moving Ligand-Moving Receptor   =  +0.00 kcal/molUSER    (2) Final Total Internal Energy     =  -2.70 kcal/molUSER    (3) Torsional Free Energy           =  +3.28 kcal/molUSER    (4) Unbound System's Energy         =  -2.70 kcal/molUSERUSERREMARK SMILES CNC(=O)c1c(O)cccc1-c1cncc(C=Cc2ccccc2CNCCOC)n1REMARK SMILES IDX 19 1 20 2 21 3 22 4 23 5 24 6 18 7 17 8 16 9 12 10 13 11REMARK SMILES IDX 31 12 14 13 15 14 11 15 5 16 6 17 8 18 10 19 9 20 3 21 2 22REMARK SMILES IDX 1 23 4 25 7 26 25 28 26 29 27 31 28 32 29 33 30 34REMARK H PARENT 2 24 7 27 26 30USER                              x       y       z     vdW  Elec       q    TypeUSER                           _______ _______ _______ _____ _____    ______ ____ROOTATOM      1  C   UNL     1      -0.754   1.706  -3.155 -0.40 -0.00    -0.021 A  ATOM      2  C   UNL     1      -0.350   1.195  -1.910 -0.40 +0.00    +0.008 A  ATOM      3  C   UNL     1      -1.242   1.133  -0.839 -0.39 -0.00    +0.001 A  ATOM      4  C   UNL     1      -2.552   1.571  -1.001 -0.31 -0.00    +0.000 A  ATOM      5  C   UNL     1      -2.970   2.075  -2.233 -0.23 -0.00    +0.005 A  ATOM      6  C   UNL     1      -2.080   2.160  -3.321 -0.28 -0.00    -0.027 A  ENDROOTBRANCH   1   7ATOM      7  C   UNL     1       0.202   1.710  -4.270 -0.45 +0.00    +0.011 C  BRANCH   7   8ATOM      8  C   UNL     1       0.919   0.632  -4.625 -0.34 +0.01    +0.030 C  BRANCH   8   9ATOM      9  C   UNL     1       1.588   0.505  -5.927 -0.36 +0.02    +0.082 A  ATOM     10  C   UNL     1       2.684   1.502  -7.707 -0.24 -0.01    +0.090 A  ATOM     11  C   UNL     1       2.807   0.247  -8.304 -0.22 -0.04    +0.140 A  ATOM     12  N   UNL     1       2.092   1.632  -6.489 -0.21 -0.01    -0.245 NA ATOM     13  N   UNL     1       2.348  -0.897  -7.738 -0.16 +0.00    -0.260 NA ATOM     14  C   UNL     1       1.725  -0.732  -6.548 -0.23 +0.04    +0.139 A  BRANCH  10  15ATOM     15  C   UNL     1       3.269   2.739  -8.262 -0.29 -0.00    +0.018 A  ATOM     16  C   UNL     1       4.451   3.361  -7.790 -0.37 -0.02    +0.090 A  ATOM     17  C   UNL     1       4.875   4.576  -8.371 -0.43 -0.01    +0.129 A  ATOM     18  C   UNL     1       4.160   5.173  -9.412 -0.46 -0.00    +0.047 A  ATOM     19  C   UNL     1       2.577   3.362  -9.330 -0.25 -0.00    +0.011 A  ATOM     20  C   UNL     1       3.012   4.560  -9.896 -0.35 -0.00    +0.005 A  BRANCH  16  21ATOM     21  C   UNL     1       5.277   2.703  -6.726 -0.43 -0.05    +0.255 C  ATOM     22  N   UNL     1       5.724   3.516  -5.705 -0.27 +0.05    -0.355 N  ATOM     23  C   UNL     1       6.647   3.018  -4.717 -0.66 -0.01    +0.143 C  ATOM     24  H   UNL     1       5.728   4.514  -5.903 -0.15 -0.02    +0.163 HD ATOM     25  O   UNL     1       5.520   1.503  -6.770 -0.53 +0.07    -0.269 OA ENDBRANCH  16  21BRANCH  17  26ATOM     26  O   UNL     1       6.011   5.207  -7.925 -0.76 -0.10    -0.507 OA ATOM     27  H   UNL     1       6.009   6.125  -8.252 +0.26 +0.04    +0.293 HD ENDBRANCH  17  26ENDBRANCH  10  15ENDBRANCH   8   9ENDBRANCH   7   8ENDBRANCH   1   7BRANCH   6  28ATOM     28  C   UNL     1      -2.594   2.713  -4.634 -0.21 +0.01    +0.117 C  BRANCH  28  29ATOM     29  N   UNL     1      -1.528   3.385  -5.373 -0.14 +0.01    -0.310 NA ATOM     30  H   UNL     1      -1.110   4.108  -4.789 -0.48 -0.05    +0.123 HD BRANCH  29  31ATOM     31  C   UNL     1      -2.022   3.969  -6.621 -0.22 +0.00    +0.109 C  BRANCH  31  32ATOM     32  C   UNL     1      -1.181   5.174  -7.085 -0.27 -0.04    +0.175 C  BRANCH  32  33ATOM     33  O   UNL     1      -0.033   5.453  -6.283 -0.30 +0.17    -0.383 OA ATOM     34  C   UNL     1       1.010   4.499  -6.427 -0.28 -0.05    +0.194 C  ENDBRANCH  32  33ENDBRANCH  31  32ENDBRANCH  29  31ENDBRANCH  28  29ENDBRANCH   6  28TORSDOF 11TERENDMDL