REMARK SMILES COc1ccc(O)c(C(=O)c2ccc(C(=O)N[C@@H]3CCN[C@H]3NC(=O)c3ccncc3)cc2)c1
REMARK SMILES IDX 11 1 12 2 13 3 14 4 32 5 33 6 9 7 10 8 8 9 3 10 4 11 34 12
REMARK SMILES IDX 5 13 6 14 2 15 1 16 7 17 15 19 17 20 16 21 18 23 19 24 22 25
REMARK SMILES IDX 20 26 21 27 23 29 24 30 25 32 26 33 27 34 31 35 28 36 30 37
REMARK SMILES IDX 29 38
REMARK H PARENT 7 18 17 22 21 28 23 31
ROOT
ATOM      1  C   UNL     1       2.510  -1.601  -0.081  1.00  0.00     0.023 A 
ATOM      2  C   UNL     1       2.421  -0.733  -1.173  1.00  0.00     0.013 A 
ATOM      3  C   UNL     1       1.490   0.308  -1.160  1.00  0.00     0.014 A 
ATOM      4  C   UNL     1       0.628   0.473  -0.070  1.00  0.00     0.039 A 
ATOM      5  C   UNL     1       0.694  -0.418   1.005  1.00  0.00     0.014 A 
ATOM      6  C   UNL     1       1.630  -1.456   0.996  1.00  0.00     0.013 A 
ENDROOT
BRANCH   1   7
ATOM      7  C   UNL     1       3.502  -2.704  -0.042  1.00  0.00     0.196 C 
ATOM      8  O   UNL     1       3.163  -3.800   0.404  1.00  0.00    -0.288 OA
BRANCH   7   9
ATOM      9  C   UNL     1       4.894  -2.535  -0.539  1.00  0.00     0.068 A 
ATOM     10  C   UNL     1       6.820  -1.135  -1.023  1.00  0.00     0.119 A 
ATOM     11  C   UNL     1       7.481  -2.251  -1.540  1.00  0.00     0.050 A 
ATOM     12  C   UNL     1       5.525  -1.278  -0.517  1.00  0.00     0.062 A 
ATOM     13  C   UNL     1       6.879  -3.508  -1.518  1.00  0.00     0.051 A 
ATOM     14  C   UNL     1       5.593  -3.651  -1.009  1.00  0.00     0.127 A 
BRANCH  10  15
ATOM     15  O   UNL     1       7.531   0.032  -1.088  1.00  0.00    -0.497 OA
ATOM     16  C   UNL     1       6.943   1.177  -0.489  1.00  0.00     0.278 C 
ENDBRANCH  10  15
BRANCH  14  17
ATOM     17  O   UNL     1       5.071  -4.916  -1.007  1.00  0.00    -0.507 OA
ATOM     18  H   UNL     1       4.225  -4.894  -0.498  1.00  0.00     0.293 HD
ENDBRANCH  14  17
ENDBRANCH   7   9
ENDBRANCH   1   7
BRANCH   4  19
ATOM     19  C   UNL     1      -0.298   1.636  -0.057  1.00  0.00     0.251 C 
ATOM     20  N   UNL     1      -1.457   1.477   0.674  1.00  0.00    -0.346 N 
ATOM     21  O   UNL     1      -0.012   2.652  -0.667  1.00  0.00    -0.269 OA
ATOM     22  H   UNL     1      -1.804   0.518   0.697  1.00  0.00     0.164 HD
BRANCH  20  23
ATOM     23  C   UNL     1      -2.528   2.463   0.603  1.00  0.00     0.120 C 
ATOM     24  C   UNL     1      -2.162   3.864   1.098  1.00  0.00     0.044 C 
ATOM     25  C   UNL     1      -3.720   2.067   1.506  1.00  0.00     0.173 C 
ATOM     26  C   UNL     1      -3.126   4.142   2.246  1.00  0.00     0.085 C 
ATOM     27  N   UNL     1      -4.309   3.322   1.948  1.00  0.00    -0.296 NA
ATOM     28  H   UNL     1      -4.830   3.157   2.807  1.00  0.00     0.124 HD
BRANCH  25  29
ATOM     29  N   UNL     1      -4.758   1.366   0.816  1.00  0.00    -0.335 N 
ATOM     30  C   UNL     1      -4.553   0.070   0.385  1.00  0.00     0.252 C 
ATOM     31  H   UNL     1      -5.571   1.911   0.569  1.00  0.00     0.165 HD
ATOM     32  O   UNL     1      -3.535  -0.561   0.664  1.00  0.00    -0.269 OA
BRANCH  30  33
ATOM     33  C   UNL     1      -5.624  -0.556  -0.435  1.00  0.00     0.042 A 
ATOM     34  C   UNL     1      -6.547   0.194  -1.165  1.00  0.00     0.034 A 
ATOM     35  C   UNL     1      -5.681  -1.949  -0.489  1.00  0.00     0.034 A 
ATOM     36  C   UNL     1      -7.506  -0.492  -1.893  1.00  0.00     0.112 A 
ATOM     37  C   UNL     1      -6.679  -2.537  -1.246  1.00  0.00     0.112 A 
ATOM     38  N   UNL     1      -7.596  -1.840  -1.940  1.00  0.00    -0.265 NA
ENDBRANCH  30  33
ENDBRANCH  25  29
ENDBRANCH  20  23
ENDBRANCH   4  19
TORSDOF 8
