REMARK SMILES Cc1ccc(O)c(C(=O)c2ccc(C(=O)N[C@@H]3CCNC[C@H]3NC(=O)c3ccncc3)cc2)c1F
REMARK SMILES IDX 10 1 11 2 12 3 13 4 32 5 33 6 8 7 9 8 7 9 2 10 3 11 34 12
REMARK SMILES IDX 4 13 5 14 1 15 35 16 6 17 14 19 16 20 15 21 17 23 18 24
REMARK SMILES IDX 22 25 19 26 21 27 20 28 23 30 24 31 25 33 26 34 27 35 31 36
REMARK SMILES IDX 28 37 30 38 29 39
REMARK H PARENT 6 18 16 22 20 29 23 32
ROOT
ATOM      1  C   UNL     1       3.944  -0.910   0.292  1.00  0.00     0.023 A 
ATOM      2  C   UNL     1       2.888  -1.638  -0.271  1.00  0.00     0.013 A 
ATOM      3  C   UNL     1       1.588  -1.122  -0.250  1.00  0.00     0.014 A 
ATOM      4  C   UNL     1       1.335   0.115   0.357  1.00  0.00     0.039 A 
ATOM      5  C   UNL     1       2.395   0.835   0.928  1.00  0.00     0.014 A 
ATOM      6  C   UNL     1       3.694   0.321   0.907  1.00  0.00     0.013 A 
ENDROOT
BRANCH   1   7
ATOM      7  C   UNL     1       5.301  -1.504   0.268  1.00  0.00     0.199 C 
ATOM      8  O   UNL     1       5.423  -2.712   0.476  1.00  0.00    -0.288 OA
BRANCH   7   9
ATOM      9  C   UNL     1       6.527  -0.702   0.055  1.00  0.00     0.100 A 
ATOM     10  C   UNL     1       7.695   1.196  -0.938  1.00  0.00    -0.014 A 
ATOM     11  C   UNL     1       8.876   0.793  -0.304  1.00  0.00     0.010 A 
ATOM     12  C   UNL     1       6.533   0.433  -0.760  1.00  0.00     0.141 A 
ATOM     13  C   UNL     1       8.891  -0.357   0.488  1.00  0.00     0.047 A 
ATOM     14  C   UNL     1       7.727  -1.105   0.653  1.00  0.00     0.129 A 
ATOM     15  C   UNL     1       7.669   2.402  -1.830  1.00  0.00     0.047 C 
ATOM     16  F   UNL     1       5.423   0.805  -1.417  1.00  0.00    -0.206 F 
BRANCH  14  17
ATOM     17  O   UNL     1       7.832  -2.236   1.419  1.00  0.00    -0.507 OA
ATOM     18  H   UNL     1       7.019  -2.774   1.277  1.00  0.00     0.293 HD
ENDBRANCH  14  17
ENDBRANCH   7   9
ENDBRANCH   1   7
BRANCH   4  19
ATOM     19  C   UNL     1      -0.027   0.716   0.402  1.00  0.00     0.251 C 
ATOM     20  N   UNL     1      -1.095  -0.160   0.351  1.00  0.00    -0.347 N 
ATOM     21  O   UNL     1      -0.160   1.930   0.516  1.00  0.00    -0.269 OA
ATOM     22  H   UNL     1      -0.913  -1.141   0.521  1.00  0.00     0.164 HD
BRANCH  20  23
ATOM     23  C   UNL     1      -2.470   0.321   0.508  1.00  0.00     0.107 C 
ATOM     24  C   UNL     1      -2.810   0.557   1.989  1.00  0.00     0.042 C 
ATOM     25  C   UNL     1      -3.499  -0.627  -0.157  1.00  0.00     0.118 C 
ATOM     26  C   UNL     1      -3.051  -0.750   2.739  1.00  0.00     0.083 C 
ATOM     27  C   UNL     1      -3.716  -1.889   0.711  1.00  0.00     0.108 C 
ATOM     28  N   UNL     1      -4.077  -1.573   2.101  1.00  0.00    -0.315 NA
ATOM     29  H   UNL     1      -4.973  -1.086   2.108  1.00  0.00     0.122 HD
BRANCH  25  30
ATOM     30  N   UNL     1      -4.768   0.071  -0.404  1.00  0.00    -0.346 N 
ATOM     31  C   UNL     1      -5.674  -0.410  -1.328  1.00  0.00     0.251 C 
ATOM     32  H   UNL     1      -5.095   0.721   0.297  1.00  0.00     0.164 HD
ATOM     33  O   UNL     1      -5.474  -1.404  -2.016  1.00  0.00    -0.269 OA
BRANCH  31  34
ATOM     34  C   UNL     1      -6.961   0.324  -1.429  1.00  0.00     0.042 A 
ATOM     35  C   UNL     1      -7.051   1.692  -1.168  1.00  0.00     0.034 A 
ATOM     36  C   UNL     1      -8.096  -0.380  -1.828  1.00  0.00     0.034 A 
ATOM     37  C   UNL     1      -8.291   2.292  -1.294  1.00  0.00     0.112 A 
ATOM     38  C   UNL     1      -9.288   0.312  -1.921  1.00  0.00     0.112 A 
ATOM     39  N   UNL     1      -9.411   1.630  -1.653  1.00  0.00    -0.265 NA
ENDBRANCH  31  34
ENDBRANCH  25  30
ENDBRANCH  20  23
ENDBRANCH   4  19
TORSDOF 7
