MODEL        2USER    Run = 2USERUSER    Estimated Free Energy of Binding    =  -8.14 kcal/mol  [=(1)+(2)+(3)-(4)]USERUSER    (1) Final Intermolecular Energy     = -10.52 kcal/molUSER        vdW + Hbond + desolv Energy     = -10.29 kcal/molUSER        Electrostatic Energy            =  -0.24 kcal/molUSER        Moving Ligand-Fixed Receptor    = -10.52 kcal/molUSER        Moving Ligand-Moving Receptor   =  +0.00 kcal/molUSER    (2) Final Total Internal Energy     =  -2.94 kcal/molUSER    (3) Torsional Free Energy           =  +2.39 kcal/molUSER    (4) Unbound System's Energy         =  -2.94 kcal/molUSERUSERREMARK SMILES COc1ccc(O)c(C(=O)c2ccc(C(=O)N[C@@H]3CCN[C@H]3NC(=O)c3ccncc3)cc2)c1REMARK SMILES IDX 11 1 12 2 13 3 14 4 32 5 33 6 9 7 10 8 8 9 3 10 4 11 34 12REMARK SMILES IDX 5 13 6 14 2 15 1 16 7 17 15 19 17 20 16 21 18 23 19 24 22 25REMARK SMILES IDX 20 26 21 27 23 29 24 30 25 32 26 33 27 34 31 35 28 36 30 37REMARK SMILES IDX 29 38REMARK H PARENT 7 18 17 22 21 28 23 31USER                              x       y       z     vdW  Elec       q    TypeUSER                           _______ _______ _______ _____ _____    ______ ____ROOTATOM      1  C   UNL     1      13.098 -15.282 -11.740 -0.26 -0.01    +0.023 A  ATOM      2  C   UNL     1      13.159 -15.713 -10.412 -0.41 -0.01    +0.013 A  ATOM      3  C   UNL     1      14.362 -15.629  -9.707 -0.31 -0.00    +0.014 A  ATOM      4  C   UNL     1      15.515 -15.139 -10.331 -0.30 -0.01    +0.039 A  ATOM      5  C   UNL     1      15.461 -14.743 -11.671 -0.36 -0.00    +0.014 A  ATOM      6  C   UNL     1      14.256 -14.820 -12.375 -0.31 -0.00    +0.013 A  ENDROOTBRANCH   1   7ATOM      7  C   UNL     1      11.835 -15.329 -12.517 -0.17 -0.03    +0.196 C  ATOM      8  O   UNL     1      11.463 -16.402 -12.993 -0.17 +0.01    -0.288 OA BRANCH   7   9ATOM      9  C   UNL     1      10.991 -14.123 -12.731 -0.21 -0.01    +0.068 A  ATOM     10  C   UNL     1      10.184 -11.944 -12.020 -0.37 -0.03    +0.119 A  ATOM     11  C   UNL     1       9.345 -11.909 -13.135 -0.25 -0.02    +0.050 A  ATOM     12  C   UNL     1      11.013 -13.051 -11.819 -0.34 -0.02    +0.062 A  ATOM     13  C   UNL     1       9.356 -12.945 -14.067 -0.23 -0.03    +0.051 A  ATOM     14  C   UNL     1      10.185 -14.044 -13.870 -0.18 -0.04    +0.127 A  BRANCH  10  15ATOM     15  O   UNL     1      10.088 -10.855 -11.197 -0.61 +0.04    -0.497 OA ATOM     16  C   UNL     1      10.206  -9.578 -11.805 -0.45 -0.07    +0.278 C  ENDBRANCH  10  15BRANCH  14  17ATOM     17  O   UNL     1      10.154 -15.017 -14.833 +0.02 +0.10    -0.507 OA ATOM     18  H   UNL     1      10.511 -15.847 -14.436 +0.17 -0.02    +0.293 HD ENDBRANCH  14  17ENDBRANCH   7   9ENDBRANCH   1   7BRANCH   4  19ATOM     19  C   UNL     1      16.758 -14.993  -9.530 -0.26 -0.04    +0.251 C  ATOM     20  N   UNL     1      17.563 -16.112  -9.455 -0.13 +0.02    -0.346 N  ATOM     21  O   UNL     1      17.016 -13.932  -8.988 -0.22 +0.05    -0.269 OA ATOM     22  H   UNL     1      17.051 -16.993  -9.491 +0.10 -0.00    +0.164 HD BRANCH  20  23ATOM     23  C   UNL     1      18.699 -16.156  -8.544 -0.33 +0.01    +0.120 C  ATOM     24  C   UNL     1      19.529 -17.441  -8.594 -0.39 +0.00    +0.044 C  ATOM     25  C   UNL     1      18.242 -16.086  -7.067 -0.37 +0.02    +0.173 C  ATOM     26  C   UNL     1      19.453 -18.016  -7.184 -0.38 +0.02    +0.085 C  ATOM     27  N   UNL     1      19.226 -16.851  -6.317 -0.22 -0.09    -0.296 NA ATOM     28  H   UNL     1      18.807 -17.158  -5.441 +0.05 +0.05    +0.124 HD BRANCH  25  29ATOM     29  N   UNL     1      18.267 -14.765  -6.519 -0.21 -0.03    -0.335 N  ATOM     30  C   UNL     1      18.335 -14.583  -5.151 -0.31 +0.06    +0.252 C  ATOM     31  H   UNL     1      18.111 -14.012  -7.172 +0.11 -0.00    +0.165 HD ATOM     32  O   UNL     1      18.484 -15.521  -4.371 -0.24 -0.13    -0.269 OA BRANCH  30  33ATOM     33  C   UNL     1      18.230 -13.190  -4.641 -0.46 +0.01    +0.042 A  ATOM     34  C   UNL     1      19.336 -12.473  -4.181 -0.39 +0.00    +0.034 A  ATOM     35  C   UNL     1      16.976 -12.579  -4.652 -0.43 +0.00    +0.034 A  ATOM     36  C   UNL     1      19.124 -11.182  -3.724 -0.43 +0.02    +0.112 A  ATOM     37  C   UNL     1      16.872 -11.285  -4.172 -0.45 +0.00    +0.112 A  ATOM     38  N   UNL     1      17.915 -10.578  -3.702 -0.59 -0.04    -0.265 NA ENDBRANCH  30  33ENDBRANCH  25  29ENDBRANCH  20  23ENDBRANCH   4  19TORSDOF 8TERENDMDL