REMARK SMILES COCCNCc1ccccc1C=Cc1cncc(-c2ccc(O)c(C)c2C#N)n1
REMARK SMILES IDX 7 1 8 2 9 3 10 4 11 5 12 6 6 7 5 8 4 10 3 11 2 12 1 13 13 14
REMARK SMILES IDX 14 15 15 16 16 17 30 18 17 19 19 20 18 21 20 22 21 23 27 24
REMARK SMILES IDX 22 25 25 26 23 27 26 28 28 29 29 30 24 31
REMARK H PARENT 5 9 24 32
ROOT
ATOM      1  C   UNL     1       3.303  -1.884  -0.774  1.00  0.00    -0.027 A 
ATOM      2  C   UNL     1       4.318  -1.413  -1.630  1.00  0.00     0.005 A 
ATOM      3  C   UNL     1       4.058  -1.121  -2.969  1.00  0.00     0.000 A 
ATOM      4  C   UNL     1       2.781  -1.310  -3.484  1.00  0.00     0.001 A 
ATOM      5  C   UNL     1       1.764  -1.789  -2.659  1.00  0.00     0.008 A 
ATOM      6  C   UNL     1       2.010  -2.075  -1.305  1.00  0.00    -0.021 A 
ENDROOT
BRANCH   1   7
ATOM      7  C   UNL     1       3.656  -2.212   0.664  1.00  0.00     0.117 C 
BRANCH   7   8
ATOM      8  N   UNL     1       4.419  -1.162   1.347  1.00  0.00    -0.310 NA
ATOM      9  H   UNL     1       4.786  -1.526   2.225  1.00  0.00     0.123 HD
BRANCH   8  10
ATOM     10  C   UNL     1       3.614   0.036   1.618  1.00  0.00     0.109 C 
BRANCH  10  11
ATOM     11  C   UNL     1       4.319   1.009   2.584  1.00  0.00     0.175 C 
BRANCH  11  12
ATOM     12  O   UNL     1       5.643   1.382   2.194  1.00  0.00    -0.383 OA
ATOM     13  C   UNL     1       5.686   2.130   0.987  1.00  0.00     0.194 C 
ENDBRANCH  11  12
ENDBRANCH  10  11
ENDBRANCH   8  10
ENDBRANCH   7   8
ENDBRANCH   1   7
BRANCH   6  14
ATOM     14  C   UNL     1       0.903  -2.588  -0.491  1.00  0.00     0.011 C 
BRANCH  14  15
ATOM     15  C   UNL     1      -0.217  -1.936  -0.134  1.00  0.00     0.030 C 
BRANCH  15  16
ATOM     16  C   UNL     1      -0.646  -0.561  -0.413  1.00  0.00     0.082 A 
ATOM     17  C   UNL     1       0.205   0.530  -0.555  1.00  0.00     0.139 A 
ATOM     18  N   UNL     1      -1.993  -0.398  -0.441  1.00  0.00    -0.245 NA
ATOM     19  N   UNL     1      -0.239   1.799  -0.745  1.00  0.00    -0.260 NA
ATOM     20  C   UNL     1      -2.459   0.863  -0.622  1.00  0.00     0.091 A 
ATOM     21  C   UNL     1      -1.584   1.935  -0.774  1.00  0.00     0.140 A 
BRANCH  20  22
ATOM     22  C   UNL     1      -3.922   1.010  -0.648  1.00  0.00     0.020 A 
ATOM     23  C   UNL     1      -4.532   1.619  -1.759  1.00  0.00     0.015 A 
ATOM     24  C   UNL     1      -4.751   0.544   0.405  1.00  0.00     0.068 A 
ATOM     25  C   UNL     1      -5.913   1.778  -1.819  1.00  0.00     0.047 A 
ATOM     26  C   UNL     1      -6.165   0.675   0.337  1.00  0.00     0.009 A 
ATOM     27  C   UNL     1      -6.715   1.323  -0.779  1.00  0.00     0.119 A 
ATOM     28  C   UNL     1      -7.054   0.177   1.449  1.00  0.00     0.050 C 
BRANCH  24  29
ATOM     29  C   UNL     1      -4.146  -0.029   1.583  1.00  0.00     0.100 C 
ATOM     30  N   UNL     1      -3.695  -0.465   2.561  1.00  0.00    -0.192 NA
ENDBRANCH  24  29
BRANCH  27  31
ATOM     31  O   UNL     1      -8.053   1.557  -0.928  1.00  0.00    -0.508 OA
ATOM     32  H   UNL     1      -8.525   1.362  -0.104  1.00  0.00     0.293 HD
ENDBRANCH  27  31
ENDBRANCH  20  22
ENDBRANCH  15  16
ENDBRANCH  14  15
ENDBRANCH   6  14
TORSDOF 11
