MODEL        5USER    Run = 5USERUSER    Estimated Free Energy of Binding    =  -7.87 kcal/mol  [=(1)+(2)+(3)-(4)]USERUSER    (1) Final Intermolecular Energy     = -11.15 kcal/molUSER        vdW + Hbond + desolv Energy     = -11.01 kcal/molUSER        Electrostatic Energy            =  -0.13 kcal/molUSER        Moving Ligand-Fixed Receptor    = -11.15 kcal/molUSER        Moving Ligand-Moving Receptor   =  +0.00 kcal/molUSER    (2) Final Total Internal Energy     =  -2.80 kcal/molUSER    (3) Torsional Free Energy           =  +3.28 kcal/molUSER    (4) Unbound System's Energy         =  -2.80 kcal/molUSERUSERREMARK SMILES COCCNCc1ccccc1C=Cc1cncc(-c2ccc(O)c(C)c2C#N)n1REMARK SMILES IDX 7 1 8 2 9 3 10 4 11 5 12 6 6 7 5 8 4 10 3 11 2 12 1 13 13 14REMARK SMILES IDX 14 15 15 16 16 17 30 18 17 19 19 20 18 21 20 22 21 23 27 24REMARK SMILES IDX 22 25 25 26 23 27 26 28 28 29 29 30 24 31REMARK H PARENT 5 9 24 32USER                              x       y       z     vdW  Elec       q    TypeUSER                           _______ _______ _______ _____ _____    ______ ____ROOTATOM      1  C   UNL     1      14.595 -15.073 -11.826 -0.29 +0.01    -0.027 A  ATOM      2  C   UNL     1      14.352 -14.748 -13.175 -0.33 -0.00    +0.005 A  ATOM      3  C   UNL     1      14.443 -15.711 -14.180 -0.35 -0.00    +0.000 A  ATOM      4  C   UNL     1      14.795 -17.017 -13.857 -0.39 -0.00    +0.001 A  ATOM      5  C   UNL     1      15.053 -17.358 -12.531 -0.37 -0.00    +0.008 A  ATOM      6  C   UNL     1      14.953 -16.399 -11.508 -0.30 +0.00    -0.021 A  ENDROOTBRANCH   1   7ATOM      7  C   UNL     1      14.510 -13.973 -10.785 -0.30 -0.05    +0.117 C  BRANCH   7   8ATOM      8  N   UNL     1      13.140 -13.583 -10.438 -0.11 +0.26    -0.310 NA ATOM      9  H   UNL     1      12.527 -14.394 -10.509 +0.03 -0.09    +0.123 HD BRANCH   8  10ATOM     10  C   UNL     1      12.623 -12.510 -11.298 -0.33 -0.07    +0.109 C  BRANCH  10  11ATOM     11  C   UNL     1      11.211 -12.818 -11.834 -0.32 -0.08    +0.175 C  BRANCH  11  12ATOM     12  O   UNL     1      10.899 -14.210 -11.928 -0.58 +0.03    -0.383 OA ATOM     13  C   UNL     1      10.891 -14.697 -13.263 -0.16 -0.03    +0.194 C  ENDBRANCH  11  12ENDBRANCH  10  11ENDBRANCH   8  10ENDBRANCH   7   8ENDBRANCH   1   7BRANCH   6  14ATOM     14  C   UNL     1      15.250 -16.816 -10.133 -0.38 -0.00    +0.011 C  BRANCH  14  15ATOM     15  C   UNL     1      16.462 -16.987  -9.577 -0.38 -0.00    +0.030 C  BRANCH  15  16ATOM     16  C   UNL     1      17.180 -16.169  -8.594 -0.33 -0.00    +0.082 A  ATOM     17  C   UNL     1      18.232 -16.612  -7.798 -0.33 +0.01    +0.139 A  ATOM     18  N   UNL     1      16.675 -14.918  -8.442 -0.22 +0.04    -0.245 NA ATOM     19  N   UNL     1      18.824 -15.839  -6.851 -0.26 -0.04    -0.260 NA ATOM     20  C   UNL     1      17.246 -14.132  -7.496 -0.33 -0.01    +0.091 A  ATOM     21  C   UNL     1      18.306 -14.597  -6.722 -0.34 +0.01    +0.140 A  BRANCH  20  22ATOM     22  C   UNL     1      16.679 -12.783  -7.353 -0.39 -0.00    +0.020 A  ATOM     23  C   UNL     1      16.236 -12.353  -6.089 -0.44 -0.00    +0.015 A  ATOM     24  C   UNL     1      16.573 -11.884  -8.446 -0.38 -0.02    +0.068 A  ATOM     25  C   UNL     1      15.692 -11.085  -5.915 -0.51 -0.02    +0.047 A  ATOM     26  C   UNL     1      16.046 -10.575  -8.270 -0.55 -0.00    +0.009 A  ATOM     27  C   UNL     1      15.588 -10.214  -6.994 -0.53 -0.04    +0.119 A  ATOM     28  C   UNL     1      15.936  -9.611  -9.424 -0.57 -0.01    +0.050 C  BRANCH  24  29ATOM     29  C   UNL     1      16.963 -12.321  -9.764 -0.36 -0.02    +0.100 C  ATOM     30  N   UNL     1      17.287 -12.722 -10.806 -0.21 +0.04    -0.192 NA ENDBRANCH  24  29BRANCH  27  31ATOM     31  O   UNL     1      15.011  -9.007  -6.717 -0.43 +0.24    -0.508 OA ATOM     32  H   UNL     1      14.454  -9.071  -5.926 -0.28 -0.28    +0.293 HD ENDBRANCH  27  31ENDBRANCH  20  22ENDBRANCH  15  16ENDBRANCH  14  15ENDBRANCH   6  14TORSDOF 11TERENDMDL