REMARK SMILES COc1ccc(O)c(C(=O)c2ccc(C(=O)N[C@@H]3CCNC[C@@H]3NC(=O)c3ccnc(C)c3)cc2)c1
REMARK SMILES IDX 11 1 12 2 13 3 14 4 34 5 35 6 9 7 10 8 8 9 3 10 4 11 36 12
REMARK SMILES IDX 5 13 6 14 2 15 1 16 7 17 15 19 17 20 16 21 18 23 19 24 23 25
REMARK SMILES IDX 20 26 22 27 21 28 24 30 25 31 26 33 27 34 28 35 33 36 29 37
REMARK SMILES IDX 31 38 30 39 32 40
REMARK H PARENT 7 18 17 22 21 29 24 32
ROOT
ATOM      1  C   UNL     1       3.217  -1.004   0.779  1.00  0.00     0.023 A 
ATOM      2  C   UNL     1       3.566  -0.812  -0.562  1.00  0.00     0.013 A 
ATOM      3  C   UNL     1       2.587  -0.436  -1.486  1.00  0.00     0.014 A 
ATOM      4  C   UNL     1       1.254  -0.274  -1.081  1.00  0.00     0.039 A 
ATOM      5  C   UNL     1       0.906  -0.489   0.261  1.00  0.00     0.014 A 
ATOM      6  C   UNL     1       1.885  -0.864   1.186  1.00  0.00     0.013 A 
ENDROOT
BRANCH   1   7
ATOM      7  C   UNL     1       4.226  -1.383   1.793  1.00  0.00     0.196 C 
ATOM      8  O   UNL     1       3.957  -2.287   2.582  1.00  0.00    -0.288 OA
BRANCH   7   9
ATOM      9  C   UNL     1       5.550  -0.710   1.884  1.00  0.00     0.068 A 
ATOM     10  C   UNL     1       7.007   1.186   1.449  1.00  0.00     0.119 A 
ATOM     11  C   UNL     1       8.058   0.507   2.071  1.00  0.00     0.050 A 
ATOM     12  C   UNL     1       5.749   0.583   1.371  1.00  0.00     0.062 A 
ATOM     13  C   UNL     1       7.863  -0.764   2.611  1.00  0.00     0.051 A 
ATOM     14  C   UNL     1       6.611  -1.364   2.526  1.00  0.00     0.127 A 
BRANCH  10  15
ATOM     15  O   UNL     1       7.332   2.426   0.972  1.00  0.00    -0.497 OA
ATOM     16  C   UNL     1       6.352   3.095   0.186  1.00  0.00     0.278 C 
ENDBRANCH  10  15
BRANCH  14  17
ATOM     17  O   UNL     1       6.490  -2.603   3.096  1.00  0.00    -0.507 OA
ATOM     18  H   UNL     1       5.537  -2.845   3.096  1.00  0.00     0.293 HD
ENDBRANCH  14  17
ENDBRANCH   7   9
ENDBRANCH   1   7
BRANCH   4  19
ATOM     19  C   UNL     1       0.254   0.154  -2.098  1.00  0.00     0.251 C 
ATOM     20  N   UNL     1      -1.057  -0.195  -1.854  1.00  0.00    -0.347 N 
ATOM     21  O   UNL     1       0.616   0.762  -3.098  1.00  0.00    -0.269 OA
ATOM     22  H   UNL     1      -1.237  -0.928  -1.179  1.00  0.00     0.164 HD
BRANCH  20  23
ATOM     23  C   UNL     1      -2.121   0.064  -2.831  1.00  0.00     0.107 C 
ATOM     24  C   UNL     1      -2.458   1.562  -2.903  1.00  0.00     0.042 C 
ATOM     25  C   UNL     1      -3.380  -0.768  -2.485  1.00  0.00     0.118 C 
ATOM     26  C   UNL     1      -3.655   1.819  -3.813  1.00  0.00     0.083 C 
ATOM     27  C   UNL     1      -4.545  -0.391  -3.418  1.00  0.00     0.108 C 
ATOM     28  N   UNL     1      -4.832   1.051  -3.408  1.00  0.00    -0.315 NA
ATOM     29  H   UNL     1      -5.123   1.323  -2.471  1.00  0.00     0.122 HD
BRANCH  25  30
ATOM     30  N   UNL     1      -3.747  -0.597  -1.069  1.00  0.00    -0.346 N 
ATOM     31  C   UNL     1      -4.390  -1.593  -0.368  1.00  0.00     0.251 C 
ATOM     32  H   UNL     1      -3.521   0.282  -0.628  1.00  0.00     0.164 HD
ATOM     33  O   UNL     1      -4.632  -2.696  -0.844  1.00  0.00    -0.269 OA
BRANCH  31  34
ATOM     34  C   UNL     1      -4.737  -1.300   1.046  1.00  0.00     0.043 A 
ATOM     35  C   UNL     1      -4.799  -2.370   1.938  1.00  0.00     0.034 A 
ATOM     36  C   UNL     1      -5.019  -0.009   1.495  1.00  0.00     0.037 A 
ATOM     37  C   UNL     1      -5.111  -2.099   3.254  1.00  0.00     0.112 A 
ATOM     38  C   UNL     1      -5.331   0.168   2.838  1.00  0.00     0.038 A 
ATOM     39  N   UNL     1      -5.365  -0.858   3.720  1.00  0.00    -0.262 NA
ATOM     40  C   UNL     1      -5.650   1.535   3.368  1.00  0.00     0.067 C 
ENDBRANCH  31  34
ENDBRANCH  25  30
ENDBRANCH  20  23
ENDBRANCH   4  19
TORSDOF 8
