MODEL        9USER    Run = 9USERUSER    Estimated Free Energy of Binding    =  -9.66 kcal/mol  [=(1)+(2)+(3)-(4)]USERUSER    (1) Final Intermolecular Energy     = -12.05 kcal/molUSER        vdW + Hbond + desolv Energy     = -11.69 kcal/molUSER        Electrostatic Energy            =  -0.35 kcal/molUSER        Moving Ligand-Fixed Receptor    = -12.05 kcal/molUSER        Moving Ligand-Moving Receptor   =  +0.00 kcal/molUSER    (2) Final Total Internal Energy     =  -2.01 kcal/molUSER    (3) Torsional Free Energy           =  +2.39 kcal/molUSER    (4) Unbound System's Energy         =  -2.01 kcal/molUSERUSERREMARK SMILES COc1ccc(O)c(C(=O)c2ccc(C(=O)N[C@@H]3CCNC[C@@H]3NC(=O)c3ccnc(C)c3)cc2)c1REMARK SMILES IDX 11 1 12 2 13 3 14 4 34 5 35 6 9 7 10 8 8 9 3 10 4 11 36 12REMARK SMILES IDX 5 13 6 14 2 15 1 16 7 17 15 19 17 20 16 21 18 23 19 24 23 25REMARK SMILES IDX 20 26 22 27 21 28 24 30 25 31 26 33 27 34 28 35 33 36 29 37REMARK SMILES IDX 31 38 30 39 32 40REMARK H PARENT 7 18 17 22 21 29 24 32USER                              x       y       z     vdW  Elec       q    TypeUSER                           _______ _______ _______ _____ _____    ______ ____ROOTATOM      1  C   UNL     1      12.333 -12.930 -12.245 -0.33 -0.01    +0.023 A  ATOM      2  C   UNL     1      12.383 -11.914 -13.205 -0.27 -0.01    +0.013 A  ATOM      3  C   UNL     1      11.456 -10.869 -13.157 -0.32 -0.01    +0.014 A  ATOM      4  C   UNL     1      10.463 -10.846 -12.167 -0.52 -0.02    +0.039 A  ATOM      5  C   UNL     1      10.405 -11.879 -11.220 -0.47 -0.00    +0.014 A  ATOM      6  C   UNL     1      11.332 -12.925 -11.267 -0.31 -0.01    +0.013 A  ENDROOTBRANCH   1   7ATOM      7  C   UNL     1      13.307 -14.044 -12.249 -0.22 -0.08    +0.196 C  ATOM      8  O   UNL     1      13.014 -15.081 -12.842 -0.11 +0.09    -0.288 OA BRANCH   7   9ATOM      9  C   UNL     1      14.624 -13.948 -11.562 -0.28 -0.03    +0.068 A  ATOM     10  C   UNL     1      15.983 -13.336  -9.642 -0.29 -0.04    +0.119 A  ATOM     11  C   UNL     1      17.121 -13.779 -10.321 -0.37 -0.01    +0.050 A  ATOM     12  C   UNL     1      14.733 -13.436 -10.258 -0.30 -0.03    +0.062 A  ATOM     13  C   UNL     1      17.021 -14.317 -11.603 -0.47 -0.01    +0.051 A  ATOM     14  C   UNL     1      15.775 -14.410 -12.216 -0.34 -0.04    +0.127 A  BRANCH  10  15ATOM     15  O   UNL     1      16.222 -12.840  -8.391 -0.07 +0.15    -0.497 OA ATOM     16  C   UNL     1      15.849 -11.488  -8.148 -0.31 -0.09    +0.278 C  ENDBRANCH  10  15BRANCH  14  17ATOM     17  O   UNL     1      15.752 -14.968 -13.466 -0.15 +0.26    -0.507 OA ATOM     18  H   UNL     1      14.927 -14.675 -13.913 -0.20 -0.18    +0.293 HD ENDBRANCH  14  17ENDBRANCH   7   9ENDBRANCH   1   7BRANCH   4  19ATOM     19  C   UNL     1       9.517  -9.697 -12.142 -0.43 -0.07    +0.251 C  ATOM     20  N   UNL     1       8.540  -9.686 -13.114 -0.19 +0.15    -0.347 N  ATOM     21  O   UNL     1       9.645  -8.814 -11.302 -1.39 -0.02    -0.269 OA ATOM     22  H   UNL     1       8.671 -10.274 -13.928 -0.35 -0.18    +0.164 HD BRANCH  20  23ATOM     23  C   UNL     1       7.619  -8.554 -13.271 -0.29 -0.02    +0.107 C  ATOM     24  C   UNL     1       6.495  -8.601 -12.224 -0.29 +0.00    +0.042 C  ATOM     25  C   UNL     1       7.035  -8.534 -14.705 -0.26 +0.01    +0.118 C  ATOM     26  C   UNL     1       5.460  -7.508 -12.469 -0.24 +0.00    +0.083 C  ATOM     27  C   UNL     1       5.959  -7.440 -14.831 -0.19 +0.04    +0.108 C  ATOM     28  N   UNL     1       4.901  -7.570 -13.819 -0.01 -0.08    -0.315 NA ATOM     29  H   UNL     1       4.418  -8.455 -13.959 +0.05 +0.06    +0.122 HD BRANCH  25  30ATOM     30  N   UNL     1       6.501  -9.858 -15.071 -0.08 -0.04    -0.346 N  ATOM     31  C   UNL     1       6.187 -10.171 -16.375 -0.13 +0.08    +0.251 C  ATOM     32  H   UNL     1       6.362 -10.529 -14.330 +0.07 +0.03    +0.164 HD ATOM     33  O   UNL     1       6.393  -9.410 -17.313 -0.58 -0.27    -0.269 OA BRANCH  31  34ATOM     34  C   UNL     1       5.630 -11.525 -16.623 -0.20 +0.01    +0.043 A  ATOM     35  C   UNL     1       4.276 -11.625 -16.941 -0.26 +0.03    +0.034 A  ATOM     36  C   UNL     1       6.405 -12.682 -16.528 -0.24 -0.00    +0.037 A  ATOM     37  C   UNL     1       3.759 -12.881 -17.182 -0.34 +0.08    +0.112 A  ATOM     38  C   UNL     1       5.797 -13.905 -16.782 -0.32 +0.01    +0.038 A  ATOM     39  N   UNL     1       4.491 -14.014 -17.120 -0.37 -0.11    -0.262 NA ATOM     40  C   UNL     1       6.585 -15.178 -16.684 -0.34 +0.01    +0.067 C  ENDBRANCH  31  34ENDBRANCH  25  30ENDBRANCH  20  23ENDBRANCH   4  19TORSDOF 8TERENDMDL