REMARK SMILES CNC(=O)c1c(O)cccc1-c1cncc(C=Cc2ccccc2CNCCOC)n1
REMARK SMILES IDX 19 1 20 2 21 3 22 4 23 5 24 6 18 7 17 8 16 9 12 10 13 11
REMARK SMILES IDX 31 12 14 13 15 14 11 15 5 16 6 17 8 18 10 19 9 20 3 21 2 22
REMARK SMILES IDX 1 23 4 25 7 26 25 28 26 29 27 31 28 32 29 33 30 34
REMARK H PARENT 2 24 7 27 26 30
ROOT
ATOM      1  C   UNL     1       2.507  -0.993   2.523  1.00  0.00    -0.021 A 
ATOM      2  C   UNL     1       2.760  -0.780   3.888  1.00  0.00     0.008 A 
ATOM      3  C   UNL     1       4.061  -0.829   4.391  1.00  0.00     0.001 A 
ATOM      4  C   UNL     1       5.127  -1.080   3.534  1.00  0.00     0.000 A 
ATOM      5  C   UNL     1       4.892  -1.287   2.174  1.00  0.00     0.005 A 
ATOM      6  C   UNL     1       3.585  -1.257   1.651  1.00  0.00    -0.027 A 
ENDROOT
BRANCH   1   7
ATOM      7  C   UNL     1       1.129  -0.887   2.026  1.00  0.00     0.011 C 
BRANCH   7   8
ATOM      8  C   UNL     1       0.120  -1.637   2.497  1.00  0.00     0.030 C 
BRANCH   8   9
ATOM      9  C   UNL     1      -1.252  -1.556   1.978  1.00  0.00     0.082 A 
ATOM     10  C   UNL     1      -2.746  -0.703   0.428  1.00  0.00     0.090 A 
ATOM     11  C   UNL     1      -3.766  -1.426   1.047  1.00  0.00     0.140 A 
ATOM     12  N   UNL     1      -1.466  -0.789   0.880  1.00  0.00    -0.245 NA
ATOM     13  N   UNL     1      -3.564  -2.232   2.120  1.00  0.00    -0.260 NA
ATOM     14  C   UNL     1      -2.290  -2.264   2.575  1.00  0.00     0.139 A 
BRANCH  10  15
ATOM     15  C   UNL     1      -2.932   0.095  -0.800  1.00  0.00     0.018 A 
ATOM     16  C   UNL     1      -3.933   1.081  -0.984  1.00  0.00     0.090 A 
ATOM     17  C   UNL     1      -4.042   1.735  -2.231  1.00  0.00     0.129 A 
ATOM     18  C   UNL     1      -3.174   1.439  -3.285  1.00  0.00     0.047 A 
ATOM     19  C   UNL     1      -2.058  -0.168  -1.884  1.00  0.00     0.011 A 
ATOM     20  C   UNL     1      -2.176   0.490  -3.108  1.00  0.00     0.005 A 
BRANCH  16  21
ATOM     21  C   UNL     1      -4.828   1.470   0.154  1.00  0.00     0.255 C 
ATOM     22  N   UNL     1      -6.123   1.815  -0.173  1.00  0.00    -0.355 N 
ATOM     23  C   UNL     1      -7.017   2.348   0.823  1.00  0.00     0.143 C 
ATOM     24  H   UNL     1      -6.280   2.074  -1.145  1.00  0.00     0.163 HD
ATOM     25  O   UNL     1      -4.417   1.461   1.308  1.00  0.00    -0.269 OA
ENDBRANCH  16  21
BRANCH  17  26
ATOM     26  O   UNL     1      -5.010   2.686  -2.441  1.00  0.00    -0.507 OA
ATOM     27  H   UNL     1      -4.791   3.184  -3.249  1.00  0.00     0.293 HD
ENDBRANCH  17  26
ENDBRANCH  10  15
ENDBRANCH   8   9
ENDBRANCH   7   8
ENDBRANCH   1   7
BRANCH   6  28
ATOM     28  C   UNL     1       3.396  -1.485   0.166  1.00  0.00     0.117 C 
BRANCH  28  29
ATOM     29  N   UNL     1       3.598  -0.247  -0.584  1.00  0.00    -0.310 NA
ATOM     30  H   UNL     1       3.000   0.485  -0.203  1.00  0.00     0.123 HD
BRANCH  29  31
ATOM     31  C   UNL     1       3.324  -0.430  -2.010  1.00  0.00     0.109 C 
BRANCH  31  32
ATOM     32  C   UNL     1       3.281   0.904  -2.781  1.00  0.00     0.175 C 
BRANCH  32  33
ATOM     33  O   UNL     1       4.432   1.733  -2.617  1.00  0.00    -0.383 OA
ATOM     34  C   UNL     1       5.624   1.164  -3.141  1.00  0.00     0.194 C 
ENDBRANCH  32  33
ENDBRANCH  31  32
ENDBRANCH  29  31
ENDBRANCH  28  29
ENDBRANCH   6  28
TORSDOF 11
