MODEL        9USER    Run = 9USERUSER    Estimated Free Energy of Binding    = -11.11 kcal/mol  [=(1)+(2)+(3)-(4)]USERUSER    (1) Final Intermolecular Energy     = -14.09 kcal/molUSER        vdW + Hbond + desolv Energy     = -13.97 kcal/molUSER        Electrostatic Energy            =  -0.12 kcal/molUSER        Moving Ligand-Fixed Receptor    = -14.09 kcal/molUSER        Moving Ligand-Moving Receptor   =  +0.00 kcal/molUSER    (2) Final Total Internal Energy     =  -1.57 kcal/molUSER    (3) Torsional Free Energy           =  +2.98 kcal/molUSER    (4) Unbound System's Energy         =  -1.57 kcal/molUSERUSERREMARK SMILES CC(=O)N1CCN(CCOc2cccc(CCC[C@H]3C[C@@H](c4cncnc4N)C3)c2C)CC1REMARK SMILES IDX 16 1 15 2 11 3 12 4 30 5 13 6 14 7 31 8 10 9 9 10 8 11 7 12REMARK SMILES IDX 2 13 4 14 5 15 33 16 6 17 32 18 1 19 3 20 17 21 18 22 19 23REMARK SMILES IDX 20 24 29 25 21 26 22 27 23 28 27 29 24 30 26 31 25 32 28 33REMARK H PARENT 28 34 28 35USER                              x       y       z     vdW  Elec       q    TypeUSER                           _______ _______ _______ _____ _____    ______ ____ROOTATOM      1  C   UNL     1      35.386  45.172  15.778 -0.37 -0.02    +0.036 C  ENDROOTBRANCH   1   2ATOM      2  C   UNL     1      36.264  44.894  16.981 -0.30 +0.02    -0.041 A  ATOM      3  C   UNL     1      36.645  44.494  19.365 -0.26 -0.02    +0.122 A  ATOM      4  C   UNL     1      38.022  44.458  19.129 -0.33 -0.00    +0.047 A  ATOM      5  C   UNL     1      35.751  44.706  18.288 -0.34 +0.00    -0.006 A  ATOM      6  C   UNL     1      38.524  44.630  17.841 -0.34 -0.00    +0.004 A  ATOM      7  C   UNL     1      37.654  44.850  16.779 -0.34 -0.00    +0.004 A  ATOM      8  C   UNL     1      34.264  44.767  18.546 -0.41 -0.02    +0.049 C  BRANCH   3   9ATOM      9  O   UNL     1      36.069  44.360  20.603 -0.15 +0.01    -0.492 OA BRANCH   9  10ATOM     10  C   UNL     1      36.590  43.392  21.517 -0.29 +0.01    +0.245 C  BRANCH  10  11ATOM     11  C   UNL     1      37.500  44.063  22.561 -0.34 +0.01    +0.126 C  BRANCH  11  12ATOM     12  N   UNL     1      37.626  43.314  23.824 -0.16 -0.02    -0.296 NA ATOM     13  C   UNL     1      35.206  42.519  27.377 -0.46 -0.06    +0.219 C  ATOM     14  N   UNL     1      35.930  42.836  26.241 -0.19 +0.04    -0.340 N  ATOM     15  C   UNL     1      36.299  44.193  25.827 -0.29 -0.01    +0.135 C  ATOM     16  C   UNL     1      36.406  41.750  25.382 -0.33 -0.02    +0.135 C  ATOM     17  C   UNL     1      37.601  44.214  24.998 -0.29 +0.00    +0.106 C  ATOM     18  C   UNL     1      36.633  42.225  23.936 -0.40 +0.00    +0.106 C  ATOM     19  C   UNL     1      34.684  43.669  28.200 -0.61 -0.03    +0.114 C  ATOM     20  O   UNL     1      34.989  41.357  27.721 -0.48 +0.12    -0.275 OA ENDBRANCH  11  12ENDBRANCH  10  11ENDBRANCH   9  10ENDBRANCH   3   9ENDBRANCH   1   2BRANCH   1  21ATOM     21  C   UNL     1      36.139  45.465  14.472 -0.45 -0.00    +0.005 C  BRANCH  21  22ATOM     22  C   UNL     1      35.826  46.815  13.821 -0.55 -0.00    +0.004 C  BRANCH  22  23ATOM     23  C   UNL     1      37.042  47.724  13.711 -0.63 +0.00    -0.010 C  ATOM     24  C   UNL     1      37.384  48.521  14.999 -0.59 -0.01    +0.012 C  ATOM     25  C   UNL     1      38.451  47.082  13.831 -0.52 -0.00    +0.012 C  ATOM     26  C   UNL     1      38.883  48.330  14.643 -0.58 -0.01    +0.025 C  BRANCH  26  27ATOM     27  C   UNL     1      39.959  48.245  15.805 -0.54 -0.00    +0.016 A  ATOM     28  C   UNL     1      40.055  47.088  16.579 -0.41 -0.02    +0.120 A  ATOM     29  C   UNL     1      40.905  49.206  16.175 -0.45 -0.02    +0.130 A  ATOM     30  N   UNL     1      40.927  46.868  17.583 -0.33 +0.03    -0.244 NA ATOM     31  N   UNL     1      41.783  49.044  17.179 -0.77 -0.03    -0.220 NA ATOM     32  C   UNL     1      41.760  47.877  17.830 -0.26 -0.01    +0.224 A  BRANCH  29  33ATOM     33  N   UNL     1      40.969  50.456  15.555 -0.32 +0.14    -0.383 N  ATOM     34  H   UNL     1      41.437  51.118  16.164 -0.46 -0.07    +0.158 HD ATOM     35  H   UNL     1      40.043  50.802  15.333 -0.39 -0.13    +0.158 HD ENDBRANCH  29  33ENDBRANCH  26  27ENDBRANCH  22  23ENDBRANCH  21  22ENDBRANCH   1  21TORSDOF 10TERENDMDL