REMARK SMILES CC(=O)N1CCN(CCOc2cccc(CCC[C@H]3C[C@@H](c4cncnc4N)C3)c2C)CC1
REMARK SMILES IDX 16 1 15 2 11 3 12 4 30 5 13 6 14 7 31 8 10 9 9 10 8 11 7 12
REMARK SMILES IDX 2 13 4 14 5 15 33 16 6 17 32 18 1 19 3 20 17 21 18 22 19 23
REMARK SMILES IDX 20 24 29 25 21 26 22 27 23 28 27 29 24 30 26 31 25 32 28 33
REMARK H PARENT 28 34 28 35
ROOT
ATOM      1  C   UNL     1       2.236  -3.556  -1.504  1.00  0.00     0.036 C 
ENDROOT
BRANCH   1   2
ATOM      2  C   UNL     1       1.268  -2.391  -1.494  1.00  0.00    -0.041 A 
ATOM      3  C   UNL     1      -0.533  -1.051  -0.519  1.00  0.00     0.122 A 
ATOM      4  C   UNL     1      -0.522  -0.230  -1.650  1.00  0.00     0.047 A 
ATOM      5  C   UNL     1       0.370  -2.138  -0.428  1.00  0.00    -0.006 A 
ATOM      6  C   UNL     1       0.370  -0.473  -2.692  1.00  0.00     0.004 A 
ATOM      7  C   UNL     1       1.252  -1.545  -2.616  1.00  0.00     0.004 A 
ATOM      8  C   UNL     1       0.344  -3.038   0.785  1.00  0.00     0.049 C 
BRANCH   3   9
ATOM      9  O   UNL     1      -1.394  -0.899   0.539  1.00  0.00    -0.492 OA
BRANCH   9  10
ATOM     10  C   UNL     1      -2.227   0.261   0.603  1.00  0.00     0.245 C 
BRANCH  10  11
ATOM     11  C   UNL     1      -3.578   0.000  -0.087  1.00  0.00     0.126 C 
BRANCH  11  12
ATOM     12  N   UNL     1      -4.440   1.190  -0.199  1.00  0.00    -0.296 NA
ATOM     13  C   UNL     1      -8.442   2.424   1.054  1.00  0.00     0.219 C 
ATOM     14  N   UNL     1      -7.199   1.959   0.662  1.00  0.00    -0.340 N 
ATOM     15  C   UNL     1      -6.967   0.793  -0.196  1.00  0.00     0.135 C 
ATOM     16  C   UNL     1      -6.005   2.687   1.094  1.00  0.00     0.135 C 
ATOM     17  C   UNL     1      -5.654   0.913  -0.998  1.00  0.00     0.106 C 
ATOM     18  C   UNL     1      -4.762   1.779   1.118  1.00  0.00     0.106 C 
ATOM     19  C   UNL     1      -9.641   1.611   0.637  1.00  0.00     0.114 C 
ATOM     20  O   UNL     1      -8.586   3.455   1.712  1.00  0.00    -0.275 OA
ENDBRANCH  11  12
ENDBRANCH  10  11
ENDBRANCH   9  10
ENDBRANCH   3   9
ENDBRANCH   1   2
BRANCH   1  21
ATOM     21  C   UNL     1       3.723  -3.172  -1.483  1.00  0.00     0.005 C 
BRANCH  21  22
ATOM     22  C   UNL     1       4.279  -2.770  -0.114  1.00  0.00     0.004 C 
BRANCH  22  23
ATOM     23  C   UNL     1       3.923  -1.344   0.282  1.00  0.00    -0.010 C 
ATOM     24  C   UNL     1       4.747  -0.765   1.464  1.00  0.00     0.012 C 
ATOM     25  C   UNL     1       4.490  -0.181  -0.577  1.00  0.00     0.012 C 
ATOM     26  C   UNL     1       4.702   0.608   0.741  1.00  0.00     0.025 C 
BRANCH  26  27
ATOM     27  C   UNL     1       5.900   1.630   0.926  1.00  0.00     0.016 A 
ATOM     28  C   UNL     1       5.668   2.870   1.524  1.00  0.00     0.120 A 
ATOM     29  C   UNL     1       7.244   1.454   0.584  1.00  0.00     0.130 A 
ATOM     30  N   UNL     1       6.587   3.827   1.761  1.00  0.00    -0.244 NA
ATOM     31  N   UNL     1       8.195   2.382   0.781  1.00  0.00    -0.220 NA
ATOM     32  C   UNL     1       7.824   3.522   1.371  1.00  0.00     0.224 A 
BRANCH  29  33
ATOM     33  N   UNL     1       7.697   0.298  -0.057  1.00  0.00    -0.383 N 
ATOM     34  H   UNL     1       7.326   0.260  -1.000  1.00  0.00     0.158 HD
ATOM     35  H   UNL     1       7.415  -0.534   0.447  1.00  0.00     0.158 HD
ENDBRANCH  29  33
ENDBRANCH  26  27
ENDBRANCH  22  23
ENDBRANCH  21  22
ENDBRANCH   1  21
TORSDOF 10
