MODEL        7USER    Run = 7USERUSER    Estimated Free Energy of Binding    = -10.57 kcal/mol  [=(1)+(2)+(3)-(4)]USERUSER    (1) Final Intermolecular Energy     = -12.96 kcal/molUSER        vdW + Hbond + desolv Energy     = -12.72 kcal/molUSER        Electrostatic Energy            =  -0.24 kcal/molUSER        Moving Ligand-Fixed Receptor    = -12.96 kcal/molUSER        Moving Ligand-Moving Receptor   =  +0.00 kcal/molUSER    (2) Final Total Internal Energy     =  -0.81 kcal/molUSER    (3) Torsional Free Energy           =  +2.39 kcal/molUSER    (4) Unbound System's Energy         =  -0.81 kcal/molUSERUSERREMARK SMILES O=C(O)CCC[C@@H]1Cc2cc(-c3cccc(-c4ccncc4)c3F)ccc2C[C@@H]1OREMARK SMILES IDX 5 1 4 2 2 3 1 4 3 5 6 7 7 8 8 9 29 10 9 11 28 12 10 13 27 14REMARK SMILES IDX 11 15 26 16 25 17 30 18 12 20 13 21 23 22 14 23 16 24 15 25REMARK SMILES IDX 24 26 17 27 18 28 22 29 19 30 21 31 20 32REMARK H PARENT 3 6 30 19USER                              x       y       z     vdW  Elec       q    TypeUSER                           _______ _______ _______ _____ _____    ______ ____ROOTATOM      1  C   UNL     1      27.813  43.239  16.999 -0.27 -0.00    +0.012 C  ENDROOTBRANCH   1   2ATOM      2  C   UNL     1      27.000  43.671  18.219 -0.27 -0.01    +0.122 C  BRANCH   2   3ATOM      3  C   UNL     1      26.102  44.845  17.935 -0.30 +0.01    +0.303 C  ATOM      4  O   UNL     1      25.638  45.180  16.858 -0.79 -0.06    -0.252 OA BRANCH   3   5ATOM      5  O   UNL     1      25.792  45.527  19.056 -0.30 +0.06    -0.481 OA ATOM      6  H   UNL     1      24.944  45.128  19.345 -0.36 -0.15    +0.296 HD ENDBRANCH   3   5ENDBRANCH   2   3ENDBRANCH   1   2BRANCH   1   7ATOM      7  C   UNL     1      28.798  44.288  16.465 -0.33 -0.00    +0.007 C  BRANCH   7   8ATOM      8  C   UNL     1      30.287  44.052  16.799 -0.30 -0.01    +0.022 C  ATOM      9  C   UNL     1      31.157  44.748  15.733 -0.40 -0.02    +0.042 C  ATOM     10  C   UNL     1      30.670  42.566  16.886 -0.26 -0.04    +0.122 C  ATOM     11  C   UNL     1      32.632  44.466  15.888 -0.31 +0.02    -0.044 A  ATOM     12  C   UNL     1      32.144  42.401  17.288 -0.33 -0.02    +0.067 C  ATOM     13  C   UNL     1      33.559  45.320  15.263 -0.28 -0.01    +0.012 A  ATOM     14  C   UNL     1      33.092  43.343  16.587 -0.30 +0.02    -0.042 A  ATOM     15  C   UNL     1      34.945  45.098  15.344 -0.32 +0.01    -0.015 A  ATOM     16  C   UNL     1      34.471  43.115  16.681 -0.39 -0.00    +0.005 A  ATOM     17  C   UNL     1      35.381  43.980  16.068 -0.36 -0.00    +0.009 A  BRANCH  10  18ATOM     18  O   UNL     1      30.393  41.925  15.639 -0.21 +0.20    -0.392 OA ATOM     19  H   UNL     1      31.128  41.323  15.432 -0.43 -0.16    +0.210 HD ENDBRANCH  10  18BRANCH  15  20ATOM     20  C   UNL     1      35.904  46.015  14.701 -0.39 -0.01    +0.018 A  ATOM     21  C   UNL     1      35.697  46.456  13.383 -0.52 -0.01    +0.012 A  ATOM     22  C   UNL     1      37.047  46.487  15.374 -0.29 -0.08    +0.138 A  ATOM     23  C   UNL     1      36.595  47.328  12.766 -0.66 -0.00    +0.001 A  ATOM     24  C   UNL     1      37.971  47.367  14.777 -0.46 -0.01    +0.018 A  ATOM     25  C   UNL     1      37.720  47.778  13.457 -0.53 -0.00    +0.012 A  ATOM     26  F   UNL     1      37.277  46.069  16.632 -0.07 +0.09    -0.206 F  BRANCH  24  27ATOM     27  C   UNL     1      39.162  47.850  15.500 -0.50 +0.00    -0.012 A  ATOM     28  C   UNL     1      39.882  48.965  15.054 -0.48 -0.01    +0.029 A  ATOM     29  C   UNL     1      39.619  47.207  16.658 -0.46 -0.01    +0.029 A  ATOM     30  C   UNL     1      41.000  49.376  15.762 -0.55 -0.02    +0.111 A  ATOM     31  C   UNL     1      40.748  47.693  17.300 -0.43 -0.02    +0.111 A  ATOM     32  N   UNL     1      41.452  48.762  16.875 -0.86 -0.00    -0.265 NA ENDBRANCH  24  27ENDBRANCH  15  20ENDBRANCH   7   8ENDBRANCH   1   7TORSDOF 8TERENDMDL