MODEL        2USER    Run = 2USERUSER    Estimated Free Energy of Binding    =  -9.42 kcal/mol  [=(1)+(2)+(3)-(4)]USERUSER    (1) Final Intermolecular Energy     = -10.91 kcal/molUSER        vdW + Hbond + desolv Energy     = -10.64 kcal/molUSER        Electrostatic Energy            =  -0.27 kcal/molUSER        Moving Ligand-Fixed Receptor    = -10.91 kcal/molUSER        Moving Ligand-Moving Receptor   =  +0.00 kcal/molUSER    (2) Final Total Internal Energy     =  -0.49 kcal/molUSER    (3) Torsional Free Energy           =  +1.49 kcal/molUSER    (4) Unbound System's Energy         =  -0.49 kcal/molUSERUSERREMARK SMILES COc1cc(F)cc(F)c1C(=O)c1ccc2c(c1)nc(-c1ccnc(N)c1)n2CREMARK SMILES IDX 13 1 14 2 15 3 16 4 17 5 18 6 19 7 20 8 28 9 29 10 11 11REMARK SMILES IDX 12 12 10 13 3 14 4 15 5 16 8 17 7 18 6 19 9 20 2 21 1 22REMARK SMILES IDX 21 23 22 24 27 25 23 26 25 27 24 28 26 29REMARK H PARENT 26 30 26 31USER                              x       y       z     vdW  Elec       q    TypeUSER                           _______ _______ _______ _____ _____    ______ ____ROOTATOM      1  C   UNL     1      34.547  43.504  17.914 -0.31 -0.01    +0.025 A  ATOM      2  C   UNL     1      34.790  43.021  16.620 -0.41 -0.01    +0.014 A  ATOM      3  C   UNL     1      35.839  43.517  15.835 -0.40 -0.01    +0.029 A  ATOM      4  C   UNL     1      36.633  44.520  16.403 -0.30 -0.02    +0.068 A  ATOM      5  C   UNL     1      36.409  45.019  17.679 -0.27 -0.03    +0.090 A  ATOM      6  C   UNL     1      35.353  44.517  18.454 -0.32 -0.01    +0.042 A  ATOM      7  N   UNL     1      37.320  45.992  17.991 -0.17 +0.07    -0.228 NA ATOM      8  C   UNL     1      38.136  46.086  16.955 -0.29 -0.05    +0.141 A  ATOM      9  N   UNL     1      37.715  45.240  15.946 -0.13 +0.11    -0.327 N  ATOM     10  C   UNL     1      38.257  45.157  14.609 -0.21 -0.04    +0.152 C  ENDROOTBRANCH   1  11ATOM     11  C   UNL     1      33.408  42.922  18.675 -0.29 -0.03    +0.199 C  ATOM     12  O   UNL     1      33.348  43.016  19.898 -0.79 -0.03    -0.288 OA BRANCH  11  13ATOM     13  C   UNL     1      32.311  42.235  17.981 -0.27 -0.02    +0.100 A  ATOM     14  C   UNL     1      31.815  41.015  18.451 -0.28 -0.01    +0.135 A  ATOM     15  C   UNL     1      30.771  40.382  17.776 -0.30 -0.01    +0.086 A  ATOM     16  C   UNL     1      30.210  40.997  16.659 -0.29 -0.03    +0.129 A  ATOM     17  C   UNL     1      31.733  42.835  16.864 -0.22 -0.05    +0.141 A  ATOM     18  C   UNL     1      30.678  42.221  16.196 -0.28 -0.03    +0.079 A  ATOM     19  F   UNL     1      29.203  40.394  16.015 -0.13 +0.01    -0.207 F  ATOM     20  F   UNL     1      32.187  44.012  16.408 -0.04 +0.09    -0.206 F  BRANCH  14  21ATOM     21  O   UNL     1      32.409  40.380  19.507 -0.56 -0.12    -0.496 OA ATOM     22  C   UNL     1      31.623  39.262  19.925 -0.26 +0.06    +0.278 C  ENDBRANCH  14  21ENDBRANCH  11  13ENDBRANCH   1  11BRANCH   8  23ATOM     23  C   UNL     1      39.280  46.998  16.898 -0.44 -0.01    +0.023 A  ATOM     24  C   UNL     1      39.248  48.076  16.015 -0.47 -0.01    +0.032 A  ATOM     25  C   UNL     1      40.388  46.857  17.736 -0.45 -0.01    +0.058 A  ATOM     26  C   UNL     1      40.330  48.936  15.988 -0.48 -0.03    +0.114 A  ATOM     27  C   UNL     1      41.430  47.766  17.633 -0.41 -0.01    +0.124 A  ATOM     28  N   UNL     1      41.421  48.793  16.772 -0.91 -0.00    -0.240 NA BRANCH  27  29ATOM     29  N   UNL     1      42.543  47.664  18.464 -0.30 -0.00    -0.384 N  ATOM     30  H   UNL     1      42.710  48.596  18.839 -0.16 -0.01    +0.158 HD ATOM     31  H   UNL     1      43.353  47.308  17.973 -0.50 -0.01    +0.158 HD ENDBRANCH  27  29ENDBRANCH   8  23TORSDOF 5TERENDMDL