REMARK SMILES COc1cc(F)cc(F)c1C(=O)c1ccc2c(c1)nc(-c1ccnc(N)c1)n2C
REMARK SMILES IDX 13 1 14 2 15 3 16 4 17 5 18 6 19 7 20 8 28 9 29 10 11 11
REMARK SMILES IDX 12 12 10 13 3 14 4 15 5 16 8 17 7 18 6 19 9 20 2 21 1 22
REMARK SMILES IDX 21 23 22 24 27 25 23 26 25 27 24 28 26 29
REMARK H PARENT 26 30 26 31
ROOT
ATOM      1  C   UNL     1      -1.763  -1.161   0.539  1.00  0.00     0.025 A 
ATOM      2  C   UNL     1      -1.191  -2.384   0.918  1.00  0.00     0.014 A 
ATOM      3  C   UNL     1       0.194  -2.591   0.879  1.00  0.00     0.029 A 
ATOM      4  C   UNL     1       0.981  -1.520   0.441  1.00  0.00     0.068 A 
ATOM      5  C   UNL     1       0.439  -0.302   0.054  1.00  0.00     0.090 A 
ATOM      6  C   UNL     1      -0.950  -0.107   0.094  1.00  0.00     0.042 A 
ATOM      7  N   UNL     1       1.420   0.570  -0.334  1.00  0.00    -0.228 NA
ATOM      8  C   UNL     1       2.569  -0.060  -0.161  1.00  0.00     0.141 A 
ATOM      9  N   UNL     1       2.337  -1.356   0.261  1.00  0.00    -0.327 N 
ATOM     10  C   UNL     1       3.324  -2.398   0.425  1.00  0.00     0.152 C 
ENDROOT
BRANCH   1  11
ATOM     11  C   UNL     1      -3.244  -1.030   0.608  1.00  0.00     0.199 C 
ATOM     12  O   UNL     1      -3.962  -2.015   0.756  1.00  0.00    -0.288 OA
BRANCH  11  13
ATOM     13  C   UNL     1      -3.888   0.287   0.521  1.00  0.00     0.100 A 
ATOM     14  C   UNL     1      -4.618   0.657  -0.613  1.00  0.00     0.135 A 
ATOM     15  C   UNL     1      -5.222   1.913  -0.672  1.00  0.00     0.086 A 
ATOM     16  C   UNL     1      -5.121   2.770   0.421  1.00  0.00     0.129 A 
ATOM     17  C   UNL     1      -3.802   1.159   1.605  1.00  0.00     0.141 A 
ATOM     18  C   UNL     1      -4.418   2.405   1.563  1.00  0.00     0.079 A 
ATOM     19  F   UNL     1      -5.707   3.973   0.368  1.00  0.00    -0.207 F 
ATOM     20  F   UNL     1      -3.118   0.814   2.706  1.00  0.00    -0.206 F 
BRANCH  14  21
ATOM     21  O   UNL     1      -4.661  -0.157  -1.712  1.00  0.00    -0.496 OA
ATOM     22  C   UNL     1      -5.903  -0.862  -1.764  1.00  0.00     0.278 C 
ENDBRANCH  14  21
ENDBRANCH  11  13
ENDBRANCH   1  11
BRANCH   8  23
ATOM     23  C   UNL     1       3.877   0.540  -0.432  1.00  0.00     0.023 A 
ATOM     24  C   UNL     1       4.056   1.287  -1.595  1.00  0.00     0.032 A 
ATOM     25  C   UNL     1       4.945   0.433   0.462  1.00  0.00     0.058 A 
ATOM     26  C   UNL     1       5.293   1.860  -1.824  1.00  0.00     0.114 A 
ATOM     27  C   UNL     1       6.152   1.037   0.143  1.00  0.00     0.124 A 
ATOM     28  N   UNL     1       6.343   1.739  -0.983  1.00  0.00    -0.240 NA
BRANCH  27  29
ATOM     29  N   UNL     1       7.233   0.964   1.018  1.00  0.00    -0.384 N 
ATOM     30  H   UNL     1       8.005   1.450   0.566  1.00  0.00     0.158 HD
ATOM     31  H   UNL     1       7.475   0.008   1.245  1.00  0.00     0.158 HD
ENDBRANCH  27  29
ENDBRANCH   8  23
TORSDOF 5
