MODEL        10USER    Run = 10USERUSER    Estimated Free Energy of Binding    = -10.35 kcal/mol  [=(1)+(2)+(3)-(4)]USERUSER    (1) Final Intermolecular Energy     = -12.44 kcal/molUSER        vdW + Hbond + desolv Energy     = -12.32 kcal/molUSER        Electrostatic Energy            =  -0.12 kcal/molUSER        Moving Ligand-Fixed Receptor    = -12.44 kcal/molUSER        Moving Ligand-Moving Receptor   =  +0.00 kcal/molUSER    (2) Final Total Internal Energy     =  -1.95 kcal/molUSER    (3) Torsional Free Energy           =  +2.09 kcal/molUSER    (4) Unbound System's Energy         =  -1.95 kcal/molUSERUSERREMARK SMILES Cc1ccc(-c2nc(-c3ccc(CNC(=O)[C@@H](C)N4CCN(C)CC4)cc3F)cnc2O)cc1CREMARK SMILES IDX 13 1 12 2 9 3 10 4 27 5 11 6 26 7 28 8 8 9 6 10 7 11 31 12REMARK SMILES IDX 30 13 29 14 5 15 2 16 3 17 34 18 4 19 33 20 1 21 35 22 32 23REMARK SMILES IDX 14 25 15 26 16 28 17 29 18 30 19 31 20 32 25 33 21 34 24 35REMARK SMILES IDX 22 36 23 37REMARK H PARENT 32 24 14 27USER                              x       y       z     vdW  Elec       q    TypeUSER                           _______ _______ _______ _____ _____    ______ ____ROOTATOM      1  C   UNL     1      39.788  43.003  22.821 -0.24 +0.01    +0.151 C  ENDROOTBRANCH   1   2ATOM      2  C   UNL     1      39.998  43.959  21.675 -0.25 -0.00    -0.026 A  ATOM      3  C   UNL     1      40.369  45.781  19.506 -0.39 +0.00    +0.038 A  ATOM      4  C   UNL     1      41.379  45.551  20.464 -0.36 +0.00    +0.014 A  ATOM      5  C   UNL     1      39.170  45.077  19.684 -0.31 -0.00    +0.132 A  ATOM      6  C   UNL     1      41.200  44.659  21.530 -0.29 +0.00    +0.006 A  ATOM      7  C   UNL     1      38.983  44.180  20.738 -0.26 +0.00    +0.045 A  ATOM      8  F   UNL     1      38.139  45.264  18.848 -0.10 +0.03    -0.206 F  BRANCH   3   9ATOM      9  C   UNL     1      40.593  46.724  18.392 -0.40 -0.01    +0.092 A  ATOM     10  C   UNL     1      39.862  47.522  16.327 -0.41 -0.03    +0.133 A  ATOM     11  N   UNL     1      39.702  46.651  17.364 -0.30 +0.05    -0.240 NA ATOM     12  C   UNL     1      40.926  48.432  16.313 -0.36 -0.03    +0.238 A  ATOM     13  N   UNL     1      41.809  48.533  17.323 -0.71 -0.01    -0.218 NA ATOM     14  C   UNL     1      41.616  47.670  18.353 -0.34 -0.01    +0.144 A  BRANCH  10  15ATOM     15  C   UNL     1      38.842  47.430  15.272 -0.48 -0.00    +0.006 A  ATOM     16  C   UNL     1      36.851  47.263  13.257 -0.55 +0.02    -0.048 A  ATOM     17  C   UNL     1      37.201  48.497  13.822 -0.56 -0.00    +0.004 A  ATOM     18  C   UNL     1      37.513  46.099  13.687 -0.42 +0.02    -0.048 A  ATOM     19  C   UNL     1      38.184  48.578  14.810 -0.51 -0.01    +0.011 A  ATOM     20  C   UNL     1      38.503  46.199  14.683 -0.41 -0.00    +0.014 A  ATOM     21  C   UNL     1      35.791  47.215  12.191 -0.60 -0.03    +0.044 C  ATOM     22  C   UNL     1      37.196  44.751  13.098 -0.45 -0.01    +0.044 C  ENDBRANCH  10  15BRANCH  12  23ATOM     23  O   UNL     1      41.186  49.276  15.271 -0.43 +0.08    -0.492 OA ATOM     24  H   UNL     1      40.394  49.815  15.119 +0.10 -0.14    +0.295 HD ENDBRANCH  12  23ENDBRANCH   3   9ENDBRANCH   1   2BRANCH   1  25ATOM     25  N   UNL     1      39.024  43.628  23.879 -0.06 -0.02    -0.351 N  ATOM     26  C   UNL     1      37.650  43.477  23.962 -0.24 +0.02    +0.237 C  ATOM     27  H   UNL     1      39.462  44.387  24.380 +0.08 +0.01    +0.163 HD ATOM     28  O   UNL     1      37.025  42.745  23.200 -0.29 -0.02    -0.273 OA BRANCH  26  29ATOM     29  C   UNL     1      36.998  44.353  25.067 -0.29 +0.01    +0.143 C  ATOM     30  C   UNL     1      36.680  43.390  26.220 -0.41 -0.00    +0.035 C  BRANCH  29  31ATOM     31  N   UNL     1      37.870  45.477  25.485 -0.22 -0.01    -0.290 NA ATOM     32  C   UNL     1      37.391  46.194  26.687 -0.33 -0.01    +0.101 C  ATOM     33  C   UNL     1      38.138  46.429  24.381 -0.21 +0.02    +0.101 C  ATOM     34  C   UNL     1      36.776  47.584  26.406 -0.33 -0.01    +0.099 C  ATOM     35  C   UNL     1      38.653  47.803  24.870 -0.36 +0.01    +0.099 C  ATOM     36  N   UNL     1      37.723  48.515  25.767 -0.21 -0.02    -0.304 NA ATOM     37  C   UNL     1      37.017  49.594  25.086 -0.42 +0.00    +0.105 C  ENDBRANCH  29  31ENDBRANCH  26  29ENDBRANCH   1  25TORSDOF 7TERENDMDL