REMARK SMILES Cc1ccc(-c2nc(-c3ccc(CNC(=O)[C@@H](C)N4CCN(C)CC4)cc3F)cnc2O)cc1C
REMARK SMILES IDX 13 1 12 2 9 3 10 4 27 5 11 6 26 7 28 8 8 9 6 10 7 11 31 12
REMARK SMILES IDX 30 13 29 14 5 15 2 16 3 17 34 18 4 19 33 20 1 21 35 22 32 23
REMARK SMILES IDX 14 25 15 26 16 28 17 29 18 30 19 31 20 32 25 33 21 34 24 35
REMARK SMILES IDX 22 36 23 37
REMARK H PARENT 32 24 14 27
ROOT
ATOM      1  C   UNL     1       2.080  -2.271   0.710  1.00  0.00     0.151 C 
ENDROOT
BRANCH   1   2
ATOM      2  C   UNL     1       0.716  -1.703   1.007  1.00  0.00    -0.026 A 
ATOM      3  C   UNL     1      -1.857  -0.600   1.577  1.00  0.00     0.038 A 
ATOM      4  C   UNL     1      -1.643  -1.456   0.477  1.00  0.00     0.014 A 
ATOM      5  C   UNL     1      -0.736  -0.309   2.367  1.00  0.00     0.132 A 
ATOM      6  C   UNL     1      -0.382  -1.998   0.194  1.00  0.00     0.006 A 
ATOM      7  C   UNL     1       0.524  -0.849   2.099  1.00  0.00     0.045 A 
ATOM      8  F   UNL     1      -0.834   0.530   3.408  1.00  0.00    -0.206 F 
BRANCH   3   9
ATOM      9  C   UNL     1      -3.200  -0.050   1.850  1.00  0.00     0.092 A 
ATOM     10  C   UNL     1      -5.306   0.481   1.004  1.00  0.00     0.133 A 
ATOM     11  N   UNL     1      -4.049   0.001   0.786  1.00  0.00    -0.240 NA
ATOM     12  C   UNL     1      -5.690   0.935   2.272  1.00  0.00     0.238 A 
ATOM     13  N   UNL     1      -4.875   0.881   3.340  1.00  0.00    -0.218 NA
ATOM     14  C   UNL     1      -3.636   0.379   3.103  1.00  0.00     0.144 A 
BRANCH  10  15
ATOM     15  C   UNL     1      -6.193   0.465  -0.169  1.00  0.00     0.006 A 
ATOM     16  C   UNL     1      -7.907   0.468  -2.430  1.00  0.00    -0.048 A 
ATOM     17  C   UNL     1      -6.626   1.033  -2.498  1.00  0.00     0.004 A 
ATOM     18  C   UNL     1      -8.334  -0.123  -1.227  1.00  0.00    -0.048 A 
ATOM     19  C   UNL     1      -5.782   1.027  -1.385  1.00  0.00     0.011 A 
ATOM     20  C   UNL     1      -7.470  -0.122  -0.116  1.00  0.00     0.014 A 
ATOM     21  C   UNL     1      -8.786   0.488  -3.651  1.00  0.00     0.044 C 
ATOM     22  C   UNL     1      -9.689  -0.766  -1.105  1.00  0.00     0.044 C 
ENDBRANCH  10  15
BRANCH  12  23
ATOM     23  O   UNL     1      -6.906   1.498   2.537  1.00  0.00    -0.492 OA
ATOM     24  H   UNL     1      -7.303   1.762   1.692  1.00  0.00     0.295 HD
ENDBRANCH  12  23
ENDBRANCH   3   9
ENDBRANCH   1   2
BRANCH   1  25
ATOM     25  N   UNL     1       2.966  -1.246   0.203  1.00  0.00    -0.351 N 
ATOM     26  C   UNL     1       3.888  -0.619   1.024  1.00  0.00     0.237 C 
ATOM     27  H   UNL     1       2.714  -0.807  -0.670  1.00  0.00     0.163 HD
ATOM     28  O   UNL     1       4.059  -0.956   2.193  1.00  0.00    -0.273 OA
BRANCH  26  29
ATOM     29  C   UNL     1       4.629   0.559   0.335  1.00  0.00     0.143 C 
ATOM     30  C   UNL     1       3.797   1.810   0.652  1.00  0.00     0.035 C 
BRANCH  29  31
ATOM     31  N   UNL     1       6.037   0.680   0.784  1.00  0.00    -0.290 NA
ATOM     32  C   UNL     1       6.799   1.742   0.091  1.00  0.00     0.101 C 
ATOM     33  C   UNL     1       6.766  -0.609   0.724  1.00  0.00     0.101 C 
ATOM     34  C   UNL     1       7.821   1.228  -0.950  1.00  0.00     0.099 C 
ATOM     35  C   UNL     1       8.303  -0.445   0.753  1.00  0.00     0.099 C 
ATOM     36  N   UNL     1       8.849   0.351  -0.363  1.00  0.00    -0.304 NA
ATOM     37  C   UNL     1       9.469  -0.485  -1.385  1.00  0.00     0.105 C 
ENDBRANCH  29  31
ENDBRANCH  26  29
ENDBRANCH   1  25
TORSDOF 7
