MODEL        1USER    Run = 1USERUSER    Estimated Free Energy of Binding    =  -8.89 kcal/mol  [=(1)+(2)+(3)-(4)]USERUSER    (1) Final Intermolecular Energy     = -10.39 kcal/molUSER        vdW + Hbond + desolv Energy     = -10.21 kcal/molUSER        Electrostatic Energy            =  -0.18 kcal/molUSER        Moving Ligand-Fixed Receptor    = -10.39 kcal/molUSER        Moving Ligand-Moving Receptor   =  +0.00 kcal/molUSER    (2) Final Total Internal Energy     =  -1.14 kcal/molUSER    (3) Torsional Free Energy           =  +1.49 kcal/molUSER    (4) Unbound System's Energy         =  -1.14 kcal/molUSERUSERREMARK SMILES COc1ccc(-c2nnc(N)nc2-c2ccccc2)c(O)c1CREMARK SMILES IDX 3 1 4 2 5 3 6 4 20 5 22 6 23 7 2 8 1 9 21 10 7 12 8 13 13 14REMARK SMILES IDX 9 15 12 16 10 17 14 18 15 19 19 20 16 21 18 22 17 23 11 24REMARK H PARENT 21 11 11 25 11 26USER                              x       y       z     vdW  Elec       q    TypeUSER                           _______ _______ _______ _____ _____    ______ ____ROOTATOM      1  C   UNL     1      38.717  45.351  18.933 -0.31 -0.01    +0.125 A  ATOM      2  C   UNL     1      37.933  45.919  17.925 -0.30 -0.01    +0.047 A  ATOM      3  C   UNL     1      38.487  46.836  17.027 -0.35 -0.01    +0.018 A  ATOM      4  C   UNL     1      39.842  47.194  17.094 -0.44 -0.01    +0.047 A  ATOM      5  C   UNL     1      40.616  46.627  18.122 -0.40 -0.01    +0.131 A  ATOM      6  C   UNL     1      40.071  45.722  19.056 -0.42 -0.00    +0.033 A  ATOM      7  C   UNL     1      40.924  45.139  20.155 -0.41 +0.00    +0.052 C  ENDROOTBRANCH   1   8ATOM      8  O   UNL     1      38.258  44.430  19.839 -0.09 +0.02    -0.496 OA ATOM      9  C   UNL     1      36.887  44.062  19.770 -0.25 -0.02    +0.278 C  ENDBRANCH   1   8BRANCH   5  10ATOM     10  O   UNL     1      41.934  47.003  18.201 -0.21 +0.02    -0.507 OA ATOM     11  H   UNL     1      42.224  47.324  17.332 -0.34 -0.07    +0.293 HD ENDBRANCH   5  10BRANCH   4  12ATOM     12  C   UNL     1      40.393  48.131  16.105 -0.46 -0.03    +0.123 A  ATOM     13  N   UNL     1      41.440  48.868  16.541 -1.02 -0.00    -0.144 NA ATOM     14  C   UNL     1      39.928  48.327  14.804 -0.46 -0.03    +0.103 A  ATOM     15  N   UNL     1      42.029  49.759  15.692 -0.74 -0.02    -0.111 NA ATOM     16  N   UNL     1      40.531  49.202  13.953 -0.28 +0.06    -0.210 NA ATOM     17  C   UNL     1      41.561  49.896  14.440 -0.45 -0.05    +0.240 A  BRANCH  14  18ATOM     18  C   UNL     1      38.743  47.663  14.225 -0.49 -0.00    +0.003 A  ATOM     19  C   UNL     1      38.748  46.275  13.995 -0.32 -0.00    +0.010 A  ATOM     20  C   UNL     1      37.590  48.382  13.863 -0.54 -0.00    +0.010 A  ATOM     21  C   UNL     1      37.636  45.626  13.454 -0.43 -0.00    +0.001 A  ATOM     22  C   UNL     1      36.475  47.734  13.322 -0.60 -0.00    +0.001 A  ATOM     23  C   UNL     1      36.498  46.356  13.121 -0.56 -0.00    +0.000 A  ENDBRANCH  14  18BRANCH  17  24ATOM     24  N   UNL     1      42.193  50.775  13.578 -0.32 +0.11    -0.366 N  ATOM     25  H   UNL     1      43.195  50.730  13.702 -0.12 -0.05    +0.159 HD ATOM     26  H   UNL     1      41.834  50.645  12.642 +0.10 -0.06    +0.159 HD ENDBRANCH  17  24ENDBRANCH   4  12TORSDOF 5TERENDMDL