MODEL        8USER    Run = 8USERUSER    Estimated Free Energy of Binding    =  -8.13 kcal/mol  [=(1)+(2)+(3)-(4)]USERUSER    (1) Final Intermolecular Energy     = -10.81 kcal/molUSER        vdW + Hbond + desolv Energy     = -10.65 kcal/molUSER        Electrostatic Energy            =  -0.17 kcal/molUSER        Moving Ligand-Fixed Receptor    = -10.81 kcal/molUSER        Moving Ligand-Moving Receptor   =  +0.00 kcal/molUSER    (2) Final Total Internal Energy     =  -3.65 kcal/molUSER    (3) Torsional Free Energy           =  +2.68 kcal/molUSER    (4) Unbound System's Energy         =  -3.65 kcal/molUSERUSERREMARK SMILES CC[C@H](O)COc1cc(O)c2cc(-c3ccc([S@+](C)[O-])cc3)ccc2c1OREMARK SMILES IDX 6 1 5 2 3 3 2 4 1 5 4 6 7 8 8 9 26 10 9 11 25 12 11 13 24 14REMARK SMILES IDX 12 15 23 16 13 17 27 18 10 20 14 22 15 23 22 24 16 25 21 26REMARK SMILES IDX 17 27 18 28 19 29 20 30REMARK H PARENT 4 7 27 19 10 21USER                              x       y       z     vdW  Elec       q    TypeUSER                           _______ _______ _______ _____ _____    ______ ____ROOTATOM      1  O   UNL     1      40.903  46.950  15.978 -0.11 +0.03    -0.487 OA ENDROOTBRANCH   1   2ATOM      2  C   UNL     1      40.348  48.097  15.317 -0.41 -0.06    +0.261 C  BRANCH   2   3ATOM      3  C   UNL     1      40.810  49.344  16.087 -0.53 -0.03    +0.151 C  BRANCH   3   4ATOM      4  C   UNL     1      41.429  50.378  15.145 -0.72 -0.01    +0.032 C  ATOM      5  C   UNL     1      42.026  49.741  13.897 -0.73 -0.00    +0.007 C  ENDBRANCH   3   4BRANCH   3   6ATOM      6  O   UNL     1      41.787  48.961  17.059 -0.81 -0.06    -0.390 OA ATOM      7  H   UNL     1      42.179  48.123  16.749 -0.35 +0.01    +0.211 HD ENDBRANCH   3   6ENDBRANCH   2   3ENDBRANCH   1   2BRANCH   1   8ATOM      8  C   UNL     1      40.130  46.363  16.950 -0.35 -0.02    +0.165 A  ATOM      9  C   UNL     1      38.818  45.925  16.799 -0.34 -0.02    +0.097 A  ATOM     10  C   UNL     1      40.764  46.199  18.192 -0.38 -0.01    +0.165 A  ATOM     11  C   UNL     1      38.160  45.337  17.883 -0.30 -0.03    +0.127 A  ATOM     12  C   UNL     1      40.116  45.609  19.295 -0.41 -0.00    +0.031 A  ATOM     13  C   UNL     1      38.785  45.170  19.139 -0.38 -0.00    +0.028 A  ATOM     14  C   UNL     1      40.744  45.444  20.544 -0.36 +0.00    +0.013 A  ATOM     15  C   UNL     1      38.128  44.578  20.243 -0.35 -0.00    +0.021 A  ATOM     16  C   UNL     1      40.075  44.857  21.621 -0.29 +0.00    +0.009 A  ATOM     17  C   UNL     1      38.755  44.413  21.490 -0.33 -0.00    -0.018 A  BRANCH  10  18ATOM     18  O   UNL     1      42.062  46.637  18.328 -0.20 +0.00    -0.504 OA ATOM     19  H   UNL     1      42.338  46.911  17.434 -0.32 -0.09    +0.293 HD ENDBRANCH  10  18BRANCH  11  20ATOM     20  O   UNL     1      36.865  44.906  17.729 -0.05 +0.15    -0.507 OA ATOM     21  H   UNL     1      36.291  45.664  17.533 +0.19 -0.13    +0.293 HD ENDBRANCH  11  20BRANCH  17  22ATOM     22  C   UNL     1      38.044  43.793  22.621 -0.33 -0.00    -0.018 A  ATOM     23  C   UNL     1      37.417  42.543  22.485 -0.43 +0.00    +0.014 A  ATOM     24  C   UNL     1      37.967  44.435  23.868 -0.30 +0.00    +0.014 A  ATOM     25  C   UNL     1      36.742  41.954  23.558 -0.41 +0.00    +0.061 A  ATOM     26  C   UNL     1      37.293  43.847  24.944 -0.30 +0.00    +0.061 A  ATOM     27  C   UNL     1      36.684  42.598  24.795 -0.28 +0.00    +0.152 A  BRANCH  27  28ATOM     28  S   UNL     1      35.818  41.849  26.192 -0.69 +0.00    -0.018 S  ATOM     29  C   UNL     1      35.415  43.390  27.055 -0.30 -0.07    +0.346 C  ATOM     30  O   UNL     1      36.957  41.060  27.106 -0.10 +0.16    -0.612 OA ENDBRANCH  27  28ENDBRANCH  17  22ENDBRANCH   1   8TORSDOF 9TERENDMDL