REMARK SMILES CC[C@H](O)COc1cc(O)c2cc(-c3ccc([S@+](C)[O-])cc3)ccc2c1O
REMARK SMILES IDX 6 1 5 2 3 3 2 4 1 5 4 6 7 8 8 9 26 10 9 11 25 12 11 13 24 14
REMARK SMILES IDX 12 15 23 16 13 17 27 18 10 20 14 22 15 23 22 24 16 25 21 26
REMARK SMILES IDX 17 27 18 28 19 29 20 30
REMARK H PARENT 4 7 27 19 10 21
ROOT
ATOM      1  O   UNL     1      -3.901  -0.709   0.063  1.00  0.00    -0.487 OA
ENDROOT
BRANCH   1   2
ATOM      2  C   UNL     1      -4.849   0.238   0.577  1.00  0.00     0.261 C 
BRANCH   2   3
ATOM      3  C   UNL     1      -6.252  -0.356   0.379  1.00  0.00     0.151 C 
BRANCH   3   4
ATOM      4  C   UNL     1      -7.339   0.648   0.767  1.00  0.00     0.032 C 
ATOM      5  C   UNL     1      -8.741   0.108   0.518  1.00  0.00     0.007 C 
ENDBRANCH   3   4
BRANCH   3   6
ATOM      6  O   UNL     1      -6.388  -1.523   1.196  1.00  0.00    -0.390 OA
ATOM      7  H   UNL     1      -5.608  -2.082   1.020  1.00  0.00     0.211 HD
ENDBRANCH   3   6
ENDBRANCH   2   3
ENDBRANCH   1   2
BRANCH   1   8
ATOM      8  C   UNL     1      -2.578  -0.343   0.104  1.00  0.00     0.165 A 
ATOM      9  C   UNL     1      -2.060   0.784   0.734  1.00  0.00     0.097 A 
ATOM     10  C   UNL     1      -1.700  -1.219  -0.554  1.00  0.00     0.165 A 
ATOM     11  C   UNL     1      -0.682   1.021   0.696  1.00  0.00     0.127 A 
ATOM     12  C   UNL     1      -0.310  -0.996  -0.603  1.00  0.00     0.031 A 
ATOM     13  C   UNL     1       0.211   0.150   0.034  1.00  0.00     0.028 A 
ATOM     14  C   UNL     1       0.575  -1.868  -1.264  1.00  0.00     0.013 A 
ATOM     15  C   UNL     1       1.605   0.381  -0.013  1.00  0.00     0.021 A 
ATOM     16  C   UNL     1       1.950  -1.619  -1.297  1.00  0.00     0.009 A 
ATOM     17  C   UNL     1       2.490  -0.490  -0.672  1.00  0.00    -0.018 A 
BRANCH  10  18
ATOM     18  O   UNL     1      -2.226  -2.330  -1.175  1.00  0.00    -0.504 OA
ATOM     19  H   UNL     1      -3.190  -2.268  -1.044  1.00  0.00     0.293 HD
ENDBRANCH  10  18
BRANCH  11  20
ATOM     20  O   UNL     1      -0.176   2.135   1.320  1.00  0.00    -0.507 OA
ATOM     21  H   UNL     1      -0.896   2.623   1.750  1.00  0.00     0.293 HD
ENDBRANCH  11  20
BRANCH  17  22
ATOM     22  C   UNL     1       3.938  -0.221  -0.703  1.00  0.00    -0.018 A 
ATOM     23  C   UNL     1       4.435   1.017  -1.142  1.00  0.00     0.014 A 
ATOM     24  C   UNL     1       4.864  -1.196  -0.299  1.00  0.00     0.014 A 
ATOM     25  C   UNL     1       5.809   1.274  -1.172  1.00  0.00     0.061 A 
ATOM     26  C   UNL     1       6.240  -0.942  -0.326  1.00  0.00     0.061 A 
ATOM     27  C   UNL     1       6.718   0.299  -0.756  1.00  0.00     0.152 A 
BRANCH  27  28
ATOM     28  S   UNL     1       8.496   0.615  -0.785  1.00  0.00    -0.018 S 
ATOM     29  C   UNL     1       8.704   0.876   0.995  1.00  0.00     0.346 C 
ATOM     30  O   UNL     1       8.719   2.084  -1.524  1.00  0.00    -0.612 OA
ENDBRANCH  27  28
ENDBRANCH  17  22
ENDBRANCH   1   8
TORSDOF 9
