REMARK SMILES COc1ccc(-c2nnc(N)nc2-c2ccccc2)c(O)c1C
REMARK SMILES IDX 3 1 4 2 5 3 6 4 20 5 22 6 23 7 2 8 1 9 21 10 7 12 8 13 13 14
REMARK SMILES IDX 9 15 12 16 10 17 14 18 15 19 19 20 16 21 18 22 17 23 11 24
REMARK H PARENT 21 11 11 25 11 26
ROOT
ATOM      1  C   UNL     1       2.861  -0.410  -1.030  1.00  0.00     0.125 A 
ATOM      2  C   UNL     1       2.970   0.542  -0.013  1.00  0.00     0.047 A 
ATOM      3  C   UNL     1       1.849   1.264   0.406  1.00  0.00     0.018 A 
ATOM      4  C   UNL     1       0.585   1.041  -0.160  1.00  0.00     0.047 A 
ATOM      5  C   UNL     1       0.492   0.090  -1.193  1.00  0.00     0.131 A 
ATOM      6  C   UNL     1       1.615  -0.629  -1.651  1.00  0.00     0.033 A 
ATOM      7  C   UNL     1       1.486  -1.633  -2.768  1.00  0.00     0.052 C 
ENDROOT
BRANCH   1   8
ATOM      8  O   UNL     1       3.905  -1.174  -1.485  1.00  0.00    -0.496 OA
ATOM      9  C   UNL     1       5.190  -0.937  -0.926  1.00  0.00     0.278 C 
ENDBRANCH   1   8
BRANCH   5  10
ATOM     10  O   UNL     1      -0.742  -0.104  -1.763  1.00  0.00    -0.507 OA
ATOM     11  H   UNL     1      -0.782  -1.000  -2.134  1.00  0.00     0.293 HD
ENDBRANCH   5  10
BRANCH   4  12
ATOM     12  C   UNL     1      -0.575   1.793   0.338  1.00  0.00     0.123 A 
ATOM     13  N   UNL     1      -0.455   3.138   0.265  1.00  0.00    -0.144 NA
ATOM     14  C   UNL     1      -1.742   1.250   0.877  1.00  0.00     0.103 A 
ATOM     15  N   UNL     1      -1.485   3.925   0.693  1.00  0.00    -0.111 NA
ATOM     16  N   UNL     1      -2.776   2.037   1.284  1.00  0.00    -0.210 NA
ATOM     17  C   UNL     1      -2.599   3.355   1.183  1.00  0.00     0.240 A 
BRANCH  14  18
ATOM     18  C   UNL     1      -1.974  -0.191   1.102  1.00  0.00     0.003 A 
ATOM     19  C   UNL     1      -3.139  -0.808   0.610  1.00  0.00     0.010 A 
ATOM     20  C   UNL     1      -1.068  -0.987   1.825  1.00  0.00     0.010 A 
ATOM     21  C   UNL     1      -3.375  -2.171   0.806  1.00  0.00     0.001 A 
ATOM     22  C   UNL     1      -1.302  -2.351   2.022  1.00  0.00     0.001 A 
ATOM     23  C   UNL     1      -2.454  -2.942   1.509  1.00  0.00     0.000 A 
ENDBRANCH  14  18
BRANCH  17  24
ATOM     24  N   UNL     1      -3.651   4.164   1.576  1.00  0.00    -0.366 N 
ATOM     25  H   UNL     1      -3.623   5.044   1.080  1.00  0.00     0.159 HD
ATOM     26  H   UNL     1      -4.513   3.637   1.540  1.00  0.00     0.159 HD
ENDBRANCH  17  24
ENDBRANCH   4  12
TORSDOF 5
