MODEL        7USER    Run = 7USERUSER    Estimated Free Energy of Binding    =  -7.61 kcal/mol  [=(1)+(2)+(3)-(4)]USERUSER    (1) Final Intermolecular Energy     = -12.09 kcal/molUSER        vdW + Hbond + desolv Energy     = -12.33 kcal/molUSER        Electrostatic Energy            =  -0.01 kcal/molUSER        Moving Ligand-Fixed Receptor    = -12.34 kcal/molUSER        Moving Ligand-Moving Receptor   =  +0.25 kcal/molUSER    (2) Final Total Internal Energy     =  -2.94 kcal/molUSER    (3) Torsional Free Energy           =  +4.47 kcal/molUSER    (4) Unbound System's Energy         =  -2.94 kcal/molUSERUSERREMARK SMILES COc1ccc(O)c(C(=O)c2ccc(C(=O)N[C@@H]3CCCNC[C@H]3NC(=O)c3cnc(OC)c(F)c3)cc2)c1FREMARK SMILES IDX 15 1 16 2 17 3 14 5 11 6 12 7 38 8 13 9 37 10 9 11 10 12REMARK SMILES IDX 8 13 3 14 4 15 39 16 5 17 6 18 40 19 2 20 1 21 7 22 18 24REMARK SMILES IDX 19 25 24 27 23 28 22 29 21 31 20 32 25 34 26 35 27 37 28 38REMARK SMILES IDX 29 39 36 40 30 41 34 42 31 43 35 44 32 45 33 46REMARK H PARENT 17 4 7 23 22 30 25 36REMARK Flexibility Score:   88.900USER                              x       y       z     vdW  Elec       q    TypeUSER                           _______ _______ _______ _____ _____    ______ ____ROOTATOM      1  C   UNL     1      38.727  44.351  19.050 -0.23 -0.02    +0.251 C  ATOM      2  O   UNL     1      39.398  43.701  18.258 -0.11 +0.02    -0.269 OA ATOM      3  N   UNL     1      39.256  45.181  20.020 -0.17 +0.00    -0.347 N  ATOM      4  H   UNL     1      38.632  45.890  20.385 +0.07 +0.00    +0.164 HD ENDROOTBRANCH   1   5ATOM      5  C   UNL     1      37.241  44.305  18.970 -0.33 -0.01    +0.039 A  ATOM      6  C   UNL     1      34.443  44.304  18.784 -0.36 -0.01    +0.023 A  ATOM      7  C   UNL     1      35.161  45.479  18.527 -0.35 -0.01    +0.013 A  ATOM      8  C   UNL     1      35.126  43.136  19.148 -0.39 -0.00    +0.013 A  ATOM      9  C   UNL     1      36.557  45.472  18.606 +0.02 -0.00    +0.014 A  ATOM     10  C   UNL     1      36.522  43.132  19.231 -0.22 -0.00    +0.014 A  BRANCH   6  11ATOM     11  C   UNL     1      32.961  44.270  18.753 -0.31 -0.04    +0.199 C  ATOM     12  O   UNL     1      32.344  44.405  19.811 -0.36 +0.02    -0.288 OA BRANCH  11  13ATOM     13  C   UNL     1      32.175  44.141  17.507 -0.22 -0.03    +0.104 A  ATOM     14  C   UNL     1      31.616  44.861  15.244 -0.29 -0.09    +0.155 A  ATOM     15  C   UNL     1      30.643  43.862  15.171 -0.29 -0.03    +0.053 A  ATOM     16  C   UNL     1      32.379  44.987  16.416 -0.20 -0.09    +0.179 A  ATOM     17  C   UNL     1      30.454  42.988  16.246 -0.27 -0.02    +0.051 A  ATOM     18  C   UNL     1      31.226  43.118  17.396 -0.20 -0.03    +0.130 A  ATOM     19  F   UNL     1      33.337  45.927  16.461 +0.03 +0.25    -0.202 F  BRANCH  14  20ATOM     20  O   UNL     1      31.906  45.759  14.253 -0.19 +0.36    -0.494 OA ATOM     21  C   UNL     1      30.824  46.216  13.449 -0.44 -0.18    +0.278 C  ENDBRANCH  14  20BRANCH  18  22ATOM     22  O   UNL     1      31.001  42.202  18.388 +0.01 +0.06    -0.507 OA ATOM     23  H   UNL     1      31.271  42.609  19.242 +0.19 -0.01    +0.293 HD ENDBRANCH  18  22ENDBRANCH  11  13ENDBRANCH   6  11ENDBRANCH   1   5BRANCH   3  24ATOM     24  C   UNL     1      40.700  45.461  20.090 -0.38 +0.01    +0.106 C  BRANCH  24  25ATOM     25  C   UNL     1      41.187  45.663  21.543 -0.32 +0.00    +0.028 CG0ATOM     26  G   UNL     1      41.908  46.988  21.785 +0.00 +0.00    +0.000 G0 ENDBRANCH  24  25BRANCH  24  27ATOM     27  C   UNL     1      41.092  46.626  19.137 -0.41 +0.00    +0.118 C  BRANCH  27  28ATOM     28  C   UNL     1      42.599  46.695  18.793 -0.42 +0.01    +0.108 C  BRANCH  28  29ATOM     29  N   UNL     1      43.334  47.550  19.732 -0.20 -0.06    -0.315 NA ATOM     30  H   UNL     1      42.947  48.494  19.700 -0.51 -0.02    +0.122 HD BRANCH  29  31ATOM     31  C   UNL     1      43.281  47.092  21.120 -0.37 +0.03    +0.081 C  BRANCH  31  32ATOM     32  C   UNL     1      41.907  46.987  21.785 -0.21 +0.00    +0.017 CG0ATOM     33  G   UNL     1      41.183  45.664  21.542 +0.00 +0.00    +0.000 G0 ENDBRANCH  31  32ENDBRANCH  29  31ENDBRANCH  28  29ENDBRANCH  27  28BRANCH  27  34ATOM     34  N   UNL     1      40.327  46.570  17.885 -0.24 +0.04    -0.346 N  ATOM     35  C   UNL     1      40.468  47.510  16.892 -0.39 -0.04    +0.253 C  ATOM     36  H   UNL     1      39.587  45.878  17.892 +0.10 -0.02    +0.164 HD ATOM     37  O   UNL     1      41.308  48.403  16.949 -0.76 +0.02    -0.269 OA BRANCH  35  38ATOM     38  C   UNL     1      39.569  47.418  15.714 -0.46 -0.02    +0.061 A  ATOM     39  C   UNL     1      39.306  48.588  14.999 -0.42 -0.06    +0.129 A  ATOM     40  C   UNL     1      38.968  46.240  15.268 -0.38 -0.02    +0.060 A  ATOM     41  N   UNL     1      38.510  48.656  13.898 -0.37 +0.09    -0.219 NA ATOM     42  C   UNL     1      38.146  46.286  14.146 -0.29 -0.06    +0.185 A  ATOM     43  C   UNL     1      37.943  47.497  13.494 -0.31 -0.07    +0.250 A  ATOM     44  F   UNL     1      37.566  45.156  13.716 -0.11 +0.06    -0.201 F  BRANCH  43  45ATOM     45  O   UNL     1      37.122  47.486  12.384 -0.83 +0.13    -0.479 OA ATOM     46  C   UNL     1      35.774  47.143  12.685 -0.44 -0.17    +0.280 C  ENDBRANCH  43  45ENDBRANCH  35  38ENDBRANCH  27  34ENDBRANCH  24  27ENDBRANCH   3  24TORSDOF 9TERENDMDL