REMARK SMILES COc1ccc(O)c(C(=O)c2ccc(C(=O)N[C@@H]3CCCN(C(C)=O)C[C@H]3NC(=O)c3cncc(F)c3)cc2)c1F
REMARK SMILES IDX 15 1 16 2 17 3 14 5 11 6 12 7 39 8 13 9 38 10 9 11 10 12
REMARK SMILES IDX 8 13 3 14 4 15 40 16 5 17 6 18 41 19 2 20 1 21 7 22 18 24
REMARK SMILES IDX 19 25 27 27 26 28 22 29 21 30 20 31 23 33 24 34 25 35 28 36
REMARK SMILES IDX 29 37 30 39 31 40 32 41 37 42 33 43 35 44 34 45 36 46
REMARK H PARENT 17 4 7 23 28 38
REMARK Flexibility Score:   88.900
ROOT
ATOM      1  C   UNL     1      -0.450  -1.487   1.025  1.00  0.00     0.251 C 
ATOM      2  O   UNL     1      -0.902  -0.936   2.025  1.00  0.00    -0.269 OA
ATOM      3  N   UNL     1      -1.263  -2.056   0.065  1.00  0.00    -0.347 N 
ATOM      4  H   UNL     1      -0.891  -2.153  -0.872  1.00  0.00     0.164 HD
ENDROOT
BRANCH   1   5
ATOM      5  C   UNL     1       1.018  -1.490   0.762  1.00  0.00     0.039 A 
ATOM      6  C   UNL     1       3.791  -1.408   0.339  1.00  0.00     0.023 A 
ATOM      7  C   UNL     1       3.200  -0.530   1.252  1.00  0.00     0.013 A 
ATOM      8  C   UNL     1       3.004  -2.354  -0.329  1.00  0.00     0.013 A 
ATOM      9  C   UNL     1       1.818  -0.574   1.460  1.00  0.00     0.014 A 
ATOM     10  C   UNL     1       1.620  -2.394  -0.122  1.00  0.00     0.014 A 
BRANCH   6  11
ATOM     11  C   UNL     1       5.255  -1.421   0.114  1.00  0.00     0.199 C 
ATOM     12  O   UNL     1       5.830  -2.505   0.015  1.00  0.00    -0.288 OA
BRANCH  11  13
ATOM     13  C   UNL     1       6.077  -0.192   0.058  1.00  0.00     0.104 A 
ATOM     14  C   UNL     1       6.360   2.170  -0.485  1.00  0.00     0.155 A 
ATOM     15  C   UNL     1       7.676   2.115  -0.023  1.00  0.00     0.053 A 
ATOM     16  C   UNL     1       5.573   1.009  -0.447  1.00  0.00     0.179 A 
ATOM     17  C   UNL     1       8.203   0.910   0.450  1.00  0.00     0.051 A 
ATOM     18  C   UNL     1       7.413  -0.237   0.476  1.00  0.00     0.130 A 
ATOM     19  F   UNL     1       4.323   1.059  -0.934  1.00  0.00    -0.202 F 
BRANCH  14  20
ATOM     20  O   UNL     1       5.742   3.280  -0.994  1.00  0.00    -0.494 OA
ATOM     21  C   UNL     1       6.507   4.477  -1.069  1.00  0.00     0.278 C 
ENDBRANCH  14  20
BRANCH  18  22
ATOM     22  O   UNL     1       8.018  -1.381   0.922  1.00  0.00    -0.507 OA
ATOM     23  H   UNL     1       7.415  -2.135   0.720  1.00  0.00     0.293 HD
ENDBRANCH  18  22
ENDBRANCH  11  13
ENDBRANCH   6  11
ENDBRANCH   1   5
BRANCH   3  24
ATOM     24  C   UNL     1      -2.730  -2.095   0.215  1.00  0.00     0.106 C 
BRANCH  24  25
ATOM     25  C   UNL     1      -3.248  -3.300  -0.589  1.00  0.00     0.029 CG0
ATOM     26  G   UNL     1      -4.763  -3.470  -0.734  1.00  0.00     0.000 G0
ENDBRANCH  24  25
BRANCH  24  27
ATOM     27  C   UNL     1      -3.436  -0.750  -0.146  1.00  0.00     0.124 C 
BRANCH  27  28
ATOM     28  C   UNL     1      -4.751  -0.587   0.659  1.00  0.00     0.146 C 
BRANCH  28  29
ATOM     29  N   UNL     1      -5.829  -1.500   0.274  1.00  0.00    -0.341 N 
BRANCH  29  30
ATOM     30  C   UNL     1      -5.587  -2.933   0.428  1.00  0.00     0.119 C 
BRANCH  30  31
ATOM     31  C   UNL     1      -4.763  -3.470  -0.734  1.00  0.00     0.024 CG0
ATOM     32  G   UNL     1      -3.248  -3.300  -0.589  1.00  0.00     0.000 G0
ENDBRANCH  30  31
ENDBRANCH  29  30
BRANCH  29  33
ATOM     33  C   UNL     1      -6.994  -0.957  -0.267  1.00  0.00     0.219 C 
ATOM     34  C   UNL     1      -8.058  -1.919  -0.736  1.00  0.00     0.114 C 
ATOM     35  O   UNL     1      -7.187   0.255  -0.360  1.00  0.00    -0.275 OA
ENDBRANCH  29  33
ENDBRANCH  28  29
ENDBRANCH  27  28
BRANCH  27  36
ATOM     36  N   UNL     1      -2.564   0.403   0.130  1.00  0.00    -0.345 N 
ATOM     37  C   UNL     1      -2.623   1.556  -0.621  1.00  0.00     0.253 C 
ATOM     38  H   UNL     1      -2.106   0.392   1.038  1.00  0.00     0.164 HD
ATOM     39  O   UNL     1      -3.317   1.666  -1.625  1.00  0.00    -0.269 OA
BRANCH  37  40
ATOM     40  C   UNL     1      -1.806   2.708  -0.172  1.00  0.00     0.061 A 
ATOM     41  C   UNL     1      -0.667   2.565   0.615  1.00  0.00     0.125 A 
ATOM     42  C   UNL     1      -2.162   3.997  -0.580  1.00  0.00     0.056 A 
ATOM     43  N   UNL     1       0.112   3.600   1.025  1.00  0.00    -0.261 NA
ATOM     44  C   UNL     1      -1.381   5.069  -0.176  1.00  0.00     0.142 A 
ATOM     45  C   UNL     1      -0.269   4.834   0.614  1.00  0.00     0.150 A 
ATOM     46  F   UNL     1      -1.698   6.316  -0.551  1.00  0.00    -0.205 F 
ENDBRANCH  37  40
ENDBRANCH  27  36
ENDBRANCH  24  27
ENDBRANCH   3  24
TORSDOF 9
