MODEL        9USER    Run = 9USERUSER    Estimated Free Energy of Binding    = -11.01 kcal/mol  [=(1)+(2)+(3)-(4)]USERUSER    (1) Final Intermolecular Energy     = -13.99 kcal/molUSER        vdW + Hbond + desolv Energy     = -13.78 kcal/molUSER        Electrostatic Energy            =  -0.21 kcal/molUSER        Moving Ligand-Fixed Receptor    = -13.99 kcal/molUSER        Moving Ligand-Moving Receptor   =  +0.00 kcal/molUSER    (2) Final Total Internal Energy     =  -2.79 kcal/molUSER    (3) Torsional Free Energy           =  +2.98 kcal/molUSER    (4) Unbound System's Energy         =  -2.79 kcal/molUSERUSERREMARK SMILES OCCOc1ccc(-c2nc3ccc(F)cc3nc2-c2ccc(CN3CCC(n4c(O)nc5cc(F)ccc54)CC3)cc2)cc1REMARK SMILES IDX 9 1 10 2 11 3 12 4 13 5 14 6 15 7 16 8 17 9 18 10 19 11 8 12REMARK SMILES IDX 5 13 6 14 45 15 7 16 44 17 4 18 3 19 2 20 1 21 20 23 21 24REMARK SMILES IDX 43 25 22 26 42 27 23 28 24 29 25 30 26 31 41 32 27 33 40 34REMARK SMILES IDX 28 35 29 36 30 37 39 38 32 39 38 40 33 41 37 42 34 43 35 44REMARK SMILES IDX 36 45 31 46REMARK H PARENT 1 22 31 47USER                              x       y       z     vdW  Elec       q    TypeUSER                           _______ _______ _______ _____ _____    ______ ____ROOTATOM      1  C   UNL     1      38.273  42.646  23.907 -0.22 +0.01    +0.097 A  ATOM      2  N   UNL     1      37.875  41.881  24.964 -0.12 -0.01    -0.244 NA ATOM      3  C   UNL     1      38.654  41.878  26.058 -0.17 -0.00    +0.090 A  ATOM      4  C   UNL     1      38.285  41.110  27.157 -0.40 -0.00    +0.033 A  ATOM      5  C   UNL     1      39.068  41.081  28.312 -0.21 +0.00    +0.041 A  ATOM      6  C   UNL     1      40.230  41.833  28.354 -0.21 -0.00    +0.125 A  ATOM      7  F   UNL     1      40.989  41.814  29.456 -0.03 -0.01    -0.207 F  ATOM      8  C   UNL     1      40.617  42.607  27.268 -0.17 -0.00    +0.069 A  ATOM      9  C   UNL     1      39.845  42.640  26.117 -0.16 -0.00    +0.092 A  ATOM     10  N   UNL     1      40.244  43.389  25.075 -0.09 -0.00    -0.244 NA ATOM     11  C   UNL     1      39.467  43.380  23.955 -0.18 +0.00    +0.097 A  ENDROOTBRANCH   1  12ATOM     12  C   UNL     1      37.332  42.627  22.772 -0.43 +0.00    +0.003 A  ATOM     13  C   UNL     1      35.499  42.562  20.608 -0.35 +0.00    +0.119 A  ATOM     14  C   UNL     1      36.126  43.754  20.964 -0.33 +0.00    +0.047 A  ATOM     15  C   UNL     1      35.781  41.406  21.337 -0.34 +0.00    +0.047 A  ATOM     16  C   UNL     1      37.029  43.785  22.037 -0.38 +0.00    +0.014 A  ATOM     17  C   UNL     1      36.680  41.438  22.407 -0.55 +0.00    +0.014 A  BRANCH  13  18ATOM     18  O   UNL     1      34.598  42.387  19.596 -0.20 +0.01    -0.491 OA BRANCH  18  19ATOM     19  C   UNL     1      34.328  43.481  18.721 -0.24 -0.05    +0.257 C  BRANCH  19  20ATOM     20  C   UNL     1      33.115  44.279  19.188 -0.35 -0.04    +0.197 C  BRANCH  20  21ATOM     21  O   UNL     1      32.435  43.574  20.221 -0.79 -0.04    -0.393 OA ATOM     22  H   UNL     1      32.701  42.641  20.146 +0.12 +0.06    +0.210 HD ENDBRANCH  20  21ENDBRANCH  19  20ENDBRANCH  18  19ENDBRANCH  13  18ENDBRANCH   1  12BRANCH  11  23ATOM     23  C   UNL     1      40.025  44.167  22.842 -0.23 +0.00    +0.002 A  ATOM     24  C   UNL     1      40.935  43.585  21.944 -0.30 +0.00    +0.011 A  ATOM     25  C   UNL     1      39.650  45.502  22.620 -0.28 +0.00    +0.011 A  ATOM     26  C   UNL     1      41.464  44.314  20.874 -0.33 +0.00    +0.006 A  ATOM     27  C   UNL     1      40.175  46.231  21.549 +0.04 +0.00    +0.006 A  ATOM     28  C   UNL     1      41.082  45.644  20.658 -0.34 -0.00    -0.034 A  BRANCH  28  29ATOM     29  C   UNL     1      41.636  46.433  19.488 -0.43 +0.01    +0.120 C  BRANCH  29  30ATOM     30  N   UNL     1      40.688  46.792  18.425 -0.27 +0.02    -0.299 NA ATOM     31  C   UNL     1      39.868  45.687  17.941 -0.44 -0.01    +0.087 C  ATOM     32  C   UNL     1      41.284  47.577  17.339 -0.43 -0.01    +0.087 C  ATOM     33  C   UNL     1      38.628  46.234  17.225 -0.44 -0.01    +0.041 C  ATOM     34  C   UNL     1      40.394  47.655  16.090 -0.57 -0.01    +0.041 C  ATOM     35  C   UNL     1      38.915  47.544  16.469 -0.42 -0.04    +0.095 C  BRANCH  35  36ATOM     36  N   UNL     1      38.016  47.744  15.341 -0.24 +0.16    -0.291 N  ATOM     37  C   UNL     1      37.374  48.904  15.007 -0.24 -0.26    +0.295 A  ATOM     38  C   UNL     1      37.656  46.802  14.398 -0.39 -0.03    +0.072 A  ATOM     39  N   UNL     1      36.629  48.795  13.941 -0.36 +0.14    -0.195 NA ATOM     40  C   UNL     1      37.990  45.454  14.206 -0.37 -0.01    +0.032 A  ATOM     41  C   UNL     1      36.790  47.490  13.543 -0.49 -0.05    +0.095 A  ATOM     42  C   UNL     1      37.413  44.807  13.108 -0.30 -0.01    +0.041 A  ATOM     43  C   UNL     1      36.222  46.826  12.448 -0.61 -0.03    +0.070 A  ATOM     44  C   UNL     1      36.549  45.486  12.253 -0.48 -0.05    +0.125 A  ATOM     45  F   UNL     1      36.020  44.830  11.211 +0.19 +0.07    -0.207 F  BRANCH  37  46ATOM     46  O   UNL     1      37.479  50.040  15.664 -0.08 +0.49    -0.480 OA ATOM     47  H   UNL     1      36.541  50.270  15.802 -0.18 -0.52    +0.296 HD ENDBRANCH  37  46ENDBRANCH  35  36ENDBRANCH  29  30ENDBRANCH  28  29ENDBRANCH  11  23TORSDOF 10TERENDMDL