REMARK SMILES OCCOc1ccc(-c2nc3ccc(F)cc3nc2-c2ccc(CN3CCC(n4c(O)nc5cc(F)ccc54)CC3)cc2)cc1
REMARK SMILES IDX 9 1 10 2 11 3 12 4 13 5 14 6 15 7 16 8 17 9 18 10 19 11 8 12
REMARK SMILES IDX 5 13 6 14 45 15 7 16 44 17 4 18 3 19 2 20 1 21 20 23 21 24
REMARK SMILES IDX 43 25 22 26 42 27 23 28 24 29 25 30 26 31 41 32 27 33 40 34
REMARK SMILES IDX 28 35 29 36 30 37 39 38 32 39 38 40 33 41 37 42 34 43 35 44
REMARK SMILES IDX 36 45 31 46
REMARK H PARENT 1 22 31 47
ROOT
ATOM      1  C   UNL     1      -4.342   1.601   0.560  1.00  0.00     0.097 A 
ATOM      2  N   UNL     1      -5.263   2.556   0.876  1.00  0.00    -0.244 NA
ATOM      3  C   UNL     1      -4.922   3.840   0.679  1.00  0.00     0.090 A 
ATOM      4  C   UNL     1      -5.832   4.844   0.990  1.00  0.00     0.033 A 
ATOM      5  C   UNL     1      -5.515   6.189   0.799  1.00  0.00     0.041 A 
ATOM      6  C   UNL     1      -4.270   6.519   0.289  1.00  0.00     0.125 A 
ATOM      7  F   UNL     1      -3.954   7.806   0.100  1.00  0.00    -0.207 F 
ATOM      8  C   UNL     1      -3.346   5.532  -0.029  1.00  0.00     0.069 A 
ATOM      9  C   UNL     1      -3.654   4.194   0.160  1.00  0.00     0.092 A 
ATOM     10  N   UNL     1      -2.741   3.257  -0.146  1.00  0.00    -0.244 NA
ATOM     11  C   UNL     1      -3.075   1.953   0.071  1.00  0.00     0.097 A 
ENDROOT
BRANCH   1  12
ATOM     12  C   UNL     1      -4.822   0.221   0.762  1.00  0.00     0.003 A 
ATOM     13  C   UNL     1      -5.775  -2.418   1.175  1.00  0.00     0.119 A 
ATOM     14  C   UNL     1      -5.223  -2.053  -0.050  1.00  0.00     0.047 A 
ATOM     15  C   UNL     1      -5.858  -1.464   2.190  1.00  0.00     0.047 A 
ATOM     16  C   UNL     1      -4.756  -0.746  -0.254  1.00  0.00     0.014 A 
ATOM     17  C   UNL     1      -5.394  -0.161   1.986  1.00  0.00     0.014 A 
BRANCH  13  18
ATOM     18  O   UNL     1      -6.273  -3.645   1.510  1.00  0.00    -0.491 OA
BRANCH  18  19
ATOM     19  C   UNL     1      -6.253  -4.684   0.532  1.00  0.00     0.257 C 
BRANCH  19  20
ATOM     20  C   UNL     1      -7.482  -4.620  -0.370  1.00  0.00     0.197 C 
BRANCH  20  21
ATOM     21  O   UNL     1      -7.432  -5.662  -1.338  1.00  0.00    -0.393 OA
ATOM     22  H   UNL     1      -8.257  -5.608  -1.852  1.00  0.00     0.210 HD
ENDBRANCH  20  21
ENDBRANCH  19  20
ENDBRANCH  18  19
ENDBRANCH  13  18
ENDBRANCH   1  12
BRANCH  11  23
ATOM     23  C   UNL     1      -1.985   1.006  -0.220  1.00  0.00     0.002 A 
ATOM     24  C   UNL     1      -1.355   1.009  -1.475  1.00  0.00     0.011 A 
ATOM     25  C   UNL     1      -1.520   0.096   0.744  1.00  0.00     0.011 A 
ATOM     26  C   UNL     1      -0.310   0.125  -1.764  1.00  0.00     0.006 A 
ATOM     27  C   UNL     1      -0.473  -0.786   0.458  1.00  0.00     0.006 A 
ATOM     28  C   UNL     1       0.150  -0.777  -0.796  1.00  0.00    -0.034 A 
BRANCH  28  29
ATOM     29  C   UNL     1       1.296  -1.723  -1.095  1.00  0.00     0.120 C 
BRANCH  29  30
ATOM     30  N   UNL     1       2.647  -1.251  -0.764  1.00  0.00    -0.299 NA
ATOM     31  C   UNL     1       2.850  -0.921   0.642  1.00  0.00     0.087 C 
ATOM     32  C   UNL     1       3.153  -0.216  -1.671  1.00  0.00     0.087 C 
ATOM     33  C   UNL     1       4.348  -0.917   0.965  1.00  0.00     0.041 C 
ATOM     34  C   UNL     1       4.397   0.505  -1.133  1.00  0.00     0.041 C 
ATOM     35  C   UNL     1       5.203  -0.416  -0.213  1.00  0.00     0.095 C 
BRANCH  35  36
ATOM     36  N   UNL     1       6.464   0.168   0.223  1.00  0.00    -0.291 N 
ATOM     37  C   UNL     1       6.624   1.333   0.921  1.00  0.00     0.295 A 
ATOM     38  C   UNL     1       7.726  -0.353   0.019  1.00  0.00     0.072 A 
ATOM     39  N   UNL     1       7.872   1.614   1.179  1.00  0.00    -0.195 NA
ATOM     40  C   UNL     1       8.201  -1.510  -0.615  1.00  0.00     0.032 A 
ATOM     41  C   UNL     1       8.579   0.574   0.626  1.00  0.00     0.095 A 
ATOM     42  C   UNL     1       9.586  -1.708  -0.621  1.00  0.00     0.041 A 
ATOM     43  C   UNL     1       9.963   0.359   0.610  1.00  0.00     0.070 A 
ATOM     44  C   UNL     1      10.441  -0.788  -0.019  1.00  0.00     0.125 A 
ATOM     45  F   UNL     1      11.761  -1.017  -0.045  1.00  0.00    -0.207 F 
BRANCH  37  46
ATOM     46  O   UNL     1       5.642   2.115   1.318  1.00  0.00    -0.480 OA
ATOM     47  H   UNL     1       6.133   2.825   1.772  1.00  0.00     0.296 HD
ENDBRANCH  37  46
ENDBRANCH  35  36
ENDBRANCH  29  30
ENDBRANCH  28  29
ENDBRANCH  11  23
TORSDOF 10
