REMARK SMILES Oc1ccc(-c2nc3ccc(F)cc3nc2-c2ccc(CN3CCC(n4c(O)nc5cc(F)ccc54)CC3)cc2)cc1F
REMARK SMILES IDX 17 1 18 2 19 3 20 4 39 5 40 6 16 7 6 8 7 9 8 10 15 11 9 12
REMARK SMILES IDX 14 13 10 14 13 15 11 16 12 17 5 18 2 19 3 20 42 21 4 22
REMARK SMILES IDX 41 23 43 24 1 25 21 27 22 28 23 29 38 30 24 31 37 32 25 33
REMARK SMILES IDX 26 34 27 35 36 36 29 37 35 38 30 39 34 40 31 41 32 42 33 43
REMARK SMILES IDX 28 44
REMARK H PARENT 1 26 28 45
ROOT
ATOM      1  C   UNL     1      -2.792  -1.632   0.217  1.00  0.00     0.002 A 
ATOM      2  C   UNL     1      -2.447  -1.004  -0.991  1.00  0.00     0.011 A 
ATOM      3  C   UNL     1      -1.151  -1.097  -1.512  1.00  0.00     0.006 A 
ATOM      4  C   UNL     1      -0.164  -1.834  -0.846  1.00  0.00    -0.034 A 
ATOM      5  C   UNL     1      -0.500  -2.479   0.348  1.00  0.00     0.006 A 
ATOM      6  C   UNL     1      -1.796  -2.380   0.869  1.00  0.00     0.011 A 
ENDROOT
BRANCH   1   7
ATOM      7  C   UNL     1      -4.152  -1.549   0.783  1.00  0.00     0.097 A 
ATOM      8  C   UNL     1      -4.885  -0.365   0.966  1.00  0.00     0.097 A 
ATOM      9  N   UNL     1      -6.167  -0.396   1.431  1.00  0.00    -0.244 NA
ATOM     10  C   UNL     1      -6.691  -1.594   1.739  1.00  0.00     0.090 A 
ATOM     11  N   UNL     1      -4.686  -2.760   1.114  1.00  0.00    -0.244 NA
ATOM     12  C   UNL     1      -7.993  -1.666   2.222  1.00  0.00     0.033 A 
ATOM     13  C   UNL     1      -5.944  -2.785   1.585  1.00  0.00     0.092 A 
ATOM     14  C   UNL     1      -8.569  -2.890   2.558  1.00  0.00     0.041 A 
ATOM     15  C   UNL     1      -6.523  -3.999   1.921  1.00  0.00     0.069 A 
ATOM     16  C   UNL     1      -7.824  -4.048   2.403  1.00  0.00     0.125 A 
ATOM     17  F   UNL     1      -8.366  -5.230   2.723  1.00  0.00    -0.207 F 
BRANCH   8  18
ATOM     18  C   UNL     1      -4.385   0.999   0.714  1.00  0.00     0.006 A 
ATOM     19  C   UNL     1      -3.466   3.611   0.221  1.00  0.00     0.151 A 
ATOM     20  C   UNL     1      -2.699   2.754   0.994  1.00  0.00     0.050 A 
ATOM     21  C   UNL     1      -4.685   3.186  -0.295  1.00  0.00     0.165 A 
ATOM     22  C   UNL     1      -3.161   1.457   1.245  1.00  0.00     0.014 A 
ATOM     23  C   UNL     1      -5.148   1.898  -0.054  1.00  0.00     0.053 A 
ATOM     24  F   UNL     1      -5.418   4.030  -1.036  1.00  0.00    -0.203 F 
BRANCH  19  25
ATOM     25  O   UNL     1      -3.004   4.874  -0.014  1.00  0.00    -0.505 OA
ATOM     26  H   UNL     1      -3.689   5.330  -0.541  1.00  0.00     0.293 HD
ENDBRANCH  19  25
ENDBRANCH   8  18
ENDBRANCH   1   7
BRANCH   4  27
ATOM     27  C   UNL     1       1.220  -1.978  -1.443  1.00  0.00     0.120 C 
BRANCH  27  28
ATOM     28  N   UNL     1       1.895  -0.696  -1.697  1.00  0.00    -0.299 NA
ATOM     29  C   UNL     1       2.982  -0.862  -2.672  1.00  0.00     0.087 C 
ATOM     30  C   UNL     1       2.279   0.020  -0.477  1.00  0.00     0.087 C 
ATOM     31  C   UNL     1       4.219  -0.019  -2.371  1.00  0.00     0.041 C 
ATOM     32  C   UNL     1       3.638  -0.384   0.091  1.00  0.00     0.041 C 
ATOM     33  C   UNL     1       4.742  -0.390  -0.979  1.00  0.00     0.095 C 
BRANCH  33  34
ATOM     34  N   UNL     1       5.927   0.367  -0.599  1.00  0.00    -0.291 N 
ATOM     35  C   UNL     1       7.164  -0.177  -0.382  1.00  0.00     0.295 A 
ATOM     36  C   UNL     1       6.047   1.726  -0.394  1.00  0.00     0.072 A 
ATOM     37  N   UNL     1       8.070   0.705  -0.062  1.00  0.00    -0.195 NA
ATOM     38  C   UNL     1       5.148   2.800  -0.458  1.00  0.00     0.032 A 
ATOM     39  C   UNL     1       7.396   1.901  -0.065  1.00  0.00     0.095 A 
ATOM     40  C   UNL     1       5.656   4.074  -0.183  1.00  0.00     0.041 A 
ATOM     41  C   UNL     1       7.887   3.185   0.207  1.00  0.00     0.070 A 
ATOM     42  C   UNL     1       6.998   4.254   0.140  1.00  0.00     0.125 A 
ATOM     43  F   UNL     1       7.445   5.491   0.394  1.00  0.00    -0.207 F 
BRANCH  35  44
ATOM     44  O   UNL     1       7.447  -1.460  -0.476  1.00  0.00    -0.480 OA
ATOM     45  H   UNL     1       8.395  -1.467  -0.249  1.00  0.00     0.296 HD
ENDBRANCH  35  44
ENDBRANCH  33  34
ENDBRANCH  27  28
ENDBRANCH   4  27
TORSDOF 7
