MODEL        4USER    Run = 4USERUSER    Estimated Free Energy of Binding    = -10.30 kcal/mol  [=(1)+(2)+(3)-(4)]USERUSER    (1) Final Intermolecular Energy     = -12.38 kcal/molUSER        vdW + Hbond + desolv Energy     = -12.23 kcal/molUSER        Electrostatic Energy            =  -0.16 kcal/molUSER        Moving Ligand-Fixed Receptor    = -12.38 kcal/molUSER        Moving Ligand-Moving Receptor   =  +0.00 kcal/molUSER    (2) Final Total Internal Energy     =  -3.29 kcal/molUSER    (3) Torsional Free Energy           =  +2.09 kcal/molUSER    (4) Unbound System's Energy         =  -3.29 kcal/molUSERUSERREMARK SMILES Oc1ccc(-c2nc3ccc(F)cc3nc2-c2ccc(CN3CCC(n4c(O)nc5cc(F)ccc54)CC3)cc2)cc1FREMARK SMILES IDX 17 1 18 2 19 3 20 4 39 5 40 6 16 7 6 8 7 9 8 10 15 11 9 12REMARK SMILES IDX 14 13 10 14 13 15 11 16 12 17 5 18 2 19 3 20 42 21 4 22REMARK SMILES IDX 41 23 43 24 1 25 21 27 22 28 23 29 38 30 24 31 37 32 25 33REMARK SMILES IDX 26 34 27 35 36 36 29 37 35 38 30 39 34 40 31 41 32 42 33 43REMARK SMILES IDX 28 44REMARK H PARENT 1 26 28 45USER                              x       y       z     vdW  Elec       q    TypeUSER                           _______ _______ _______ _____ _____    ______ ____ROOTATOM      1  C   UNL     1      39.650  46.534  17.020 -0.46 -0.00    +0.002 A  ATOM      2  C   UNL     1      40.171  45.895  15.883 -0.19 -0.00    +0.011 A  ATOM      3  C   UNL     1      39.653  46.151  14.608 -0.37 -0.00    +0.006 A  ATOM      4  C   UNL     1      38.608  47.065  14.430 -0.44 +0.01    -0.034 A  ATOM      5  C   UNL     1      38.094  47.722  15.552 -0.47 -0.00    +0.006 A  ATOM      6  C   UNL     1      38.610  47.460  16.827 -0.25 -0.01    +0.011 A  ENDROOTBRANCH   1   7ATOM      7  C   UNL     1      40.182  46.282  18.373 -0.40 -0.01    +0.097 A  ATOM      8  C   UNL     1      39.555  45.505  19.361 -0.35 -0.00    +0.097 A  ATOM      9  N   UNL     1      40.160  45.269  20.560 -0.21 -0.01    -0.244 NA ATOM     10  C   UNL     1      41.360  45.833  20.776 -0.29 +0.01    +0.090 A  ATOM     11  N   UNL     1      41.393  46.865  18.607 -0.34 +0.00    -0.244 NA ATOM     12  C   UNL     1      42.006  45.621  21.989 -0.24 +0.01    +0.033 A  ATOM     13  C   UNL     1      41.979  46.642  19.795 -0.37 +0.01    +0.092 A  ATOM     14  C   UNL     1      43.248  46.194  22.253 -0.24 +0.01    +0.041 A  ATOM     15  C   UNL     1      43.216  47.209  20.064 -0.35 +0.02    +0.069 A  ATOM     16  C   UNL     1      43.842  46.986  21.282 -0.28 +0.07    +0.125 A  ATOM     17  F   UNL     1      45.036  47.543  21.523 -0.10 -0.17    -0.207 F  BRANCH   8  18ATOM     18  C   UNL     1      38.219  44.891  19.247 -0.36 -0.00    +0.006 A  ATOM     19  C   UNL     1      35.679  43.698  19.060 -0.27 -0.03    +0.151 A  ATOM     20  C   UNL     1      35.949  44.842  18.326 -0.31 -0.01    +0.050 A  ATOM     21  C   UNL     1      36.651  43.153  19.890 -0.25 -0.01    +0.165 A  ATOM     22  C   UNL     1      37.211  45.439  18.426 -0.23 -0.00    +0.014 A  ATOM     23  C   UNL     1      37.908  43.737  19.991 -0.22 -0.00    +0.053 A  ATOM     24  F   UNL     1      36.371  42.049  20.598 -0.14 +0.00    -0.203 F  BRANCH  19  25ATOM     25  O   UNL     1      34.443  43.128  18.954 -0.07 +0.08    -0.505 OA ATOM     26  H   UNL     1      34.384  42.749  18.056 +0.21 -0.08    +0.293 HD ENDBRANCH  19  25ENDBRANCH   8  18ENDBRANCH   1   7BRANCH   4  27ATOM     27  C   UNL     1      38.091  47.379  13.042 -0.38 -0.02    +0.120 C  BRANCH  27  28ATOM     28  N   UNL     1      36.858  46.659  12.689 -0.38 +0.12    -0.299 NA ATOM     29  C   UNL     1      35.673  47.389  13.161 -0.48 -0.06    +0.087 C  ATOM     30  C   UNL     1      36.880  45.239  13.053 -0.51 -0.03    +0.087 C  ATOM     31  C   UNL     1      34.557  46.488  13.686 -0.29 -0.04    +0.041 C  ATOM     32  C   UNL     1      36.434  44.947  14.484 -0.42 -0.02    +0.041 C  ATOM     33  C   UNL     1      35.108  45.641  14.838 -0.35 -0.07    +0.095 C  BRANCH  33  34ATOM     34  N   UNL     1      34.113  44.743  15.407 -0.13 +0.18    -0.291 N  ATOM     35  C   UNL     1      34.397  43.564  16.041 -0.12 -0.13    +0.295 A  ATOM     36  C   UNL     1      32.741  44.887  15.430 -0.29 -0.05    +0.072 A  ATOM     37  N   UNL     1      33.338  42.939  16.475 -0.24 +0.09    -0.195 NA ATOM     38  C   UNL     1      31.860  45.865  14.947 -0.42 -0.03    +0.032 A  ATOM     39  C   UNL     1      32.292  43.747  16.107 -0.27 -0.04    +0.095 A  ATOM     40  C   UNL     1      30.495  45.662  15.174 -0.43 -0.02    +0.041 A  ATOM     41  C   UNL     1      30.920  43.561  16.325 -0.27 -0.03    +0.070 A  ATOM     42  C   UNL     1      30.043  44.532  15.850 -0.24 -0.05    +0.125 A  ATOM     43  F   UNL     1      28.728  44.376  16.049 -0.05 +0.08    -0.207 F  BRANCH  35  44ATOM     44  O   UNL     1      35.609  43.077  16.212 -0.17 +0.18    -0.480 OA ATOM     45  H   UNL     1      35.528  42.656  17.088 +0.19 -0.11    +0.296 HD ENDBRANCH  35  44ENDBRANCH  33  34ENDBRANCH  27  28ENDBRANCH   4  27TORSDOF 7TERENDMDL