MODEL        9USER    Run = 9USERUSER    Estimated Free Energy of Binding    =  -7.44 kcal/mol  [=(1)+(2)+(3)-(4)]USERUSER    (1) Final Intermolecular Energy     = -11.91 kcal/molUSER        vdW + Hbond + desolv Energy     = -12.15 kcal/molUSER        Electrostatic Energy            =  -0.06 kcal/molUSER        Moving Ligand-Fixed Receptor    = -12.21 kcal/molUSER        Moving Ligand-Moving Receptor   =  +0.30 kcal/molUSER    (2) Final Total Internal Energy     =  -3.39 kcal/molUSER    (3) Torsional Free Energy           =  +4.47 kcal/molUSER    (4) Unbound System's Energy         =  -3.39 kcal/molUSERUSERREMARK SMILES COc1ccc(O)c(C(=O)c2ccc(C(=O)N[C@@H]3CCCN(C(C)=O)C[C@H]3NC(=O)c3cncc(F)c3)cc2)c1FREMARK SMILES IDX 15 1 16 2 17 3 14 5 11 6 12 7 39 8 13 9 38 10 9 11 10 12REMARK SMILES IDX 8 13 3 14 4 15 40 16 5 17 6 18 41 19 2 20 1 21 7 22 18 24REMARK SMILES IDX 19 25 27 27 26 28 22 29 21 30 20 31 23 33 24 34 25 35 28 36REMARK SMILES IDX 29 37 30 39 31 40 32 41 37 42 33 43 35 44 34 45 36 46REMARK H PARENT 17 4 7 23 28 38REMARK Flexibility Score:   88.900USER                              x       y       z     vdW  Elec       q    TypeUSER                           _______ _______ _______ _____ _____    ______ ____ROOTATOM      1  C   UNL     1      37.650  44.225  19.453 -0.24 -0.02    +0.251 C  ATOM      2  O   UNL     1      36.879  43.547  18.781 -0.18 +0.04    -0.269 OA ATOM      3  N   UNL     1      38.285  45.342  18.947 -0.16 +0.04    -0.347 N  ATOM      4  H   UNL     1      38.592  46.049  19.603 +0.07 -0.01    +0.164 HD ENDROOTBRANCH   1   5ATOM      5  C   UNL     1      37.872  43.912  20.894 -0.34 +0.00    +0.039 A  ATOM      6  C   UNL     1      38.401  43.337  23.590 -0.28 +0.00    +0.023 A  ATOM      7  C   UNL     1      39.449  43.694  22.736 -0.25 +0.00    +0.013 A  ATOM      8  C   UNL     1      37.087  43.310  23.108 -0.36 +0.00    +0.013 A  ATOM      9  C   UNL     1      39.181  43.980  21.393 -0.27 +0.00    +0.014 A  ATOM     10  C   UNL     1      36.821  43.593  21.763 -0.38 +0.00    +0.014 A  BRANCH   6  11ATOM     11  C   UNL     1      38.634  43.061  25.026 -0.18 +0.00    +0.199 C  ATOM     12  O   UNL     1      39.769  43.201  25.481 -0.10 +0.00    -0.288 OA BRANCH  11  13ATOM     13  C   UNL     1      37.578  42.569  25.938 -0.26 -0.01    +0.104 A  ATOM     14  C   UNL     1      35.411  42.814  27.033 -0.41 -0.03    +0.155 A  ATOM     15  C   UNL     1      35.600  41.589  27.674 -0.56 -0.02    +0.053 A  ATOM     16  C   UNL     1      36.409  43.298  26.174 -0.27 -0.02    +0.179 A  ATOM     17  C   UNL     1      36.781  40.868  27.475 -0.42 -0.02    +0.051 A  ATOM     18  C   UNL     1      37.767  41.363  26.625 -0.31 -0.02    +0.130 A  ATOM     19  F   UNL     1      36.240  44.497  25.596 -0.11 +0.01    -0.202 F  BRANCH  14  20ATOM     20  O   UNL     1      34.314  43.621  27.168 -0.27 +0.06    -0.494 OA ATOM     21  C   UNL     1      34.170  44.329  28.394 -0.41 -0.05    +0.278 C  ENDBRANCH  14  20BRANCH  18  22ATOM     22  O   UNL     1      38.906  40.611  26.513 +0.01 -0.00    -0.507 OA ATOM     23  H   UNL     1      39.657  41.230  26.353 +0.08 -0.01    +0.293 HD ENDBRANCH  18  22ENDBRANCH  11  13ENDBRANCH   6  11ENDBRANCH   1   5BRANCH   3  24ATOM     24  C   UNL     1      38.125  45.754  17.539 -0.37 -0.03    +0.106 C  BRANCH  24  25ATOM     25  C   UNL     1      39.282  46.708  17.199 -0.49 -0.01    +0.029 CG0ATOM     26  G   UNL     1      39.234  47.448  15.859 +0.00 +0.00    +0.000 G0 ENDBRANCH  24  25BRANCH  24  27ATOM     27  C   UNL     1      36.714  46.337  17.210 -0.25 -0.07    +0.124 C  BRANCH  27  28ATOM     28  C   UNL     1      36.597  46.671  15.701 -0.34 -0.11    +0.146 C  BRANCH  28  29ATOM     29  N   UNL     1      37.554  45.977  14.838 -0.13 +0.14    -0.341 N  BRANCH  29  30ATOM     30  C   UNL     1      38.868  46.591  14.656 -0.41 -0.03    +0.119 C  BRANCH  30  31ATOM     31  C   UNL     1      39.233  47.451  15.858 -0.53 -0.01    +0.024 CG0ATOM     32  G   UNL     1      39.279  46.708  17.197 +0.00 +0.00    +0.000 G0 ENDBRANCH  30  31ENDBRANCH  29  30BRANCH  29  33ATOM     33  C   UNL     1      37.141  44.809  14.197 -0.25 -0.08    +0.219 C  ATOM     34  C   UNL     1      37.300  44.744  12.698 -0.38 -0.03    +0.114 C  ATOM     35  O   UNL     1      36.676  43.843  14.802 -0.25 +0.09    -0.275 OA ENDBRANCH  29  33ENDBRANCH  28  29ENDBRANCH  27  28BRANCH  27  36ATOM     36  N   UNL     1      35.646  45.390  17.572 -0.12 +0.17    -0.345 N  ATOM     37  C   UNL     1      34.482  45.805  18.179 -0.33 -0.15    +0.253 C  ATOM     38  H   UNL     1      35.711  44.476  17.131 +0.12 -0.07    +0.164 HD ATOM     39  O   UNL     1      34.296  46.956  18.555 -0.99 +0.20    -0.269 OA BRANCH  37  40ATOM     40  C   UNL     1      33.413  44.796  18.370 -0.34 -0.02    +0.061 A  ATOM     41  C   UNL     1      33.244  44.090  19.557 -0.35 -0.02    +0.125 A  ATOM     42  C   UNL     1      32.504  44.561  17.334 -0.26 -0.02    +0.056 A  ATOM     43  N   UNL     1      32.263  43.174  19.767 -0.56 -0.01    -0.261 NA ATOM     44  C   UNL     1      31.492  43.633  17.526 -0.19 -0.03    +0.142 A  ATOM     45  C   UNL     1      31.405  42.970  18.738 -0.11 -0.01    +0.150 A  ATOM     46  F   UNL     1      30.606  43.387  16.550 -0.03 +0.07    -0.205 F  ENDBRANCH  37  40ENDBRANCH  27  36ENDBRANCH  24  27ENDBRANCH   3  24TORSDOF 9TERENDMDL