REMARK SMILES C[C@H]1C[C@H](Oc2cc(F)cc(F)c2C(=O)c2ccc3c(c2)nc(-c2ccnc(N)c2)n3C)CCO1
REMARK SMILES IDX 14 1 15 2 13 3 6 4 7 5 8 6 11 7 10 8 9 9 12 10 5 11 4 12
REMARK SMILES IDX 2 13 3 14 35 15 34 16 33 17 1 18 16 19 17 20 21 21 18 22
REMARK SMILES IDX 20 23 19 24 22 25 31 26 23 27 32 28 24 29 25 30 30 31 26 32
REMARK SMILES IDX 28 33 27 34 29 35
REMARK H PARENT 29 36 29 37
ROOT
ATOM      1  C   UNL     1      -1.394   0.961   2.130  1.00  0.00     0.199 C 
ATOM      2  O   UNL     1      -2.199   0.437   2.895  1.00  0.00    -0.288 OA
ENDROOT
BRANCH   1   3
ATOM      3  C   UNL     1      -1.719   2.268   1.531  1.00  0.00     0.100 A 
ATOM      4  C   UNL     1      -2.903   2.478   0.811  1.00  0.00     0.136 A 
ATOM      5  C   UNL     1      -3.215   3.759   0.348  1.00  0.00     0.086 A 
ATOM      6  C   UNL     1      -2.330   4.809   0.572  1.00  0.00     0.129 A 
ATOM      7  C   UNL     1      -0.853   3.343   1.752  1.00  0.00     0.141 A 
ATOM      8  C   UNL     1      -1.146   4.613   1.266  1.00  0.00     0.079 A 
ATOM      9  F   UNL     1      -2.631   6.031   0.117  1.00  0.00    -0.207 F 
ATOM     10  F   UNL     1       0.276   3.176   2.456  1.00  0.00    -0.206 F 
BRANCH   4  11
ATOM     11  O   UNL     1      -3.844   1.509   0.596  1.00  0.00    -0.489 OA
BRANCH  11  12
ATOM     12  C   UNL     1      -3.455   0.523  -0.381  1.00  0.00     0.178 C 
ATOM     13  C   UNL     1      -5.510  -0.905  -0.089  1.00  0.00     0.118 C 
ATOM     14  C   UNL     1      -3.990  -0.831   0.088  1.00  0.00     0.077 C 
ATOM     15  O   UNL     1      -5.969  -0.487  -1.381  1.00  0.00    -0.378 OA
ATOM     16  C   UNL     1      -4.940  -0.172  -2.312  1.00  0.00     0.164 C 
ATOM     17  C   UNL     1      -4.026   0.910  -1.753  1.00  0.00     0.073 C 
ATOM     18  C   UNL     1      -6.023  -2.321   0.154  1.00  0.00     0.039 C 
ENDBRANCH  11  12
ENDBRANCH   4  11
ENDBRANCH   1   3
BRANCH   1  19
ATOM     19  C   UNL     1      -0.109   0.274   1.823  1.00  0.00     0.025 A 
ATOM     20  C   UNL     1       0.368  -0.676   2.737  1.00  0.00     0.014 A 
ATOM     21  C   UNL     1       0.596   0.535   0.638  1.00  0.00     0.042 A 
ATOM     22  C   UNL     1       1.563  -1.373   2.515  1.00  0.00     0.029 A 
ATOM     23  C   UNL     1       1.792  -0.160   0.403  1.00  0.00     0.090 A 
ATOM     24  C   UNL     1       2.253  -1.087   1.331  1.00  0.00     0.068 A 
ATOM     25  N   UNL     1       2.638  -0.076  -0.670  1.00  0.00    -0.228 NA
ATOM     26  N   UNL     1       3.421  -1.566   0.776  1.00  0.00    -0.327 N 
ATOM     27  C   UNL     1       3.641  -0.900  -0.416  1.00  0.00     0.141 A 
ATOM     28  C   UNL     1       4.237  -2.627   1.321  1.00  0.00     0.152 C 
BRANCH  27  29
ATOM     29  C   UNL     1       4.789  -1.094  -1.301  1.00  0.00     0.023 A 
ATOM     30  C   UNL     1       4.578  -1.385  -2.647  1.00  0.00     0.032 A 
ATOM     31  C   UNL     1       6.101  -0.947  -0.843  1.00  0.00     0.058 A 
ATOM     32  C   UNL     1       5.685  -1.553  -3.457  1.00  0.00     0.114 A 
ATOM     33  C   UNL     1       7.154  -1.129  -1.732  1.00  0.00     0.124 A 
ATOM     34  N   UNL     1       6.958  -1.441  -3.021  1.00  0.00    -0.240 NA
BRANCH  33  35
ATOM     35  N   UNL     1       8.474  -0.974  -1.296  1.00  0.00    -0.384 N 
ATOM     36  H   UNL     1       8.610  -0.028  -0.949  1.00  0.00     0.158 HD
ATOM     37  H   UNL     1       8.675  -1.627  -0.544  1.00  0.00     0.158 HD
ENDBRANCH  33  35
ENDBRANCH  27  29
ENDBRANCH   1  19
TORSDOF 6
