MODEL        6USER    Run = 6USERUSER    Estimated Free Energy of Binding    = -10.14 kcal/mol  [=(1)+(2)+(3)-(4)]USERUSER    (1) Final Intermolecular Energy     = -12.52 kcal/molUSER        vdW + Hbond + desolv Energy     = -12.12 kcal/molUSER        Electrostatic Energy            =  -0.41 kcal/molUSER        Moving Ligand-Fixed Receptor    = -12.52 kcal/molUSER        Moving Ligand-Moving Receptor   =  +0.00 kcal/molUSER    (2) Final Total Internal Energy     =  -2.17 kcal/molUSER    (3) Torsional Free Energy           =  +2.39 kcal/molUSER    (4) Unbound System's Energy         =  -2.17 kcal/molUSERUSERREMARK SMILES O=C(O)CCC[C@@H]1Cc2cc(-c3cccc(-c4ccncc4F)c3F)ccc2C[C@H]1OREMARK SMILES IDX 5 1 4 2 2 3 1 4 3 5 6 7 7 8 8 9 30 10 9 11 29 12 10 13 28 14REMARK SMILES IDX 11 15 27 16 26 17 31 18 12 20 13 21 24 22 14 23 16 24 15 25REMARK SMILES IDX 25 26 17 27 18 28 22 29 19 30 21 31 20 32 23 33REMARK H PARENT 3 6 31 19USER                              x       y       z     vdW  Elec       q    TypeUSER                           _______ _______ _______ _____ _____    ______ ____ROOTATOM      1  C   UNL     1      41.575  45.861  22.197 -0.28 +0.00    +0.012 C  ENDROOTBRANCH   1   2ATOM      2  C   UNL     1      42.803  46.187  23.041 -0.17 +0.02    +0.122 C  BRANCH   2   3ATOM      3  C   UNL     1      43.755  47.151  22.385 -0.21 +0.10    +0.303 C  ATOM      4  O   UNL     1      44.808  46.905  21.821 -0.74 -0.22    -0.252 OA BRANCH   3   5ATOM      5  O   UNL     1      43.330  48.435  22.514 -0.48 -0.09    -0.481 OA ATOM      6  H   UNL     1      43.299  48.779  21.600 -0.40 -0.05    +0.296 HD ENDBRANCH   3   5ENDBRANCH   2   3ENDBRANCH   1   2BRANCH   1   7ATOM      7  C   UNL     1      41.927  45.448  20.760 -0.37 +0.00    +0.007 C  BRANCH   7   8ATOM      8  C   UNL     1      41.456  46.487  19.714 -0.44 +0.00    +0.022 C  ATOM      9  C   UNL     1      40.416  45.862  18.766 -0.50 -0.00    +0.042 C  ATOM     10  C   UNL     1      42.627  47.039  18.867 -0.49 +0.01    +0.122 C  ATOM     11  C   UNL     1      40.066  46.735  17.577 -0.45 +0.01    -0.044 A  ATOM     12  C   UNL     1      42.134  48.157  17.941 -0.31 +0.00    +0.067 C  ATOM     13  C   UNL     1      38.902  46.449  16.838 -0.41 -0.00    +0.012 A  ATOM     14  C   UNL     1      40.900  47.786  17.166 -0.50 +0.01    -0.042 A  ATOM     15  C   UNL     1      38.540  47.201  15.702 -0.44 +0.01    -0.015 A  ATOM     16  C   UNL     1      40.546  48.546  16.042 -0.59 -0.00    +0.005 A  ATOM     17  C   UNL     1      39.388  48.253  15.320 -0.54 -0.00    +0.009 A  BRANCH  10  18ATOM     18  O   UNL     1      43.663  47.550  19.703 -0.24 -0.11    -0.392 OA ATOM     19  H   UNL     1      43.240  47.957  20.480 -0.35 -0.00    +0.210 HD ENDBRANCH  10  18BRANCH  15  20ATOM     20  C   UNL     1      37.317  46.895  14.933 -0.41 -0.01    +0.018 A  ATOM     21  C   UNL     1      37.158  47.357  13.617 -0.54 -0.01    +0.012 A  ATOM     22  C   UNL     1      36.263  46.142  15.488 -0.27 -0.09    +0.138 A  ATOM     23  C   UNL     1      35.998  47.081  12.892 -0.63 -0.00    +0.001 A  ATOM     24  C   UNL     1      35.079  45.851  14.783 -0.37 -0.02    +0.021 A  ATOM     25  C   UNL     1      34.970  46.340  13.470 -0.36 -0.01    +0.012 A  ATOM     26  F   UNL     1      36.391  45.680  16.745 -0.06 +0.11    -0.206 F  BRANCH  24  27ATOM     27  C   UNL     1      33.992  45.062  15.393 -0.28 -0.02    +0.024 A  ATOM     28  C   UNL     1      32.653  45.486  15.311 -0.33 -0.03    +0.032 A  ATOM     29  C   UNL     1      34.238  43.862  16.070 -0.23 -0.07    +0.149 A  ATOM     30  C   UNL     1      31.656  44.715  15.895 -0.28 -0.05    +0.112 A  ATOM     31  C   UNL     1      33.179  43.156  16.622 -0.23 -0.07    +0.150 A  ATOM     32  N   UNL     1      31.889  43.558  16.554 -0.15 +0.10    -0.262 NA ATOM     33  F   UNL     1      35.482  43.371  16.188 -0.10 +0.08    -0.205 F  ENDBRANCH  24  27ENDBRANCH  15  20ENDBRANCH   7   8ENDBRANCH   1   7TORSDOF 8TERENDMDL