MODEL        4USER    Run = 4USERUSER    Estimated Free Energy of Binding    =  -9.73 kcal/mol  [=(1)+(2)+(3)-(4)]USERUSER    (1) Final Intermolecular Energy     = -12.72 kcal/molUSER        vdW + Hbond + desolv Energy     = -12.71 kcal/molUSER        Electrostatic Energy            =  -0.01 kcal/molUSER        Moving Ligand-Fixed Receptor    = -12.72 kcal/molUSER        Moving Ligand-Moving Receptor   =  +0.00 kcal/molUSER    (2) Final Total Internal Energy     =  -1.32 kcal/molUSER    (3) Torsional Free Energy           =  +2.98 kcal/molUSER    (4) Unbound System's Energy         =  -1.32 kcal/molUSERUSERREMARK SMILES Cc1c(CCC[C@H]2C[C@H](c3cncnc3N)C2)cccc1OCCN1CCOCC1REMARK SMILES IDX 4 1 3 2 2 3 21 4 18 5 20 6 19 7 1 8 22 9 23 10 24 11 25 12REMARK SMILES IDX 26 13 30 14 27 15 29 16 28 17 5 18 6 19 7 20 17 21 8 22 9 23REMARK SMILES IDX 10 24 11 25 15 26 12 27 14 28 13 29 16 30REMARK H PARENT 16 31 16 32USER                              x       y       z     vdW  Elec       q    TypeUSER                           _______ _______ _______ _____ _____    ______ ____ROOTATOM      1  C   UNL     1      39.413  44.480  20.777 -0.36 +0.00    +0.036 C  ENDROOTBRANCH   1   2ATOM      2  C   UNL     1      38.563  44.124  21.980 -0.30 -0.00    -0.041 A  ATOM      3  C   UNL     1      38.301  45.026  23.040 -0.32 -0.00    -0.006 A  ATOM      4  C   UNL     1      37.453  44.629  24.103 -0.24 +0.02    +0.122 A  ATOM      5  C   UNL     1      38.002  42.837  22.027 -0.34 +0.00    +0.004 A  ATOM      6  C   UNL     1      36.911  43.341  24.118 -0.33 +0.00    +0.047 A  ATOM      7  C   UNL     1      37.188  42.448  23.086 -0.44 +0.00    +0.004 A  ATOM      8  C   UNL     1      38.863  46.429  23.053 -0.32 +0.01    +0.049 C  BRANCH   4   9ATOM      9  O   UNL     1      37.228  45.581  25.063 -0.59 -0.06    -0.492 OA BRANCH   9  10ATOM     10  C   UNL     1      37.545  45.299  26.429 -0.23 -0.02    +0.245 C  BRANCH  10  11ATOM     11  C   UNL     1      36.292  44.840  27.199 -0.28 -0.03    +0.126 C  BRANCH  11  12ATOM     12  N   UNL     1      36.312  43.495  27.786 -0.22 +0.08    -0.295 NA ATOM     13  C   UNL     1      37.424  42.657  27.307 -0.35 -0.02    +0.113 C  ATOM     14  C   UNL     1      35.024  42.783  27.736 -0.57 -0.03    +0.113 C  ATOM     15  C   UNL     1      37.200  41.183  27.676 -0.43 -0.04    +0.175 C  ATOM     16  C   UNL     1      35.021  41.591  26.764 -0.49 -0.05    +0.175 C  ATOM     17  O   UNL     1      36.039  40.621  27.049 -0.33 +0.16    -0.379 OA ENDBRANCH  11  12ENDBRANCH  10  11ENDBRANCH   9  10ENDBRANCH   4   9ENDBRANCH   1   2BRANCH   1  18ATOM     18  C   UNL     1      38.665  45.262  19.690 -0.39 -0.00    +0.005 C  BRANCH  18  19ATOM     19  C   UNL     1      39.595  46.079  18.788 -0.45 -0.00    +0.004 C  BRANCH  19  20ATOM     20  C   UNL     1      39.591  45.513  17.366 -0.42 +0.00    -0.010 C  ATOM     21  C   UNL     1      39.807  46.559  16.243 -0.51 -0.00    +0.012 C  ATOM     22  C   UNL     1      38.212  45.208  16.725 -0.38 -0.00    +0.012 C  ATOM     23  C   UNL     1      38.272  46.593  16.032 -0.45 -0.01    +0.025 C  BRANCH  23  24ATOM     24  C   UNL     1      37.684  46.801  14.576 -0.42 -0.01    +0.016 A  ATOM     25  C   UNL     1      37.386  45.705  13.767 -0.36 -0.04    +0.120 A  ATOM     26  C   UNL     1      37.407  48.011  13.938 -0.44 -0.06    +0.130 A  ATOM     27  N   UNL     1      36.899  45.752  12.511 -0.37 +0.09    -0.244 NA ATOM     28  N   UNL     1      36.934  48.122  12.684 -0.99 +0.06    -0.220 NA ATOM     29  C   UNL     1      36.703  46.980  12.029 -0.49 -0.09    +0.224 A  BRANCH  26  30ATOM     30  N   UNL     1      37.633  49.238  14.561 -0.10 +0.30    -0.383 N  ATOM     31  H   UNL     1      37.180  49.999  14.072 -0.42 -0.13    +0.158 HD ATOM     32  H   UNL     1      38.642  49.367  14.593 -0.36 -0.12    +0.158 HD ENDBRANCH  26  30ENDBRANCH  23  24ENDBRANCH  19  20ENDBRANCH  18  19ENDBRANCH   1  18TORSDOF 10TERENDMDL