REMARK SMILES O=C(O)CCC[C@@H]1Cc2cc(-c3cccc(-c4ccncc4F)c3F)ccc2C[C@H]1O
REMARK SMILES IDX 5 1 4 2 2 3 1 4 3 5 6 7 7 8 8 9 30 10 9 11 29 12 10 13 28 14
REMARK SMILES IDX 11 15 27 16 26 17 31 18 12 20 13 21 24 22 14 23 16 24 15 25
REMARK SMILES IDX 25 26 17 27 18 28 22 29 19 30 21 31 20 32 23 33
REMARK H PARENT 3 6 31 19
ROOT
ATOM      1  C   UNL     1      -5.772   0.319  -0.511  1.00  0.00     0.012 C 
ENDROOT
BRANCH   1   2
ATOM      2  C   UNL     1      -7.192   0.096  -0.000  1.00  0.00     0.122 C 
BRANCH   2   3
ATOM      3  C   UNL     1      -7.603  -1.351   0.044  1.00  0.00     0.303 C 
ATOM      4  O   UNL     1      -6.981  -2.325  -0.348  1.00  0.00    -0.252 OA
BRANCH   3   5
ATOM      5  O   UNL     1      -8.848  -1.499   0.567  1.00  0.00    -0.481 OA
ATOM      6  H   UNL     1      -9.012  -2.462   0.550  1.00  0.00     0.296 HD
ENDBRANCH   3   5
ENDBRANCH   2   3
ENDBRANCH   1   2
BRANCH   1   7
ATOM      7  C   UNL     1      -4.696  -0.093   0.505  1.00  0.00     0.007 C 
BRANCH   7   8
ATOM      8  C   UNL     1      -3.340   0.607   0.247  1.00  0.00     0.022 C 
ATOM      9  C   UNL     1      -2.175  -0.307   0.670  1.00  0.00     0.042 C 
ATOM     10  C   UNL     1      -3.217   1.947   1.009  1.00  0.00     0.122 C 
ATOM     11  C   UNL     1      -0.823   0.378   0.661  1.00  0.00    -0.044 A 
ATOM     12  C   UNL     1      -1.919   2.665   0.619  1.00  0.00     0.067 C 
ATOM     13  C   UNL     1       0.344  -0.410   0.686  1.00  0.00     0.012 A 
ATOM     14  C   UNL     1      -0.707   1.777   0.682  1.00  0.00    -0.042 A 
ATOM     15  C   UNL     1       1.630   0.167   0.715  1.00  0.00    -0.015 A 
ATOM     16  C   UNL     1       0.567   2.362   0.703  1.00  0.00     0.005 A 
ATOM     17  C   UNL     1       1.715   1.568   0.725  1.00  0.00     0.009 A 
BRANCH  10  18
ATOM     18  O   UNL     1      -4.324   2.799   0.722  1.00  0.00    -0.392 OA
ATOM     19  H   UNL     1      -4.216   3.610   1.250  1.00  0.00     0.210 HD
ENDBRANCH  10  18
BRANCH  15  20
ATOM     20  C   UNL     1       2.848  -0.668   0.740  1.00  0.00     0.018 A 
ATOM     21  C   UNL     1       2.965  -1.744   1.634  1.00  0.00     0.012 A 
ATOM     22  C   UNL     1       3.937  -0.414  -0.116  1.00  0.00     0.138 A 
ATOM     23  C   UNL     1       4.120  -2.527   1.670  1.00  0.00     0.001 A 
ATOM     24  C   UNL     1       5.117  -1.183  -0.100  1.00  0.00     0.021 A 
ATOM     25  C   UNL     1       5.184  -2.247   0.815  1.00  0.00     0.012 A 
ATOM     26  F   UNL     1       3.849   0.607  -0.988  1.00  0.00    -0.206 F 
BRANCH  24  27
ATOM     27  C   UNL     1       6.242  -0.890  -1.009  1.00  0.00     0.024 A 
ATOM     28  C   UNL     1       6.030  -0.697  -2.386  1.00  0.00     0.032 A 
ATOM     29  C   UNL     1       7.559  -0.785  -0.548  1.00  0.00     0.149 A 
ATOM     30  C   UNL     1       7.113  -0.419  -3.211  1.00  0.00     0.112 A 
ATOM     31  C   UNL     1       8.579  -0.503  -1.444  1.00  0.00     0.150 A 
ATOM     32  N   UNL     1       8.387  -0.322  -2.771  1.00  0.00    -0.262 NA
ATOM     33  F   UNL     1       7.856  -0.940   0.752  1.00  0.00    -0.205 F 
ENDBRANCH  24  27
ENDBRANCH  15  20
ENDBRANCH   7   8
ENDBRANCH   1   7
TORSDOF 8
