MODEL        7USER    Run = 7USERUSER    Estimated Free Energy of Binding    = -11.56 kcal/mol  [=(1)+(2)+(3)-(4)]USERUSER    (1) Final Intermolecular Energy     = -13.95 kcal/molUSER        vdW + Hbond + desolv Energy     = -13.81 kcal/molUSER        Electrostatic Energy            =  -0.14 kcal/molUSER        Moving Ligand-Fixed Receptor    = -13.95 kcal/molUSER        Moving Ligand-Moving Receptor   =  +0.00 kcal/molUSER    (2) Final Total Internal Energy     =  -2.53 kcal/molUSER    (3) Torsional Free Energy           =  +2.39 kcal/molUSER    (4) Unbound System's Energy         =  -2.53 kcal/molUSERUSERREMARK SMILES Cc1ccc(-c2nc(-c3ccc([C@@H]4C[C@H]4NC(=O)[C@H](C)N4CCN(S(C)(=O)=O)CC4)cc3F)cnc2O)cc1CREMARK SMILES IDX 13 1 14 2 15 3 12 4 9 5 10 6 32 7 11 8 31 9 33 10 8 11 6 12REMARK SMILES IDX 7 13 36 14 35 15 34 16 5 17 2 18 3 19 39 20 4 21 38 22 1 23REMARK SMILES IDX 40 24 37 25 16 27 17 28 18 30 19 31 20 32 21 33 22 34 30 35REMARK SMILES IDX 23 36 29 37 24 38 25 39 26 40 27 41 28 42REMARK H PARENT 37 26 16 29USER                              x       y       z     vdW  Elec       q    TypeUSER                           _______ _______ _______ _____ _____    ______ ____ROOTATOM      1  C   UNL     1      41.113  45.876  19.061 -0.50 +0.00    +0.044 C  ATOM      2  C   UNL     1      42.454  46.570  19.025 -0.49 +0.01    +0.036 C  ATOM      3  C   UNL     1      41.258  47.237  18.401 -0.49 -0.00    +0.090 C  ENDROOTBRANCH   1   4ATOM      4  C   UNL     1      40.428  45.690  20.393 -0.33 -0.00    -0.040 A  ATOM      5  C   UNL     1      39.014  45.463  22.863 -0.29 +0.00    +0.038 A  ATOM      6  C   UNL     1      40.289  46.042  22.816 -0.24 +0.00    +0.014 A  ATOM      7  C   UNL     1      38.474  44.982  21.668 -0.27 +0.01    +0.132 A  ATOM      8  C   UNL     1      40.976  46.167  21.597 -0.23 +0.00    +0.005 A  ATOM      9  C   UNL     1      39.162  45.089  20.460 -0.34 +0.00    +0.044 A  ATOM     10  F   UNL     1      37.261  44.409  21.657 -0.12 -0.01    -0.206 F  BRANCH   5  11ATOM     11  C   UNL     1      38.248  45.398  24.103 -0.24 +0.01    +0.092 A  ATOM     12  C   UNL     1      37.165  46.526  25.820 -0.24 -0.00    +0.133 A  ATOM     13  N   UNL     1      37.832  46.577  24.628 -0.62 -0.05    -0.240 NA ATOM     14  C   UNL     1      36.911  45.283  26.416 -0.19 -0.03    +0.238 A  ATOM     15  N   UNL     1      37.286  44.096  25.897 -0.18 +0.01    -0.218 NA ATOM     16  C   UNL     1      37.971  44.186  24.734 -0.20 +0.01    +0.144 A  BRANCH  12  17ATOM     17  C   UNL     1      36.821  47.839  26.410 -0.38 -0.00    +0.006 A  ATOM     18  C   UNL     1      36.227  50.416  27.486 -0.24 -0.00    -0.048 A  ATOM     19  C   UNL     1      36.506  49.330  28.325 -0.26 -0.00    +0.004 A  ATOM     20  C   UNL     1      36.213  50.213  26.096 -0.39 -0.00    -0.048 A  ATOM     21  C   UNL     1      36.797  48.067  27.793 -0.30 -0.00    +0.011 A  ATOM     22  C   UNL     1      36.500  48.931  25.581 -0.49 -0.00    +0.014 A  ATOM     23  C   UNL     1      35.904  51.748  28.106 -0.21 +0.01    +0.044 C  ATOM     24  C   UNL     1      35.873  51.320  25.131 -0.43 -0.00    +0.044 C  ENDBRANCH  12  17BRANCH  14  25ATOM     25  O   UNL     1      36.295  45.128  27.613 -0.15 +0.13    -0.492 OA ATOM     26  H   UNL     1      35.536  45.729  27.489 -0.31 -0.16    +0.295 HD ENDBRANCH  14  25ENDBRANCH   5  11ENDBRANCH   1   4BRANCH   3  27ATOM     27  N   UNL     1      41.085  47.338  16.981 -0.22 +0.04    -0.351 N  ATOM     28  C   UNL     1      41.259  48.510  16.261 -0.34 -0.02    +0.237 C  ATOM     29  H   UNL     1      40.599  46.588  16.500 +0.09 -0.02    +0.163 HD ATOM     30  O   UNL     1      41.536  49.595  16.765 -1.01 -0.02    -0.273 OA BRANCH  28  31ATOM     31  C   UNL     1      41.013  48.310  14.747 -0.44 -0.02    +0.143 C  ATOM     32  C   UNL     1      41.514  49.517  13.945 -0.62 -0.01    +0.035 C  BRANCH  31  33ATOM     33  N   UNL     1      39.599  47.913  14.526 -0.27 +0.08    -0.290 NA ATOM     34  C   UNL     1      39.426  46.477  14.208 -0.31 -0.02    +0.102 C  ATOM     35  C   UNL     1      38.677  48.371  15.585 -0.48 -0.06    +0.102 C  ATOM     36  C   UNL     1      38.033  45.921  14.561 -0.38 -0.04    +0.117 C  ATOM     37  C   UNL     1      38.284  47.316  16.633 -0.28 -0.06    +0.117 C  ATOM     38  N   UNL     1      37.760  46.068  16.011 -0.23 +0.08    -0.200 NA BRANCH  38  39ATOM     39  S   UNL     1      37.692  44.694  16.980 -0.36 -0.06    +0.211 S  ATOM     40  C   UNL     1      36.501  45.150  18.225 -0.27 -0.05    +0.176 C  ATOM     41  O   UNL     1      37.120  43.624  16.193 -0.30 +0.06    -0.213 OA ATOM     42  O   UNL     1      38.969  44.544  17.645 -0.26 +0.03    -0.213 OA ENDBRANCH  38  39ENDBRANCH  31  33ENDBRANCH  28  31ENDBRANCH   3  27TORSDOF 8TERENDMDL