REMARK SMILES Cc1c(CCC[C@H]2C[C@H](c3cncnc3N)C2)cccc1OCCN1CCOCC1
REMARK SMILES IDX 4 1 3 2 2 3 21 4 18 5 20 6 19 7 1 8 22 9 23 10 24 11 25 12
REMARK SMILES IDX 26 13 30 14 27 15 29 16 28 17 5 18 6 19 7 20 17 21 8 22 9 23
REMARK SMILES IDX 10 24 11 25 15 26 12 27 14 28 13 29 16 30
REMARK H PARENT 16 31 16 32
ROOT
ATOM      1  C   UNL     1       1.123   2.484  -1.034  1.00  0.00     0.036 C 
ENDROOT
BRANCH   1   2
ATOM      2  C   UNL     1      -0.160   1.990  -0.397  1.00  0.00    -0.041 A 
ATOM      3  C   UNL     1      -1.183   1.331  -1.121  1.00  0.00    -0.006 A 
ATOM      4  C   UNL     1      -2.328   0.855  -0.437  1.00  0.00     0.122 A 
ATOM      5  C   UNL     1      -0.324   2.191   0.984  1.00  0.00     0.004 A 
ATOM      6  C   UNL     1      -2.459   1.070   0.937  1.00  0.00     0.047 A 
ATOM      7  C   UNL     1      -1.463   1.739   1.643  1.00  0.00     0.004 A 
ATOM      8  C   UNL     1      -1.071   1.073  -2.606  1.00  0.00     0.049 C 
BRANCH   4   9
ATOM      9  O   UNL     1      -3.246   0.197  -1.214  1.00  0.00    -0.492 OA
BRANCH   9  10
ATOM     10  C   UNL     1      -4.420  -0.355  -0.611  1.00  0.00     0.245 C 
BRANCH  10  11
ATOM     11  C   UNL     1      -5.536   0.702  -0.517  1.00  0.00     0.126 C 
BRANCH  11  12
ATOM     12  N   UNL     1      -6.846   0.262  -0.022  1.00  0.00    -0.295 NA
ATOM     13  C   UNL     1      -6.848  -0.102   1.404  1.00  0.00     0.113 C 
ATOM     14  C   UNL     1      -7.506  -0.759  -0.853  1.00  0.00     0.113 C 
ATOM     15  C   UNL     1      -8.126  -0.869   1.775  1.00  0.00     0.175 C 
ATOM     16  C   UNL     1      -7.577  -2.141  -0.181  1.00  0.00     0.175 C 
ATOM     17  O   UNL     1      -8.241  -2.124   1.090  1.00  0.00    -0.379 OA
ENDBRANCH  11  12
ENDBRANCH  10  11
ENDBRANCH   9  10
ENDBRANCH   4   9
ENDBRANCH   1   2
BRANCH   1  18
ATOM     18  C   UNL     1       2.117   1.371  -1.387  1.00  0.00     0.005 C 
BRANCH  18  19
ATOM     19  C   UNL     1       2.698   0.669  -0.155  1.00  0.00     0.004 C 
BRANCH  19  20
ATOM     20  C   UNL     1       3.706  -0.402  -0.578  1.00  0.00    -0.010 C 
ATOM     21  C   UNL     1       4.421  -1.127   0.591  1.00  0.00     0.012 C 
ATOM     22  C   UNL     1       5.104   0.081  -1.046  1.00  0.00     0.012 C 
ATOM     23  C   UNL     1       5.630  -0.178   0.389  1.00  0.00     0.025 C 
BRANCH  23  24
ATOM     24  C   UNL     1       7.100  -0.715   0.633  1.00  0.00     0.016 A 
ATOM     25  C   UNL     1       7.908  -0.149   1.618  1.00  0.00     0.120 A 
ATOM     26  C   UNL     1       7.752  -1.742  -0.050  1.00  0.00     0.130 A 
ATOM     27  N   UNL     1       9.175  -0.505   1.910  1.00  0.00    -0.244 NA
ATOM     28  N   UNL     1       9.017  -2.133   0.186  1.00  0.00    -0.220 NA
ATOM     29  C   UNL     1       9.670  -1.490   1.159  1.00  0.00     0.224 A 
BRANCH  26  30
ATOM     30  N   UNL     1       7.132  -2.447  -1.082  1.00  0.00    -0.383 N 
ATOM     31  H   UNL     1       6.261  -2.867  -0.782  1.00  0.00     0.158 HD
ATOM     32  H   UNL     1       7.796  -3.153  -1.392  1.00  0.00     0.158 HD
ENDBRANCH  26  30
ENDBRANCH  23  24
ENDBRANCH  19  20
ENDBRANCH  18  19
ENDBRANCH   1  18
TORSDOF 10
