MODEL        2USER    Run = 2USERUSER    Estimated Free Energy of Binding    = -10.24 kcal/mol  [=(1)+(2)+(3)-(4)]USERUSER    (1) Final Intermolecular Energy     = -12.03 kcal/molUSER        vdW + Hbond + desolv Energy     = -11.90 kcal/molUSER        Electrostatic Energy            =  -0.13 kcal/molUSER        Moving Ligand-Fixed Receptor    = -12.03 kcal/molUSER        Moving Ligand-Moving Receptor   =  +0.00 kcal/molUSER    (2) Final Total Internal Energy     =  -1.21 kcal/molUSER    (3) Torsional Free Energy           =  +1.79 kcal/molUSER    (4) Unbound System's Energy         =  -1.21 kcal/molUSERUSERREMARK SMILES C[C@H]1C[C@H](Oc2cc(F)cc(F)c2C(=O)c2ccc3c(c2)nc(-c2ccnc(N)c2)n3C)CCO1REMARK SMILES IDX 14 1 15 2 13 3 6 4 7 5 8 6 11 7 10 8 9 9 12 10 5 11 4 12REMARK SMILES IDX 2 13 3 14 35 15 34 16 33 17 1 18 16 19 17 20 21 21 18 22REMARK SMILES IDX 20 23 19 24 22 25 31 26 23 27 32 28 24 29 25 30 30 31 26 32REMARK SMILES IDX 28 33 27 34 29 35REMARK H PARENT 29 36 29 37USER                              x       y       z     vdW  Elec       q    TypeUSER                           _______ _______ _______ _____ _____    ______ ____ROOTATOM      1  C   UNL     1      41.126  45.380  20.681 -0.28 +0.02    +0.199 C  ATOM      2  O   UNL     1      42.073  44.599  20.706 -0.20 -0.06    -0.288 OA ENDROOTBRANCH   1   3ATOM      3  C   UNL     1      40.437  45.713  21.941 -0.22 +0.01    +0.100 A  ATOM      4  C   UNL     1      39.245  45.082  22.321 -0.23 +0.01    +0.136 A  ATOM      5  C   UNL     1      38.682  45.359  23.570 -0.25 +0.01    +0.086 A  ATOM      6  C   UNL     1      39.288  46.287  24.411 -0.19 +0.01    +0.129 A  ATOM      7  C   UNL     1      41.031  46.634  22.809 -0.16 +0.01    +0.141 A  ATOM      8  C   UNL     1      40.457  46.934  24.040 -0.20 +0.01    +0.079 A  ATOM      9  F   UNL     1      38.738  46.554  25.601 -0.03 -0.01    -0.207 F  ATOM     10  F   UNL     1      42.183  47.237  22.480 -0.07 -0.03    -0.206 F  BRANCH   4  11ATOM     11  O   UNL     1      38.620  44.123  21.573 -0.07 -0.02    -0.489 OA BRANCH  11  12ATOM     12  C   UNL     1      37.324  43.741  22.076 -0.33 +0.01    +0.178 C  ATOM     13  C   UNL     1      36.473  42.873  19.869 -0.35 -0.01    +0.118 C  ATOM     14  C   UNL     1      36.310  43.947  20.949 -0.39 +0.00    +0.077 C  ATOM     15  O   UNL     1      36.547  41.536  20.381 -0.27 +0.02    -0.378 OA ATOM     16  C   UNL     1      36.356  41.418  21.786 -0.51 +0.00    +0.164 C  ATOM     17  C   UNL     1      37.365  42.277  22.537 -0.47 +0.01    +0.073 C  ATOM     18  C   UNL     1      35.327  42.926  18.864 -0.42 -0.01    +0.039 C  ENDBRANCH  11  12ENDBRANCH   4  11ENDBRANCH   1   3BRANCH   1  19ATOM     19  C   UNL     1      40.692  45.976  19.387 -0.41 +0.00    +0.025 A  ATOM     20  C   UNL     1      41.478  46.996  18.833 -0.48 +0.00    +0.014 A  ATOM     21  C   UNL     1      39.550  45.514  18.714 -0.40 -0.00    +0.042 A  ATOM     22  C   UNL     1      41.143  47.600  17.613 -0.50 -0.00    +0.029 A  ATOM     23  C   UNL     1      39.207  46.109  17.491 -0.37 -0.02    +0.090 A  ATOM     24  C   UNL     1      39.994  47.129  16.967 -0.44 -0.01    +0.068 A  ATOM     25  N   UNL     1      38.155  45.826  16.663 -0.22 +0.07    -0.228 NA ATOM     26  N   UNL     1      39.373  47.457  15.780 -0.22 +0.10    -0.327 N  ATOM     27  C   UNL     1      38.240  46.674  15.651 -0.31 -0.06    +0.141 A  ATOM     28  C   UNL     1      39.861  48.413  14.812 -0.50 -0.05    +0.152 C  BRANCH  27  29ATOM     29  C   UNL     1      37.286  46.732  14.545 -0.41 -0.01    +0.023 A  ATOM     30  C   UNL     1      37.751  46.909  13.244 -0.47 -0.01    +0.032 A  ATOM     31  C   UNL     1      35.913  46.566  14.751 -0.36 -0.05    +0.058 A  ATOM     32  C   UNL     1      36.823  46.950  12.221 -0.58 -0.04    +0.114 A  ATOM     33  C   UNL     1      35.053  46.617  13.660 -0.35 -0.10    +0.124 A  ATOM     34  N   UNL     1      35.492  46.819  12.410 -0.39 +0.15    -0.240 NA BRANCH  33  35ATOM     35  N   UNL     1      33.678  46.440  13.844 -0.03 +0.38    -0.384 N  ATOM     36  H   UNL     1      33.341  47.091  14.550 -0.32 -0.32    +0.158 HD ATOM     37  H   UNL     1      33.181  46.619  12.976 -0.49 -0.16    +0.158 HD ENDBRANCH  33  35ENDBRANCH  27  29ENDBRANCH   1  19TORSDOF 6TERENDMDL