REMARK SMILES O=C(N[C@@H]1CCCN(Cc2ccc(-c3nc4ccccc4o3)cc2)C[C@H]1NC(=O)c1ccncc1)c1ccc(C(=O)c2c(O)ccc(O)c2F)cc1
REMARK SMILES IDX 4 1 26 3 27 4 28 5 29 6 30 8 31 9 35 10 32 11 34 12 33 13
REMARK SMILES IDX 25 14 8 15 9 16 10 17 11 18 24 19 12 20 23 21 13 22 14 23
REMARK SMILES IDX 15 24 22 25 16 26 21 27 17 28 20 29 18 30 19 31 7 32 6 33
REMARK SMILES IDX 5 34 3 36 2 37 1 39 36 40 37 41 52 42 38 43 51 44 39 45
REMARK SMILES IDX 40 46 41 47 42 48 43 49 49 50 45 51 47 52 46 53 50 54 44 55
REMARK SMILES IDX 48 57
REMARK H PARENT 27 7 3 38 44 56 48 58
REMARK Flexibility Score:  412.900
ROOT
ATOM      1  C   UNL     1       0.203   0.400  -0.587  1.00  0.00     0.106 CG0
ATOM      2  G   UNL     1      -0.388   1.811  -0.468  1.00  0.00     0.000 G0
ENDROOT
BRANCH   1   3
ATOM      3  C   UNL     1      -0.333  -0.632   0.446  1.00  0.00     0.118 C 
BRANCH   3   4
ATOM      4  N   UNL     1      -0.051  -2.006  -0.026  1.00  0.00    -0.346 N 
ATOM      5  C   UNL     1       1.201  -2.570   0.138  1.00  0.00     0.251 C 
ATOM      6  O   UNL     1       2.109  -2.003   0.743  1.00  0.00    -0.269 OA
ATOM      7  H   UNL     1      -0.629  -2.349  -0.784  1.00  0.00     0.164 HD
BRANCH   5   8
ATOM      8  C   UNL     1       1.441  -3.897  -0.491  1.00  0.00     0.042 A 
ATOM      9  C   UNL     1       2.765  -4.305  -0.678  1.00  0.00     0.034 A 
ATOM     10  C   UNL     1       0.398  -4.746  -0.866  1.00  0.00     0.034 A 
ATOM     11  C   UNL     1       2.991  -5.540  -1.258  1.00  0.00     0.112 A 
ATOM     12  C   UNL     1       0.729  -5.960  -1.442  1.00  0.00     0.112 A 
ATOM     13  N   UNL     1       2.000  -6.370  -1.651  1.00  0.00    -0.265 NA
ENDBRANCH   5   8
ENDBRANCH   3   4
BRANCH   3  14
ATOM     14  C   UNL     1      -1.835  -0.469   0.783  1.00  0.00     0.111 C 
BRANCH  14  15
ATOM     15  N   UNL     1      -2.057   0.466   1.893  1.00  0.00    -0.297 NA
BRANCH  15  16
ATOM     16  C   UNL     1      -3.281   0.178   2.662  1.00  0.00     0.120 C 
BRANCH  16  17
ATOM     17  C   UNL     1      -4.597   0.503   1.986  1.00  0.00    -0.034 A 
ATOM     18  C   UNL     1      -5.230   1.730   2.227  1.00  0.00     0.006 A 
ATOM     19  C   UNL     1      -5.207  -0.402   1.109  1.00  0.00     0.006 A 
ATOM     20  C   UNL     1      -6.435   2.050   1.595  1.00  0.00     0.014 A 
ATOM     21  C   UNL     1      -6.415  -0.082   0.477  1.00  0.00     0.014 A 
ATOM     22  C   UNL     1      -7.043   1.150   0.710  1.00  0.00     0.037 A 
BRANCH  22  23
ATOM     23  C   UNL     1      -8.297   1.520   0.059  1.00  0.00     0.227 A 
ATOM     24  N   UNL     1      -8.956   2.664   0.121  1.00  0.00    -0.209 NA
ATOM     25  O   UNL     1      -8.889   0.564  -0.732  1.00  0.00    -0.436 OA
ATOM     26  C   UNL     1     -10.049   2.457  -0.682  1.00  0.00     0.110 A 
ATOM     27  C   UNL     1     -10.014   1.174  -1.201  1.00  0.00     0.155 A 
ATOM     28  C   UNL     1     -11.113   3.300  -1.026  1.00  0.00     0.032 A 
ATOM     29  C   UNL     1     -10.971   0.637  -2.054  1.00  0.00     0.049 A 
ATOM     30  C   UNL     1     -12.104   2.796  -1.883  1.00  0.00     0.003 A 
ATOM     31  C   UNL     1     -12.031   1.490  -2.386  1.00  0.00     0.004 A 
ENDBRANCH  22  23
ENDBRANCH  16  17
ENDBRANCH  15  16
BRANCH  15  32
ATOM     32  C   UNL     1      -1.929   1.885   1.556  1.00  0.00     0.085 C 
BRANCH  32  33
ATOM     33  C   UNL     1      -0.580   2.302   0.963  1.00  0.00     0.018 C 
BRANCH  33  34
ATOM     34  C   UNL     1      -0.388   1.811  -0.468  1.00  0.00     0.028 CG0
ATOM     35  G   UNL     1       0.203   0.400  -0.587  1.00  0.00     0.000 G0
ENDBRANCH  33  34
ENDBRANCH  32  33
ENDBRANCH  15  32
ENDBRANCH  14  15
ENDBRANCH   3  14
ENDBRANCH   1   3
BRANCH   1  36
ATOM     36  N   UNL     1       1.670   0.450  -0.538  1.00  0.00    -0.347 N 
ATOM     37  C   UNL     1       2.421   0.871  -1.615  1.00  0.00     0.251 C 
ATOM     38  H   UNL     1       2.120  -0.195   0.111  1.00  0.00     0.164 HD
ATOM     39  O   UNL     1       1.936   1.286  -2.661  1.00  0.00    -0.269 OA
BRANCH  37  40
ATOM     40  C   UNL     1       3.898   0.769  -1.459  1.00  0.00     0.039 A 
ATOM     41  C   UNL     1       4.511   0.874  -0.205  1.00  0.00     0.014 A 
ATOM     42  C   UNL     1       4.686   0.626  -2.605  1.00  0.00     0.014 A 
ATOM     43  C   UNL     1       5.906   0.824  -0.097  1.00  0.00     0.013 A 
ATOM     44  C   UNL     1       6.079   0.563  -2.495  1.00  0.00     0.013 A 
ATOM     45  C   UNL     1       6.696   0.648  -1.239  1.00  0.00     0.023 A 
BRANCH  45  46
ATOM     46  C   UNL     1       8.181   0.642  -1.186  1.00  0.00     0.199 C 
ATOM     47  O   UNL     1       8.815   1.057  -2.158  1.00  0.00    -0.288 OA
BRANCH  46  48
ATOM     48  C   UNL     1       8.959   0.238   0.006  1.00  0.00     0.104 A 
ATOM     49  C   UNL     1      10.158   0.906   0.299  1.00  0.00     0.130 A 
ATOM     50  C   UNL     1       8.555  -0.808   0.836  1.00  0.00     0.179 A 
ATOM     51  C   UNL     1      10.899   0.585   1.436  1.00  0.00     0.051 A 
ATOM     52  C   UNL     1       9.296  -1.132   1.976  1.00  0.00     0.152 A 
ATOM     53  C   UNL     1      10.463  -0.433   2.286  1.00  0.00     0.053 A 
ATOM     54  F   UNL     1       7.457  -1.525   0.545  1.00  0.00    -0.202 F 
BRANCH  49  55
ATOM     55  O   UNL     1      10.673   1.895  -0.499  1.00  0.00    -0.507 OA
ATOM     56  H   UNL     1      10.188   1.867  -1.357  1.00  0.00     0.293 HD
ENDBRANCH  49  55
BRANCH  52  57
ATOM     57  O   UNL     1       8.854  -2.143   2.784  1.00  0.00    -0.505 OA
ATOM     58  H   UNL     1       9.475  -2.253   3.529  1.00  0.00     0.293 HD
ENDBRANCH  52  57
ENDBRANCH  46  48
ENDBRANCH  45  46
ENDBRANCH  37  40
ENDBRANCH   1  36
TORSDOF 11
