MODEL        6USER    Run = 6USERUSER    Estimated Free Energy of Binding    =  -9.36 kcal/mol  [=(1)+(2)+(3)-(4)]USERUSER    (1) Final Intermolecular Energy     = -14.43 kcal/molUSER        vdW + Hbond + desolv Energy     = -14.81 kcal/molUSER        Electrostatic Energy            =  -0.55 kcal/molUSER        Moving Ligand-Fixed Receptor    = -15.37 kcal/molUSER        Moving Ligand-Moving Receptor   =  +0.93 kcal/molUSER    (2) Final Total Internal Energy     =  -2.58 kcal/molUSER    (3) Torsional Free Energy           =  +5.07 kcal/molUSER    (4) Unbound System's Energy         =  -2.58 kcal/molUSERUSERREMARK SMILES O=C(N[C@@H]1CCCN(Cc2ccc(-c3nc4ccccc4o3)cc2)C[C@H]1NC(=O)c1ccncc1)c1ccc(C(=O)c2c(O)ccc(O)c2F)cc1REMARK SMILES IDX 4 1 26 3 27 4 28 5 29 6 30 8 31 9 35 10 32 11 34 12 33 13REMARK SMILES IDX 25 14 8 15 9 16 10 17 11 18 24 19 12 20 23 21 13 22 14 23REMARK SMILES IDX 15 24 22 25 16 26 21 27 17 28 20 29 18 30 19 31 7 32 6 33REMARK SMILES IDX 5 34 3 36 2 37 1 39 36 40 37 41 52 42 38 43 51 44 39 45REMARK SMILES IDX 40 46 41 47 42 48 43 49 49 50 45 51 47 52 46 53 50 54 44 55REMARK SMILES IDX 48 57REMARK H PARENT 27 7 3 38 44 56 48 58REMARK Flexibility Score:  412.900USER                              x       y       z     vdW  Elec       q    TypeUSER                           _______ _______ _______ _____ _____    ______ ____ROOTATOM      1  C   UNL     1      38.461  44.133  21.375 -0.33 +0.00    +0.106 CG0ATOM      2  G   UNL     1      38.144  42.886  22.211 +0.00 +0.00    +0.000 G0 ENDROOTBRANCH   1   3ATOM      3  C   UNL     1      38.660  45.443  22.189 -0.31 +0.01    +0.118 C  BRANCH   3   4ATOM      4  N   UNL     1      40.105  45.698  22.383 -0.10 -0.02    -0.346 N  ATOM      5  C   UNL     1      40.936  45.930  21.302 -0.19 +0.02    +0.251 C  ATOM      6  O   UNL     1      40.516  46.013  20.149 -0.26 -0.01    -0.269 OA ATOM      7  H   UNL     1      40.520  45.321  23.226 +0.08 +0.01    +0.164 HD BRANCH   5   8ATOM      8  C   UNL     1      42.396  46.035  21.571 -0.28 +0.01    +0.042 A  ATOM      9  C   UNL     1      43.046  44.920  22.108 -0.22 +0.01    +0.034 A  ATOM     10  C   UNL     1      43.129  47.187  21.279 -0.34 +0.01    +0.034 A  ATOM     11  C   UNL     1      44.403  45.013  22.355 -0.11 +0.06    +0.112 A  ATOM     12  C   UNL     1      44.482  47.181  21.567 -0.18 +0.08    +0.112 A  ATOM     13  N   UNL     1      45.131  46.123  22.103 -0.55 -0.28    -0.265 NA ENDBRANCH   5   8ENDBRANCH   3   4BRANCH   3  14ATOM     14  C   UNL     1      37.917  45.464  23.547 -0.13 +0.02    +0.111 C  BRANCH  14  15ATOM     15  N   UNL     1      38.580  44.629  24.556 -0.09 -0.01    -0.297 NA BRANCH  15  16ATOM     16  C   UNL     1      38.973  45.377  25.765 -0.17 +0.00    +0.120 C  BRANCH  16  17ATOM     17  C   UNL     1      37.852  45.802  26.691 -0.28 +0.00    -0.034 A  ATOM     18  C   UNL     1      37.410  47.132  26.700 -0.34 -0.00    +0.006 A  ATOM     19  C   UNL     1      37.233  44.887  27.551 -0.36 -0.00    +0.006 A  ATOM     20  C   UNL     1      36.365  47.533  27.537 -0.26 -0.00    +0.014 A  ATOM     21  C   UNL     1      36.187  45.289  28.391 -0.33 -0.00    +0.014 A  ATOM     22  C   UNL     1      35.737  46.617  28.392 -0.21 -0.01    +0.037 A  BRANCH  22  23ATOM     23  C   UNL     1      34.641  47.067  29.246 -0.31 -0.04    +0.227 A  ATOM     24  N   UNL     1      33.372  46.698  29.228 -0.67 -0.00    -0.209 NA ATOM     25  O   UNL     1      34.950  47.999  30.208 -0.18 +0.06    -0.436 OA ATOM     26  C   UNL     1      32.804  47.426  30.243 -0.27 -0.01    +0.110 A  ATOM     27  C   UNL     1      33.764  48.225  30.841 -0.20 -0.02    +0.155 A  ATOM     28  C   UNL     1      31.490  47.468  30.724 -0.47 -0.00    +0.032 A  ATOM     29  C   UNL     1      33.526  49.089  31.903 -0.16 -0.00    +0.049 A  ATOM     30  C   UNL     1      31.206  48.330  31.794 -0.36 -0.00    +0.003 A  ATOM     31  C   UNL     1      32.207  49.123  32.371 -0.19 -0.00    +0.004 A  ENDBRANCH  22  23ENDBRANCH  16  17ENDBRANCH  15  16BRANCH  15  32ATOM     32  C   UNL     1      39.655  43.771  24.056 -0.19 +0.00    +0.085 C  BRANCH  32  33ATOM     33  C   UNL     1      39.201  42.544  23.260 -0.22 +0.00    +0.018 C  BRANCH  33  34ATOM     34  C   UNL     1      38.151  42.880  22.206 -0.37 +0.00    +0.028 CG0ATOM     35  G   UNL     1      38.461  44.128  21.369 +0.00 +0.00    +0.000 G0 ENDBRANCH  33  34ENDBRANCH  32  33ENDBRANCH  15  32ENDBRANCH  14  15ENDBRANCH   3  14ENDBRANCH   1   3BRANCH   1  36ATOM     36  N   UNL     1      37.441  44.331  20.338 -0.17 +0.01    -0.347 N  ATOM     37  C   UNL     1      37.771  44.718  19.056 -0.25 -0.03    +0.251 C  ATOM     38  H   UNL     1      36.509  44.581  20.667 +0.09 -0.00    +0.164 HD ATOM     39  O   UNL     1      38.923  44.867  18.667 -0.27 +0.03    -0.269 OA BRANCH  37  40ATOM     40  C   UNL     1      36.627  44.983  18.141 -0.31 -0.01    +0.039 A  ATOM     41  C   UNL     1      35.386  45.413  18.625 -0.29 -0.01    +0.014 A  ATOM     42  C   UNL     1      36.789  44.736  16.774 -0.33 -0.00    +0.014 A  ATOM     43  C   UNL     1      34.315  45.606  17.744 -0.40 -0.01    +0.013 A  ATOM     44  C   UNL     1      35.723  44.941  15.893 -0.33 -0.01    +0.013 A  ATOM     45  C   UNL     1      34.484  45.391  16.371 -0.31 -0.02    +0.023 A  BRANCH  45  46ATOM     46  C   UNL     1      33.366  45.529  15.401 -0.18 -0.19    +0.199 C  ATOM     47  O   UNL     1      33.552  46.167  14.363 -0.28 +0.31    -0.288 OA BRANCH  46  48ATOM     48  C   UNL     1      32.050  44.874  15.566 -0.30 -0.06    +0.104 A  ATOM     49  C   UNL     1      30.884  45.651  15.483 -0.34 -0.06    +0.130 A  ATOM     50  C   UNL     1      31.928  43.510  15.831 -0.23 -0.09    +0.179 A  ATOM     51  C   UNL     1      29.623  45.067  15.589 -0.31 -0.02    +0.051 A  ATOM     52  C   UNL     1      30.664  42.921  15.939 -0.23 -0.07    +0.152 A  ATOM     53  C   UNL     1      29.509  43.693  15.809 -0.24 -0.03    +0.053 A  ATOM     54  F   UNL     1      33.020  42.747  15.999 -0.06 +0.11    -0.202 F  BRANCH  49  55ATOM     55  O   UNL     1      30.907  47.010  15.300 -0.68 +0.21    -0.507 OA ATOM     56  H   UNL     1      31.848  47.276  15.170 -0.35 -0.48    +0.293 HD ENDBRANCH  49  55BRANCH  52  57ATOM     57  O   UNL     1      30.582  41.576  16.169 -0.11 +0.21    -0.505 OA ATOM     58  H   UNL     1      31.200  41.110  15.574 -0.39 -0.23    +0.293 HD ENDBRANCH  52  57ENDBRANCH  46  48ENDBRANCH  45  46ENDBRANCH  37  40ENDBRANCH   1  36TORSDOF 11TERENDMDL