REMARK SMILES Cc1ncc(F)cc1C(=O)N[C@@H]1CN(C2CC2)CCC[C@H]1NC(=O)c1ccc(C(=O)c2c(O)ccc(O)c2F)cc1
REMARK SMILES IDX 22 1 23 2 24 3 21 5 12 6 11 7 9 8 10 9 8 11 2 12 3 13 4 14
REMARK SMILES IDX 7 15 5 16 1 17 6 18 13 19 14 20 15 21 16 22 17 23 18 24
REMARK SMILES IDX 20 26 19 27 25 29 26 30 41 31 27 32 40 33 28 34 29 35 30 36
REMARK SMILES IDX 31 37 32 38 38 39 34 40 36 41 35 42 39 43 33 44 37 46
REMARK H PARENT 22 4 11 10 33 45 37 47
REMARK Flexibility Score:   88.900
ROOT
ATOM      1  N   UNL     1       0.111  -1.077  -1.041  1.00  0.00    -0.347 N 
ATOM      2  C   UNL     1       0.961  -1.897  -1.754  1.00  0.00     0.251 C 
ATOM      3  O   UNL     1       0.586  -2.795  -2.498  1.00  0.00    -0.269 OA
ATOM      4  H   UNL     1       0.504  -0.490  -0.317  1.00  0.00     0.164 HD
ENDROOT
BRANCH   1   5
ATOM      5  C   UNL     1      -1.343  -1.228  -1.117  1.00  0.00     0.106 C 
BRANCH   5   6
ATOM      6  C   UNL     1      -2.078  -0.669   0.132  1.00  0.00     0.118 C 
BRANCH   6   7
ATOM      7  N   UNL     1      -3.501  -1.043   0.129  1.00  0.00    -0.346 N 
ATOM      8  C   UNL     1      -4.179  -1.280   1.308  1.00  0.00     0.253 C 
ATOM      9  O   UNL     1      -3.635  -1.343   2.402  1.00  0.00    -0.269 OA
ATOM     10  H   UNL     1      -4.046  -0.668  -0.640  1.00  0.00     0.164 HD
BRANCH   8  11
ATOM     11  C   UNL     1      -5.650  -1.429   1.175  1.00  0.00     0.063 A 
ATOM     12  C   UNL     1      -6.534  -0.888   2.119  1.00  0.00     0.050 A 
ATOM     13  N   UNL     1      -7.887  -1.018   2.001  1.00  0.00    -0.258 NA
ATOM     14  C   UNL     1      -8.361  -1.704   0.935  1.00  0.00     0.150 A 
ATOM     15  C   UNL     1      -6.175  -2.137   0.087  1.00  0.00     0.056 A 
ATOM     16  C   UNL     1      -7.548  -2.269  -0.028  1.00  0.00     0.142 A 
ATOM     17  C   UNL     1      -6.064  -0.120   3.321  1.00  0.00     0.067 C 
ATOM     18  F   UNL     1      -8.075  -2.942  -1.058  1.00  0.00    -0.205 F 
ENDBRANCH   8  11
ENDBRANCH   6   7
BRANCH   6  19
ATOM     19  C   UNL     1      -1.941   0.853   0.369  1.00  0.00     0.111 C 
BRANCH  19  20
ATOM     20  N   UNL     1      -2.409   1.682  -0.762  1.00  0.00    -0.298 NA
BRANCH  20  21
ATOM     21  C   UNL     1      -2.898   3.042  -0.426  1.00  0.00     0.056 C 
ATOM     22  C   UNL     1      -3.822   3.311   0.729  1.00  0.00     0.021 C 
ATOM     23  C   UNL     1      -2.407   3.824   0.758  1.00  0.00     0.021 C 
ENDBRANCH  20  21
BRANCH  20  24
ATOM     24  C   UNL     1      -1.359   1.746  -1.796  1.00  0.00     0.085 CG0
ATOM     25  G   UNL     1      -1.514   0.692  -2.887  1.00  0.00     0.000 G0
ENDBRANCH  20  24
ENDBRANCH  19  20
ENDBRANCH   6  19
ENDBRANCH   5   6
BRANCH   5  26
ATOM     26  C   UNL     1      -1.902  -0.721  -2.458  1.00  0.00     0.028 C 
BRANCH  26  27
ATOM     27  C   UNL     1      -1.514   0.692  -2.887  1.00  0.00     0.018 CG0
ATOM     28  G   UNL     1      -1.359   1.746  -1.796  1.00  0.00     0.000 G0
ENDBRANCH  26  27
ENDBRANCH   5  26
ENDBRANCH   1   5
BRANCH   2  29
ATOM     29  C   UNL     1       2.413  -1.664  -1.542  1.00  0.00     0.039 A 
ATOM     30  C   UNL     1       2.931  -0.375  -1.360  1.00  0.00     0.014 A 
ATOM     31  C   UNL     1       3.275  -2.765  -1.560  1.00  0.00     0.014 A 
ATOM     32  C   UNL     1       4.304  -0.193  -1.164  1.00  0.00     0.013 A 
ATOM     33  C   UNL     1       4.644  -2.585  -1.351  1.00  0.00     0.013 A 
ATOM     34  C   UNL     1       5.159  -1.302  -1.127  1.00  0.00     0.023 A 
BRANCH  34  35
ATOM     35  C   UNL     1       6.623  -1.162  -0.935  1.00  0.00     0.199 C 
ATOM     36  O   UNL     1       7.373  -1.900  -1.579  1.00  0.00    -0.288 OA
BRANCH  35  37
ATOM     37  C   UNL     1       7.246  -0.159  -0.039  1.00  0.00     0.104 A 
ATOM     38  C   UNL     1       8.550   0.288  -0.311  1.00  0.00     0.130 A 
ATOM     39  C   UNL     1       6.602   0.327   1.099  1.00  0.00     0.179 A 
ATOM     40  C   UNL     1       9.167   1.240   0.502  1.00  0.00     0.051 A 
ATOM     41  C   UNL     1       7.224   1.276   1.917  1.00  0.00     0.152 A 
ATOM     42  C   UNL     1       8.502   1.742   1.620  1.00  0.00     0.053 A 
ATOM     43  F   UNL     1       5.386  -0.123   1.446  1.00  0.00    -0.202 F 
BRANCH  38  44
ATOM     44  O   UNL     1       9.293  -0.172  -1.367  1.00  0.00    -0.507 OA
ATOM     45  H   UNL     1       8.836  -0.964  -1.735  1.00  0.00     0.293 HD
ENDBRANCH  38  44
BRANCH  41  46
ATOM     46  O   UNL     1       6.552   1.739   3.014  1.00  0.00    -0.505 OA
ATOM     47  H   UNL     1       7.148   2.288   3.550  1.00  0.00     0.293 HD
ENDBRANCH  41  46
ENDBRANCH  35  37
ENDBRANCH  34  35
ENDBRANCH   2  29
TORSDOF 9
