MODEL        9USER    Run = 9USERUSER    Estimated Free Energy of Binding    =  -6.60 kcal/mol  [=(1)+(2)+(3)-(4)]USERUSER    (1) Final Intermolecular Energy     = -11.07 kcal/molUSER        vdW + Hbond + desolv Energy     = -12.29 kcal/molUSER        Electrostatic Energy            =  -0.09 kcal/molUSER        Moving Ligand-Fixed Receptor    = -12.39 kcal/molUSER        Moving Ligand-Moving Receptor   =  +1.31 kcal/molUSER    (2) Final Total Internal Energy     =  -3.31 kcal/molUSER    (3) Torsional Free Energy           =  +4.47 kcal/molUSER    (4) Unbound System's Energy         =  -3.31 kcal/molUSERUSERREMARK SMILES Cc1ncc(F)cc1C(=O)N[C@@H]1CN(C2CC2)CCC[C@H]1NC(=O)c1ccc(C(=O)c2c(O)ccc(O)c2F)cc1REMARK SMILES IDX 22 1 23 2 24 3 21 5 12 6 11 7 9 8 10 9 8 11 2 12 3 13 4 14REMARK SMILES IDX 7 15 5 16 1 17 6 18 13 19 14 20 15 21 16 22 17 23 18 24REMARK SMILES IDX 20 26 19 27 25 29 26 30 41 31 27 32 40 33 28 34 29 35 30 36REMARK SMILES IDX 31 37 32 38 38 39 34 40 36 41 35 42 39 43 33 44 37 46REMARK H PARENT 22 4 11 10 33 45 37 47REMARK Flexibility Score:   88.900USER                              x       y       z     vdW  Elec       q    TypeUSER                           _______ _______ _______ _____ _____    ______ ____ROOTATOM      1  N   UNL     1      39.682  46.220  17.869 -0.22 +0.05    -0.347 N  ATOM      2  C   UNL     1      40.300  45.270  18.655 -0.34 -0.01    +0.251 C  ATOM      3  O   UNL     1      40.842  44.262  18.218 -0.27 -0.01    -0.269 OA ATOM      4  H   UNL     1      39.107  46.919  18.321 +0.07 -0.03    +0.164 HD ENDROOTBRANCH   1   5ATOM      5  C   UNL     1      39.619  46.087  16.412 -0.38 -0.02    +0.106 C  BRANCH   5   6ATOM      6  C   UNL     1      38.169  45.921  15.880 -0.35 -0.04    +0.118 C  BRANCH   6   7ATOM      7  N   UNL     1      37.477  44.807  16.547 -0.12 +0.11    -0.346 N  ATOM      8  C   UNL     1      36.801  44.997  17.735 -0.23 -0.08    +0.253 C  ATOM      9  O   UNL     1      36.847  46.034  18.384 +0.04 +0.08    -0.269 OA ATOM     10  H   UNL     1      37.114  44.090  15.928 +0.10 -0.05    +0.164 HD BRANCH   8  11ATOM     11  C   UNL     1      35.968  43.852  18.181 -0.28 -0.02    +0.063 A  ATOM     12  C   UNL     1      34.896  43.377  17.412 -0.31 -0.02    +0.050 A  ATOM     13  N   UNL     1      34.129  42.323  17.814 -0.22 +0.08    -0.258 NA ATOM     14  C   UNL     1      34.428  41.745  19.000 -0.03 -0.01    +0.150 A  ATOM     15  C   UNL     1      36.246  43.233  19.406 -0.33 -0.01    +0.056 A  ATOM     16  C   UNL     1      35.464  42.166  19.811 -0.32 -0.01    +0.142 A  ATOM     17  C   UNL     1      34.517  43.981  16.091 -0.36 -0.03    +0.067 C  ATOM     18  F   UNL     1      35.709  41.557  20.978 -0.17 -0.00    -0.205 F  ENDBRANCH   8  11ENDBRANCH   6   7BRANCH   6  19ATOM     19  C   UNL     1      38.027  45.778  14.346 -0.39 -0.04    +0.111 C  BRANCH  19  20ATOM     20  N   UNL     1      38.269  47.031  13.601 -0.29 +0.08    -0.298 NA BRANCH  20  21ATOM     21  C   UNL     1      37.356  47.310  12.465 -0.59 -0.01    +0.056 C  ATOM     22  C   UNL     1      36.505  46.248  11.826 -0.71 -0.01    +0.021 C  ATOM     23  C   UNL     1      35.862  47.365  12.604 -0.69 -0.01    +0.021 C  ENDBRANCH  20  21BRANCH  20  24ATOM     24  C   UNL     1      38.295  48.168  14.540 -0.54 -0.04    +0.085 CG0ATOM     25  G   UNL     1      39.661  48.400  15.177 +0.00 +0.00    +0.000 G0 ENDBRANCH  20  24ENDBRANCH  19  20ENDBRANCH   6  19ENDBRANCH   5   6BRANCH   5  26ATOM     26  C   UNL     1      40.431  47.183  15.701 -0.53 -0.00    +0.028 C  BRANCH  26  27ATOM     27  C   UNL     1      39.662  48.395  15.179 -0.61 -0.01    +0.018 CG0ATOM     28  G   UNL     1      38.300  48.148  14.540 +0.00 +0.00    +0.000 G0 ENDBRANCH  26  27ENDBRANCH   5  26ENDBRANCH   1   5BRANCH   2  29ATOM     29  C   UNL     1      40.245  45.509  20.121 -0.37 +0.00    +0.039 A  ATOM     30  C   UNL     1      41.316  46.091  20.811 -0.31 +0.00    +0.014 A  ATOM     31  C   UNL     1      39.102  45.106  20.819 -0.35 +0.00    +0.014 A  ATOM     32  C   UNL     1      41.229  46.299  22.192 -0.24 +0.00    +0.013 A  ATOM     33  C   UNL     1      39.009  45.326  22.195 -0.32 +0.00    +0.013 A  ATOM     34  C   UNL     1      40.061  45.946  22.881 -0.25 +0.00    +0.023 A  BRANCH  34  35ATOM     35  C   UNL     1      39.924  46.135  24.345 -0.14 +0.01    +0.199 C  ATOM     36  O   UNL     1      40.810  45.691  25.080 -0.04 -0.01    -0.288 OA BRANCH  35  37ATOM     37  C   UNL     1      38.798  46.859  24.983 -0.23 +0.01    +0.104 A  ATOM     38  C   UNL     1      38.061  46.226  25.997 -0.23 -0.00    +0.130 A  ATOM     39  C   UNL     1      38.410  48.137  24.579 -0.30 +0.02    +0.179 A  ATOM     40  C   UNL     1      37.002  46.879  26.630 -0.30 -0.01    +0.051 A  ATOM     41  C   UNL     1      37.344  48.788  25.209 -0.35 +0.01    +0.152 A  ATOM     42  C   UNL     1      36.642  48.168  26.239 -0.39 -0.00    +0.053 A  ATOM     43  F   UNL     1      39.032  48.756  23.564 -0.10 -0.03    -0.202 F  BRANCH  38  44ATOM     44  O   UNL     1      38.321  44.950  26.425 -0.02 +0.02    -0.507 OA ATOM     45  H   UNL     1      39.290  44.794  26.338 +0.11 -0.00    +0.293 HD ENDBRANCH  38  44BRANCH  41  46ATOM     46  O   UNL     1      37.005  50.046  24.794 -0.14 -0.01    -0.505 OA ATOM     47  H   UNL     1      36.669  50.006  23.884 -0.29 -0.05    +0.293 HD ENDBRANCH  41  46ENDBRANCH  35  37ENDBRANCH  34  35ENDBRANCH   2  29TORSDOF 9TERENDMDL