MODEL        10USER    Run = 10USERUSER    Estimated Free Energy of Binding    = -12.74 kcal/mol  [=(1)+(2)+(3)-(4)]USERUSER    (1) Final Intermolecular Energy     = -14.53 kcal/molUSER        vdW + Hbond + desolv Energy     = -14.23 kcal/molUSER        Electrostatic Energy            =  -0.31 kcal/molUSER        Moving Ligand-Fixed Receptor    = -14.53 kcal/molUSER        Moving Ligand-Moving Receptor   =  +0.00 kcal/molUSER    (2) Final Total Internal Energy     =  -2.00 kcal/molUSER    (3) Torsional Free Energy           =  +1.79 kcal/molUSER    (4) Unbound System's Energy         =  -2.00 kcal/molUSERUSERREMARK SMILES Cn1ccc2ccc3c4[nH]c5c(CCCN[C@H]6CC[C@H](O)CC6)cccc5c4c4c(c3c21)C(=O)NC4=OREMARK SMILES IDX 15 1 14 2 13 3 12 4 2 5 3 6 32 7 4 8 31 9 5 10 30 11 8 12REMARK SMILES IDX 6 13 29 14 33 15 7 16 9 17 28 18 36 19 35 20 10 21 27 22REMARK SMILES IDX 11 23 26 24 25 25 24 26 1 27 34 28 37 29 16 32 17 34 23 35REMARK SMILES IDX 18 36 22 37 19 38 20 39 21 40REMARK H PARENT 35 30 10 31 16 33 21 41USER                              x       y       z     vdW  Elec       q    TypeUSER                           _______ _______ _______ _____ _____    ______ ____ROOTATOM      1  C   UNL     1      35.773  42.353  20.837 -0.47 +0.00    +0.081 C  ENDROOTBRANCH   1   2ATOM      2  C   UNL     1      36.575  43.072  21.926 -0.43 +0.00    +0.020 C  BRANCH   2   3ATOM      3  C   UNL     1      37.828  42.302  22.357 -0.43 +0.00    +0.039 C  BRANCH   3   4ATOM      4  C   UNL     1      39.113  43.078  22.204 -0.18 -0.00    -0.024 A  ATOM      5  N   UNL     1      39.660  47.852  14.984 -0.23 +0.10    -0.350 N  ATOM      6  C   UNL     1      38.697  48.269  14.095 -0.41 -0.03    +0.086 A  ATOM      7  C   UNL     1      39.075  47.250  16.092 -0.42 -0.02    +0.057 A  ATOM      8  C   UNL     1      37.498  47.752  14.505 -0.49 -0.02    +0.028 A  ATOM      9  C   UNL     1      39.575  46.785  17.365 -0.44 -0.00    +0.022 A  ATOM     10  C   UNL     1      37.735  47.045  15.712 -0.42 -0.00    +0.000 A  ATOM     11  C   UNL     1      40.791  47.094  17.995 -0.46 -0.01    +0.063 A  ATOM     12  C   UNL     1      38.707  45.904  18.083 -0.39 -0.00    +0.009 A  ATOM     13  C   UNL     1      36.892  46.255  16.511 -0.37 -0.01    +0.011 A  ATOM     14  C   UNL     1      41.211  46.466  19.174 -0.41 +0.00    +0.063 A  ATOM     15  C   UNL     1      41.785  48.152  17.745 -0.26 -0.01    +0.259 C  ATOM     16  C   UNL     1      37.394  45.649  17.658 -0.35 -0.00    +0.012 A  ATOM     17  C   UNL     1      39.169  45.275  19.281 -0.37 -0.00    +0.055 A  ATOM     18  C   UNL     1      40.430  45.519  19.841 -0.40 +0.00    +0.022 A  ATOM     19  C   UNL     1      42.502  47.036  19.554 -0.37 +0.04    +0.259 C  ATOM     20  N   UNL     1      42.824  47.933  18.590 -0.34 -0.01    -0.288 N  ATOM     21  N   UNL     1      38.553  44.364  20.111 -0.14 +0.01    -0.354 N  ATOM     22  C   UNL     1      40.551  44.704  21.017 -0.32 +0.00    +0.008 A  ATOM     23  C   UNL     1      39.361  43.990  21.157 -0.21 +0.00    +0.050 A  ATOM     24  C   UNL     1      41.560  44.499  21.980 -0.26 +0.00    +0.011 A  ATOM     25  C   UNL     1      41.349  43.603  23.033 -0.25 +0.00    +0.001 A  ATOM     26  C   UNL     1      40.148  42.910  23.140 -0.26 +0.00    +0.006 A  ATOM     27  C   UNL     1      41.057  47.842  14.600 -0.24 -0.01    +0.149 C  ATOM     28  O   UNL     1      41.669  49.114  17.014 -0.95 -0.03    -0.269 OA ATOM     29  O   UNL     1      43.146  46.815  20.558 -0.32 -0.10    -0.269 OA ATOM     30  H   UNL     1      43.570  48.601  18.713 -0.42 -0.01    +0.173 HD ATOM     31  H   UNL     1      37.628  43.990  19.961 +0.11 -0.01    +0.167 HD ENDBRANCH   3   4ENDBRANCH   2   3ENDBRANCH   1   2BRANCH   1  32ATOM     32  N   UNL     1      35.850  43.123  19.594 -0.17 +0.03    -0.314 NA ATOM     33  H   UNL     1      36.233  44.049  19.780 +0.08 -0.01    +0.122 HD BRANCH  32  34ATOM     34  C   UNL     1      34.550  43.244  18.918 -0.40 -0.01    +0.053 C  ATOM     35  C   UNL     1      33.786  44.528  19.305 -0.44 -0.01    +0.021 C  ATOM     36  C   UNL     1      34.823  43.168  17.402 -0.41 -0.01    +0.021 C  ATOM     37  C   UNL     1      34.039  45.674  18.327 -0.52 -0.02    +0.033 C  ATOM     38  C   UNL     1      33.694  43.810  16.607 -0.36 -0.01    +0.033 C  ATOM     39  C   UNL     1      33.581  45.307  16.910 -0.31 -0.08    +0.114 C  BRANCH  39  40ATOM     40  O   UNL     1      32.217  45.685  16.731 -0.41 +0.21    -0.393 OA ATOM     41  H   UNL     1      32.206  46.610  16.429 -0.38 -0.29    +0.210 HD ENDBRANCH  39  40ENDBRANCH  32  34ENDBRANCH   1  32TORSDOF 6TERENDMDL