MODEL        10USER    Run = 10USERUSER    Estimated Free Energy of Binding    =  -7.41 kcal/mol  [=(1)+(2)+(3)-(4)]USERUSER    (1) Final Intermolecular Energy     = -11.58 kcal/molUSER        vdW + Hbond + desolv Energy     = -11.84 kcal/molUSER        Electrostatic Energy            =  +0.08 kcal/molUSER        Moving Ligand-Fixed Receptor    = -11.75 kcal/molUSER        Moving Ligand-Moving Receptor   =  +0.17 kcal/molUSER    (2) Final Total Internal Energy     =  -2.92 kcal/molUSER    (3) Torsional Free Energy           =  +4.18 kcal/molUSER    (4) Unbound System's Energy         =  -2.92 kcal/molUSERUSERREMARK SMILES COc1ccc(O)c(C(=O)c2ccc(C(=O)N[C@@H]3CCCNC[C@H]3NC(=O)c3ccncc3)cc2)c1FREMARK SMILES IDX 15 1 16 2 17 3 14 5 11 6 12 7 35 8 13 9 34 10 9 11 10 12REMARK SMILES IDX 8 13 3 14 4 15 36 16 5 17 6 18 37 19 2 20 1 21 7 22 18 24REMARK SMILES IDX 19 25 24 27 23 28 22 29 21 31 20 32 25 34 26 35 27 37 28 38REMARK SMILES IDX 29 39 33 40 30 41 32 42 31 43REMARK H PARENT 17 4 7 23 22 30 25 36REMARK Flexibility Score:   88.900USER                              x       y       z     vdW  Elec       q    TypeUSER                           _______ _______ _______ _____ _____    ______ ____ROOTATOM      1  C   UNL     1      36.384  45.083  16.778 -0.22 -0.11    +0.251 C  ATOM      2  O   UNL     1      35.933  44.373  15.886 -0.22 +0.11    -0.269 OA ATOM      3  N   UNL     1      36.747  46.401  16.587 -0.15 +0.22    -0.347 N  ATOM      4  H   UNL     1      37.296  46.850  17.307 +0.09 -0.09    +0.164 HD ENDROOTBRANCH   1   5ATOM      5  C   UNL     1      36.636  44.518  18.133 -0.31 -0.01    +0.039 A  ATOM      6  C   UNL     1      37.020  43.354  20.655 -0.39 -0.00    +0.023 A  ATOM      7  C   UNL     1      35.747  43.367  20.075 -0.43 -0.00    +0.013 A  ATOM      8  C   UNL     1      38.102  43.924  19.974 -0.28 -0.00    +0.013 A  ATOM      9  C   UNL     1      35.554  43.958  18.824 -0.35 -0.00    +0.014 A  ATOM     10  C   UNL     1      37.909  44.517  18.718 -0.35 -0.00    +0.014 A  BRANCH   6  11ATOM     11  C   UNL     1      37.189  42.646  21.943 -0.36 +0.01    +0.199 C  ATOM     12  O   UNL     1      37.404  41.433  21.914 -0.39 -0.02    -0.288 OA BRANCH  11  13ATOM     13  C   UNL     1      37.163  43.313  23.266 -0.30 +0.01    +0.104 A  ATOM     14  C   UNL     1      37.568  45.238  24.710 -0.20 +0.02    +0.155 A  ATOM     15  C   UNL     1      37.075  44.522  25.805 -0.31 -0.00    +0.053 A  ATOM     16  C   UNL     1      37.604  44.624  23.446 -0.20 +0.02    +0.179 A  ATOM     17  C   UNL     1      36.605  43.218  25.632 -0.35 -0.00    +0.051 A  ATOM     18  C   UNL     1      36.637  42.627  24.371 -0.29 +0.01    +0.130 A  ATOM     19  F   UNL     1      38.045  45.339  22.399 -0.12 -0.02    -0.202 F  BRANCH  14  20ATOM     20  O   UNL     1      38.040  46.523  24.753 -0.50 -0.07    -0.494 OA ATOM     21  C   UNL     1      39.438  46.709  24.554 -0.16 +0.02    +0.278 C  ENDBRANCH  14  20BRANCH  18  22ATOM     22  O   UNL     1      36.127  41.358  24.290 -0.13 +0.07    -0.507 OA ATOM     23  H   UNL     1      36.598  40.897  23.556 +0.17 -0.01    +0.293 HD ENDBRANCH  18  22ENDBRANCH  11  13ENDBRANCH   6  11ENDBRANCH   1   5BRANCH   3  24ATOM     24  C   UNL     1      36.805  46.978  15.238 -0.39 -0.08    +0.106 C  BRANCH  24  25ATOM     25  C   UNL     1      35.477  46.733  14.511 -0.36 -0.03    +0.028 CG0ATOM     26  G   UNL     1      35.456  47.100  13.018 +0.00 +0.00    +0.000 G0 ENDBRANCH  24  25BRANCH  24  27ATOM     27  C   UNL     1      38.051  46.444  14.475 -0.40 -0.04    +0.118 C  BRANCH  27  28ATOM     28  C   UNL     1      38.410  47.224  13.187 -0.23 -0.02    +0.108 C  BRANCH  28  29ATOM     29  N   UNL     1      37.734  46.821  11.950 -0.47 +0.06    -0.315 NA ATOM     30  H   UNL     1      37.738  47.592  11.286 -0.04 +0.00    +0.122 HD BRANCH  29  31ATOM     31  C   UNL     1      36.377  46.305  12.097 -0.66 -0.04    +0.081 C  BRANCH  31  32ATOM     32  C   UNL     1      35.457  47.101  13.018 -0.56 -0.01    +0.017 CG0ATOM     33  G   UNL     1      35.478  46.731  14.511 +0.00 +0.00    +0.000 G0 ENDBRANCH  31  32ENDBRANCH  29  31ENDBRANCH  28  29ENDBRANCH  27  28BRANCH  27  34ATOM     34  N   UNL     1      39.204  46.364  15.381 -0.18 +0.08    -0.346 N  ATOM     35  C   UNL     1      39.435  47.324  16.339 -0.35 -0.07    +0.251 C  ATOM     36  H   UNL     1      39.654  45.467  15.473 +0.12 -0.02    +0.164 HD ATOM     37  O   UNL     1      38.770  48.346  16.451 -0.24 +0.16    -0.269 OA BRANCH  35  38ATOM     38  C   UNL     1      40.544  47.055  17.287 -0.48 -0.01    +0.042 A  ATOM     39  C   UNL     1      41.459  48.077  17.542 -0.46 -0.00    +0.034 A  ATOM     40  C   UNL     1      40.708  45.812  17.899 -0.45 -0.00    +0.034 A  ATOM     41  C   UNL     1      42.491  47.819  18.422 -0.36 +0.00    +0.112 A  ATOM     42  C   UNL     1      41.776  45.654  18.764 -0.29 +0.01    +0.112 A  ATOM     43  N   UNL     1      42.667  46.632  19.042 -0.30 -0.05    -0.265 NA ENDBRANCH  35  38ENDBRANCH  27  34ENDBRANCH  24  27ENDBRANCH   3  24TORSDOF 8TERENDMDL