MODEL        3USER    Run = 3USERUSER    Estimated Free Energy of Binding    = -13.45 kcal/mol  [=(1)+(2)+(3)-(4)]USERUSER    (1) Final Intermolecular Energy     = -15.24 kcal/molUSER        vdW + Hbond + desolv Energy     = -15.10 kcal/molUSER        Electrostatic Energy            =  -0.14 kcal/molUSER        Moving Ligand-Fixed Receptor    = -15.24 kcal/molUSER        Moving Ligand-Moving Receptor   =  +0.00 kcal/molUSER    (2) Final Total Internal Energy     =  -2.72 kcal/molUSER    (3) Torsional Free Energy           =  +1.79 kcal/molUSER    (4) Unbound System's Energy         =  -2.72 kcal/molUSERUSERREMARK SMILES Oc1nc2ccccc2n1C1CCN(Cc2ccc(-c3nc4ccccc4nc3-c3ccccc3)cc2)CC1REMARK SMILES IDX 11 1 12 2 13 3 14 4 38 5 39 6 10 7 2 8 3 9 4 10 9 11 5 12REMARK SMILES IDX 8 13 6 14 7 15 1 16 15 18 16 19 17 20 37 21 18 22 36 23REMARK SMILES IDX 19 24 20 25 21 26 29 27 22 28 28 29 23 30 27 31 24 32 26 33REMARK SMILES IDX 25 34 30 35 31 36 35 37 32 38 34 39 33 40REMARK H PARENT 1 17USER                              x       y       z     vdW  Elec       q    TypeUSER                           _______ _______ _______ _____ _____    ______ ____ROOTATOM      1  C   UNL     1      38.524  47.275  15.318 -0.45 -0.04    +0.095 C  ATOM      2  C   UNL     1      37.578  48.460  15.064 -0.56 -0.03    +0.041 C  ATOM      3  C   UNL     1      37.017  48.447  13.642 -0.55 -0.04    +0.087 C  ATOM      4  N   UNL     1      36.584  47.122  13.189 -0.36 +0.15    -0.299 NA ATOM      5  C   UNL     1      37.652  46.113  13.268 -0.43 -0.03    +0.087 C  ATOM      6  C   UNL     1      38.912  46.564  14.016 -0.37 -0.01    +0.041 C  ENDROOTBRANCH   1   7ATOM      7  N   UNL     1      39.674  47.641  16.129 -0.27 +0.08    -0.291 N  ATOM      8  C   UNL     1      40.490  48.722  15.943 -0.33 -0.07    +0.295 A  ATOM      9  N   UNL     1      41.443  48.812  16.828 -0.95 -0.00    -0.195 NA ATOM     10  C   UNL     1      41.240  47.734  17.656 -0.45 -0.01    +0.092 A  ATOM     11  C   UNL     1      40.136  46.980  17.250 -0.45 -0.01    +0.072 A  ATOM     12  C   UNL     1      41.965  47.338  18.790 -0.49 +0.00    +0.031 A  ATOM     13  C   UNL     1      39.714  45.834  17.938 -0.43 -0.00    +0.029 A  ATOM     14  C   UNL     1      41.560  46.195  19.489 -0.45 +0.00    +0.002 A  ATOM     15  C   UNL     1      40.452  45.458  19.068 -0.45 -0.00    +0.002 A  BRANCH   8  16ATOM     16  O   UNL     1      40.350  49.611  14.981 -0.21 +0.21    -0.480 OA ATOM     17  H   UNL     1      39.638  50.172  15.340 -0.20 -0.23    +0.296 HD ENDBRANCH   8  16ENDBRANCH   1   7BRANCH   4  18ATOM     18  C   UNL     1      35.342  46.646  13.824 -0.43 -0.09    +0.120 C  BRANCH  18  19ATOM     19  C   UNL     1      35.559  45.959  15.154 -0.35 +0.03    -0.034 A  ATOM     20  C   UNL     1      35.501  46.682  16.351 -0.18 -0.01    +0.006 A  ATOM     21  C   UNL     1      35.836  44.587  15.208 -0.33 -0.00    +0.006 A  ATOM     22  C   UNL     1      35.699  46.039  17.577 -0.35 -0.01    +0.011 A  ATOM     23  C   UNL     1      36.032  43.947  16.435 -0.36 -0.00    +0.011 A  ATOM     24  C   UNL     1      35.950  44.659  17.643 -0.32 -0.00    +0.002 A  BRANCH  24  25ATOM     25  C   UNL     1      36.136  43.997  18.946 -0.29 -0.02    +0.097 A  ATOM     26  N   UNL     1      37.309  44.320  19.563 -0.21 +0.02    -0.244 NA ATOM     27  C   UNL     1      35.231  43.096  19.529 -0.35 -0.01    +0.097 A  ATOM     28  C   UNL     1      37.581  43.715  20.733 -0.31 -0.00    +0.089 A  ATOM     29  N   UNL     1      35.521  42.479  20.711 -0.31 -0.01    -0.244 NA ATOM     30  C   UNL     1      38.770  44.004  21.393 -0.29 +0.00    +0.030 A  ATOM     31  C   UNL     1      36.684  42.789  21.308 -0.39 +0.00    +0.089 A  ATOM     32  C   UNL     1      39.093  43.397  22.607 -0.28 +0.00    +0.002 A  ATOM     33  C   UNL     1      37.015  42.189  22.517 -0.47 +0.00    +0.030 A  ATOM     34  C   UNL     1      38.211  42.485  23.172 -0.33 +0.00    +0.002 A  BRANCH  27  35ATOM     35  C   UNL     1      33.912  42.738  18.978 -0.39 -0.00    +0.002 A  ATOM     36  C   UNL     1      33.728  41.509  18.318 -0.33 -0.00    +0.010 A  ATOM     37  C   UNL     1      32.793  43.580  19.113 -0.41 -0.00    +0.010 A  ATOM     38  C   UNL     1      32.485  41.147  17.790 -0.38 -0.00    +0.001 A  ATOM     39  C   UNL     1      31.550  43.222  18.583 -0.30 -0.00    +0.001 A  ATOM     40  C   UNL     1      31.397  42.007  17.920 -0.30 -0.00    +0.000 A  ENDBRANCH  27  35ENDBRANCH  24  25ENDBRANCH  18  19ENDBRANCH   4  18TORSDOF 6TERENDMDL