MODEL        2USER    Run = 2USERUSER    Estimated Free Energy of Binding    =  -5.70 kcal/mol  [=(1)+(2)+(3)-(4)]USERUSER    (1) Final Intermolecular Energy     = -10.17 kcal/molUSER        vdW + Hbond + desolv Energy     = -10.26 kcal/molUSER        Electrostatic Energy            =  -0.37 kcal/molUSER        Moving Ligand-Fixed Receptor    = -10.63 kcal/molUSER        Moving Ligand-Moving Receptor   =  +0.46 kcal/molUSER    (2) Final Total Internal Energy     =  -2.94 kcal/molUSER    (3) Torsional Free Energy           =  +4.47 kcal/molUSER    (4) Unbound System's Energy         =  -2.94 kcal/molUSERUSERREMARK SMILES COc1ccc(O)c(C(=O)c2ccc(CN[C@@H]3CCCNC[C@H]3NC(=O)c3ccncc3)cc2)c1FREMARK SMILES IDX 16 1 15 3 14 4 11 5 12 6 34 7 13 8 33 9 9 10 10 11 8 12 3 13REMARK SMILES IDX 4 14 35 15 5 16 6 17 36 18 2 19 1 20 7 21 17 23 18 24 23 26REMARK SMILES IDX 22 27 21 28 20 30 19 31 24 33 25 34 26 36 27 37 28 38 32 39REMARK SMILES IDX 29 40 31 41 30 42REMARK H PARENT 16 2 7 22 21 29 24 35REMARK Flexibility Score:   99.900USER                              x       y       z     vdW  Elec       q    TypeUSER                           _______ _______ _______ _____ _____    ______ ____ROOTATOM      1  N   UNL     1      37.167  45.324  27.050 -0.18 +0.05    -0.308 NA ATOM      2  H   UNL     1      38.150  45.373  27.326 +0.05 -0.01    +0.123 HD ENDROOTBRANCH   1   3ATOM      3  C   UNL     1      36.955  46.221  25.912 -0.26 -0.01    +0.117 C  BRANCH   3   4ATOM      4  C   UNL     1      38.224  46.856  25.397 -0.29 -0.00    -0.034 A  ATOM      5  C   UNL     1      40.577  48.057  24.431 -0.30 +0.00    +0.023 A  ATOM      6  C   UNL     1      39.328  48.551  24.040 -0.30 +0.00    +0.012 A  ATOM      7  C   UNL     1      40.648  46.948  25.282 -0.16 +0.00    +0.012 A  ATOM      8  C   UNL     1      38.161  47.957  24.529 -0.37 +0.00    +0.006 A  ATOM      9  C   UNL     1      39.480  46.356  25.766 -0.18 +0.00    +0.006 A  BRANCH   5  10ATOM     10  C   UNL     1      41.842  48.626  23.909 -0.32 +0.04    +0.199 C  ATOM     11  O   UNL     1      41.814  49.709  23.322 -0.64 -0.11    -0.288 OA BRANCH  10  12ATOM     12  C   UNL     1      43.162  47.989  24.108 -0.23 +0.02    +0.104 A  ATOM     13  C   UNL     1      45.002  46.589  23.333 -0.12 +0.06    +0.155 A  ATOM     14  C   UNL     1      45.664  46.794  24.545 -0.07 +0.01    +0.053 A  ATOM     15  C   UNL     1      43.755  47.197  23.124 -0.18 +0.05    +0.179 A  ATOM     16  C   UNL     1      45.096  47.614  25.524 -0.07 +0.01    +0.051 A  ATOM     17  C   UNL     1      43.862  48.218  25.298 -0.16 +0.02    +0.130 A  ATOM     18  F   UNL     1      43.146  47.024  21.939 -0.09 -0.05    -0.202 F  BRANCH  13  19ATOM     19  O   UNL     1      45.469  45.828  22.295 -0.38 -0.53    -0.494 OA ATOM     20  C   UNL     1      45.473  44.417  22.472 -0.12 +0.18    +0.278 C  ENDBRANCH  13  19BRANCH  17  21ATOM     21  O   UNL     1      43.393  49.035  26.293 -0.08 -0.02    -0.507 OA ATOM     22  H   UNL     1      43.228  49.923  25.899 -0.42 -0.01    +0.293 HD ENDBRANCH  17  21ENDBRANCH  10  12ENDBRANCH   5  10ENDBRANCH   3   4ENDBRANCH   1   3BRANCH   1  23ATOM     23  C   UNL     1      36.832  43.902  26.762 -0.37 -0.01    +0.077 C  BRANCH  23  24ATOM     24  C   UNL     1      35.666  43.516  27.681 -0.57 -0.01    +0.022 CG0ATOM     25  G   UNL     1      34.846  42.310  27.223 +0.00 +0.00    +0.000 G0 ENDBRANCH  23  24BRANCH  23  26ATOM     26  C   UNL     1      38.099  43.010  26.955 -0.27 -0.01    +0.113 C  BRANCH  26  27ATOM     27  C   UNL     1      37.747  41.502  26.949 -0.42 -0.02    +0.107 C  BRANCH  27  28ATOM     28  N   UNL     1      36.855  40.984  27.981 -0.31 +0.10    -0.315 NA ATOM     29  H   UNL     1      37.014  41.502  28.849 -0.50 -0.07    +0.122 HD BRANCH  28  30ATOM     30  C   UNL     1      35.427  40.986  27.701 -0.65 -0.04    +0.081 C  BRANCH  30  31ATOM     31  C   UNL     1      34.847  42.315  27.224 -0.64 -0.00    +0.017 CG0ATOM     32  G   UNL     1      35.667  43.520  27.681 +0.00 +0.00    +0.000 G0 ENDBRANCH  30  31ENDBRANCH  28  30ENDBRANCH  27  28ENDBRANCH  26  27BRANCH  26  33ATOM     33  N   UNL     1      39.071  43.294  25.881 -0.05 +0.01    -0.346 N  ATOM     34  C   UNL     1      38.713  43.235  24.552 -0.15 +0.01    +0.251 C  ATOM     35  H   UNL     1      39.986  43.622  26.155 +0.06 -0.00    +0.164 HD ATOM     36  O   UNL     1      37.614  42.855  24.168 -0.23 -0.01    -0.269 OA BRANCH  34  37ATOM     37  C   UNL     1      39.749  43.629  23.562 -0.20 +0.00    +0.042 A  ATOM     38  C   UNL     1      39.449  44.666  22.677 -0.24 +0.00    +0.034 A  ATOM     39  C   UNL     1      41.004  43.022  23.515 -0.23 +0.00    +0.034 A  ATOM     40  C   UNL     1      40.411  45.035  21.757 -0.22 +0.01    +0.112 A  ATOM     41  C   UNL     1      41.899  43.467  22.557 -0.25 +0.00    +0.112 A  ATOM     42  N   UNL     1      41.627  44.450  21.674 -0.15 -0.03    -0.265 NA ENDBRANCH  34  37ENDBRANCH  26  33ENDBRANCH  23  26ENDBRANCH   1  23TORSDOF 9TERENDMDL