MODEL        8USER    Run = 8USERUSER    Estimated Free Energy of Binding    =  -7.04 kcal/mol  [=(1)+(2)+(3)-(4)]USERUSER    (1) Final Intermolecular Energy     = -11.52 kcal/molUSER        vdW + Hbond + desolv Energy     = -11.74 kcal/molUSER        Electrostatic Energy            =  -0.31 kcal/molUSER        Moving Ligand-Fixed Receptor    = -12.05 kcal/molUSER        Moving Ligand-Moving Receptor   =  +0.53 kcal/molUSER    (2) Final Total Internal Energy     =  -2.23 kcal/molUSER    (3) Torsional Free Energy           =  +4.47 kcal/molUSER    (4) Unbound System's Energy         =  -2.23 kcal/molUSERUSERREMARK SMILES COc1ccc(O)c(C(=O)c2ccc(/C=C/[C@@H]3CCCNC[C@H]3NC(=O)c3ccncc3)cc2)c1FREMARK SMILES IDX 16 1 15 2 14 3 11 4 12 5 34 6 13 7 33 8 9 9 10 10 8 11 3 12REMARK SMILES IDX 4 13 35 14 5 15 6 16 36 17 2 18 1 19 7 20 17 22 18 23 23 25REMARK SMILES IDX 22 26 21 27 20 29 19 30 24 32 25 33 26 35 27 36 28 37 32 38REMARK SMILES IDX 29 39 31 40 30 41REMARK H PARENT 7 21 21 28 24 34REMARK Flexibility Score:   99.900USER                              x       y       z     vdW  Elec       q    TypeUSER                           _______ _______ _______ _____ _____    ______ ____ROOTATOM      1  C   UNL     1      36.977  43.528  19.820 -0.40 +0.00    -0.021 C  ENDROOTBRANCH   1   2ATOM      2  C   UNL     1      37.246  43.727  21.119 -0.46 +0.00    +0.004 C  BRANCH   2   3ATOM      3  C   UNL     1      38.454  44.410  21.600 -0.34 -0.00    -0.026 A  ATOM      4  C   UNL     1      40.793  45.712  22.443 -0.23 +0.00    +0.023 A  ATOM      5  C   UNL     1      40.860  44.735  21.445 -0.29 +0.00    +0.013 A  ATOM      6  C   UNL     1      39.559  46.068  22.993 -0.28 +0.00    +0.013 A  ATOM      7  C   UNL     1      39.690  44.092  21.024 -0.24 +0.00    +0.009 A  ATOM      8  C   UNL     1      38.397  45.413  22.578 -0.33 +0.00    +0.009 A  BRANCH   4   9ATOM      9  C   UNL     1      42.002  46.435  22.891 -0.16 +0.03    +0.199 C  ATOM     10  O   UNL     1      43.058  46.265  22.278 -0.15 -0.08    -0.288 OA BRANCH   9  11ATOM     11  C   UNL     1      42.017  47.320  24.078 -0.17 +0.01    +0.104 A  ATOM     12  C   UNL     1      41.403  47.804  26.388 -0.13 +0.01    +0.155 A  ATOM     13  C   UNL     1      42.070  49.028  26.304 -0.20 +0.00    +0.053 A  ATOM     14  C   UNL     1      41.381  46.960  25.268 -0.08 +0.01    +0.179 A  ATOM     15  C   UNL     1      42.684  49.410  25.108 -0.27 +0.01    +0.051 A  ATOM     16  C   UNL     1      42.645  48.568  24.002 -0.31 +0.03    +0.130 A  ATOM     17  F   UNL     1      40.704  45.803  25.349 +0.00 -0.01    -0.202 F  BRANCH  12  18ATOM     18  O   UNL     1      40.750  47.332  27.495 -0.53 -0.06    -0.494 OA ATOM     19  C   UNL     1      39.330  47.299  27.449 +0.01 -0.00    +0.278 C  ENDBRANCH  12  18BRANCH  16  20ATOM     20  O   UNL     1      43.246  49.033  22.863 -0.60 -0.19    -0.507 OA ATOM     21  H   UNL     1      43.527  48.253  22.331 -0.07 +0.05    +0.293 HD ENDBRANCH  16  20ENDBRANCH   9  11ENDBRANCH   4   9ENDBRANCH   2   3ENDBRANCH   1   2BRANCH   1  22ATOM     22  C   UNL     1      36.013  44.349  18.966 -0.40 -0.01    +0.035 C  BRANCH  22  23ATOM     23  C   UNL     1      34.639  43.655  19.051 -0.43 -0.00    +0.011 CG0ATOM     24  G   UNL     1      33.388  44.526  19.071 +0.00 +0.00    +0.000 G0 ENDBRANCH  22  23BRANCH  22  25ATOM     25  C   UNL     1      36.475  44.676  17.512 -0.31 -0.03    +0.103 C  BRANCH  25  26ATOM     26  C   UNL     1      35.300  45.242  16.663 -0.31 -0.06    +0.106 C  BRANCH  26  27ATOM     27  N   UNL     1      34.287  46.044  17.339 -0.17 +0.30    -0.315 NA ATOM     28  H   UNL     1      34.008  46.817  16.732 -0.32 -0.28    +0.122 HD BRANCH  27  29ATOM     29  C   UNL     1      33.117  45.309  17.795 -0.33 -0.04    +0.081 C  BRANCH  29  30ATOM     30  C   UNL     1      33.390  44.523  19.069 -0.49 -0.00    +0.016 CG0ATOM     31  G   UNL     1      34.641  43.651  19.048 +0.00 +0.00    +0.000 G0 ENDBRANCH  29  30ENDBRANCH  27  29ENDBRANCH  26  27ENDBRANCH  25  26BRANCH  25  32ATOM     32  N   UNL     1      37.568  45.659  17.508 -0.15 +0.11    -0.347 N  ATOM     33  C   UNL     1      38.412  45.802  16.429 -0.27 -0.07    +0.251 C  ATOM     34  H   UNL     1      37.571  46.361  18.236 +0.08 -0.05    +0.164 HD ATOM     35  O   UNL     1      38.327  45.133  15.408 -0.21 +0.07    -0.269 OA BRANCH  33  36ATOM     36  C   UNL     1      39.447  46.859  16.546 -0.43 -0.01    +0.042 A  ATOM     37  C   UNL     1      39.478  47.954  15.681 -0.50 -0.01    +0.034 A  ATOM     38  C   UNL     1      40.385  46.760  17.572 -0.48 -0.00    +0.034 A  ATOM     39  C   UNL     1      40.474  48.894  15.870 -0.50 -0.03    +0.112 A  ATOM     40  C   UNL     1      41.341  47.752  17.673 -0.43 -0.01    +0.112 A  ATOM     41  N   UNL     1      41.412  48.811  16.838 -0.88 -0.00    -0.265 NA ENDBRANCH  33  36ENDBRANCH  25  32ENDBRANCH  22  25ENDBRANCH   1  22TORSDOF 9TERENDMDL