MODEL        10USER    Run = 10USERUSER    Estimated Free Energy of Binding    =  -8.15 kcal/mol  [=(1)+(2)+(3)-(4)]USERUSER    (1) Final Intermolecular Energy     = -12.62 kcal/molUSER        vdW + Hbond + desolv Energy     = -12.96 kcal/molUSER        Electrostatic Energy            =  -0.26 kcal/molUSER        Moving Ligand-Fixed Receptor    = -13.22 kcal/molUSER        Moving Ligand-Moving Receptor   =  +0.60 kcal/molUSER    (2) Final Total Internal Energy     =  -3.38 kcal/molUSER    (3) Torsional Free Energy           =  +4.47 kcal/molUSER    (4) Unbound System's Energy         =  -3.38 kcal/molUSERUSERREMARK SMILES COc1ccc(O)c(C(=O)c2ccc(C(=O)O[C@@H]3CCCNC[C@H]3NC(=O)c3ccncc3)cc2)c1FREMARK SMILES IDX 17 1 15 2 16 3 14 4 11 5 12 6 35 7 13 8 34 9 9 10 10 11 8 12REMARK SMILES IDX 3 13 4 14 36 15 5 16 6 17 37 18 2 19 1 20 7 21 18 23 24 25REMARK SMILES IDX 23 26 22 27 21 29 20 30 19 31 25 33 26 34 27 36 28 37 29 38REMARK SMILES IDX 33 39 30 40 32 41 31 42REMARK H PARENT 7 22 22 28 25 35REMARK Flexibility Score:   99.900USER                              x       y       z     vdW  Elec       q    TypeUSER                           _______ _______ _______ _____ _____    ______ ____ROOTATOM      1  O   UNL     1      37.573  44.983  16.279 -0.09 +0.15    -0.457 OA ENDROOTBRANCH   1   2ATOM      2  C   UNL     1      37.084  44.872  17.541 -0.18 -0.10    +0.338 C  ATOM      3  O   UNL     1      37.687  45.089  18.582 -0.27 +0.04    -0.246 OA BRANCH   2   4ATOM      4  C   UNL     1      35.654  44.482  17.489 -0.27 -0.02    +0.060 A  ATOM      5  C   UNL     1      32.968  43.672  17.362 -0.29 -0.01    +0.023 A  ATOM      6  C   UNL     1      33.288  45.020  17.574 -0.34 -0.01    +0.013 A  ATOM      7  C   UNL     1      33.999  42.734  17.209 -0.37 -0.00    +0.013 A  ATOM      8  C   UNL     1      34.626  45.423  17.637 -0.37 -0.01    +0.016 A  ATOM      9  C   UNL     1      35.336  43.137  17.262 -0.37 -0.01    +0.016 A  BRANCH   5  10ATOM     10  C   UNL     1      31.562  43.186  17.314 -0.22 -0.05    +0.199 C  ATOM     11  O   UNL     1      30.647  43.935  16.987 -0.21 +0.06    -0.288 OA BRANCH  10  12ATOM     12  C   UNL     1      31.238  41.798  17.661 -0.24 -0.02    +0.104 A  ATOM     13  C   UNL     1      31.527  39.919  19.168 -0.29 +0.01    +0.155 A  ATOM     14  C   UNL     1      30.704  39.147  18.338 -0.37 +0.01    +0.053 A  ATOM     15  C   UNL     1      31.794  41.247  18.813 -0.22 -0.01    +0.179 A  ATOM     16  C   UNL     1      30.133  39.706  17.188 -0.26 +0.00    +0.051 A  ATOM     17  C   UNL     1      30.394  41.033  16.856 -0.27 -0.03    +0.130 A  ATOM     18  F   UNL     1      32.555  42.007  19.618 -0.09 -0.02    -0.202 F  BRANCH  13  19ATOM     19  O   UNL     1      32.096  39.495  20.339 -0.95 -0.21    -0.494 OA ATOM     20  C   UNL     1      31.482  38.399  21.005 -0.34 +0.05    +0.278 C  ENDBRANCH  13  19BRANCH  17  21ATOM     21  O   UNL     1      29.823  41.591  15.748 -0.14 +0.21    -0.507 OA ATOM     22  H   UNL     1      29.854  42.559  15.808 +0.18 -0.15    +0.293 HD ENDBRANCH  17  21ENDBRANCH  10  12ENDBRANCH   5  10ENDBRANCH   2   4ENDBRANCH   1   2BRANCH   1  23ATOM     23  C   UNL     1      37.445  46.283  15.645 -0.30 -0.10    +0.200 CG0ATOM     24  G   UNL     1      36.686  46.072  14.336 +0.00 +0.00    +0.000 G0 BRANCH  23  25ATOM     25  C   UNL     1      38.871  46.844  15.470 -0.41 -0.04    +0.137 C  BRANCH  25  26ATOM     26  C   UNL     1      38.931  48.342  15.108 -0.51 -0.05    +0.109 C  BRANCH  26  27ATOM     27  N   UNL     1      37.625  48.954  14.857 -0.28 +0.25    -0.315 NA ATOM     28  H   UNL     1      37.742  49.968  14.861 -0.51 -0.13    +0.122 HD BRANCH  27  29ATOM     29  C   UNL     1      36.963  48.566  13.607 -0.53 -0.04    +0.081 C  BRANCH  29  30ATOM     30  C   UNL     1      36.969  47.083  13.216 -0.64 -0.01    +0.019 C  BRANCH  30  31ATOM     31  C   UNL     1      36.683  46.077  14.339 -0.45 -0.02    +0.049 CG0ATOM     32  G   UNL     1      37.450  46.282  15.645 +0.00 +0.00    +0.000 G0 ENDBRANCH  30  31ENDBRANCH  29  30ENDBRANCH  27  29ENDBRANCH  26  27ENDBRANCH  25  26BRANCH  25  33ATOM     33  N   UNL     1      39.643  46.589  16.694 -0.20 +0.07    -0.344 N  ATOM     34  C   UNL     1      40.750  47.327  17.031 -0.38 -0.04    +0.251 C  ATOM     35  H   UNL     1      39.161  46.072  17.417 +0.10 -0.03    +0.164 HD ATOM     36  O   UNL     1      41.217  48.218  16.333 -0.60 +0.02    -0.269 OA BRANCH  34  37ATOM     37  C   UNL     1      41.375  46.997  18.333 -0.51 -0.00    +0.042 A  ATOM     38  C   UNL     1      42.564  47.634  18.684 -0.51 +0.00    +0.034 A  ATOM     39  C   UNL     1      40.819  46.042  19.183 -0.43 +0.00    +0.034 A  ATOM     40  C   UNL     1      43.139  47.304  19.897 -0.34 +0.03    +0.112 A  ATOM     41  C   UNL     1      41.477  45.779  20.370 -0.31 +0.01    +0.112 A  ATOM     42  N   UNL     1      42.620  46.394  20.748 -0.22 -0.07    -0.265 NA ENDBRANCH  34  37ENDBRANCH  25  33ENDBRANCH  23  25ENDBRANCH   1  23TORSDOF 9TERENDMDL