MODEL        6USER    Run = 6USERUSER    Estimated Free Energy of Binding    =  -6.31 kcal/mol  [=(1)+(2)+(3)-(4)]USERUSER    (1) Final Intermolecular Energy     = -10.78 kcal/molUSER        vdW + Hbond + desolv Energy     = -11.67 kcal/molUSER        Electrostatic Energy            =  -0.18 kcal/molUSER        Moving Ligand-Fixed Receptor    = -11.85 kcal/molUSER        Moving Ligand-Moving Receptor   =  +1.07 kcal/molUSER    (2) Final Total Internal Energy     =  -2.50 kcal/molUSER    (3) Torsional Free Energy           =  +4.47 kcal/molUSER    (4) Unbound System's Energy         =  -2.50 kcal/molUSERUSERREMARK SMILES COc1ccc(O)c(C(=O)c2ccc(NC[C@@H]3CCCNC[C@@H]3NC(=O)c3ccncc3)cc2)c1FREMARK SMILES IDX 16 1 15 2 14 4 11 5 12 6 34 7 13 8 33 9 9 10 10 11 8 12 3 13REMARK SMILES IDX 4 14 35 15 5 16 6 17 36 18 2 19 1 20 7 21 17 23 18 24 23 26REMARK SMILES IDX 22 27 21 28 20 30 19 31 24 33 25 34 26 36 27 37 28 38 32 39REMARK SMILES IDX 29 40 31 41 30 42REMARK H PARENT 15 3 7 22 21 29 24 35REMARK Flexibility Score:   99.900USER                              x       y       z     vdW  Elec       q    TypeUSER                           _______ _______ _______ _____ _____    ______ ____ROOTATOM      1  C   UNL     1      37.768  44.058  23.933 -0.29 +0.01    +0.118 C  ENDROOTBRANCH   1   2ATOM      2  N   UNL     1      39.197  44.297  23.711 -0.03 -0.02    -0.385 N  ATOM      3  H   UNL     1      39.662  44.718  24.509 +0.07 +0.01    +0.160 HD BRANCH   2   4ATOM      4  C   UNL     1      39.706  44.712  22.484 -0.24 +0.00    +0.034 A  ATOM      5  C   UNL     1      40.626  45.690  19.992 -0.38 +0.00    +0.023 A  ATOM      6  C   UNL     1      41.532  45.244  20.955 -0.32 +0.00    +0.014 A  ATOM      7  C   UNL     1      39.263  45.702  20.289 -0.28 +0.00    +0.014 A  ATOM      8  C   UNL     1      41.074  44.769  22.190 -0.23 +0.00    +0.026 A  ATOM      9  C   UNL     1      38.817  45.222  21.527 -0.33 +0.00    +0.026 A  BRANCH   5  10ATOM     10  C   UNL     1      41.156  46.217  18.712 -0.41 +0.00    +0.199 C  ATOM     11  O   UNL     1      42.376  46.318  18.565 -0.33 -0.03    -0.288 OA BRANCH  10  12ATOM     12  C   UNL     1      40.292  46.685  17.606 -0.42 -0.01    +0.104 A  ATOM     13  C   UNL     1      38.344  46.442  16.158 -0.29 -0.06    +0.155 A  ATOM     14  C   UNL     1      38.682  47.631  15.509 -0.44 -0.02    +0.053 A  ATOM     15  C   UNL     1      39.161  45.975  17.200 -0.30 -0.04    +0.179 A  ATOM     16  C   UNL     1      39.830  48.332  15.885 -0.50 -0.02    +0.051 A  ATOM     17  C   UNL     1      40.635  47.853  16.915 -0.43 -0.02    +0.130 A  ATOM     18  F   UNL     1      38.849  44.809  17.787 -0.09 +0.03    -0.202 F  BRANCH  13  19ATOM     19  O   UNL     1      37.257  45.661  15.867 -0.05 +0.21    -0.494 OA ATOM     20  C   UNL     1      36.318  46.174  14.929 -0.25 -0.18    +0.278 C  ENDBRANCH  13  19BRANCH  17  21ATOM     21  O   UNL     1      41.759  48.582  17.198 -0.63 -0.03    -0.507 OA ATOM     22  H   UNL     1      42.528  47.967  17.193 -0.32 -0.01    +0.293 HD ENDBRANCH  17  21ENDBRANCH  10  12ENDBRANCH   5  10ENDBRANCH   2   4ENDBRANCH   1   2BRANCH   1  23ATOM     23  C   UNL     1      37.514  43.188  25.190 -0.35 -0.00    +0.032 C  BRANCH  23  24ATOM     24  C   UNL     1      36.214  42.376  25.018 -0.36 -0.00    +0.009 CG0ATOM     25  G   UNL     1      35.724  41.521  26.187 +0.00 +0.00    +0.000 G0 ENDBRANCH  23  24BRANCH  23  26ATOM     26  C   UNL     1      37.590  44.056  26.468 -0.28 -0.01    +0.101 C  BRANCH  26  27ATOM     27  C   UNL     1      36.768  43.439  27.624 -0.38 -0.02    +0.106 C  BRANCH  27  28ATOM     28  N   UNL     1      37.215  42.112  28.068 -0.14 +0.10    -0.315 NA ATOM     29  H   UNL     1      38.237  42.122  28.078 +0.04 -0.02    +0.122 HD BRANCH  28  30ATOM     30  C   UNL     1      36.785  41.036  27.174 -0.49 -0.02    +0.081 C  BRANCH  30  31ATOM     31  C   UNL     1      35.727  41.509  26.184 -0.52 -0.00    +0.016 CG0ATOM     32  G   UNL     1      36.215  42.368  25.017 +0.00 +0.00    +0.000 G0 ENDBRANCH  30  31ENDBRANCH  28  30ENDBRANCH  27  28ENDBRANCH  26  27BRANCH  26  33ATOM     33  N   UNL     1      37.168  45.437  26.250 -0.15 +0.03    -0.348 N  ATOM     34  C   UNL     1      38.045  46.463  25.995 -0.22 +0.00    +0.251 C  ATOM     35  H   UNL     1      36.184  45.612  26.420 -0.46 -0.05    +0.164 HD ATOM     36  O   UNL     1      39.258  46.305  25.934 -0.10 -0.01    -0.269 OA BRANCH  34  37ATOM     37  C   UNL     1      37.459  47.818  25.812 -0.36 +0.00    +0.042 A  ATOM     38  C   UNL     1      36.529  48.262  26.753 -0.37 -0.00    +0.034 A  ATOM     39  C   UNL     1      37.826  48.658  24.761 -0.40 +0.00    +0.034 A  ATOM     40  C   UNL     1      35.986  49.523  26.589 -0.32 -0.00    +0.112 A  ATOM     41  C   UNL     1      37.225  49.902  24.687 -0.01 +0.00    +0.112 A  ATOM     42  N   UNL     1      36.312  50.350  25.573 -0.28 -0.00    -0.265 NA ENDBRANCH  34  37ENDBRANCH  26  33ENDBRANCH  23  26ENDBRANCH   1  23TORSDOF 9TERENDMDL