MODEL        1USER    Run = 1USERUSER    Estimated Free Energy of Binding    = -12.81 kcal/mol  [=(1)+(2)+(3)-(4)]USERUSER    (1) Final Intermolecular Energy     = -15.20 kcal/molUSER        vdW + Hbond + desolv Energy     = -15.07 kcal/molUSER        Electrostatic Energy            =  -0.13 kcal/molUSER        Moving Ligand-Fixed Receptor    = -15.20 kcal/molUSER        Moving Ligand-Moving Receptor   =  +0.00 kcal/molUSER    (2) Final Total Internal Energy     =  -2.63 kcal/molUSER    (3) Torsional Free Energy           =  +2.39 kcal/molUSER    (4) Unbound System's Energy         =  -2.63 kcal/molUSERUSERREMARK SMILES N#Cc1cnc(-c2ccc(CNCc3ccc(-c4csnn4)cc3)cc2)c(-c2ccccc2)c1REMARK SMILES IDX 11 1 10 2 7 3 8 4 26 5 9 6 25 7 6 8 3 9 4 10 34 11 5 12REMARK SMILES IDX 27 13 2 14 1 15 28 16 29 17 33 18 30 19 32 20 31 21 12 22REMARK SMILES IDX 13 24 14 25 15 26 24 27 16 28 23 29 17 30 18 31 19 32 22 33REMARK SMILES IDX 20 34 21 35REMARK H PARENT 12 23USER                              x       y       z     vdW  Elec       q    TypeUSER                           _______ _______ _______ _____ _____    ______ ____ROOTATOM      1  C   UNL     1      36.093  43.470  20.472 -0.41 -0.00    +0.117 C  ENDROOTBRANCH   1   2ATOM      2  C   UNL     1      35.252  43.967  19.320 -0.36 +0.01    -0.034 A  ATOM      3  C   UNL     1      33.695  44.881  17.128 -0.33 -0.00    +0.001 A  ATOM      4  C   UNL     1      34.248  45.781  18.056 -0.45 -0.01    +0.011 A  ATOM      5  C   UNL     1      33.926  43.511  17.333 -0.32 -0.00    +0.011 A  ATOM      6  C   UNL     1      35.021  45.334  19.134 -0.21 -0.00    +0.006 A  ATOM      7  C   UNL     1      34.700  43.060  18.407 -0.36 -0.00    +0.006 A  BRANCH   3   8ATOM      8  C   UNL     1      32.885  45.380  15.998 -0.24 -0.06    +0.078 A  ATOM      9  C   UNL     1      31.126  46.222  14.037 -0.52 -0.04    +0.071 A  ATOM     10  C   UNL     1      30.702  45.785  15.276 -0.37 -0.06    +0.131 A  ATOM     11  C   UNL     1      32.497  46.244  13.786 -0.10 -0.03    +0.032 A  ATOM     12  N   UNL     1      31.543  45.374  16.252 -0.69 +0.10    -0.254 NA ATOM     13  C   UNL     1      33.415  45.824  14.769 -0.14 -0.01    +0.009 A  BRANCH   9  14ATOM     14  C   UNL     1      30.182  46.646  13.053 -0.57 -0.05    +0.101 C  ATOM     15  N   UNL     1      29.416  46.991  12.253 -0.79 +0.09    -0.192 NA ENDBRANCH   9  14BRANCH  13  16ATOM     16  C   UNL     1      34.856  45.908  14.473 -0.34 +0.01    -0.016 A  ATOM     17  C   UNL     1      35.748  44.940  14.968 -0.34 -0.00    +0.009 A  ATOM     18  C   UNL     1      35.376  46.943  13.679 -0.42 -0.01    +0.009 A  ATOM     19  C   UNL     1      37.115  45.011  14.686 -0.38 -0.00    +0.001 A  ATOM     20  C   UNL     1      36.742  47.016  13.398 -0.56 -0.00    +0.001 A  ATOM     21  C   UNL     1      37.611  46.050  13.902 -0.44 -0.00    +0.000 A  ENDBRANCH  13  16ENDBRANCH   3   8ENDBRANCH   1   2BRANCH   1  22ATOM     22  N   UNL     1      37.222  44.370  20.707 -0.20 +0.00    -0.309 NA ATOM     23  H   UNL     1      37.406  44.395  21.709 +0.06 +0.01    +0.123 HD BRANCH  22  24ATOM     24  C   UNL     1      38.433  43.930  20.013 -0.19 -0.00    +0.117 C  BRANCH  24  25ATOM     25  C   UNL     1      38.997  44.968  19.072 -0.38 +0.00    -0.034 A  ATOM     26  C   UNL     1      40.331  45.383  19.178 -0.44 -0.00    +0.006 A  ATOM     27  C   UNL     1      38.189  45.550  18.088 -0.38 -0.00    +0.006 A  ATOM     28  C   UNL     1      40.848  46.352  18.310 -0.50 -0.00    +0.011 A  ATOM     29  C   UNL     1      38.705  46.519  17.222 -0.40 -0.00    +0.011 A  ATOM     30  C   UNL     1      40.043  46.929  17.316 -0.49 -0.00    +0.003 A  BRANCH  30  31ATOM     31  C   UNL     1      40.551  47.941  16.395 -0.47 -0.02    +0.105 A  ATOM     32  C   UNL     1      40.191  48.044  15.062 -0.45 -0.03    +0.118 A  ATOM     33  N   UNL     1      41.447  48.918  16.824 -1.01 -0.00    -0.138 NA ATOM     34  S   UNL     1      41.034  49.387  14.403 -0.83 +0.00    -0.020 S  ATOM     35  N   UNL     1      41.786  49.745  15.851 -1.04 -0.01    -0.091 NA ENDBRANCH  30  31ENDBRANCH  24  25ENDBRANCH  22  24ENDBRANCH   1  22TORSDOF 8TERENDMDL