MODEL        10USER    Run = 10USERUSER    Estimated Free Energy of Binding    =  -7.59 kcal/mol  [=(1)+(2)+(3)-(4)]USERUSER    (1) Final Intermolecular Energy     = -12.07 kcal/molUSER        vdW + Hbond + desolv Energy     = -12.13 kcal/molUSER        Electrostatic Energy            =  -0.51 kcal/molUSER        Moving Ligand-Fixed Receptor    = -12.64 kcal/molUSER        Moving Ligand-Moving Receptor   =  +0.57 kcal/molUSER    (2) Final Total Internal Energy     =  -2.54 kcal/molUSER    (3) Torsional Free Energy           =  +4.47 kcal/molUSER    (4) Unbound System's Energy         =  -2.54 kcal/molUSERUSERREMARK SMILES COc1ccc(O)c(C(=O)c2ccc(CO[C@@H]3CCCNC[C@@H]3NC(=O)c3ccncc3)cc2)c1FREMARK SMILES IDX 16 1 15 2 14 3 11 4 12 5 34 6 13 7 33 8 9 9 10 10 8 11 3 12REMARK SMILES IDX 4 13 35 14 5 15 6 16 36 17 2 18 1 19 7 20 17 22 18 23 23 25REMARK SMILES IDX 22 26 21 27 20 29 19 30 24 32 25 33 26 35 27 36 28 37 32 38REMARK SMILES IDX 29 39 31 40 30 41REMARK H PARENT 7 21 21 28 24 34REMARK Flexibility Score:   99.900USER                              x       y       z     vdW  Elec       q    TypeUSER                           _______ _______ _______ _____ _____    ______ ____ROOTATOM      1  O   UNL     1      37.686  46.414  16.716 -0.18 +0.16    -0.371 OA ENDROOTBRANCH   1   2ATOM      2  C   UNL     1      38.380  45.257  17.180 -0.29 -0.05    +0.196 C  BRANCH   2   3ATOM      3  C   UNL     1      39.588  45.712  17.958 -0.43 +0.00    -0.022 A  ATOM      4  C   UNL     1      41.822  46.558  19.436 -0.46 +0.00    +0.023 A  ATOM      5  C   UNL     1      41.179  45.361  19.764 -0.40 +0.00    +0.012 A  ATOM      6  C   UNL     1      41.369  47.314  18.350 -0.51 -0.00    +0.012 A  ATOM      7  C   UNL     1      40.065  44.947  19.032 -0.43 -0.00    +0.007 A  ATOM      8  C   UNL     1      40.255  46.897  17.619 -0.49 -0.00    +0.007 A  BRANCH   4   9ATOM      9  C   UNL     1      43.029  47.021  20.162 -0.36 +0.06    +0.199 C  ATOM     10  O   UNL     1      44.022  47.366  19.516 -0.38 -0.15    -0.288 OA BRANCH   9  11ATOM     11  C   UNL     1      43.133  47.035  21.637 -0.30 +0.03    +0.104 A  ATOM     12  C   UNL     1      42.129  46.910  23.856 -0.12 +0.02    +0.155 A  ATOM     13  C   UNL     1      43.393  47.054  24.433 -0.12 +0.01    +0.053 A  ATOM     14  C   UNL     1      42.011  46.910  22.458 -0.17 +0.03    +0.179 A  ATOM     15  C   UNL     1      44.519  47.214  23.621 -0.18 +0.01    +0.051 A  ATOM     16  C   UNL     1      44.386  47.219  22.234 -0.25 +0.06    +0.130 A  ATOM     17  F   UNL     1      40.787  46.807  21.915 +0.06 -0.02    -0.202 F  BRANCH  12  18ATOM     18  O   UNL     1      40.956  46.762  24.546 +0.00 -0.04    -0.494 OA ATOM     19  C   UNL     1      40.315  45.494  24.481 -0.07 +0.01    +0.278 C  ENDBRANCH  12  18BRANCH  16  20ATOM     20  O   UNL     1      45.534  47.413  21.514 -0.65 -0.63    -0.507 OA ATOM     21  H   UNL     1      45.389  48.183  20.917 -0.27 +0.17    +0.293 HD ENDBRANCH  16  20ENDBRANCH   9  11ENDBRANCH   4   9ENDBRANCH   2   3ENDBRANCH   1   2BRANCH   1  22ATOM     22  C   UNL     1      37.528  46.451  15.281 -0.35 -0.07    +0.142 C  BRANCH  22  23ATOM     23  C   UNL     1      37.010  47.866  14.985 -0.50 -0.03    +0.035 CG0ATOM     24  G   UNL     1      37.219  48.461  13.597 +0.00 +0.00    +0.000 G0 ENDBRANCH  22  23BRANCH  22  25ATOM     25  C   UNL     1      36.612  45.286  14.837 -0.35 -0.06    +0.125 C  BRANCH  25  26ATOM     26  C   UNL     1      35.915  45.610  13.492 -0.35 -0.05    +0.108 C  BRANCH  26  27ATOM     27  N   UNL     1      36.718  46.301  12.485 -0.35 +0.12    -0.315 NA ATOM     28  H   UNL     1      36.519  45.884  11.573 +0.08 -0.05    +0.122 HD BRANCH  27  29ATOM     29  C   UNL     1      36.528  47.743  12.444 -0.68 -0.03    +0.081 C  BRANCH  29  30ATOM     30  C   UNL     1      37.221  48.459  13.594 -0.59 -0.01    +0.018 CG0ATOM     31  G   UNL     1      37.011  47.861  14.981 +0.00 +0.00    +0.000 G0 ENDBRANCH  29  30ENDBRANCH  27  29ENDBRANCH  26  27ENDBRANCH  25  26BRANCH  25  32ATOM     32  N   UNL     1      35.691  44.894  15.914 -0.10 +0.18    -0.345 N  ATOM     33  C   UNL     1      35.541  43.573  16.283 -0.28 -0.10    +0.251 C  ATOM     34  H   UNL     1      35.605  45.573  16.660 +0.12 -0.11    +0.164 HD ATOM     35  O   UNL     1      36.064  42.638  15.691 -0.40 +0.10    -0.269 OA BRANCH  33  36ATOM     36  C   UNL     1      34.721  43.320  17.499 -0.31 -0.01    +0.042 A  ATOM     37  C   UNL     1      34.758  44.260  18.529 -0.32 -0.01    +0.034 A  ATOM     38  C   UNL     1      33.956  42.164  17.647 -0.39 -0.01    +0.034 A  ATOM     39  C   UNL     1      34.008  44.010  19.664 -0.32 -0.02    +0.112 A  ATOM     40  C   UNL     1      33.243  42.007  18.823 -0.32 -0.01    +0.112 A  ATOM     41  N   UNL     1      33.248  42.906  19.830 -0.71 -0.03    -0.265 NA ENDBRANCH  33  36ENDBRANCH  25  32ENDBRANCH  22  25ENDBRANCH   1  22TORSDOF 9TERENDMDL