MODEL        6USER    Run = 6USERUSER    Estimated Free Energy of Binding    = -12.77 kcal/mol  [=(1)+(2)+(3)-(4)]USERUSER    (1) Final Intermolecular Energy     = -14.56 kcal/molUSER        vdW + Hbond + desolv Energy     = -14.47 kcal/molUSER        Electrostatic Energy            =  -0.09 kcal/molUSER        Moving Ligand-Fixed Receptor    = -14.56 kcal/molUSER        Moving Ligand-Moving Receptor   =  +0.00 kcal/molUSER    (2) Final Total Internal Energy     =  -2.02 kcal/molUSER    (3) Torsional Free Energy           =  +1.79 kcal/molUSER    (4) Unbound System's Energy         =  -2.02 kcal/molUSERUSERREMARK SMILES Oc1nc2ccccc2n1C1CCN(Cc2ccc(-c3cc4ccccc4nc3-c3ccccc3)cc2)CC1REMARK SMILES IDX 11 1 12 2 13 3 14 4 38 5 39 6 10 7 2 8 3 9 4 10 9 11 5 12REMARK SMILES IDX 8 13 6 14 7 15 1 16 15 18 16 19 17 20 37 21 18 22 36 23REMARK SMILES IDX 19 24 20 25 21 26 29 27 22 28 28 29 23 30 27 31 24 32 26 33REMARK SMILES IDX 25 34 30 35 31 36 35 37 32 38 34 39 33 40REMARK H PARENT 1 17USER                              x       y       z     vdW  Elec       q    TypeUSER                           _______ _______ _______ _____ _____    ______ ____ROOTATOM      1  C   UNL     1      39.123  46.499  15.634 -0.43 -0.03    +0.095 C  ATOM      2  C   UNL     1      39.028  46.939  14.166 -0.45 -0.01    +0.041 C  ATOM      3  C   UNL     1      37.838  47.837  13.847 -0.53 -0.03    +0.087 C  ATOM      4  N   UNL     1      36.570  47.378  14.419 -0.23 +0.21    -0.299 NA ATOM      5  C   UNL     1      36.670  47.265  15.876 -0.35 -0.08    +0.087 C  ATOM      6  C   UNL     1      37.780  46.336  16.362 -0.41 -0.02    +0.041 C  ENDROOTBRANCH   1   7ATOM      7  N   UNL     1      40.146  47.203  16.405 -0.28 +0.06    -0.291 N  ATOM      8  C   UNL     1      40.615  48.452  16.073 -0.33 -0.06    +0.295 A  ATOM      9  N   UNL     1      41.546  48.892  16.872 -0.92 -0.01    -0.195 NA ATOM     10  C   UNL     1      41.702  47.888  17.789 -0.37 -0.00    +0.092 A  ATOM     11  C   UNL     1      40.835  46.815  17.536 -0.45 -0.01    +0.072 A  ATOM     12  C   UNL     1      42.585  47.836  18.881 -0.43 +0.00    +0.031 A  ATOM     13  C   UNL     1      40.822  45.687  18.365 -0.46 -0.00    +0.029 A  ATOM     14  C   UNL     1      42.579  46.710  19.706 -0.45 +0.00    +0.002 A  ATOM     15  C   UNL     1      41.708  45.655  19.450 -0.39 +0.00    +0.002 A  BRANCH   8  16ATOM     16  O   UNL     1      40.194  49.172  15.054 -0.23 +0.18    -0.480 OA ATOM     17  H   UNL     1      39.693  49.870  15.513 -0.05 -0.19    +0.296 HD ENDBRANCH   8  16ENDBRANCH   1   7BRANCH   4  18ATOM     18  C   UNL     1      36.070  46.161  13.759 -0.45 -0.07    +0.120 C  BRANCH  18  19ATOM     19  C   UNL     1      35.362  45.216  14.706 -0.26 +0.02    -0.034 A  ATOM     20  C   UNL     1      36.006  44.074  15.198 -0.31 -0.00    +0.006 A  ATOM     21  C   UNL     1      34.044  45.474  15.107 -0.28 -0.01    +0.006 A  ATOM     22  C   UNL     1      35.343  43.207  16.072 -0.42 -0.00    +0.009 A  ATOM     23  C   UNL     1      33.381  44.600  15.973 -0.32 -0.01    +0.009 A  ATOM     24  C   UNL     1      34.018  43.452  16.464 -0.35 +0.01    -0.016 A  BRANCH  24  25ATOM     25  C   UNL     1      33.321  42.540  17.382 -0.36 -0.00    +0.009 A  ATOM     26  C   UNL     1      32.141  41.912  16.958 -0.07 -0.01    +0.021 A  ATOM     27  C   UNL     1      33.785  42.219  18.668 -0.35 -0.01    +0.079 A  ATOM     28  C   UNL     1      31.473  41.001  17.785 -0.35 -0.00    +0.001 A  ATOM     29  N   UNL     1      33.152  41.323  19.479 -0.30 -0.03    -0.247 NA ATOM     30  C   UNL     1      30.290  40.358  17.378 -0.35 -0.00    +0.010 A  ATOM     31  C   UNL     1      32.025  40.733  19.049 -0.34 +0.00    +0.071 A  ATOM     32  C   UNL     1      29.653  39.452  18.223 -0.33 +0.00    +0.001 A  ATOM     33  C   UNL     1      31.373  39.825  19.873 -0.33 +0.00    +0.029 A  ATOM     34  C   UNL     1      30.196  39.183  19.475 -0.33 +0.00    +0.002 A  BRANCH  27  35ATOM     35  C   UNL     1      34.991  42.808  19.281 -0.42 -0.00    +0.001 A  ATOM     36  C   UNL     1      35.805  42.041  20.132 -0.42 -0.00    +0.010 A  ATOM     37  C   UNL     1      35.355  44.148  19.057 -0.37 -0.00    +0.010 A  ATOM     38  C   UNL     1      36.953  42.584  20.717 -0.40 -0.00    +0.001 A  ATOM     39  C   UNL     1      36.501  44.693  19.642 -0.22 -0.00    +0.001 A  ATOM     40  C   UNL     1      37.302  43.909  20.469 -0.39 -0.00    +0.000 A  ENDBRANCH  27  35ENDBRANCH  24  25ENDBRANCH  18  19ENDBRANCH   4  18TORSDOF 6TERENDMDL