MODEL        5USER    Run = 5USERUSER    Estimated Free Energy of Binding    = -10.84 kcal/mol  [=(1)+(2)+(3)-(4)]USERUSER    (1) Final Intermolecular Energy     = -13.53 kcal/molUSER        vdW + Hbond + desolv Energy     = -13.17 kcal/molUSER        Electrostatic Energy            =  -0.36 kcal/molUSER        Moving Ligand-Fixed Receptor    = -13.53 kcal/molUSER        Moving Ligand-Moving Receptor   =  +0.00 kcal/molUSER    (2) Final Total Internal Energy     =  -2.55 kcal/molUSER    (3) Torsional Free Energy           =  +2.68 kcal/molUSER    (4) Unbound System's Energy         =  -2.55 kcal/molUSERUSERREMARK SMILES COc1ccc(O)c(C(=O)c2ccc(CN3CCC(n4c(O)nc5ccccc54)CC3)cc2C(=O)N2CCOCC2)c1FREMARK SMILES IDX 11 1 12 2 13 3 14 4 32 5 33 6 9 7 10 8 8 9 3 10 4 11 42 12REMARK SMILES IDX 5 13 6 14 43 15 2 16 1 17 7 18 34 20 36 21 37 22 41 23 38 24REMARK SMILES IDX 40 25 39 26 35 27 15 28 16 29 17 30 31 31 18 32 30 33 19 34REMARK SMILES IDX 20 35 21 36 29 37 23 38 28 39 24 40 27 41 25 42 26 43 22 44REMARK H PARENT 7 19 22 45USER                              x       y       z     vdW  Elec       q    TypeUSER                           _______ _______ _______ _____ _____    ______ ____ROOTATOM      1  C   UNL     1      39.139  47.135  23.543 -0.28 +0.00    +0.036 A  ATOM      2  C   UNL     1      38.477  46.137  22.824 -0.22 +0.00    +0.013 A  ATOM      3  C   UNL     1      39.219  45.233  22.060 -0.32 +0.00    +0.006 A  ATOM      4  C   UNL     1      40.622  45.310  22.010 -0.25 -0.00    -0.033 A  ATOM      5  C   UNL     1      41.278  46.298  22.760 -0.21 +0.00    +0.019 A  ATOM      6  C   UNL     1      40.535  47.188  23.543 -0.23 +0.01    +0.051 A  ENDROOTBRANCH   1   7ATOM      7  C   UNL     1      38.335  48.110  24.296 -0.31 +0.03    +0.200 C  ATOM      8  O   UNL     1      38.226  49.247  23.838 -0.28 -0.04    -0.288 OA BRANCH   7   9ATOM      9  C   UNL     1      37.644  47.756  25.563 -0.33 +0.01    +0.104 A  ATOM     10  C   UNL     1      37.160  46.190  27.374 -0.25 -0.03    +0.155 A  ATOM     11  C   UNL     1      36.302  47.125  27.954 -0.26 -0.01    +0.053 A  ATOM     12  C   UNL     1      37.834  46.520  26.188 -0.22 -0.00    +0.179 A  ATOM     13  C   UNL     1      36.113  48.373  27.352 -0.32 -0.01    +0.051 A  ATOM     14  C   UNL     1      36.784  48.686  26.167 -0.36 -0.00    +0.130 A  ATOM     15  F   UNL     1      38.696  45.626  25.675 -0.02 -0.00    -0.202 F  BRANCH  10  16ATOM     16  O   UNL     1      37.443  44.950  27.893 -0.13 +0.08    -0.494 OA ATOM     17  C   UNL     1      36.460  43.937  27.712 -0.31 -0.07    +0.278 C  ENDBRANCH  10  16BRANCH  14  18ATOM     18  O   UNL     1      36.556  49.938  25.661 -0.17 -0.00    -0.507 OA ATOM     19  H   UNL     1      36.319  49.843  24.709 -0.23 -0.05    +0.293 HD ENDBRANCH  14  18ENDBRANCH   7   9ENDBRANCH   1   7BRANCH   6  20ATOM     20  C   UNL     1      41.258  48.181  24.355 -0.23 +0.04    +0.254 C  ATOM     21  N   UNL     1      41.440  47.907  25.701 -0.07 -0.03    -0.334 N  ATOM     22  C   UNL     1      42.087  48.909  26.550 -0.20 +0.01    +0.148 C  ATOM     23  C   UNL     1      41.051  46.665  26.383 -0.11 +0.01    +0.148 C  ATOM     24  C   UNL     1      41.590  48.802  27.993 -0.19 +0.01    +0.181 C  ATOM     25  C   UNL     1      41.899  46.439  27.642 -0.03 +0.02    +0.181 C  ATOM     26  O   UNL     1      41.811  47.512  28.589 -0.51 -0.05    -0.378 OA ATOM     27  O   UNL     1      41.649  49.201  23.800 -0.53 -0.07    -0.269 OA ENDBRANCH   6  20BRANCH   4  28ATOM     28  C   UNL     1      41.422  44.374  21.123 -0.31 +0.01    +0.120 C  BRANCH  28  29ATOM     29  N   UNL     1      41.815  44.970  19.835 -0.13 -0.05    -0.299 NA ATOM     30  C   UNL     1      40.763  44.749  18.833 -0.43 +0.00    +0.087 C  ATOM     31  C   UNL     1      42.237  46.374  19.958 -0.40 +0.02    +0.087 C  ATOM     32  C   UNL     1      41.139  45.384  17.497 -0.34 -0.00    +0.041 C  ATOM     33  C   UNL     1      41.453  47.356  19.093 -0.16 +0.00    +0.041 C  ATOM     34  C   UNL     1      41.413  46.891  17.631 -0.37 -0.01    +0.095 C  BRANCH  34  35ATOM     35  N   UNL     1      40.503  47.710  16.835 -0.32 +0.05    -0.291 N  ATOM     36  C   UNL     1      40.727  48.997  16.417 -0.21 -0.06    +0.295 A  ATOM     37  C   UNL     1      39.270  47.338  16.340 -0.42 -0.02    +0.072 A  ATOM     38  N   UNL     1      39.752  49.484  15.701 -0.38 +0.10    -0.195 NA ATOM     39  C   UNL     1      38.514  46.160  16.420 -0.38 -0.01    +0.029 A  ATOM     40  C   UNL     1      38.824  48.467  15.648 -0.43 -0.05    +0.092 A  ATOM     41  C   UNL     1      37.277  46.150  15.766 -0.37 -0.00    +0.002 A  ATOM     42  C   UNL     1      37.574  48.440  15.009 -0.51 -0.02    +0.031 A  ATOM     43  C   UNL     1      36.815  47.268  15.069 -0.42 -0.00    +0.002 A  BRANCH  36  44ATOM     44  O   UNL     1      41.790  49.715  16.714 -0.81 -0.09    -0.480 OA ATOM     45  H   UNL     1      41.425  50.618  16.661 -0.22 -0.07    +0.296 HD ENDBRANCH  36  44ENDBRANCH  34  35ENDBRANCH  28  29ENDBRANCH   4  28TORSDOF 9TERENDMDL