REMARK SMILES COc1ccc(O)c(C(=O)c2ccc(CN3CCC(n4c(O)nc5ccccc54)CC3)cc2C(=O)N2CCOCC2)c1F
REMARK SMILES IDX 11 1 12 2 13 3 14 4 32 5 33 6 9 7 10 8 8 9 3 10 4 11 42 12
REMARK SMILES IDX 5 13 6 14 43 15 2 16 1 17 7 18 34 20 36 21 37 22 41 23 38 24
REMARK SMILES IDX 40 25 39 26 35 27 15 28 16 29 17 30 31 31 18 32 30 33 19 34
REMARK SMILES IDX 20 35 21 36 29 37 23 38 28 39 24 40 27 41 25 42 26 43 22 44
REMARK H PARENT 7 19 22 45
ROOT
ATOM      1  C   UNL     1      -2.759   0.784  -0.011  1.00  0.00     0.036 A 
ATOM      2  C   UNL     1      -1.984   1.871   0.399  1.00  0.00     0.013 A 
ATOM      3  C   UNL     1      -0.746   1.643   1.005  1.00  0.00     0.006 A 
ATOM      4  C   UNL     1      -0.268   0.336   1.200  1.00  0.00    -0.033 A 
ATOM      5  C   UNL     1      -1.041  -0.748   0.757  1.00  0.00     0.019 A 
ATOM      6  C   UNL     1      -2.270  -0.517   0.130  1.00  0.00     0.051 A 
ENDROOT
BRANCH   1   7
ATOM      7  C   UNL     1      -4.084   1.045  -0.596  1.00  0.00     0.200 C 
ATOM      8  O   UNL     1      -4.132   1.539  -1.722  1.00  0.00    -0.288 OA
BRANCH   7   9
ATOM      9  C   UNL     1      -5.344   0.709   0.116  1.00  0.00     0.104 A 
ATOM     10  C   UNL     1      -6.563   0.116   2.148  1.00  0.00     0.155 A 
ATOM     11  C   UNL     1      -7.753   0.064   1.420  1.00  0.00     0.053 A 
ATOM     12  C   UNL     1      -5.370   0.451   1.490  1.00  0.00     0.179 A 
ATOM     13  C   UNL     1      -7.748   0.336   0.048  1.00  0.00     0.051 A 
ATOM     14  C   UNL     1      -6.552   0.661  -0.596  1.00  0.00     0.130 A 
ATOM     15  F   UNL     1      -4.246   0.547   2.220  1.00  0.00    -0.202 F 
BRANCH  10  16
ATOM     16  O   UNL     1      -6.456  -0.102   3.500  1.00  0.00    -0.494 OA
ATOM     17  C   UNL     1      -7.558  -0.739   4.138  1.00  0.00     0.278 C 
ENDBRANCH  10  16
BRANCH  14  18
ATOM     18  O   UNL     1      -6.646   0.934  -1.935  1.00  0.00    -0.507 OA
ATOM     19  H   UNL     1      -5.763   1.244  -2.245  1.00  0.00     0.293 HD
ENDBRANCH  14  18
ENDBRANCH   7   9
ENDBRANCH   1   7
BRANCH   6  20
ATOM     20  C   UNL     1      -3.033  -1.674  -0.367  1.00  0.00     0.254 C 
ATOM     21  N   UNL     1      -3.008  -1.930  -1.728  1.00  0.00    -0.334 N 
ATOM     22  C   UNL     1      -3.818  -3.027  -2.261  1.00  0.00     0.148 C 
ATOM     23  C   UNL     1      -2.212  -1.198  -2.723  1.00  0.00     0.148 C 
ATOM     24  C   UNL     1      -4.238  -2.741  -3.705  1.00  0.00     0.181 C 
ATOM     25  C   UNL     1      -1.939  -2.067  -3.958  1.00  0.00     0.181 C 
ATOM     26  O   UNL     1      -3.132  -2.535  -4.601  1.00  0.00    -0.378 OA
ATOM     27  O   UNL     1      -3.659  -2.341   0.449  1.00  0.00    -0.269 OA
ENDBRANCH   6  20
BRANCH   4  28
ATOM     28  C   UNL     1       1.043   0.087   1.923  1.00  0.00     0.120 C 
BRANCH  28  29
ATOM     29  N   UNL     1       2.168   0.883   1.403  1.00  0.00    -0.299 NA
ATOM     30  C   UNL     1       3.295   0.842   2.345  1.00  0.00     0.087 C 
ATOM     31  C   UNL     1       2.530   0.528   0.022  1.00  0.00     0.087 C 
ATOM     32  C   UNL     1       4.482   1.638   1.810  1.00  0.00     0.041 C 
ATOM     33  C   UNL     1       3.982   0.099  -0.169  1.00  0.00     0.041 C 
ATOM     34  C   UNL     1       4.944   1.132   0.433  1.00  0.00     0.095 C 
BRANCH  34  35
ATOM     35  N   UNL     1       6.319   0.642   0.437  1.00  0.00    -0.291 N 
ATOM     36  C   UNL     1       6.804  -0.405   1.179  1.00  0.00     0.295 A 
ATOM     37  C   UNL     1       7.373   1.120  -0.315  1.00  0.00     0.072 A 
ATOM     38  N   UNL     1       8.070  -0.641   0.974  1.00  0.00    -0.195 NA
ATOM     39  C   UNL     1       7.497   2.152  -1.255  1.00  0.00     0.029 A 
ATOM     40  C   UNL     1       8.450   0.307   0.050  1.00  0.00     0.092 A 
ATOM     41  C   UNL     1       8.757   2.342  -1.833  1.00  0.00     0.002 A 
ATOM     42  C   UNL     1       9.709   0.523  -0.533  1.00  0.00     0.031 A 
ATOM     43  C   UNL     1       9.845   1.540  -1.482  1.00  0.00     0.002 A 
BRANCH  36  44
ATOM     44  O   UNL     1       6.104  -1.105   2.047  1.00  0.00    -0.480 OA
ATOM     45  H   UNL     1       6.783  -1.721   2.381  1.00  0.00     0.296 HD
ENDBRANCH  36  44
ENDBRANCH  34  35
ENDBRANCH  28  29
ENDBRANCH   4  28
TORSDOF 9
