MODEL        4USER    Run = 4USERUSER    Estimated Free Energy of Binding    = -12.22 kcal/mol  [=(1)+(2)+(3)-(4)]USERUSER    (1) Final Intermolecular Energy     = -14.01 kcal/molUSER        vdW + Hbond + desolv Energy     = -14.02 kcal/molUSER        Electrostatic Energy            =  +0.01 kcal/molUSER        Moving Ligand-Fixed Receptor    = -14.01 kcal/molUSER        Moving Ligand-Moving Receptor   =  +0.00 kcal/molUSER    (2) Final Total Internal Energy     =  -2.19 kcal/molUSER    (3) Torsional Free Energy           =  +1.79 kcal/molUSER    (4) Unbound System's Energy         =  -2.19 kcal/molUSERUSERREMARK SMILES Oc1nc2ccccc2n1C1CCN(Cc2ccc(-c3nc4ccccc4nc3-c3ccc(F)c(F)c3)cc2)CC1REMARK SMILES IDX 15 1 14 2 11 3 12 4 41 5 13 6 40 7 10 8 2 9 3 10 4 11 9 12REMARK SMILES IDX 5 13 8 14 6 15 7 16 1 17 16 19 17 20 39 21 18 22 38 23 19 24REMARK SMILES IDX 20 25 21 26 29 27 22 28 28 29 23 30 27 31 24 32 26 33 25 34REMARK SMILES IDX 30 35 31 36 37 37 32 38 35 39 33 40 36 41 34 42REMARK H PARENT 1 18USER                              x       y       z     vdW  Elec       q    TypeUSER                           _______ _______ _______ _____ _____    ______ ____ROOTATOM      1  C   UNL     1      36.771  46.277  14.045 -0.42 -0.06    +0.120 C  ENDROOTBRANCH   1   2ATOM      2  N   UNL     1      37.787  47.028  14.796 -0.19 +0.14    -0.299 NA ATOM      3  C   UNL     1      39.935  46.060  16.638 -0.39 -0.01    +0.095 C  ATOM      4  C   UNL     1      40.198  46.951  15.417 -0.51 -0.01    +0.041 C  ATOM      5  C   UNL     1      38.435  45.923  16.958 -0.42 -0.01    +0.041 C  ATOM      6  C   UNL     1      39.140  46.676  14.353 -0.42 -0.02    +0.087 C  ATOM      7  C   UNL     1      37.594  46.985  16.252 -0.38 -0.05    +0.087 C  BRANCH   3   8ATOM      8  N   UNL     1      40.752  46.443  17.781 -0.29 +0.02    -0.291 N  ATOM      9  C   UNL     1      41.467  47.600  17.927 -0.28 -0.02    +0.295 A  ATOM     10  N   UNL     1      42.103  47.676  19.063 -0.34 -0.00    -0.195 NA ATOM     11  C   UNL     1      41.801  46.500  19.702 -0.38 +0.01    +0.092 A  ATOM     12  C   UNL     1      40.961  45.699  18.925 -0.42 +0.00    +0.072 A  ATOM     13  C   UNL     1      42.217  46.044  20.963 -0.32 +0.01    +0.031 A  ATOM     14  C   UNL     1      40.516  44.442  19.355 -0.37 +0.00    +0.029 A  ATOM     15  C   UNL     1      41.779  44.793  21.409 -0.30 +0.00    +0.002 A  ATOM     16  C   UNL     1      40.944  44.006  20.615 -0.30 +0.00    +0.002 A  BRANCH   9  17ATOM     17  O   UNL     1      41.528  48.564  17.035 -0.69 -0.00    -0.480 OA ATOM     18  H   UNL     1      42.172  48.199  16.402 -0.22 +0.02    +0.296 HD ENDBRANCH   9  17ENDBRANCH   3   8ENDBRANCH   1   2BRANCH   1  19ATOM     19  C   UNL     1      35.971  45.318  14.903 -0.35 +0.02    -0.034 A  ATOM     20  C   UNL     1      36.485  44.058  15.236 -0.37 -0.00    +0.006 A  ATOM     21  C   UNL     1      34.713  45.683  15.399 -0.32 -0.01    +0.006 A  ATOM     22  C   UNL     1      35.758  43.181  16.046 -0.44 -0.00    +0.011 A  ATOM     23  C   UNL     1      33.989  44.804  16.211 -0.31 -0.01    +0.011 A  ATOM     24  C   UNL     1      34.504  43.545  16.564 -0.36 -0.00    +0.002 A  BRANCH  24  25ATOM     25  C   UNL     1      33.733  42.643  17.436 -0.31 -0.03    +0.097 A  ATOM     26  N   UNL     1      32.612  42.132  16.855 -0.14 +0.12    -0.244 NA ATOM     27  C   UNL     1      34.088  42.297  18.750 -0.34 -0.01    +0.097 A  ATOM     28  C   UNL     1      31.880  41.262  17.571 -0.28 -0.03    +0.089 A  ATOM     29  N   UNL     1      33.349  41.406  19.469 -0.25 -0.03    -0.244 NA ATOM     30  C   UNL     1      30.733  40.707  17.014 -0.32 -0.01    +0.030 A  ATOM     31  C   UNL     1      32.252  40.893  18.884 -0.32 -0.00    +0.089 A  ATOM     32  C   UNL     1      29.948  39.797  17.722 -0.35 +0.00    +0.002 A  ATOM     33  C   UNL     1      31.463  39.987  19.581 -0.33 +0.00    +0.030 A  ATOM     34  C   UNL     1      30.314  39.436  19.012 -0.33 +0.00    +0.002 A  BRANCH  27  35ATOM     35  C   UNL     1      35.233  42.852  19.496 -0.42 -0.00    +0.005 A  ATOM     36  C   UNL     1      35.785  44.111  19.183 -0.37 -0.00    +0.013 A  ATOM     37  C   UNL     1      35.788  42.139  20.574 -0.45 -0.00    +0.052 A  ATOM     38  C   UNL     1      36.869  44.626  19.902 -0.20 -0.00    +0.043 A  ATOM     39  C   UNL     1      36.866  42.657  21.288 -0.34 +0.00    +0.159 A  ATOM     40  C   UNL     1      37.406  43.891  20.951 -0.29 +0.00    +0.158 A  ATOM     41  F   UNL     1      37.381  41.950  22.304 -0.13 -0.01    -0.204 F  ATOM     42  F   UNL     1      38.444  44.385  21.637 -0.07 -0.01    -0.204 F  ENDBRANCH  27  35ENDBRANCH  24  25ENDBRANCH   1  19TORSDOF 6TERENDMDL