REMARK SMILES CCCc1cncc(/C=C2\SC(=N)NC2=O)c1N(C)CCN1CCN(C)CC1
REMARK SMILES IDX 4 1 5 2 6 3 7 4 8 5 17 6 3 7 2 8 1 9 18 10 19 11 20 12 21 13
REMARK SMILES IDX 22 14 23 15 28 16 24 17 27 18 25 19 26 20 9 21 10 22 11 23
REMARK SMILES IDX 15 24 12 25 14 26 16 27 13 29
REMARK H PARENT 14 28 13 30
ROOT
ATOM      1  C   UNL     1      -1.949  -1.615   1.741  1.00  0.00    -0.006 A 
ATOM      2  C   UNL     1      -2.758  -1.617   2.877  1.00  0.00     0.116 A 
ATOM      3  N   UNL     1      -3.368  -0.528   3.384  1.00  0.00    -0.264 NA
ATOM      4  C   UNL     1      -3.169   0.628   2.717  1.00  0.00     0.121 A 
ATOM      5  C   UNL     1      -2.392   0.762   1.564  1.00  0.00     0.018 A 
ATOM      6  C   UNL     1      -1.760  -0.394   1.054  1.00  0.00     0.050 A 
ENDROOT
BRANCH   1   7
ATOM      7  C   UNL     1      -1.331  -2.916   1.286  1.00  0.00     0.039 C 
BRANCH   7   8
ATOM      8  C   UNL     1      -2.254  -3.690   0.342  1.00  0.00     0.001 C 
ATOM      9  C   UNL     1      -1.625  -5.004  -0.094  1.00  0.00     0.004 C 
ENDBRANCH   7   8
ENDBRANCH   1   7
BRANCH   6  10
ATOM     10  N   UNL     1      -0.949  -0.417  -0.105  1.00  0.00    -0.373 N 
ATOM     11  C   UNL     1      -1.708  -0.229  -1.344  1.00  0.00     0.143 C 
BRANCH  10  12
ATOM     12  C   UNL     1       0.298   0.369   0.004  1.00  0.00     0.131 C 
BRANCH  12  13
ATOM     13  C   UNL     1       1.472  -0.391  -0.660  1.00  0.00     0.106 C 
BRANCH  13  14
ATOM     14  N   UNL     1       2.723   0.387  -0.766  1.00  0.00    -0.299 NA
ATOM     15  C   UNL     1       3.718  -0.358  -1.565  1.00  0.00     0.100 C 
ATOM     16  C   UNL     1       3.292   0.722   0.555  1.00  0.00     0.100 C 
ATOM     17  C   UNL     1       5.079   0.371  -1.658  1.00  0.00     0.099 C 
ATOM     18  C   UNL     1       4.661   1.440   0.451  1.00  0.00     0.099 C 
ATOM     19  N   UNL     1       5.676   0.740  -0.360  1.00  0.00    -0.304 NA
ATOM     20  C   UNL     1       6.218  -0.424   0.338  1.00  0.00     0.105 C 
ENDBRANCH  13  14
ENDBRANCH  12  13
ENDBRANCH  10  12
ENDBRANCH   6  10
BRANCH   5  21
ATOM     21  C   UNL     1      -2.256   2.100   0.971  1.00  0.00     0.033 C 
BRANCH  21  22
ATOM     22  C   UNL     1      -3.199   2.747   0.275  1.00  0.00     0.081 C 
ATOM     23  S   UNL     1      -4.785   2.207  -0.139  1.00  0.00    -0.047 SA
ATOM     24  C   UNL     1      -2.969   4.106  -0.287  1.00  0.00     0.264 C 
ATOM     25  C   UNL     1      -5.127   3.675  -0.996  1.00  0.00     0.165 C 
ATOM     26  N   UNL     1      -4.080   4.526  -0.961  1.00  0.00    -0.301 N 
ATOM     27  O   UNL     1      -1.942   4.756  -0.169  1.00  0.00    -0.268 OA
ATOM     28  H   UNL     1      -4.079   5.431  -1.401  1.00  0.00     0.172 HD
BRANCH  25  29
ATOM     29  N   UNL     1      -6.234   3.921  -1.588  1.00  0.00    -0.278 NA
ATOM     30  H   UNL     1      -6.213   4.844  -2.024  1.00  0.00     0.190 HD
ENDBRANCH  25  29
ENDBRANCH  21  22
ENDBRANCH   5  21
TORSDOF 9
