MODEL        10USER    Run = 10USERUSER    Estimated Free Energy of Binding    =  -6.91 kcal/mol  [=(1)+(2)+(3)-(4)]USERUSER    (1) Final Intermolecular Energy     = -11.38 kcal/molUSER        vdW + Hbond + desolv Energy     = -12.00 kcal/molUSER        Electrostatic Energy            =  -0.26 kcal/molUSER        Moving Ligand-Fixed Receptor    = -12.26 kcal/molUSER        Moving Ligand-Moving Receptor   =  +0.88 kcal/molUSER    (2) Final Total Internal Energy     =  -3.70 kcal/molUSER    (3) Torsional Free Energy           =  +4.47 kcal/molUSER    (4) Unbound System's Energy         =  -3.70 kcal/molUSERUSERREMARK SMILES COc1ccc(O)c(C(=O)c2ccc(CO[C@@H]3CCCNC[C@@H]3NC(=O)c3ccncc3)cc2)c1FREMARK SMILES IDX 16 1 15 2 14 3 11 4 12 5 34 6 13 7 33 8 9 9 10 10 8 11 3 12REMARK SMILES IDX 4 13 35 14 5 15 6 16 36 17 2 18 1 19 7 20 17 22 18 23 23 25REMARK SMILES IDX 22 26 21 27 20 29 19 30 24 32 25 33 26 35 27 36 28 37 32 38REMARK SMILES IDX 29 39 31 40 30 41REMARK H PARENT 7 21 21 28 24 34REMARK Flexibility Score:   99.900USER                              x       y       z     vdW  Elec       q    TypeUSER                           _______ _______ _______ _____ _____    ______ ____ROOTATOM      1  O   UNL     1      37.075  46.030  15.803 -0.14 +0.19    -0.371 OA ENDROOTBRANCH   1   2ATOM      2  C   UNL     1      35.707  46.362  15.576 -0.26 -0.18    +0.196 C  BRANCH   2   3ATOM      3  C   UNL     1      34.855  45.465  16.435 -0.31 +0.02    -0.022 A  ATOM      4  C   UNL     1      33.288  43.794  18.063 -0.31 -0.01    +0.023 A  ATOM      5  C   UNL     1      33.675  45.056  18.523 -0.42 -0.00    +0.012 A  ATOM      6  C   UNL     1      33.657  43.381  16.778 -0.33 -0.01    +0.012 A  ATOM      7  C   UNL     1      34.459  45.882  17.715 -0.43 -0.01    +0.007 A  ATOM      8  C   UNL     1      34.441  44.209  15.971 -0.31 -0.00    +0.007 A  BRANCH   4   9ATOM      9  C   UNL     1      32.428  42.897  18.871 -0.29 -0.02    +0.199 C  ATOM     10  O   UNL     1      32.448  42.995  20.100 -0.73 -0.05    -0.288 OA BRANCH   9  11ATOM     11  C   UNL     1      31.583  41.836  18.282 -0.25 -0.02    +0.104 A  ATOM     12  C   UNL     1      29.940  41.063  16.655 -0.26 -0.03    +0.155 A  ATOM     13  C   UNL     1      30.013  39.777  17.195 -0.30 +0.00    +0.053 A  ATOM     14  C   UNL     1      30.724  42.085  17.211 -0.18 -0.05    +0.179 A  ATOM     15  C   UNL     1      30.845  39.524  18.289 -0.36 +0.00    +0.051 A  ATOM     16  C   UNL     1      31.612  40.550  18.835 -0.28 -0.00    +0.130 A  ATOM     17  F   UNL     1      30.618  43.325  16.706 -0.03 +0.06    -0.202 F  BRANCH  12  18ATOM     18  O   UNL     1      29.153  41.434  15.598 -0.14 +0.20    -0.494 OA ATOM     19  C   UNL     1      27.941  42.116  15.895 -0.13 -0.13    +0.278 C  ENDBRANCH  12  18BRANCH  16  20ATOM     20  O   UNL     1      32.376  40.225  19.924 -0.66 -0.19    -0.507 OA ATOM     21  H   UNL     1      32.869  41.033  20.199 +0.20 +0.10    +0.293 HD ENDBRANCH  16  20ENDBRANCH   9  11ENDBRANCH   4   9ENDBRANCH   2   3ENDBRANCH   1   2BRANCH   1  22ATOM     22  C   UNL     1      37.820  47.079  16.460 -0.31 -0.08    +0.142 C  BRANCH  22  23ATOM     23  C   UNL     1      38.545  47.811  15.322 -0.54 -0.02    +0.035 CG0ATOM     24  G   UNL     1      39.654  48.801  15.660 +0.00 +0.00    +0.000 G0 ENDBRANCH  22  23BRANCH  22  25ATOM     25  C   UNL     1      38.724  46.459  17.552 -0.35 -0.03    +0.125 C  BRANCH  25  26ATOM     26  C   UNL     1      40.154  46.207  17.012 -0.44 -0.01    +0.108 C  BRANCH  26  27ATOM     27  N   UNL     1      41.082  47.335  17.056 -0.27 +0.04    -0.315 NA ATOM     28  H   UNL     1      42.025  46.971  17.199 -0.45 -0.03    +0.122 HD BRANCH  27  29ATOM     29  C   UNL     1      41.037  48.203  15.888 -0.52 -0.01    +0.081 C  BRANCH  29  30ATOM     30  C   UNL     1      39.656  48.796  15.651 -0.61 -0.01    +0.018 CG0ATOM     31  G   UNL     1      38.546  47.804  15.319 +0.00 +0.00    +0.000 G0 ENDBRANCH  29  30ENDBRANCH  27  29ENDBRANCH  26  27ENDBRANCH  25  26BRANCH  25  32ATOM     32  N   UNL     1      38.092  45.278  18.157 -0.16 +0.07    -0.345 N  ATOM     33  C   UNL     1      38.180  45.033  19.512 -0.22 -0.02    +0.251 C  ATOM     34  H   UNL     1      37.229  44.989  17.713 +0.11 -0.04    +0.164 HD ATOM     35  O   UNL     1      38.861  45.698  20.281 -0.26 -0.00    -0.269 OA BRANCH  33  36ATOM     36  C   UNL     1      37.353  43.911  20.033 -0.34 -0.00    +0.042 A  ATOM     37  C   UNL     1      37.571  43.480  21.342 -0.36 +0.00    +0.034 A  ATOM     38  C   UNL     1      36.402  43.264  19.244 -0.30 -0.00    +0.034 A  ATOM     39  C   UNL     1      36.811  42.425  21.814 -0.41 +0.01    +0.112 A  ATOM     40  C   UNL     1      35.696  42.217  19.810 -0.35 -0.01    +0.112 A  ATOM     41  N   UNL     1      35.876  41.789  21.077 -0.31 -0.00    -0.265 NA ENDBRANCH  33  36ENDBRANCH  25  32ENDBRANCH  22  25ENDBRANCH   1  22TORSDOF 9TERENDMDL