MODEL        7USER    Run = 7USERUSER    Estimated Free Energy of Binding    =  -9.12 kcal/mol  [=(1)+(2)+(3)-(4)]USERUSER    (1) Final Intermolecular Energy     = -11.80 kcal/molUSER        vdW + Hbond + desolv Energy     = -11.69 kcal/molUSER        Electrostatic Energy            =  -0.12 kcal/molUSER        Moving Ligand-Fixed Receptor    = -11.80 kcal/molUSER        Moving Ligand-Moving Receptor   =  +0.00 kcal/molUSER    (2) Final Total Internal Energy     =  -1.69 kcal/molUSER    (3) Torsional Free Energy           =  +2.68 kcal/molUSER    (4) Unbound System's Energy         =  -1.69 kcal/molUSERUSERREMARK SMILES CCCc1cncc(/C=C2\SC(=N)NC2=O)c1N(C)CCN1CCN(C)CC1REMARK SMILES IDX 4 1 5 2 6 3 7 4 8 5 17 6 3 7 2 8 1 9 18 10 19 11 20 12 21 13REMARK SMILES IDX 22 14 23 15 28 16 24 17 27 18 25 19 26 20 9 21 10 22 11 23REMARK SMILES IDX 15 24 12 25 14 26 16 27 13 29REMARK H PARENT 14 28 13 30USER                              x       y       z     vdW  Elec       q    TypeUSER                           _______ _______ _______ _____ _____    ______ ____ROOTATOM      1  C   UNL     1      35.020  46.039  14.457 -0.38 +0.00    -0.006 A  ATOM      2  C   UNL     1      35.053  46.769  13.269 -0.28 -0.09    +0.116 A  ATOM      3  N   UNL     1      36.174  47.245  12.694 -0.47 +0.14    -0.264 NA ATOM      4  C   UNL     1      37.331  46.970  13.332 -0.44 -0.04    +0.121 A  ATOM      5  C   UNL     1      37.435  46.241  14.520 -0.40 -0.01    +0.018 A  ATOM      6  C   UNL     1      36.244  45.757  15.105 -0.34 -0.03    +0.050 A  ENDROOTBRANCH   1   7ATOM      7  C   UNL     1      33.685  45.567  14.983 -0.28 -0.04    +0.039 C  BRANCH   7   8ATOM      8  C   UNL     1      32.515  46.178  14.209 -0.35 -0.00    +0.001 C  ATOM      9  C   UNL     1      31.240  46.174  15.038 -0.56 -0.00    +0.004 C  ENDBRANCH   7   8ENDBRANCH   1   7BRANCH   6  10ATOM     10  N   UNL     1      36.190  45.001  16.300 -0.08 +0.17    -0.373 N  ATOM     11  C   UNL     1      36.915  43.731  16.212 -0.32 -0.04    +0.143 C  BRANCH  10  12ATOM     12  C   UNL     1      36.422  45.784  17.531 -0.32 -0.06    +0.131 C  BRANCH  12  13ATOM     13  C   UNL     1      35.073  46.241  18.140 -0.33 -0.07    +0.106 C  BRANCH  13  14ATOM     14  N   UNL     1      34.430  45.245  19.020 -0.23 +0.11    -0.299 NA ATOM     15  C   UNL     1      35.293  44.053  19.154 -0.37 -0.02    +0.100 C  ATOM     16  C   UNL     1      33.094  44.842  18.535 -0.36 -0.03    +0.100 C  ATOM     17  C   UNL     1      34.647  42.938  20.010 -0.38 +0.00    +0.099 C  ATOM     18  C   UNL     1      32.462  43.717  19.391 -0.42 -0.01    +0.099 C  ATOM     19  N   UNL     1      33.303  42.517  19.570 -0.51 -0.02    -0.304 NA ATOM     20  C   UNL     1      33.359  41.709  18.354 -0.39 -0.02    +0.105 C  ENDBRANCH  13  14ENDBRANCH  12  13ENDBRANCH  10  12ENDBRANCH   6  10BRANCH   5  21ATOM     21  C   UNL     1      38.771  46.050  15.102 -0.44 -0.01    +0.033 C  BRANCH  21  22ATOM     22  C   UNL     1      39.612  47.026  15.468 -0.48 -0.02    +0.081 C  ATOM     23  S   UNL     1      39.700  48.644  14.874 -0.69 +0.02    -0.047 SA ATOM     24  C   UNL     1      40.666  46.811  16.496 -0.32 -0.03    +0.264 C  ATOM     25  C   UNL     1      41.038  49.016  15.912 -0.55 -0.02    +0.165 C  ATOM     26  N   UNL     1      41.390  47.956  16.669 -0.24 +0.03    -0.301 N  ATOM     27  O   UNL     1      40.863  45.768  17.100 -0.29 +0.01    -0.268 OA ATOM     28  H   UNL     1      42.145  47.969  17.334 -0.24 -0.01    +0.172 HD BRANCH  25  29ATOM     29  N   UNL     1      41.619  50.155  15.955 -0.85 +0.02    -0.278 NA ATOM     30  H   UNL     1      41.198  50.749  16.671 -0.37 -0.06    +0.190 HD ENDBRANCH  25  29ENDBRANCH  21  22ENDBRANCH   5  21TORSDOF 9TERENDMDL