MODEL        10USER    Run = 10USERUSER    Estimated Free Energy of Binding    =  -8.74 kcal/mol  [=(1)+(2)+(3)-(4)]USERUSER    (1) Final Intermolecular Energy     = -10.53 kcal/molUSER        vdW + Hbond + desolv Energy     = -10.26 kcal/molUSER        Electrostatic Energy            =  -0.27 kcal/molUSER        Moving Ligand-Fixed Receptor    = -10.53 kcal/molUSER        Moving Ligand-Moving Receptor   =  +0.00 kcal/molUSER    (2) Final Total Internal Energy     =  -1.46 kcal/molUSER    (3) Torsional Free Energy           =  +1.79 kcal/molUSER    (4) Unbound System's Energy         =  -1.46 kcal/molUSERUSERREMARK SMILES CNC1=C(NCc2ccnc(F)c2)C(Nc2cccc(OC)c2)=NC1=OREMARK SMILES IDX 3 1 4 2 14 3 15 4 24 5 25 6 26 7 2 9 1 10 5 12 6 14 7 15REMARK SMILES IDX 8 16 13 17 9 18 11 19 10 20 12 21 16 22 17 23 23 24 18 25REMARK SMILES IDX 20 26 19 27 21 28 22 29REMARK H PARENT 15 8 2 11 5 13USER                              x       y       z     vdW  Elec       q    TypeUSER                           _______ _______ _______ _____ _____    ______ ____ROOTATOM      1  C   UNL     1      35.803  43.189  17.748 -0.29 -0.04    +0.129 C  ATOM      2  C   UNL     1      36.373  43.961  16.815 -0.33 -0.04    +0.107 C  ATOM      3  C   UNL     1      37.507  44.649  17.504 -0.30 -0.04    +0.160 C  ATOM      4  N   UNL     1      38.384  45.434  16.791 -0.14 +0.09    -0.338 N  ATOM      5  N   UNL     1      37.540  44.378  18.772 -0.24 +0.03    -0.188 NA ATOM      6  C   UNL     1      36.531  43.489  19.029 -0.15 -0.04    +0.297 C  ATOM      7  O   UNL     1      36.262  42.998  20.114 -0.28 +0.01    -0.265 OA ATOM      8  H   UNL     1      38.345  45.290  15.790 +0.11 -0.05    +0.168 HD ENDROOTBRANCH   1   9ATOM      9  N   UNL     1      34.731  42.320  17.613 -0.16 +0.13    -0.382 N  ATOM     10  C   UNL     1      33.541  42.378  18.441 -0.35 -0.03    +0.140 C  ATOM     11  H   UNL     1      35.002  41.381  17.342 -0.43 -0.09    +0.160 HD ENDBRANCH   1   9BRANCH   2  12ATOM     12  N   UNL     1      36.056  44.135  15.472 -0.14 +0.15    -0.376 N  ATOM     13  H   UNL     1      35.608  43.280  15.137 +0.09 -0.06    +0.161 HD BRANCH  12  14ATOM     14  C   UNL     1      35.228  45.270  15.054 -0.29 -0.10    +0.149 C  BRANCH  14  15ATOM     15  C   UNL     1      36.069  46.234  14.258 -0.42 +0.01    -0.023 A  ATOM     16  C   UNL     1      36.623  47.373  14.854 -0.40 -0.02    +0.026 A  ATOM     17  C   UNL     1      36.305  46.025  12.896 -0.51 -0.03    +0.066 A  ATOM     18  C   UNL     1      37.383  48.234  14.076 -0.46 -0.06    +0.115 A  ATOM     19  C   UNL     1      37.076  46.946  12.205 -0.46 -0.07    +0.213 A  ATOM     20  N   UNL     1      37.621  48.045  12.764 -0.83 +0.02    -0.228 NA ATOM     21  F   UNL     1      37.299  46.737  10.901 -0.25 +0.05    -0.185 F  ENDBRANCH  14  15ENDBRANCH  12  14ENDBRANCH   2  12BRANCH   4  22ATOM     22  C   UNL     1      39.507  46.158  17.233 -0.42 -0.01    +0.043 A  ATOM     23  C   UNL     1      40.231  45.842  18.387 -0.45 -0.00    +0.026 A  ATOM     24  C   UNL     1      39.895  47.301  16.504 -0.45 -0.02    +0.072 A  ATOM     25  C   UNL     1      41.320  46.619  18.789 -0.50 +0.00    +0.006 A  ATOM     26  C   UNL     1      40.984  48.085  16.900 -0.44 -0.01    +0.120 A  ATOM     27  C   UNL     1      41.695  47.735  18.045 -0.47 -0.00    +0.046 A  BRANCH  26  28ATOM     28  O   UNL     1      41.446  49.204  16.263 -0.84 -0.01    -0.497 OA ATOM     29  C   UNL     1      40.999  49.425  14.933 -0.47 -0.07    +0.278 C  ENDBRANCH  26  28ENDBRANCH   4  22TORSDOF 6TERENDMDL