MODEL        10USER    Run = 10USERUSER    Estimated Free Energy of Binding    =  -8.49 kcal/mol  [=(1)+(2)+(3)-(4)]USERUSER    (1) Final Intermolecular Energy     =  -9.98 kcal/molUSER        vdW + Hbond + desolv Energy     =  -9.93 kcal/molUSER        Electrostatic Energy            =  -0.06 kcal/molUSER        Moving Ligand-Fixed Receptor    =  -9.98 kcal/molUSER        Moving Ligand-Moving Receptor   =  +0.00 kcal/molUSER    (2) Final Total Internal Energy     =  -1.20 kcal/molUSER    (3) Torsional Free Energy           =  +1.49 kcal/molUSER    (4) Unbound System's Energy         =  -1.20 kcal/molUSERUSERREMARK SMILES COc1ccc(C)c(N2Cc3c(C)nc(N4CC[C@H](N)C4)nc3[C@@H]2C(N)=O)c1FREMARK SMILES IDX 9 1 10 2 11 3 12 4 13 5 14 6 15 7 22 8 23 9 24 10 8 11 3 12REMARK SMILES IDX 4 13 28 14 5 15 6 16 29 17 7 18 2 19 1 20 25 21 26 22 27 23REMARK SMILES IDX 16 26 17 27 21 28 18 29 19 30 20 31REMARK H PARENT 26 24 26 25 20 32 20 33USER                              x       y       z     vdW  Elec       q    TypeUSER                           _______ _______ _______ _____ _____    ______ ____ROOTATOM      1  N   UNL     1      40.715  45.433  22.058 -0.08 -0.03    -0.347 N  ATOM      2  C   UNL     1      40.073  46.556  22.803 -0.16 +0.01    +0.157 C  ATOM      3  C   UNL     1      39.044  45.915  23.656 -0.28 +0.00    +0.017 A  ATOM      4  C   UNL     1      38.186  46.441  24.579 -0.24 +0.01    +0.048 A  ATOM      5  C   UNL     1      38.171  47.902  24.900 -0.41 +0.01    +0.067 C  ATOM      6  N   UNL     1      37.305  45.653  25.235 -0.65 -0.02    -0.218 NA ATOM      7  C   UNL     1      37.278  44.330  24.959 -0.20 +0.01    +0.225 A  ATOM      8  N   UNL     1      38.086  43.754  24.052 -0.16 -0.01    -0.215 NA ATOM      9  C   UNL     1      38.958  44.564  23.435 -0.21 +0.00    +0.083 A  ATOM     10  C   UNL     1      39.948  44.144  22.375 -0.18 +0.01    +0.222 C  ENDROOTBRANCH   1  11ATOM     11  C   UNL     1      40.790  45.681  20.661 -0.30 +0.01    +0.081 A  ATOM     12  C   UNL     1      39.823  45.617  18.393 -0.34 -0.01    +0.156 A  ATOM     13  C   UNL     1      40.994  46.173  17.886 -0.46 -0.00    +0.050 A  ATOM     14  C   UNL     1      39.735  45.378  19.769 -0.28 -0.00    +0.188 A  ATOM     15  C   UNL     1      42.051  46.487  18.745 -0.50 +0.00    +0.009 A  ATOM     16  C   UNL     1      41.960  46.259  20.129 -0.39 -0.00    -0.024 A  ATOM     17  F   UNL     1      38.605  44.843  20.264 -0.10 +0.00    -0.201 F  ATOM     18  C   UNL     1      43.136  46.603  21.002 -0.37 +0.02    +0.047 C  BRANCH  12  19ATOM     19  O   UNL     1      38.720  45.274  17.658 -0.10 +0.09    -0.494 OA ATOM     20  C   UNL     1      38.180  46.265  16.794 -0.26 -0.10    +0.278 C  ENDBRANCH  12  19ENDBRANCH   1  11BRANCH  10  21ATOM     21  C   UNL     1      40.925  43.079  22.907 -0.20 +0.01    +0.246 C  ATOM     22  N   UNL     1      41.786  42.548  21.975 -0.17 +0.01    -0.368 N  ATOM     23  O   UNL     1      40.978  42.703  24.075 -0.15 +0.00    -0.272 OA ATOM     24  H   UNL     1      42.331  41.750  22.269 -0.51 -0.04    +0.159 HD ATOM     25  H   UNL     1      41.491  42.615  21.007 -0.00 +0.00    +0.159 HD ENDBRANCH  10  21BRANCH   7  26ATOM     26  N   UNL     1      36.365  43.543  25.609 -0.16 +0.01    -0.339 N  ATOM     27  C   UNL     1      35.829  43.948  26.900 -0.41 -0.02    +0.121 C  ATOM     28  C   UNL     1      36.446  42.096  25.486 -0.38 -0.02    +0.138 C  ATOM     29  C   UNL     1      35.567  42.628  27.633 -0.56 -0.01    +0.042 C  ATOM     30  C   UNL     1      35.386  41.620  26.500 -0.56 -0.02    +0.072 C  BRANCH  30  31ATOM     31  N   UNL     1      35.524  40.241  26.959 -0.17 +0.17    -0.326 NA ATOM     32  H   UNL     1      36.511  39.983  26.967 -0.49 -0.05    +0.119 HD ATOM     33  H   UNL     1      35.067  39.613  26.298 -0.50 -0.09    +0.119 HD ENDBRANCH  30  31ENDBRANCH   7  26TORSDOF 5TERENDMDL