MODEL        5USER    Run = 5USERUSER    Estimated Free Energy of Binding    = -10.61 kcal/mol  [=(1)+(2)+(3)-(4)]USERUSER    (1) Final Intermolecular Energy     = -13.00 kcal/molUSER        vdW + Hbond + desolv Energy     = -12.72 kcal/molUSER        Electrostatic Energy            =  -0.28 kcal/molUSER        Moving Ligand-Fixed Receptor    = -13.00 kcal/molUSER        Moving Ligand-Moving Receptor   =  +0.00 kcal/molUSER    (2) Final Total Internal Energy     =  -1.72 kcal/molUSER    (3) Torsional Free Energy           =  +2.39 kcal/molUSER    (4) Unbound System's Energy         =  -1.72 kcal/molUSERUSERREMARK SMILES NS(=O)(=O)C=C1C=C(Nc2nc3ccccc3nc2N2CCN(CC(=O)N3CCOCC3)CC2)[C@@H]1FREMARK SMILES IDX 9 1 8 3 6 4 7 5 35 6 36 7 5 8 2 9 3 10 4 11 1 12 10 15 11 16REMARK SMILES IDX 19 17 12 18 18 19 13 20 17 21 14 22 16 23 15 24 20 25 21 26REMARK SMILES IDX 34 27 22 28 33 29 23 30 24 31 25 32 27 33 28 34 32 35 29 36REMARK SMILES IDX 31 37 30 38 26 39REMARK H PARENT 9 2 1 13 1 14USER                              x       y       z     vdW  Elec       q    TypeUSER                           _______ _______ _______ _____ _____    ______ ____ROOTATOM      1  N   UNL     1      38.394  44.914  18.024 -0.16 +0.06    -0.338 N  ATOM      2  H   UNL     1      39.059  44.402  18.606 +0.10 -0.01    +0.168 HD ENDROOTBRANCH   1   3ATOM      3  C   UNL     1      38.754  45.938  17.288 -0.43 -0.01    +0.056 C  ATOM      4  C   UNL     1      39.228  47.552  16.124 -0.54 -0.00    +0.006 C  ATOM      5  C   UNL     1      39.624  46.982  17.379 -0.49 -0.01    +0.033 C  ATOM      6  C   UNL     1      38.291  46.392  15.870 -0.28 -0.09    +0.244 C  ATOM      7  F   UNL     1      38.576  45.592  14.810 -0.07 +0.06    -0.235 F  BRANCH   4   8ATOM      8  C   UNL     1      39.529  48.647  15.420 -0.51 -0.05    +0.129 C  BRANCH   8   9ATOM      9  S   UNL     1      41.047  49.433  15.581 -0.70 -0.04    +0.231 S  ATOM     10  O   UNL     1      41.785  49.342  14.341 -0.59 +0.02    -0.208 OA ATOM     11  O   UNL     1      41.671  49.130  16.850 -1.05 -0.03    -0.208 OA BRANCH   9  12ATOM     12  N   UNL     1      40.659  51.072  15.710 -0.24 +0.12    -0.225 NA ATOM     13  H   UNL     1      40.975  51.409  16.623 -0.50 -0.09    +0.137 HD ATOM     14  H   UNL     1      39.645  51.163  15.609 -0.49 -0.12    +0.137 HD ENDBRANCH   9  12ENDBRANCH   8   9ENDBRANCH   4   8ENDBRANCH   1   3BRANCH   1  15ATOM     15  C   UNL     1      37.082  44.578  18.448 -0.23 -0.03    +0.174 A  ATOM     16  N   UNL     1      36.024  44.798  17.635 -0.17 +0.08    -0.225 NA ATOM     17  C   UNL     1      36.916  44.002  19.741 -0.26 -0.01    +0.172 A  ATOM     18  C   UNL     1      34.811  44.468  18.109 -0.27 -0.03    +0.091 A  ATOM     19  N   UNL     1      35.688  43.689  20.216 -0.28 +0.01    -0.225 NA ATOM     20  C   UNL     1      33.692  44.673  17.311 -0.30 -0.01    +0.031 A  ATOM     21  C   UNL     1      34.642  43.918  19.402 -0.34 -0.01    +0.091 A  ATOM     22  C   UNL     1      32.410  44.353  17.761 -0.30 -0.00    +0.002 A  ATOM     23  C   UNL     1      33.361  43.605  19.839 -0.39 -0.00    +0.031 A  ATOM     24  C   UNL     1      32.243  43.820  19.032 -0.37 -0.00    +0.002 A  BRANCH  17  25ATOM     25  N   UNL     1      38.070  43.750  20.544 -0.11 +0.00    -0.351 N  ATOM     26  C   UNL     1      37.657  42.904  21.700 -0.34 +0.01    +0.134 C  ATOM     27  C   UNL     1      38.761  44.998  20.947 -0.32 +0.00    +0.134 C  ATOM     28  C   UNL     1      38.642  43.067  22.880 -0.30 +0.01    +0.106 C  ATOM     29  C   UNL     1      38.386  45.446  22.376 -0.31 +0.01    +0.106 C  ATOM     30  N   UNL     1      38.681  44.445  23.433 -0.11 -0.02    -0.291 NA BRANCH  30  31ATOM     31  C   UNL     1      39.990  44.720  24.068 -0.11 +0.01    +0.185 C  BRANCH  31  32ATOM     32  C   UNL     1      41.032  45.232  23.062 -0.12 +0.02    +0.236 C  ATOM     33  N   UNL     1      41.552  46.505  23.237 -0.06 -0.04    -0.337 N  ATOM     34  C   UNL     1      42.588  46.991  22.326 -0.26 +0.03    +0.148 C  ATOM     35  C   UNL     1      41.182  47.425  24.316 -0.20 +0.02    +0.148 C  ATOM     36  C   UNL     1      43.514  47.986  23.028 -0.28 +0.04    +0.181 C  ATOM     37  C   UNL     1      41.462  48.876  23.915 -0.31 +0.04    +0.181 C  ATOM     38  O   UNL     1      42.833  49.126  23.574 -0.87 -0.14    -0.378 OA ATOM     39  O   UNL     1      41.368  44.521  22.109 -0.14 -0.02    -0.273 OA ENDBRANCH  31  32ENDBRANCH  30  31ENDBRANCH  17  25ENDBRANCH   1  15TORSDOF 8TERENDMDL