REMARK SMILES CNC1=C(NCc2ccnc(F)c2)C(Nc2cccc(OC)c2)=NC1=O
REMARK SMILES IDX 3 1 4 2 14 3 15 4 24 5 25 6 26 7 2 9 1 10 5 12 6 14 7 15
REMARK SMILES IDX 8 16 13 17 9 18 11 19 10 20 12 21 16 22 17 23 23 24 18 25
REMARK SMILES IDX 20 26 19 27 21 28 22 29
REMARK H PARENT 15 8 2 11 5 13
ROOT
ATOM      1  C   UNL     1      -1.542   2.777   0.057  1.00  0.00     0.129 C 
ATOM      2  C   UNL     1      -1.089   1.519  -0.004  1.00  0.00     0.107 C 
ATOM      3  C   UNL     1       0.391   1.635  -0.177  1.00  0.00     0.160 C 
ATOM      4  N   UNL     1       1.186   0.513  -0.155  1.00  0.00    -0.338 N 
ATOM      5  N   UNL     1       0.768   2.870  -0.307  1.00  0.00    -0.188 NA
ATOM      6  C   UNL     1      -0.346   3.656  -0.181  1.00  0.00     0.297 C 
ATOM      7  O   UNL     1      -0.377   4.875  -0.236  1.00  0.00    -0.265 OA
ATOM      8  H   UNL     1       0.733  -0.306   0.230  1.00  0.00     0.168 HD
ENDROOT
BRANCH   1   9
ATOM      9  N   UNL     1      -2.843   3.218   0.248  1.00  0.00    -0.382 N 
ATOM     10  C   UNL     1      -3.192   4.604   0.497  1.00  0.00     0.140 C 
ATOM     11  H   UNL     1      -3.431   2.549   0.733  1.00  0.00     0.160 HD
ENDBRANCH   1   9
BRANCH   2  12
ATOM     12  N   UNL     1      -1.772   0.310   0.080  1.00  0.00    -0.376 N 
ATOM     13  H   UNL     1      -2.749   0.511   0.297  1.00  0.00     0.161 HD
BRANCH  12  14
ATOM     14  C   UNL     1      -1.744  -0.629  -1.046  1.00  0.00     0.149 C 
BRANCH  14  15
ATOM     15  C   UNL     1      -2.644  -1.799  -0.741  1.00  0.00    -0.023 A 
ATOM     16  C   UNL     1      -2.449  -2.582   0.402  1.00  0.00     0.026 A 
ATOM     17  C   UNL     1      -3.688  -2.144  -1.604  1.00  0.00     0.066 A 
ATOM     18  C   UNL     1      -3.299  -3.653   0.633  1.00  0.00     0.115 A 
ATOM     19  C   UNL     1      -4.481  -3.235  -1.286  1.00  0.00     0.213 A 
ATOM     20  N   UNL     1      -4.311  -3.997  -0.187  1.00  0.00    -0.228 NA
ATOM     21  F   UNL     1      -5.481  -3.558  -2.117  1.00  0.00    -0.185 F 
ENDBRANCH  14  15
ENDBRANCH  12  14
ENDBRANCH   2  12
BRANCH   4  22
ATOM     22  C   UNL     1       2.582   0.397  -0.291  1.00  0.00     0.043 A 
ATOM     23  C   UNL     1       3.413   1.443  -0.704  1.00  0.00     0.026 A 
ATOM     24  C   UNL     1       3.175  -0.860  -0.051  1.00  0.00     0.072 A 
ATOM     25  C   UNL     1       4.790   1.256  -0.848  1.00  0.00     0.006 A 
ATOM     26  C   UNL     1       4.553  -1.057  -0.194  1.00  0.00     0.120 A 
ATOM     27  C   UNL     1       5.356   0.010  -0.591  1.00  0.00     0.046 A 
BRANCH  26  28
ATOM     28  O   UNL     1       5.227  -2.228   0.020  1.00  0.00    -0.497 OA
ATOM     29  C   UNL     1       4.462  -3.351   0.434  1.00  0.00     0.278 C 
ENDBRANCH  26  28
ENDBRANCH   4  22
TORSDOF 6
