REMARK SMILES Nc1ccc2nc(-c3ccc(CN4CCC(n5c(O)nc6ccccc65)CC4)cc3)c(-c3ccncc3)nc2c1
REMARK SMILES IDX 12 1 11 2 8 3 9 4 30 5 10 6 29 7 7 8 2 9 3 10 40 11 4 12
REMARK SMILES IDX 39 13 5 14 38 15 6 16 31 17 1 18 32 21 33 22 37 23 34 24
REMARK SMILES IDX 36 25 35 26 13 27 14 28 28 29 15 30 27 31 16 32 17 33 18 34
REMARK SMILES IDX 26 35 20 36 25 37 21 38 24 39 22 40 23 41 19 42
REMARK H PARENT 1 19 1 20 19 43
ROOT
ATOM      1  C   UNL     1       1.318  -0.511   2.080  1.00  0.00     0.120 C 
ENDROOT
BRANCH   1   2
ATOM      2  C   UNL     1      -0.034  -0.268   1.442  1.00  0.00    -0.034 A 
ATOM      3  C   UNL     1      -2.577   0.187   0.273  1.00  0.00     0.002 A 
ATOM      4  C   UNL     1      -2.199  -1.095   0.705  1.00  0.00     0.011 A 
ATOM      5  C   UNL     1      -1.644   1.229   0.412  1.00  0.00     0.011 A 
ATOM      6  C   UNL     1      -0.947  -1.319   1.286  1.00  0.00     0.006 A 
ATOM      7  C   UNL     1      -0.392   1.009   0.994  1.00  0.00     0.006 A 
BRANCH   3   8
ATOM      8  C   UNL     1      -3.898   0.452  -0.322  1.00  0.00     0.097 A 
ATOM      9  C   UNL     1      -7.408   1.846  -3.536  1.00  0.00     0.034 A 
ATOM     10  C   UNL     1      -6.180   2.087  -4.144  1.00  0.00     0.028 A 
ATOM     11  C   UNL     1      -7.417   1.234  -2.280  1.00  0.00     0.056 A 
ATOM     12  C   UNL     1      -4.991   1.817  -3.461  1.00  0.00     0.033 A 
ATOM     13  C   UNL     1      -6.242   0.957  -1.588  1.00  0.00     0.091 A 
ATOM     14  C   UNL     1      -5.003   1.264  -2.188  1.00  0.00     0.090 A 
ATOM     15  N   UNL     1      -6.306   0.403  -0.362  1.00  0.00    -0.244 NA
ATOM     16  N   UNL     1      -3.840   1.020  -1.560  1.00  0.00    -0.244 NA
ATOM     17  C   UNL     1      -5.131   0.159   0.286  1.00  0.00     0.097 A 
BRANCH   9  18
ATOM     18  N   UNL     1      -8.595   2.002  -4.256  1.00  0.00    -0.399 N 
ATOM     19  H   UNL     1      -8.552   2.705  -4.989  1.00  0.00     0.156 HD
ATOM     20  H   UNL     1      -9.424   2.103  -3.677  1.00  0.00     0.156 HD
ENDBRANCH   9  18
BRANCH  17  21
ATOM     21  C   UNL     1      -5.309  -0.400   1.638  1.00  0.00     0.005 A 
ATOM     22  C   UNL     1      -6.171  -1.487   1.846  1.00  0.00     0.030 A 
ATOM     23  C   UNL     1      -4.666   0.136   2.761  1.00  0.00     0.030 A 
ATOM     24  C   UNL     1      -6.325  -1.995   3.126  1.00  0.00     0.111 A 
ATOM     25  C   UNL     1      -4.881  -0.443   4.003  1.00  0.00     0.111 A 
ATOM     26  N   UNL     1      -5.691  -1.501   4.209  1.00  0.00    -0.265 NA
ENDBRANCH  17  21
ENDBRANCH   3   8
ENDBRANCH   1   2
BRANCH   1  27
ATOM     27  N   UNL     1       2.193  -1.411   1.308  1.00  0.00    -0.299 NA
ATOM     28  C   UNL     1       3.374  -1.803   2.096  1.00  0.00     0.087 C 
ATOM     29  C   UNL     1       2.534  -0.908  -0.028  1.00  0.00     0.087 C 
ATOM     30  C   UNL     1       4.722  -1.494   1.438  1.00  0.00     0.041 C 
ATOM     31  C   UNL     1       3.546   0.238  -0.017  1.00  0.00     0.041 C 
ATOM     32  C   UNL     1       4.730  -0.051   0.920  1.00  0.00     0.095 C 
BRANCH  32  33
ATOM     33  N   UNL     1       6.014   0.337   0.353  1.00  0.00    -0.291 N 
ATOM     34  C   UNL     1       6.830   1.314   0.852  1.00  0.00     0.295 A 
ATOM     35  C   UNL     1       6.643  -0.178  -0.761  1.00  0.00     0.072 A 
ATOM     36  N   UNL     1       7.927   1.476   0.166  1.00  0.00    -0.195 NA
ATOM     37  C   UNL     1       6.313  -1.176  -1.688  1.00  0.00     0.029 A 
ATOM     38  C   UNL     1       7.831   0.554  -0.847  1.00  0.00     0.092 A 
ATOM     39  C   UNL     1       7.229  -1.427  -2.717  1.00  0.00     0.002 A 
ATOM     40  C   UNL     1       8.734   0.288  -1.889  1.00  0.00     0.031 A 
ATOM     41  C   UNL     1       8.421  -0.709  -2.819  1.00  0.00     0.002 A 
BRANCH  34  42
ATOM     42  O   UNL     1       6.567   2.041   1.919  1.00  0.00    -0.480 OA
ATOM     43  H   UNL     1       7.361   2.607   1.962  1.00  0.00     0.296 HD
ENDBRANCH  34  42
ENDBRANCH  32  33
ENDBRANCH   1  27
TORSDOF 7
