REMARK SMILES COc1ccc(C)c(N2Cc3c(C)nc(N4CC[C@H](N)C4)nc3[C@@H]2C(N)=O)c1F
REMARK SMILES IDX 9 1 10 2 11 3 12 4 13 5 14 6 15 7 22 8 23 9 24 10 8 11 3 12
REMARK SMILES IDX 4 13 28 14 5 15 6 16 29 17 7 18 2 19 1 20 25 21 26 22 27 23
REMARK SMILES IDX 16 26 17 27 21 28 18 29 19 30 20 31
REMARK H PARENT 26 24 26 25 20 32 20 33
ROOT
ATOM      1  N   UNL     1       1.649  -1.294  -0.314  1.00  0.00    -0.347 N 
ATOM      2  C   UNL     1       1.177  -1.507   1.087  1.00  0.00     0.157 C 
ATOM      3  C   UNL     1      -0.186  -0.926   1.127  1.00  0.00     0.017 A 
ATOM      4  C   UNL     1      -1.112  -0.875   2.130  1.00  0.00     0.048 A 
ATOM      5  C   UNL     1      -0.853  -1.476   3.475  1.00  0.00     0.067 C 
ATOM      6  N   UNL     1      -2.304  -0.266   1.942  1.00  0.00    -0.218 NA
ATOM      7  C   UNL     1      -2.567   0.303   0.744  1.00  0.00     0.225 A 
ATOM      8  N   UNL     1      -1.693   0.299  -0.277  1.00  0.00    -0.215 NA
ATOM      9  C   UNL     1      -0.529  -0.329  -0.059  1.00  0.00     0.083 A 
ATOM     10  C   UNL     1       0.604  -0.448  -1.050  1.00  0.00     0.222 C 
ENDROOT
BRANCH   1  11
ATOM     11  C   UNL     1       2.944  -0.711  -0.367  1.00  0.00     0.081 A 
ATOM     12  C   UNL     1       4.512   1.133   0.106  1.00  0.00     0.156 A 
ATOM     13  C   UNL     1       5.530   0.417  -0.516  1.00  0.00     0.050 A 
ATOM     14  C   UNL     1       3.235   0.563   0.173  1.00  0.00     0.188 A 
ATOM     15  C   UNL     1       5.271  -0.847  -1.055  1.00  0.00     0.009 A 
ATOM     16  C   UNL     1       3.993  -1.426  -0.978  1.00  0.00    -0.024 A 
ATOM     17  F   UNL     1       2.249   1.250   0.776  1.00  0.00    -0.201 F 
ATOM     18  C   UNL     1       3.771  -2.782  -1.589  1.00  0.00     0.047 C 
BRANCH  12  19
ATOM     19  O   UNL     1       4.641   2.371   0.676  1.00  0.00    -0.494 OA
ATOM     20  C   UNL     1       5.908   3.007   0.572  1.00  0.00     0.278 C 
ENDBRANCH  12  19
ENDBRANCH   1  11
BRANCH  10  21
ATOM     21  C   UNL     1       0.158  -1.178  -2.331  1.00  0.00     0.246 C 
ATOM     22  N   UNL     1       0.236  -2.550  -2.287  1.00  0.00    -0.368 N 
ATOM     23  O   UNL     1      -0.255  -0.619  -3.344  1.00  0.00    -0.272 OA
ATOM     24  H   UNL     1       0.088  -3.038  -3.159  1.00  0.00     0.159 HD
ATOM     25  H   UNL     1       0.881  -2.939  -1.608  1.00  0.00     0.159 HD
ENDBRANCH  10  21
BRANCH   7  26
ATOM     26  N   UNL     1      -3.767   0.941   0.571  1.00  0.00    -0.339 N 
ATOM     27  C   UNL     1      -4.881   0.673   1.468  1.00  0.00     0.121 C 
ATOM     28  C   UNL     1      -4.220   1.268  -0.772  1.00  0.00     0.138 C 
ATOM     29  C   UNL     1      -6.125   0.845   0.590  1.00  0.00     0.042 C 
ATOM     30  C   UNL     1      -5.652   1.781  -0.521  1.00  0.00     0.072 C 
BRANCH  30  31
ATOM     31  N   UNL     1      -6.543   1.762  -1.677  1.00  0.00    -0.326 NA
ATOM     32  H   UNL     1      -6.170   2.374  -2.403  1.00  0.00     0.119 HD
ATOM     33  H   UNL     1      -7.451   2.145  -1.415  1.00  0.00     0.119 HD
ENDBRANCH  30  31
ENDBRANCH   7  26
TORSDOF 5
