MODEL        8USER    Run = 8USERUSER    Estimated Free Energy of Binding    = -12.86 kcal/mol  [=(1)+(2)+(3)-(4)]USERUSER    (1) Final Intermolecular Energy     = -14.95 kcal/molUSER        vdW + Hbond + desolv Energy     = -14.79 kcal/molUSER        Electrostatic Energy            =  -0.16 kcal/molUSER        Moving Ligand-Fixed Receptor    = -14.95 kcal/molUSER        Moving Ligand-Moving Receptor   =  +0.00 kcal/molUSER    (2) Final Total Internal Energy     =  -2.38 kcal/molUSER    (3) Torsional Free Energy           =  +2.09 kcal/molUSER    (4) Unbound System's Energy         =  -2.38 kcal/molUSERUSERREMARK SMILES Nc1ccc2nc(-c3ccc(CN4CCC(n5c(O)nc6ccccc65)CC4)cc3)c(-c3ccncc3)nc2c1REMARK SMILES IDX 12 1 11 2 8 3 9 4 30 5 10 6 29 7 7 8 2 9 3 10 40 11 4 12REMARK SMILES IDX 39 13 5 14 38 15 6 16 31 17 1 18 32 21 33 22 37 23 34 24REMARK SMILES IDX 36 25 35 26 13 27 14 28 28 29 15 30 27 31 16 32 17 33 18 34REMARK SMILES IDX 26 35 20 36 25 37 21 38 24 39 22 40 23 41 19 42REMARK H PARENT 1 19 1 20 19 43USER                              x       y       z     vdW  Elec       q    TypeUSER                           _______ _______ _______ _____ _____    ______ ____ROOTATOM      1  C   UNL     1      35.431  46.573  13.871 -0.44 -0.09    +0.120 C  ENDROOTBRANCH   1   2ATOM      2  C   UNL     1      35.562  45.872  15.207 -0.34 +0.03    -0.034 A  ATOM      3  C   UNL     1      35.780  44.561  17.712 -0.32 -0.00    +0.002 A  ATOM      4  C   UNL     1      35.641  45.957  17.636 -0.36 -0.01    +0.011 A  ATOM      5  C   UNL     1      35.837  43.840  16.507 -0.36 -0.00    +0.011 A  ATOM      6  C   UNL     1      35.528  46.603  16.401 -0.27 -0.01    +0.006 A  ATOM      7  C   UNL     1      35.723  44.483  15.271 -0.32 -0.00    +0.006 A  BRANCH   3   8ATOM      8  C   UNL     1      35.878  43.855  19.001 -0.30 -0.02    +0.097 A  ATOM      9  C   UNL     1      37.585  42.318  23.396 -0.37 +0.00    +0.034 A  ATOM     10  C   UNL     1      38.518  43.216  22.888 -0.29 +0.00    +0.028 A  ATOM     11  C   UNL     1      36.409  42.104  22.673 -0.41 +0.00    +0.056 A  ATOM     12  C   UNL     1      38.322  43.802  21.634 -0.31 +0.00    +0.033 A  ATOM     13  C   UNL     1      36.198  42.681  21.424 -0.36 +0.01    +0.091 A  ATOM     14  C   UNL     1      37.181  43.540  20.890 -0.34 +0.00    +0.090 A  ATOM     15  N   UNL     1      35.065  42.410  20.748 -0.30 -0.02    -0.244 NA ATOM     16  N   UNL     1      37.027  44.119  19.686 -0.22 +0.02    -0.244 NA ATOM     17  C   UNL     1      34.904  42.987  19.523 -0.35 -0.01    +0.097 A  BRANCH   9  18ATOM     18  N   UNL     1      37.716  41.823  24.696 -0.03 -0.01    -0.399 N  ATOM     19  H   UNL     1      38.677  41.716  25.009 +0.08 +0.02    +0.156 HD ATOM     20  H   UNL     1      37.158  40.996  24.886 -0.10 -0.03    +0.156 HD ENDBRANCH   9  18BRANCH  17  21ATOM     21  C   UNL     1      33.658  42.589  18.844 -0.39 -0.00    +0.005 A  ATOM     22  C   UNL     1      32.557  43.458  18.820 -0.36 -0.00    +0.030 A  ATOM     23  C   UNL     1      33.504  41.339  18.231 -0.33 -0.01    +0.030 A  ATOM     24  C   UNL     1      31.394  43.063  18.178 -0.21 -0.02    +0.111 A  ATOM     25  C   UNL     1      32.302  41.034  17.611 -0.27 -0.04    +0.111 A  ATOM     26  N   UNL     1      31.246  41.871  17.565 -0.14 +0.06    -0.265 NA ENDBRANCH  17  21ENDBRANCH   3   8ENDBRANCH   1   2BRANCH   1  27ATOM     27  N   UNL     1      36.714  47.010  13.294 -0.33 +0.14    -0.299 NA ATOM     28  C   UNL     1      37.749  45.976  13.463 -0.41 -0.03    +0.087 C  ATOM     29  C   UNL     1      37.148  48.338  13.746 -0.56 -0.04    +0.087 C  ATOM     30  C   UNL     1      39.015  46.440  14.189 -0.42 -0.01    +0.041 C  ATOM     31  C   UNL     1      37.666  48.362  15.184 -0.55 -0.03    +0.041 C  ATOM     32  C   UNL     1      38.634  47.201  15.465 -0.45 -0.04    +0.095 C  BRANCH  32  33ATOM     33  N   UNL     1      39.794  47.602  16.249 -0.28 +0.08    -0.291 N  ATOM     34  C   UNL     1      40.580  48.690  15.988 -0.34 -0.06    +0.295 A  ATOM     35  C   UNL     1      40.319  46.989  17.367 -0.45 -0.01    +0.072 A  ATOM     36  N   UNL     1      41.561  48.838  16.834 -0.92 -0.01    -0.195 NA ATOM     37  C   UNL     1      39.970  45.850  18.104 -0.44 -0.00    +0.029 A  ATOM     38  C   UNL     1      41.417  47.786  17.705 -0.44 -0.01    +0.092 A  ATOM     39  C   UNL     1      40.764  45.531  19.212 -0.45 +0.00    +0.002 A  ATOM     40  C   UNL     1      42.202  47.447  18.819 -0.50 +0.00    +0.031 A  ATOM     41  C   UNL     1      41.862  46.315  19.567 -0.45 +0.00    +0.002 A  BRANCH  34  42ATOM     42  O   UNL     1      40.395  49.529  14.989 -0.23 +0.20    -0.480 OA ATOM     43  H   UNL     1      39.698  50.107  15.354 -0.17 -0.22    +0.296 HD ENDBRANCH  34  42ENDBRANCH  32  33ENDBRANCH   1  27TORSDOF 7TERENDMDL