MODEL        2USER    Run = 2USERUSER    Estimated Free Energy of Binding    = -12.18 kcal/mol  [=(1)+(2)+(3)-(4)]USERUSER    (1) Final Intermolecular Energy     = -15.17 kcal/molUSER        vdW + Hbond + desolv Energy     = -15.06 kcal/molUSER        Electrostatic Energy            =  -0.10 kcal/molUSER        Moving Ligand-Fixed Receptor    = -15.17 kcal/molUSER        Moving Ligand-Moving Receptor   =  +0.00 kcal/molUSER    (2) Final Total Internal Energy     =  -2.71 kcal/molUSER    (3) Torsional Free Energy           =  +2.98 kcal/molUSER    (4) Unbound System's Energy         =  -2.71 kcal/molUSERUSERREMARK SMILES OCCOc1ccc2nc(-c3ccncc3)c(-c3ccc(CN4CCC(n5c(O)nc6ccccc65)CC4)cc3)nc2c1REMARK SMILES IDX 5 1 6 2 7 3 8 4 9 5 10 6 17 7 41 8 42 9 43 10 4 11 3 12 2 13REMARK SMILES IDX 1 14 18 16 19 17 40 18 20 19 39 20 21 21 22 22 23 23 24 24REMARK SMILES IDX 38 25 25 26 37 27 26 28 27 29 28 30 36 31 30 32 35 33 31 34REMARK SMILES IDX 34 35 32 36 33 37 29 38 11 40 12 41 16 42 13 43 15 44 14 45REMARK H PARENT 1 15 29 39USER                              x       y       z     vdW  Elec       q    TypeUSER                           _______ _______ _______ _____ _____    ______ ____ROOTATOM      1  C   UNL     1      30.075  39.239  18.970 -0.26 +0.02    +0.121 A  ATOM      2  C   UNL     1      29.675  39.660  17.708 -0.32 +0.01    +0.049 A  ATOM      3  C   UNL     1      30.440  40.607  17.019 -0.34 -0.01    +0.034 A  ATOM      4  C   UNL     1      31.598  41.142  17.566 -0.28 -0.02    +0.090 A  ATOM      5  N   UNL     1      32.307  42.044  16.865 -0.11 +0.12    -0.244 NA ATOM      6  C   UNL     1      33.445  42.533  17.435 -0.30 -0.03    +0.097 A  ATOM      7  C   UNL     1      33.837  42.137  18.724 -0.34 -0.01    +0.097 A  ATOM      8  N   UNL     1      33.119  41.211  19.420 -0.28 -0.03    -0.244 NA ATOM      9  C   UNL     1      32.007  40.718  18.846 -0.33 -0.00    +0.093 A  ATOM     10  C   UNL     1      31.242  39.778  19.522 -0.32 +0.01    +0.077 A  ENDROOTBRANCH   1  11ATOM     11  O   UNL     1      29.444  38.321  19.760 -0.08 -0.07    -0.491 OA BRANCH  11  12ATOM     12  C   UNL     1      30.170  37.720  20.829 -0.27 +0.02    +0.257 C  BRANCH  12  13ATOM     13  C   UNL     1      31.313  36.850  20.309 -0.39 +0.05    +0.197 C  BRANCH  13  14ATOM     14  O   UNL     1      31.322  36.823  18.887 -0.82 -0.20    -0.393 OA ATOM     15  H   UNL     1      30.418  37.023  18.585 +0.12 +0.15    +0.210 HD ENDBRANCH  13  14ENDBRANCH  12  13ENDBRANCH  11  12ENDBRANCH   1  11BRANCH   7  16ATOM     16  C   UNL     1      35.003  42.664  19.457 -0.43 -0.00    +0.002 A  ATOM     17  C   UNL     1      35.833  41.831  20.227 -0.36 -0.00    +0.011 A  ATOM     18  C   UNL     1      35.331  44.028  19.384 -0.38 -0.00    +0.011 A  ATOM     19  C   UNL     1      36.928  42.348  20.926 -0.43 +0.00    +0.006 A  ATOM     20  C   UNL     1      36.426  44.548  20.080 -0.22 -0.00    +0.006 A  ATOM     21  C   UNL     1      37.234  43.712  20.861 -0.37 -0.00    -0.034 A  BRANCH  21  22ATOM     22  C   UNL     1      38.414  44.278  21.624 -0.33 +0.00    +0.120 C  BRANCH  22  23ATOM     23  N   UNL     1      39.612  44.494  20.792 -0.15 -0.01    -0.299 NA ATOM     24  C   UNL     1      39.412  43.978  19.429 -0.04 -0.00    +0.087 C  ATOM     25  C   UNL     1      40.063  45.893  20.838 -0.22 +0.00    +0.087 C  ATOM     26  C   UNL     1      39.514  45.029  18.329 -0.45 -0.00    +0.041 C  ATOM     27  C   UNL     1      41.221  46.136  19.870 -0.43 +0.00    +0.041 C  ATOM     28  C   UNL     1      40.847  45.779  18.423 -0.47 -0.00    +0.095 C  BRANCH  28  29ATOM     29  N   UNL     1      40.881  46.921  17.517 -0.31 +0.03    -0.291 N  ATOM     30  C   UNL     1      41.757  47.970  17.558 -0.12 -0.01    +0.295 A  ATOM     31  C   UNL     1      40.016  47.164  16.469 -0.45 -0.01    +0.072 A  ATOM     32  N   UNL     1      41.544  48.860  16.630 -0.93 -0.01    -0.195 NA ATOM     33  C   UNL     1      38.918  46.472  15.941 -0.40 -0.01    +0.029 A  ATOM     34  C   UNL     1      40.460  48.378  15.938 -0.50 -0.02    +0.092 A  ATOM     35  C   UNL     1      38.268  47.045  14.841 -0.45 -0.00    +0.002 A  ATOM     36  C   UNL     1      39.794  48.934  14.835 -0.42 -0.01    +0.031 A  ATOM     37  C   UNL     1      38.697  48.255  14.295 -0.51 -0.00    +0.002 A  BRANCH  30  38ATOM     38  O   UNL     1      42.731  48.104  18.434 -0.29 -0.01    -0.480 OA ATOM     39  H   UNL     1      43.440  47.588  18.007 -0.26 -0.01    +0.296 HD ENDBRANCH  30  38ENDBRANCH  28  29ENDBRANCH  22  23ENDBRANCH  21  22ENDBRANCH   7  16BRANCH   6  40ATOM     40  C   UNL     1      34.187  43.463  16.564 -0.36 -0.00    +0.005 A  ATOM     41  C   UNL     1      33.654  44.695  16.162 -0.30 -0.02    +0.030 A  ATOM     42  C   UNL     1      35.483  43.149  16.133 -0.42 -0.01    +0.030 A  ATOM     43  C   UNL     1      34.406  45.520  15.340 -0.25 -0.10    +0.111 A  ATOM     44  C   UNL     1      36.159  44.041  15.316 -0.31 -0.04    +0.111 A  ATOM     45  N   UNL     1      35.644  45.216  14.903 -0.18 +0.15    -0.265 NA ENDBRANCH   6  40TORSDOF 10TERENDMDL