REMARK SMILES COC=C1Cc2c(-c3cncc(NC(=O)CCN)c3)c[nH]c2C=C1F
REMARK SMILES IDX 8 1 9 2 10 3 11 4 12 5 19 6 7 7 4 8 5 9 24 10 6 11 23 12
REMARK SMILES IDX 22 13 20 14 21 15 25 16 3 18 2 19 1 20 13 21 14 22 15 24
REMARK SMILES IDX 16 25 17 26 18 27
REMARK H PARENT 21 17 13 23 18 28 18 29
ROOT
ATOM      1  C   UNL     1      -0.221  -1.950   0.342  1.00  0.00     0.004 A 
ATOM      2  C   UNL     1      -0.649  -2.764   1.384  1.00  0.00     0.119 A 
ATOM      3  N   UNL     1      -1.817  -2.595   2.044  1.00  0.00    -0.262 NA
ATOM      4  C   UNL     1      -2.603  -1.563   1.642  1.00  0.00     0.137 A 
ATOM      5  C   UNL     1      -2.275  -0.688   0.608  1.00  0.00     0.060 A 
ATOM      6  C   UNL     1      -1.055  -0.897  -0.044  1.00  0.00     0.038 A 
ENDROOT
BRANCH   1   7
ATOM      7  C   UNL     1       1.046  -2.176  -0.322  1.00  0.00     0.005 A 
ATOM      8  C   UNL     1       3.741   0.658  -0.592  1.00  0.00     0.027 C 
ATOM      9  C   UNL     1       2.354   0.142  -0.180  1.00  0.00     0.080 C 
ATOM     10  C   UNL     1       4.630  -0.239  -1.349  1.00  0.00     0.131 C 
ATOM     11  C   UNL     1       2.130  -1.288  -0.556  1.00  0.00    -0.010 A 
ATOM     12  C   UNL     1       4.337  -1.513  -1.671  1.00  0.00     0.066 C 
ATOM     13  C   UNL     1       3.089  -1.996  -1.243  1.00  0.00     0.045 A 
ATOM     14  C   UNL     1       1.402  -3.394  -0.880  1.00  0.00     0.092 A 
ATOM     15  N   UNL     1       2.652  -3.270  -1.444  1.00  0.00    -0.361 N 
ATOM     16  F   UNL     1       5.831   0.239  -1.748  1.00  0.00    -0.206 F 
ATOM     17  H   UNL     1       3.156  -4.007  -1.921  1.00  0.00     0.166 HD
BRANCH   8  18
ATOM     18  C   UNL     1       4.089   1.909  -0.238  1.00  0.00     0.193 C 
BRANCH  18  19
ATOM     19  O   UNL     1       5.280   2.502  -0.559  1.00  0.00    -0.504 OA
ATOM     20  C   UNL     1       5.684   3.465   0.410  1.00  0.00     0.277 C 
ENDBRANCH  18  19
ENDBRANCH   8  18
ENDBRANCH   1   7
BRANCH   5  21
ATOM     21  N   UNL     1      -3.077   0.386   0.164  1.00  0.00    -0.325 N 
ATOM     22  C   UNL     1      -4.309   0.761   0.668  1.00  0.00     0.225 C 
ATOM     23  H   UNL     1      -2.708   0.927  -0.608  1.00  0.00     0.169 HD
ATOM     24  O   UNL     1      -4.910   0.216   1.588  1.00  0.00    -0.275 OA
BRANCH  22  25
ATOM     25  C   UNL     1      -4.916   1.946  -0.056  1.00  0.00     0.115 C 
BRANCH  25  26
ATOM     26  C   UNL     1      -5.589   1.526  -1.358  1.00  0.00     0.087 C 
BRANCH  26  27
ATOM     27  N   UNL     1      -6.864   0.844  -1.152  1.00  0.00    -0.330 NA
ATOM     28  H   UNL     1      -6.729   0.028  -0.549  1.00  0.00     0.118 HD
ATOM     29  H   UNL     1      -7.503   1.448  -0.634  1.00  0.00     0.118 HD
ENDBRANCH  26  27
ENDBRANCH  25  26
ENDBRANCH  22  25
ENDBRANCH   5  21
TORSDOF 7
