MODEL        3USER    Run = 3USERUSER    Estimated Free Energy of Binding    =  -8.79 kcal/mol  [=(1)+(2)+(3)-(4)]USERUSER    (1) Final Intermolecular Energy     = -10.87 kcal/molUSER        vdW + Hbond + desolv Energy     = -10.62 kcal/molUSER        Electrostatic Energy            =  -0.26 kcal/molUSER        Moving Ligand-Fixed Receptor    = -10.87 kcal/molUSER        Moving Ligand-Moving Receptor   =  +0.00 kcal/molUSER    (2) Final Total Internal Energy     =  -1.25 kcal/molUSER    (3) Torsional Free Energy           =  +2.09 kcal/molUSER    (4) Unbound System's Energy         =  -1.25 kcal/molUSERUSERREMARK SMILES COC=C1Cc2c(-c3cncc(NC(=O)CCN)c3)c[nH]c2C=C1FREMARK SMILES IDX 8 1 9 2 10 3 11 4 12 5 19 6 7 7 4 8 5 9 24 10 6 11 23 12REMARK SMILES IDX 22 13 20 14 21 15 25 16 3 18 2 19 1 20 13 21 14 22 15 24REMARK SMILES IDX 16 25 17 26 18 27REMARK H PARENT 21 17 13 23 18 28 18 29USER                              x       y       z     vdW  Elec       q    TypeUSER                           _______ _______ _______ _____ _____    ______ ____ROOTATOM      1  C   UNL     1      37.814  47.128  14.734 -0.45 -0.00    +0.004 A  ATOM      2  C   UNL     1      37.937  47.651  13.452 -0.41 -0.03    +0.119 A  ATOM      3  N   UNL     1      36.917  47.730  12.568 -0.98 +0.08    -0.262 NA ATOM      4  C   UNL     1      35.710  47.268  12.983 -0.43 -0.09    +0.137 A  ATOM      5  C   UNL     1      35.473  46.728  14.246 -0.33 -0.05    +0.060 A  ATOM      6  C   UNL     1      36.557  46.660  15.127 -0.37 -0.03    +0.038 A  ENDROOTBRANCH   1   7ATOM      7  C   UNL     1      38.947  47.062  15.634 -0.45 -0.00    +0.005 A  ATOM      8  C   UNL     1      38.741  45.111  19.029 -0.44 -0.00    +0.027 C  ATOM      9  C   UNL     1      38.114  45.642  17.731 -0.38 -0.02    +0.080 C  ATOM     10  C   UNL     1      40.125  45.497  19.351 -0.40 -0.00    +0.131 C  ATOM     11  C   UNL     1      39.070  46.446  16.909 -0.42 +0.00    -0.010 A  ATOM     12  C   UNL     1      40.912  46.252  18.562 -0.51 -0.00    +0.066 C  ATOM     13  C   UNL     1      40.350  46.688  17.350 -0.47 -0.01    +0.045 A  ATOM     14  C   UNL     1      40.170  47.652  15.358 -0.45 -0.02    +0.092 A  ATOM     15  N   UNL     1      41.019  47.420  16.417 -0.19 +0.04    -0.361 N  ATOM     16  F   UNL     1      40.654  45.063  20.518 -0.08 -0.01    -0.206 F  ATOM     17  H   UNL     1      41.978  47.739  16.481 -0.41 -0.02    +0.166 HD BRANCH   8  18ATOM     18  C   UNL     1      38.001  44.308  19.815 -0.29 -0.01    +0.193 C  BRANCH  18  19ATOM     19  O   UNL     1      36.646  44.416  19.975 -0.11 +0.04    -0.504 OA ATOM     20  C   UNL     1      35.932  43.447  19.213 -0.24 -0.04    +0.277 C  ENDBRANCH  18  19ENDBRANCH   8  18ENDBRANCH   1   7BRANCH   5  21ATOM     21  N   UNL     1      34.227  46.249  14.707 -0.07 +0.38    -0.325 N  ATOM     22  C   UNL     1      33.991  45.055  15.363 -0.19 -0.16    +0.225 C  ATOM     23  H   UNL     1      33.428  46.844  14.527 -0.30 -0.29    +0.169 HD ATOM     24  O   UNL     1      34.833  44.210  15.651 -0.21 +0.13    -0.275 OA BRANCH  22  25ATOM     25  C   UNL     1      32.530  44.833  15.697 -0.33 -0.07    +0.115 C  BRANCH  25  26ATOM     26  C   UNL     1      31.612  45.522  14.693 -0.48 -0.06    +0.087 C  BRANCH  26  27ATOM     27  N   UNL     1      31.295  46.901  15.055 -0.36 +0.24    -0.330 NA ATOM     28  H   UNL     1      31.488  47.053  16.049 -0.43 -0.12    +0.118 HD ATOM     29  H   UNL     1      31.920  47.543  14.567 -0.43 -0.15    +0.118 HD ENDBRANCH  26  27ENDBRANCH  25  26ENDBRANCH  22  25ENDBRANCH   5  21TORSDOF 7TERENDMDL