MODEL        2USER    Run = 2USERUSER    Estimated Free Energy of Binding    =  -8.74 kcal/mol  [=(1)+(2)+(3)-(4)]USERUSER    (1) Final Intermolecular Energy     =  -9.94 kcal/molUSER        vdW + Hbond + desolv Energy     =  -9.45 kcal/molUSER        Electrostatic Energy            =  -0.49 kcal/molUSER        Moving Ligand-Fixed Receptor    =  -9.94 kcal/molUSER        Moving Ligand-Moving Receptor   =  +0.00 kcal/molUSER    (2) Final Total Internal Energy     =  -0.53 kcal/molUSER    (3) Torsional Free Energy           =  +1.19 kcal/molUSER    (4) Unbound System's Energy         =  -0.53 kcal/molUSERUSERREMARK SMILES COC=C1Cc2c(-c3cncc(NC(C)=O)c3)c[nH]c2C=C1FREMARK SMILES IDX 4 1 5 2 6 3 7 4 18 5 19 6 20 7 21 8 22 9 23 10 3 12 2 13REMARK SMILES IDX 1 14 8 15 9 16 17 17 10 18 12 19 11 20 13 21 14 22 15 24REMARK SMILES IDX 16 25REMARK H PARENT 19 11 13 23USER                              x       y       z     vdW  Elec       q    TypeUSER                           _______ _______ _______ _____ _____    ______ ____ROOTATOM      1  C   UNL     1      42.888  46.381  21.119 -0.37 +0.01    +0.027 C  ATOM      2  C   UNL     1      42.327  46.990  19.827 -0.45 +0.01    +0.080 C  ATOM      3  C   UNL     1      41.240  46.153  19.223 -0.46 -0.00    -0.010 A  ATOM      4  C   UNL     1      40.415  46.342  18.079 -0.48 -0.00    +0.005 A  ATOM      5  C   UNL     1      39.568  45.247  18.018 -0.35 -0.01    +0.092 A  ATOM      6  N   UNL     1      39.852  44.408  19.071 -0.16 +0.01    -0.361 N  ATOM      7  C   UNL     1      40.859  44.963  19.802 -0.37 +0.00    +0.045 A  ATOM      8  C   UNL     1      41.395  44.390  20.967 -0.35 +0.01    +0.066 C  ATOM      9  C   UNL     1      42.366  45.089  21.583 -0.24 +0.03    +0.131 C  ATOM     10  F   UNL     1      42.903  44.571  22.713 -0.03 -0.03    -0.206 F  ATOM     11  H   UNL     1      39.389  43.530  19.264 +0.12 -0.00    +0.166 HD ENDROOTBRANCH   1  12ATOM     12  C   UNL     1      43.844  47.017  21.815 -0.28 +0.08    +0.193 C  BRANCH  12  13ATOM     13  O   UNL     1      45.155  47.039  21.416 -0.64 -0.69    -0.504 OA ATOM     14  C   UNL     1      46.040  47.415  22.468 -0.15 +0.21    +0.277 C  ENDBRANCH  12  13ENDBRANCH   1  12BRANCH   4  15ATOM     15  C   UNL     1      40.390  47.420  17.110 -0.51 -0.00    +0.004 A  ATOM     16  C   UNL     1      41.415  48.355  17.046 -0.35 -0.00    +0.119 A  ATOM     17  C   UNL     1      39.331  47.559  16.206 -0.46 -0.01    +0.038 A  ATOM     18  N   UNL     1      41.448  49.386  16.169 -0.98 +0.00    -0.262 NA ATOM     19  C   UNL     1      39.322  48.610  15.283 -0.48 -0.03    +0.060 A  ATOM     20  C   UNL     1      40.402  49.489  15.310 -0.43 -0.05    +0.137 A  BRANCH  19  21ATOM     21  N   UNL     1      38.222  48.697  14.403 -0.25 +0.18    -0.325 N  ATOM     22  C   UNL     1      37.682  47.670  13.653 -0.43 -0.08    +0.221 C  ATOM     23  H   UNL     1      37.797  49.610  14.307 -0.45 -0.14    +0.169 HD ATOM     24  C   UNL     1      36.516  48.119  12.809 -0.60 -0.05    +0.114 C  ATOM     25  O   UNL     1      38.077  46.510  13.613 -0.31 +0.08    -0.275 OA ENDBRANCH  19  21ENDBRANCH   4  15TORSDOF 4TERENDMDL