REMARK SMILES COC=C1Cc2c(-c3cncc(NC(C)=O)c3)c[nH]c2C=C1F
REMARK SMILES IDX 4 1 5 2 6 3 7 4 18 5 19 6 20 7 21 8 22 9 23 10 3 12 2 13
REMARK SMILES IDX 1 14 8 15 9 16 17 17 10 18 12 19 11 20 13 21 14 22 15 24
REMARK SMILES IDX 16 25
REMARK H PARENT 19 11 13 23
ROOT
ATOM      1  C   UNL     1      -3.675   0.058  -0.204  1.00  0.00     0.027 C 
ATOM      2  C   UNL     1      -2.208   0.006   0.242  1.00  0.00     0.080 C 
ATOM      3  C   UNL     1      -1.416  -1.023  -0.507  1.00  0.00    -0.010 A 
ATOM      4  C   UNL     1      -0.040  -1.383  -0.466  1.00  0.00     0.005 A 
ATOM      5  C   UNL     1       0.132  -2.393  -1.400  1.00  0.00     0.092 A 
ATOM      6  N   UNL     1      -1.081  -2.657  -1.994  1.00  0.00    -0.361 N 
ATOM      7  C   UNL     1      -2.013  -1.821  -1.457  1.00  0.00     0.045 A 
ATOM      8  C   UNL     1      -3.364  -1.796  -1.842  1.00  0.00     0.066 C 
ATOM      9  C   UNL     1      -4.142  -0.885  -1.229  1.00  0.00     0.131 C 
ATOM     10  F   UNL     1      -5.448  -0.827  -1.579  1.00  0.00    -0.206 F 
ATOM     11  H   UNL     1      -1.245  -3.354  -2.708  1.00  0.00     0.166 HD
ENDROOT
BRANCH   1  12
ATOM     12  C   UNL     1      -4.522   0.949   0.336  1.00  0.00     0.193 C 
BRANCH  12  13
ATOM     13  O   UNL     1      -4.137   1.841   1.302  1.00  0.00    -0.504 OA
ATOM     14  C   UNL     1      -5.113   2.854   1.531  1.00  0.00     0.277 C 
ENDBRANCH  12  13
ENDBRANCH   1  12
BRANCH   4  15
ATOM     15  C   UNL     1       1.040  -0.866   0.351  1.00  0.00     0.004 A 
ATOM     16  C   UNL     1       0.904  -0.738   1.728  1.00  0.00     0.119 A 
ATOM     17  C   UNL     1       2.257  -0.474  -0.217  1.00  0.00     0.038 A 
ATOM     18  N   UNL     1       1.871  -0.258   2.544  1.00  0.00    -0.262 NA
ATOM     19  C   UNL     1       3.284   0.029   0.588  1.00  0.00     0.060 A 
ATOM     20  C   UNL     1       3.037   0.114   1.956  1.00  0.00     0.137 A 
BRANCH  19  21
ATOM     21  N   UNL     1       4.485   0.411  -0.048  1.00  0.00    -0.325 N 
ATOM     22  C   UNL     1       5.611   0.933   0.559  1.00  0.00     0.221 C 
ATOM     23  H   UNL     1       4.514   0.298  -1.053  1.00  0.00     0.169 HD
ATOM     24  C   UNL     1       6.711   1.241  -0.426  1.00  0.00     0.114 C 
ATOM     25  O   UNL     1       5.752   1.168   1.754  1.00  0.00    -0.275 OA
ENDBRANCH  19  21
ENDBRANCH   4  15
TORSDOF 4
