MODEL        2USER    Run = 2USERUSER    Estimated Free Energy of Binding    =  -8.18 kcal/mol  [=(1)+(2)+(3)-(4)]USERUSER    (1) Final Intermolecular Energy     =  -9.37 kcal/molUSER        vdW + Hbond + desolv Energy     =  -9.00 kcal/molUSER        Electrostatic Energy            =  -0.37 kcal/molUSER        Moving Ligand-Fixed Receptor    =  -9.37 kcal/molUSER        Moving Ligand-Moving Receptor   =  +0.00 kcal/molUSER    (2) Final Total Internal Energy     =  -1.12 kcal/molUSER    (3) Torsional Free Energy           =  +1.19 kcal/molUSER    (4) Unbound System's Energy         =  -1.12 kcal/molUSERUSERREMARK SMILES Nc1cc([C@@H]2NC=C(c3ccco3)c3nccn32)ccc1OREMARK SMILES IDX 2 1 3 2 4 3 19 4 20 5 21 6 1 7 22 10 5 12 6 13 18 14 7 15REMARK SMILES IDX 17 16 14 17 8 18 16 19 15 20 9 22 10 23 13 24 11 25 12 26REMARK H PARENT 1 8 1 9 22 11 6 21USER                              x       y       z     vdW  Elec       q    TypeUSER                           _______ _______ _______ _____ _____    ______ ____ROOTATOM      1  C   UNL     1      34.395  46.180  17.704 -0.38 -0.07    +0.074 A  ATOM      2  C   UNL     1      35.436  46.225  16.777 -0.34 -0.03    +0.037 A  ATOM      3  C   UNL     1      36.001  45.035  16.272 -0.33 +0.00    -0.003 A  ATOM      4  C   UNL     1      35.514  43.798  16.743 -0.34 -0.00    +0.012 A  ATOM      5  C   UNL     1      34.507  43.749  17.705 -0.28 -0.02    +0.049 A  ATOM      6  C   UNL     1      33.971  44.935  18.181 -0.29 -0.06    +0.138 A  ENDROOTBRANCH   1   7ATOM      7  N   UNL     1      33.918  47.351  18.335 -0.30 +0.43    -0.396 N  ATOM      8  H   UNL     1      33.066  47.174  18.865 -0.39 -0.12    +0.156 HD ATOM      9  H   UNL     1      33.718  48.062  17.629 -0.44 -0.43    +0.156 HD ENDBRANCH   1   7BRANCH   6  10ATOM     10  O   UNL     1      32.985  44.891  19.128 -0.13 +0.13    -0.506 OA ATOM     11  H   UNL     1      33.292  45.520  19.812 -0.25 -0.15    +0.293 HD ENDBRANCH   6  10BRANCH   3  12ATOM     12  C   UNL     1      37.104  45.103  15.227 -0.28 -0.08    +0.213 C  ATOM     13  N   UNL     1      38.407  45.151  15.889 -0.06 +0.10    -0.366 N  ATOM     14  N   UNL     1      36.899  46.220  14.299 -0.18 +0.15    -0.306 N  ATOM     15  C   UNL     1      39.195  46.284  15.791 -0.41 -0.02    +0.095 C  ATOM     16  C   UNL     1      35.876  46.380  13.404 -0.44 -0.06    +0.110 A  ATOM     17  C   UNL     1      37.777  47.280  14.158 -0.38 -0.06    +0.147 A  ATOM     18  C   UNL     1      38.958  47.336  14.975 -0.49 -0.03    +0.076 C  ATOM     19  C   UNL     1      36.153  47.563  12.764 -0.53 -0.07    +0.131 A  ATOM     20  N   UNL     1      37.319  48.109  13.233 -0.81 +0.08    -0.237 NA ATOM     21  H   UNL     1      38.468  44.657  16.775 +0.10 -0.03    +0.162 HD BRANCH  18  22ATOM     22  C   UNL     1      39.892  48.429  15.002 -0.45 -0.04    +0.139 A  ATOM     23  C   UNL     1      40.282  49.244  16.063 -0.48 -0.02    +0.051 A  ATOM     24  O   UNL     1      40.598  48.864  13.891 -0.08 +0.10    -0.464 OA ATOM     25  C   UNL     1      41.230  50.180  15.586 -0.61 -0.01    +0.043 A  ATOM     26  C   UNL     1      41.386  49.903  14.255 -0.44 -0.05    +0.196 A  ENDBRANCH  18  22ENDBRANCH   3  12TORSDOF 4TERENDMDL