REMARK SMILES CCNC(=O)c1ccc(-c2ccc(F)cc2)cc1C#N
REMARK SMILES IDX 6 1 7 2 8 3 9 4 17 5 18 6 4 7 3 8 5 10 2 11 1 12 19 13 20 14
REMARK SMILES IDX 10 15 11 16 16 17 12 18 15 19 13 20 14 21
REMARK H PARENT 3 9
ROOT
ATOM      1  C   UNL     1       1.255   0.569   0.094  1.00  0.00     0.057 A 
ATOM      2  C   UNL     1       0.419   1.690   0.010  1.00  0.00     0.016 A 
ATOM      3  C   UNL     1      -0.970   1.536   0.002  1.00  0.00     0.009 A 
ATOM      4  C   UNL     1      -1.556   0.264   0.092  1.00  0.00    -0.017 A 
ATOM      5  C   UNL     1      -0.704  -0.850   0.199  1.00  0.00     0.029 A 
ATOM      6  C   UNL     1       0.694  -0.707   0.208  1.00  0.00     0.065 A 
ENDROOT
BRANCH   1   7
ATOM      7  C   UNL     1       2.716   0.825   0.108  1.00  0.00     0.252 C 
ATOM      8  N   UNL     1       3.481   0.074  -0.756  1.00  0.00    -0.352 N 
ATOM      9  H   UNL     1       3.063  -0.631  -1.349  1.00  0.00     0.163 HD
ATOM     10  O   UNL     1       3.160   1.700   0.840  1.00  0.00    -0.269 OA
BRANCH   8  11
ATOM     11  C   UNL     1       4.926   0.188  -0.779  1.00  0.00     0.112 C 
ATOM     12  C   UNL     1       5.572  -0.680   0.285  1.00  0.00     0.027 C 
ENDBRANCH   8  11
ENDBRANCH   1   7
BRANCH   6  13
ATOM     13  C   UNL     1       1.498  -1.884   0.358  1.00  0.00     0.100 C 
ATOM     14  N   UNL     1       2.138  -2.848   0.439  1.00  0.00    -0.192 NA
ENDBRANCH   6  13
BRANCH   4  15
ATOM     15  C   UNL     1      -3.019   0.101   0.084  1.00  0.00    -0.018 A 
ATOM     16  C   UNL     1      -3.675  -0.602   1.112  1.00  0.00     0.012 A 
ATOM     17  C   UNL     1      -3.801   0.645  -0.952  1.00  0.00     0.012 A 
ATOM     18  C   UNL     1      -5.064  -0.756   1.103  1.00  0.00     0.040 A 
ATOM     19  C   UNL     1      -5.189   0.490  -0.961  1.00  0.00     0.040 A 
ATOM     20  C   UNL     1      -5.807  -0.209   0.066  1.00  0.00     0.123 A 
ATOM     21  F   UNL     1      -7.138  -0.358   0.057  1.00  0.00    -0.207 F 
ENDBRANCH   4  15
TORSDOF 4
