MODEL        6USER    Run = 6USERUSER    Estimated Free Energy of Binding    = -11.12 kcal/mol  [=(1)+(2)+(3)-(4)]USERUSER    (1) Final Intermolecular Energy     = -12.61 kcal/molUSER        vdW + Hbond + desolv Energy     = -12.45 kcal/molUSER        Electrostatic Energy            =  -0.16 kcal/molUSER        Moving Ligand-Fixed Receptor    = -12.61 kcal/molUSER        Moving Ligand-Moving Receptor   =  +0.00 kcal/molUSER    (2) Final Total Internal Energy     =  -1.73 kcal/molUSER    (3) Torsional Free Energy           =  +1.49 kcal/molUSER    (4) Unbound System's Energy         =  -1.73 kcal/molUSERUSERREMARK SMILES Cc1cc(N2CCNCC2)nc2ccc(NC(=O)N[C@@H](C(N)=O)c3cc4ccccc4s3)cc12REMARK SMILES IDX 16 1 17 2 18 3 19 4 15 7 2 8 3 9 34 10 4 11 33 12 12 13REMARK SMILES IDX 11 14 13 15 14 16 1 17 5 18 6 19 10 20 7 21 9 22 8 23 20 25REMARK SMILES IDX 21 26 22 27 23 28 24 31 25 32 32 33 26 34 31 35 27 36 30 37REMARK SMILES IDX 28 38 29 39REMARK H PARENT 16 5 19 6 8 24 22 29 22 30USER                              x       y       z     vdW  Elec       q    TypeUSER                           _______ _______ _______ _____ _____    ______ ____ROOTATOM      1  N   UNL     1      33.566  42.529  16.530 -0.17 +0.15    -0.308 N  ATOM      2  C   UNL     1      32.414  42.506  17.284 -0.16 -0.11    +0.320 C  ATOM      3  O   UNL     1      32.139  43.226  18.234 -0.21 +0.04    -0.248 OA ATOM      4  N   UNL     1      31.567  41.514  16.842 -0.05 +0.14    -0.321 N  ATOM      5  H   UNL     1      33.669  41.757  15.888 -0.48 -0.14    +0.171 HD ATOM      6  H   UNL     1      31.566  41.336  15.845 -0.45 -0.14    +0.166 HD ENDROOTBRANCH   1   7ATOM      7  C   UNL     1      34.667  43.397  16.660 -0.35 -0.02    +0.043 A  ATOM      8  C   UNL     1      36.127  46.307  14.752 -0.38 +0.03    -0.038 A  ATOM      9  C   UNL     1      37.229  47.160  14.903 -0.40 -0.03    +0.051 A  ATOM     10  C   UNL     1      35.917  45.294  15.711 -0.35 -0.00    +0.005 A  ATOM     11  C   UNL     1      38.116  46.998  15.963 -0.32 -0.06    +0.129 A  ATOM     12  C   UNL     1      34.837  44.376  15.673 -0.28 -0.02    +0.036 A  ATOM     13  C   UNL     1      36.842  45.213  16.767 -0.30 -0.03    +0.073 A  ATOM     14  N   UNL     1      37.898  46.034  16.880 -0.23 +0.08    -0.231 NA ATOM     15  C   UNL     1      36.655  44.245  17.741 -0.30 -0.01    +0.031 A  ATOM     16  C   UNL     1      35.583  43.344  17.702 -0.32 -0.01    +0.028 A  ATOM     17  C   UNL     1      35.203  46.511  13.585 -0.50 -0.03    +0.045 C  BRANCH  11  18ATOM     18  N   UNL     1      39.219  47.849  16.123 -0.21 +0.14    -0.354 N  ATOM     19  C   UNL     1      39.563  48.707  14.972 -0.48 -0.06    +0.133 C  ATOM     20  C   UNL     1      40.371  47.237  16.810 -0.48 -0.02    +0.133 C  ATOM     21  C   UNL     1      41.034  49.189  15.018 -0.63 -0.02    +0.102 C  ATOM     22  C   UNL     1      41.402  48.317  17.232 -0.45 -0.00    +0.102 C  ATOM     23  N   UNL     1      41.490  49.523  16.378 -0.92 -0.01    -0.313 NA ATOM     24  H   UNL     1      40.813  50.189  16.761 +0.02 -0.03    +0.122 HD ENDBRANCH  11  18ENDBRANCH   1   7BRANCH   4  25ATOM     25  C   UNL     1      30.265  41.334  17.466 -0.21 -0.04    +0.213 C  BRANCH  25  26ATOM     26  C   UNL     1      29.228  41.002  16.372 -0.26 -0.04    +0.245 C  ATOM     27  N   UNL     1      27.909  41.215  16.674 -0.06 +0.05    -0.368 N  ATOM     28  O   UNL     1      29.547  40.628  15.242 -0.38 +0.08    -0.273 OA ATOM     29  H   UNL     1      27.599  41.197  17.639 +0.09 -0.01    +0.159 HD ATOM     30  H   UNL     1      27.245  40.900  15.978 +0.09 -0.02    +0.159 HD ENDBRANCH  25  26BRANCH  25  31ATOM     31  C   UNL     1      30.365  40.239  18.497 -0.24 +0.00    +0.038 A  ATOM     32  C   UNL     1      29.433  39.253  18.756 -0.30 +0.00    +0.027 A  ATOM     33  S   UNL     1      31.705  40.106  19.555 -0.42 -0.02    -0.138 S  ATOM     34  C   UNL     1      29.817  38.364  19.814 -0.35 -0.00    -0.007 A  ATOM     35  C   UNL     1      31.055  38.722  20.348 -0.42 +0.01    +0.035 A  ATOM     36  C   UNL     1      29.146  37.247  20.367 -0.32 +0.00    +0.009 A  ATOM     37  C   UNL     1      31.637  37.998  21.408 -0.47 +0.00    +0.019 A  ATOM     38  C   UNL     1      29.722  36.523  21.415 -0.37 -0.00    +0.001 A  ATOM     39  C   UNL     1      30.956  36.896  21.929 -0.45 +0.00    +0.001 A  ENDBRANCH  25  31ENDBRANCH   4  25TORSDOF 5TERENDMDL