REMARK SMILES COc1ccc(-c2nc3ccccc3nc2-c2ccc(CN3CCC(n4c(O)nc5cc(F)ccc54)CC3)cc2)cc1
REMARK SMILES IDX 17 1 18 2 19 3 20 4 39 5 40 6 16 7 7 8 8 9 9 10 15 11 10 12
REMARK SMILES IDX 14 13 11 14 13 15 12 16 6 17 3 18 4 19 42 20 5 21 41 22 2 23
REMARK SMILES IDX 1 24 21 25 22 26 23 27 38 28 24 29 37 30 25 31 26 32 27 33
REMARK SMILES IDX 36 34 29 35 35 36 30 37 34 38 31 39 32 40 33 41 28 42
REMARK H PARENT 28 43
ROOT
ATOM      1  C   UNL     1      -2.389  -1.693   1.067  1.00  0.00     0.002 A 
ATOM      2  C   UNL     1      -2.128  -1.925  -0.293  1.00  0.00     0.011 A 
ATOM      3  C   UNL     1      -0.830  -2.184  -0.745  1.00  0.00     0.006 A 
ATOM      4  C   UNL     1       0.245  -2.227   0.152  1.00  0.00    -0.034 A 
ATOM      5  C   UNL     1      -0.009  -2.027   1.514  1.00  0.00     0.006 A 
ATOM      6  C   UNL     1      -1.308  -1.768   1.963  1.00  0.00     0.011 A 
ENDROOT
BRANCH   1   7
ATOM      7  C   UNL     1      -3.745  -1.398   1.563  1.00  0.00     0.097 A 
ATOM      8  C   UNL     1      -4.591  -0.396   1.060  1.00  0.00     0.097 A 
ATOM      9  N   UNL     1      -5.857  -0.239   1.545  1.00  0.00    -0.244 NA
ATOM     10  C   UNL     1      -6.251  -1.053   2.539  1.00  0.00     0.089 A 
ATOM     11  N   UNL     1      -4.146  -2.212   2.581  1.00  0.00    -0.244 NA
ATOM     12  C   UNL     1      -7.528  -0.920   3.070  1.00  0.00     0.030 A 
ATOM     13  C   UNL     1      -5.390  -2.042   3.063  1.00  0.00     0.089 A 
ATOM     14  C   UNL     1      -7.974  -1.741   4.107  1.00  0.00     0.002 A 
ATOM     15  C   UNL     1      -5.842  -2.854   4.096  1.00  0.00     0.030 A 
ATOM     16  C   UNL     1      -7.127  -2.712   4.623  1.00  0.00     0.002 A 
BRANCH   8  17
ATOM     17  C   UNL     1      -4.232   0.584   0.016  1.00  0.00     0.003 A 
ATOM     18  C   UNL     1      -3.597   2.464  -2.010  1.00  0.00     0.118 A 
ATOM     19  C   UNL     1      -2.737   2.263  -0.930  1.00  0.00     0.047 A 
ATOM     20  C   UNL     1      -4.782   1.734  -2.077  1.00  0.00     0.047 A 
ATOM     21  C   UNL     1      -3.053   1.343   0.076  1.00  0.00     0.014 A 
ATOM     22  C   UNL     1      -5.094   0.809  -1.072  1.00  0.00     0.014 A 
BRANCH  18  23
ATOM     23  O   UNL     1      -3.169   3.391  -2.919  1.00  0.00    -0.497 OA
ATOM     24  C   UNL     1      -4.036   3.667  -4.011  1.00  0.00     0.278 C 
ENDBRANCH  18  23
ENDBRANCH   8  17
ENDBRANCH   1   7
BRANCH   4  25
ATOM     25  C   UNL     1       1.649  -2.509  -0.339  1.00  0.00     0.120 C 
BRANCH  25  26
ATOM     26  N   UNL     1       2.107  -1.580  -1.383  1.00  0.00    -0.299 NA
ATOM     27  C   UNL     1       2.198  -0.178  -0.963  1.00  0.00     0.087 C 
ATOM     28  C   UNL     1       3.368  -2.007  -1.994  1.00  0.00     0.087 C 
ATOM     29  C   UNL     1       3.296   0.077   0.063  1.00  0.00     0.041 C 
ATOM     30  C   UNL     1       4.605  -1.792  -1.117  1.00  0.00     0.041 C 
ATOM     31  C   UNL     1       4.669  -0.429  -0.400  1.00  0.00     0.095 C 
BRANCH  31  32
ATOM     32  N   UNL     1       5.444   0.624  -1.053  1.00  0.00    -0.291 N 
ATOM     33  C   UNL     1       5.558   0.916  -2.381  1.00  0.00     0.295 A 
ATOM     34  C   UNL     1       6.213   1.564  -0.381  1.00  0.00     0.072 A 
ATOM     35  N   UNL     1       6.327   1.941  -2.627  1.00  0.00    -0.195 NA
ATOM     36  C   UNL     1       6.478   1.795   0.977  1.00  0.00     0.032 A 
ATOM     37  C   UNL     1       6.747   2.363  -1.394  1.00  0.00     0.095 A 
ATOM     38  C   UNL     1       7.320   2.869   1.287  1.00  0.00     0.041 A 
ATOM     39  C   UNL     1       7.590   3.433  -1.066  1.00  0.00     0.070 A 
ATOM     40  C   UNL     1       7.861   3.664   0.281  1.00  0.00     0.125 A 
ATOM     41  F   UNL     1       8.663   4.683   0.618  1.00  0.00    -0.207 F 
BRANCH  33  42
ATOM     42  O   UNL     1       4.973   0.264  -3.361  1.00  0.00    -0.480 OA
ATOM     43  H   UNL     1       5.271   0.774  -4.136  1.00  0.00     0.296 HD
ENDBRANCH  33  42
ENDBRANCH  31  32
ENDBRANCH  25  26
ENDBRANCH   4  25
TORSDOF 7
