MODEL        9USER    Run = 9USERUSER    Estimated Free Energy of Binding    =  -8.61 kcal/mol  [=(1)+(2)+(3)-(4)]USERUSER    (1) Final Intermolecular Energy     = -10.70 kcal/molUSER        vdW + Hbond + desolv Energy     = -10.52 kcal/molUSER        Electrostatic Energy            =  -0.18 kcal/molUSER        Moving Ligand-Fixed Receptor    = -10.70 kcal/molUSER        Moving Ligand-Moving Receptor   =  +0.00 kcal/molUSER    (2) Final Total Internal Energy     =  -0.90 kcal/molUSER    (3) Torsional Free Energy           =  +2.09 kcal/molUSER    (4) Unbound System's Energy         =  -0.90 kcal/molUSERUSERREMARK SMILES CCC[C@H](C)NC(=O)c1ccc(-c2ccc(N)cc2)cc1C#NREMARK SMILES IDX 6 1 7 2 8 3 4 5 5 6 3 7 2 8 1 9 9 10 10 11 21 12 11 13 20 14REMARK SMILES IDX 12 15 22 16 23 17 13 18 14 19 19 20 15 21 18 22 16 23 17 24REMARK H PARENT 6 4 17 25 17 26USER                              x       y       z     vdW  Elec       q    TypeUSER                           _______ _______ _______ _____ _____    ______ ____ROOTATOM      1  N   UNL     1      33.874  41.869  18.508 -0.18 +0.06    -0.350 N  ATOM      2  C   UNL     1      34.090  42.892  19.406 -0.29 -0.01    +0.252 C  ATOM      3  O   UNL     1      33.269  43.300  20.214 -0.90 -0.04    -0.269 OA ATOM      4  H   UNL     1      34.598  41.625  17.845 -0.05 -0.06    +0.164 HD ENDROOTBRANCH   1   5ATOM      5  C   UNL     1      32.574  41.213  18.387 -0.41 -0.01    +0.079 C  ATOM      6  C   UNL     1      31.672  42.031  17.462 -0.35 -0.01    +0.031 C  BRANCH   5   7ATOM      7  C   UNL     1      32.777  39.772  17.892 -0.37 -0.01    +0.024 C  BRANCH   7   8ATOM      8  C   UNL     1      31.768  38.742  18.407 -0.54 -0.00    -0.001 C  ATOM      9  C   UNL     1      32.385  37.387  18.719 -0.62 +0.00    +0.004 C  ENDBRANCH   7   8ENDBRANCH   5   7ENDBRANCH   1   5BRANCH   2  10ATOM     10  C   UNL     1      35.429  43.515  19.344 -0.36 -0.01    +0.057 A  ATOM     11  C   UNL     1      35.668  44.510  18.387 -0.33 -0.00    +0.016 A  ATOM     12  C   UNL     1      36.434  43.152  20.248 -0.38 -0.00    +0.065 A  ATOM     13  C   UNL     1      36.916  45.135  18.326 -0.33 -0.00    +0.009 A  ATOM     14  C   UNL     1      37.684  43.788  20.172 -0.31 -0.00    +0.029 A  ATOM     15  C   UNL     1      37.945  44.785  19.215 -0.35 +0.00    -0.017 A  BRANCH  12  16ATOM     16  C   UNL     1      36.250  42.115  21.223 -0.51 +0.00    +0.100 C  ATOM     17  N   UNL     1      36.124  41.223  21.955 -0.43 -0.00    -0.192 NA ENDBRANCH  12  16BRANCH  15  18ATOM     18  C   UNL     1      39.260  45.443  19.149 -0.40 +0.00    -0.018 A  ATOM     19  C   UNL     1      39.605  46.266  18.067 -0.44 -0.00    +0.011 A  ATOM     20  C   UNL     1      40.216  45.254  20.157 -0.38 +0.00    +0.011 A  ATOM     21  C   UNL     1      40.857  46.891  18.005 -0.50 -0.00    +0.026 A  ATOM     22  C   UNL     1      41.467  45.879  20.091 -0.38 +0.00    +0.026 A  ATOM     23  C   UNL     1      41.779  46.743  19.042 -0.49 +0.00    +0.031 A  BRANCH  23  24ATOM     24  N   UNL     1      43.069  47.270  18.918 -0.28 -0.07    -0.399 N  ATOM     25  H   UNL     1      43.377  47.382  17.958 -0.50 -0.01    +0.156 HD ATOM     26  H   UNL     1      43.226  48.107  19.472 -0.44 -0.01    +0.156 HD ENDBRANCH  23  24ENDBRANCH  15  18ENDBRANCH   2  10TORSDOF 7TERENDMDL