MODEL        10USER    Run = 10USERUSER    Estimated Free Energy of Binding    =  -8.58 kcal/mol  [=(1)+(2)+(3)-(4)]USERUSER    (1) Final Intermolecular Energy     =  -9.48 kcal/molUSER        vdW + Hbond + desolv Energy     =  -9.22 kcal/molUSER        Electrostatic Energy            =  -0.26 kcal/molUSER        Moving Ligand-Fixed Receptor    =  -9.48 kcal/molUSER        Moving Ligand-Moving Receptor   =  +0.00 kcal/molUSER    (2) Final Total Internal Energy     =  -0.25 kcal/molUSER    (3) Torsional Free Energy           =  +0.89 kcal/molUSER    (4) Unbound System's Energy         =  -0.25 kcal/molUSERUSERREMARK SMILES O=C(O)c1ccc(-c2nc3ccccc3n3ccnc23)cc1FREMARK SMILES IDX 1 1 2 2 3 3 4 5 5 6 22 7 6 8 21 9 7 10 23 11 8 12 9 13 20 14REMARK SMILES IDX 10 15 19 16 16 17 11 18 15 19 18 20 17 21 12 22 14 23 13 24REMARK H PARENT 3 4USER                              x       y       z     vdW  Elec       q    TypeUSER                           _______ _______ _______ _____ _____    ______ ____ROOTATOM      1  O   UNL     1      43.397  45.865  22.808 -0.11 -0.07    -0.246 OA ATOM      2  C   UNL     1      43.675  46.508  21.812 -0.17 +0.15    +0.338 C  ENDROOTBRANCH   2   3ATOM      3  O   UNL     1      44.805  47.226  21.744 -0.64 -0.37    -0.478 OA ATOM      4  H   UNL     1      44.505  48.155  21.652 -0.43 +0.06    +0.297 HD ENDBRANCH   2   3BRANCH   2   5ATOM      5  C   UNL     1      42.820  46.624  20.612 -0.32 +0.03    +0.095 A  ATOM      6  C   UNL     1      43.307  47.372  19.532 -0.44 +0.00    +0.019 A  ATOM      7  C   UNL     1      41.556  46.045  20.519 -0.28 +0.02    +0.138 A  ATOM      8  C   UNL     1      42.542  47.518  18.368 -0.42 +0.00    +0.011 A  ATOM      9  C   UNL     1      40.790  46.187  19.361 -0.39 +0.00    +0.050 A  ATOM     10  C   UNL     1      41.282  46.916  18.269 -0.52 -0.00    +0.007 A  ATOM     11  F   UNL     1      41.022  45.352  21.535 -0.05 -0.02    -0.206 F  BRANCH  10  12ATOM     12  C   UNL     1      40.416  47.053  17.059 -0.42 -0.02    +0.114 A  ATOM     13  N   UNL     1      39.439  46.201  16.890 -0.25 +0.05    -0.242 NA ATOM     14  C   UNL     1      40.644  48.092  16.077 -0.43 -0.03    +0.163 A  ATOM     15  C   UNL     1      38.602  46.313  15.755 -0.34 -0.03    +0.088 A  ATOM     16  N   UNL     1      41.596  49.005  16.055 -0.86 -0.01    -0.235 NA ATOM     17  N   UNL     1      39.829  48.194  14.977 -0.30 +0.09    -0.296 N  ATOM     18  C   UNL     1      37.562  45.397  15.604 -0.34 -0.01    +0.030 A  ATOM     19  C   UNL     1      38.765  47.304  14.771 -0.42 -0.02    +0.073 A  ATOM     20  C   UNL     1      41.371  49.730  14.912 -0.56 -0.03    +0.132 A  ATOM     21  C   UNL     1      40.278  49.248  14.228 -0.12 -0.04    +0.113 A  ATOM     22  C   UNL     1      36.708  45.467  14.500 -0.40 -0.00    +0.002 A  ATOM     23  C   UNL     1      37.919  47.387  13.663 -0.50 -0.01    +0.029 A  ATOM     24  C   UNL     1      36.886  46.460  13.533 -0.50 -0.00    +0.002 A  ENDBRANCH  10  12ENDBRANCH   2   5TORSDOF 3TERENDMDL