MODEL        2USER    Run = 2USERUSER    Estimated Free Energy of Binding    =  -8.14 kcal/mol  [=(1)+(2)+(3)-(4)]USERUSER    (1) Final Intermolecular Energy     =  -9.34 kcal/molUSER        vdW + Hbond + desolv Energy     =  -9.15 kcal/molUSER        Electrostatic Energy            =  -0.19 kcal/molUSER        Moving Ligand-Fixed Receptor    =  -9.34 kcal/molUSER        Moving Ligand-Moving Receptor   =  +0.00 kcal/molUSER    (2) Final Total Internal Energy     =  -0.67 kcal/molUSER    (3) Torsional Free Energy           =  +1.19 kcal/molUSER    (4) Unbound System's Energy         =  -0.67 kcal/molUSERUSERREMARK SMILES COc1cc(-c2nc3ccccc3n3ccnc23)ccc1C(=O)OREMARK SMILES IDX 3 1 4 2 5 3 19 4 20 5 21 6 2 7 1 8 22 9 23 10 24 11 6 13REMARK SMILES IDX 7 14 18 15 8 16 17 17 14 18 9 19 13 20 16 21 15 22 10 23REMARK SMILES IDX 12 24 11 25REMARK H PARENT 24 12USER                              x       y       z     vdW  Elec       q    TypeUSER                           _______ _______ _______ _____ _____    ______ ____ROOTATOM      1  C   UNL     1      40.675  48.350  16.564 -0.43 -0.02    +0.134 A  ATOM      2  C   UNL     1      39.701  47.464  17.047 -0.39 -0.02    +0.057 A  ATOM      3  C   UNL     1      38.593  47.101  16.260 -0.42 -0.00    +0.008 A  ATOM      4  C   UNL     1      38.478  47.612  14.966 -0.49 -0.00    +0.011 A  ATOM      5  C   UNL     1      39.443  48.495  14.473 -0.49 -0.01    +0.020 A  ATOM      6  C   UNL     1      40.539  48.869  15.266 -0.53 -0.03    +0.101 A  ENDROOTBRANCH   1   7ATOM      7  O   UNL     1      41.788  48.716  17.273 -0.65 -0.05    -0.496 OA ATOM      8  C   UNL     1      42.219  47.867  18.329 -0.31 -0.00    +0.278 C  ENDBRANCH   1   7BRANCH   6   9ATOM      9  C   UNL     1      41.531  49.835  14.721 -0.43 -0.06    +0.339 C  ATOM     10  O   UNL     1      41.831  50.030  13.560 -0.56 +0.06    -0.246 OA BRANCH   9  11ATOM     11  O   UNL     1      42.124  50.540  15.706 -0.56 +0.01    -0.478 OA ATOM     12  H   UNL     1      41.402  50.664  16.356 -0.20 -0.08    +0.297 HD ENDBRANCH   9  11ENDBRANCH   6   9BRANCH   3  13ATOM     13  C   UNL     1      37.601  46.140  16.832 -0.30 -0.05    +0.114 A  ATOM     14  N   UNL     1      37.882  45.549  17.965 -0.23 +0.06    -0.242 NA ATOM     15  C   UNL     1      36.341  45.865  16.172 -0.24 -0.10    +0.163 A  ATOM     16  C   UNL     1      36.963  44.631  18.523 -0.29 -0.02    +0.088 A  ATOM     17  N   UNL     1      35.865  46.393  15.059 -0.22 +0.19    -0.235 NA ATOM     18  N   UNL     1      35.451  44.975  16.722 -0.12 +0.16    -0.296 N  ATOM     19  C   UNL     1      37.294  44.006  19.724 -0.35 -0.00    +0.030 A  ATOM     20  C   UNL     1      35.730  44.314  17.926 -0.27 -0.02    +0.073 A  ATOM     21  C   UNL     1      34.639  45.806  14.880 -0.23 -0.12    +0.132 A  ATOM     22  C   UNL     1      34.361  44.921  15.896 -0.24 -0.07    +0.113 A  ATOM     23  C   UNL     1      36.418  43.090  20.316 -0.43 -0.00    +0.002 A  ATOM     24  C   UNL     1      34.843  43.402  18.505 -0.33 -0.01    +0.029 A  ATOM     25  C   UNL     1      35.198  42.790  19.708 -0.44 -0.00    +0.002 A  ENDBRANCH   3  13TORSDOF 4TERENDMDL