REMARK SMILES Cc1cc(N2CCNCC2)nc2ccc(NC(=O)N[C@@H](C(N)=O)c3cc4ccccc4s3)cc12
REMARK SMILES IDX 16 1 17 2 18 3 19 4 15 7 2 8 3 9 34 10 4 11 33 12 12 13
REMARK SMILES IDX 11 14 13 15 14 16 1 17 5 18 6 19 10 20 7 21 9 22 8 23 20 25
REMARK SMILES IDX 21 26 22 27 23 28 24 31 25 32 32 33 26 34 31 35 27 36 30 37
REMARK SMILES IDX 28 38 29 39
REMARK H PARENT 16 5 19 6 8 24 22 29 22 30
ROOT
ATOM      1  N   UNL     1      -1.312   0.611  -1.398  1.00  0.00    -0.308 N 
ATOM      2  C   UNL     1      -2.441   1.246  -0.931  1.00  0.00     0.320 C 
ATOM      3  O   UNL     1      -2.535   1.945   0.069  1.00  0.00    -0.248 OA
ATOM      4  N   UNL     1      -3.518   0.977  -1.746  1.00  0.00    -0.321 N 
ATOM      5  H   UNL     1      -1.472  -0.040  -2.152  1.00  0.00     0.171 HD
ATOM      6  H   UNL     1      -3.320   0.880  -2.734  1.00  0.00     0.166 HD
ENDROOT
BRANCH   1   7
ATOM      7  C   UNL     1      -0.014   0.644  -0.852  1.00  0.00     0.043 A 
ATOM      8  C   UNL     1       3.312  -1.000  -1.542  1.00  0.00    -0.038 A 
ATOM      9  C   UNL     1       4.596  -0.950  -0.982  1.00  0.00     0.051 A 
ATOM     10  C   UNL     1       2.292  -0.211  -0.970  1.00  0.00     0.005 A 
ATOM     11  C   UNL     1       4.858  -0.159   0.133  1.00  0.00     0.129 A 
ATOM     12  C   UNL     1       0.958  -0.169  -1.449  1.00  0.00     0.036 A 
ATOM     13  C   UNL     1       2.643   0.582   0.137  1.00  0.00     0.073 A 
ATOM     14  N   UNL     1       3.878   0.600   0.663  1.00  0.00    -0.231 NA
ATOM     15  C   UNL     1       1.672   1.388   0.711  1.00  0.00     0.031 A 
ATOM     16  C   UNL     1       0.357   1.431   0.230  1.00  0.00     0.028 A 
ATOM     17  C   UNL     1       3.072  -1.879  -2.737  1.00  0.00     0.045 C 
BRANCH  11  18
ATOM     18  N   UNL     1       6.140  -0.101   0.697  1.00  0.00    -0.354 N 
ATOM     19  C   UNL     1       6.901  -1.366   0.739  1.00  0.00     0.133 C 
ATOM     20  C   UNL     1       6.238   0.725   1.914  1.00  0.00     0.133 C 
ATOM     21  C   UNL     1       8.019  -1.343   1.810  1.00  0.00     0.102 C 
ATOM     22  C   UNL     1       7.720   0.999   2.280  1.00  0.00     0.102 C 
ATOM     23  N   UNL     1       8.703  -0.042   1.903  1.00  0.00    -0.313 NA
ATOM     24  H   UNL     1       9.016   0.195   0.957  1.00  0.00     0.122 HD
ENDBRANCH  11  18
ENDBRANCH   1   7
BRANCH   4  25
ATOM     25  C   UNL     1      -4.812   1.581  -1.469  1.00  0.00     0.213 C 
BRANCH  25  26
ATOM     26  C   UNL     1      -5.567   1.779  -2.801  1.00  0.00     0.245 C 
ATOM     27  N   UNL     1      -6.841   2.277  -2.731  1.00  0.00    -0.368 N 
ATOM     28  O   UNL     1      -5.046   1.574  -3.899  1.00  0.00    -0.273 OA
ATOM     29  H   UNL     1      -7.393   2.145  -1.892  1.00  0.00     0.159 HD
ATOM     30  H   UNL     1      -7.347   2.306  -3.608  1.00  0.00     0.159 HD
ENDBRANCH  25  26
BRANCH  25  31
ATOM     31  C   UNL     1      -5.573   0.693  -0.518  1.00  0.00     0.038 A 
ATOM     32  C   UNL     1      -5.848   0.942   0.812  1.00  0.00     0.027 A 
ATOM     33  S   UNL     1      -6.187  -0.833  -0.994  1.00  0.00    -0.138 S 
ATOM     34  C   UNL     1      -6.583  -0.110   1.452  1.00  0.00    -0.007 A 
ATOM     35  C   UNL     1      -6.837  -1.158   0.567  1.00  0.00     0.035 A 
ATOM     36  C   UNL     1      -7.048  -0.230   2.784  1.00  0.00     0.009 A 
ATOM     37  C   UNL     1      -7.540  -2.310   0.972  1.00  0.00     0.019 A 
ATOM     38  C   UNL     1      -7.750  -1.369   3.189  1.00  0.00     0.001 A 
ATOM     39  C   UNL     1      -7.993  -2.398   2.290  1.00  0.00     0.001 A 
ENDBRANCH  25  31
ENDBRANCH   4  25
TORSDOF 5
