REMARK SMILES COc1cc(-c2ccnc(NC(=O)CCF)c2)cc(-c2ccccc2)c1C
REMARK SMILES IDX 6 1 7 2 8 3 9 4 10 5 17 6 5 7 3 8 4 9 26 10 19 11 18 12
REMARK SMILES IDX 27 13 2 14 1 15 20 16 21 17 25 18 22 19 24 20 23 21 11 22
REMARK SMILES IDX 12 23 13 25 14 26 15 27 16 28
REMARK H PARENT 11 24
ROOT
ATOM      1  C   UNL     1       1.150  -0.592   0.986  1.00  0.00    -0.013 A 
ATOM      2  C   UNL     1       1.378  -1.618   1.909  1.00  0.00     0.029 A 
ATOM      3  C   UNL     1       2.679  -2.009   2.167  1.00  0.00     0.114 A 
ATOM      4  N   UNL     1       3.760  -1.454   1.581  1.00  0.00    -0.239 NA
ATOM      5  C   UNL     1       3.543  -0.462   0.694  1.00  0.00     0.133 A 
ATOM      6  C   UNL     1       2.270  -0.012   0.370  1.00  0.00     0.056 A 
ENDROOT
BRANCH   1   7
ATOM      7  C   UNL     1      -0.217  -0.134   0.677  1.00  0.00    -0.014 A 
ATOM      8  C   UNL     1      -1.836   1.676   0.377  1.00  0.00     0.123 A 
ATOM      9  C   UNL     1      -0.539   1.232   0.664  1.00  0.00     0.055 A 
ATOM     10  C   UNL     1      -2.862   0.743   0.120  1.00  0.00    -0.001 A 
ATOM     11  C   UNL     1      -2.555  -0.637   0.099  1.00  0.00    -0.011 A 
ATOM     12  C   UNL     1      -1.239  -1.048   0.383  1.00  0.00     0.018 A 
ATOM     13  C   UNL     1      -4.256   1.233  -0.195  1.00  0.00     0.049 C 
BRANCH   8  14
ATOM     14  O   UNL     1      -2.205   2.998   0.336  1.00  0.00    -0.496 OA
ATOM     15  C   UNL     1      -1.173   3.973   0.423  1.00  0.00     0.278 C 
ENDBRANCH   8  14
BRANCH  11  16
ATOM     16  C   UNL     1      -3.554  -1.667  -0.217  1.00  0.00    -0.018 A 
ATOM     17  C   UNL     1      -3.841  -2.001  -1.549  1.00  0.00     0.009 A 
ATOM     18  C   UNL     1      -4.230  -2.347   0.807  1.00  0.00     0.009 A 
ATOM     19  C   UNL     1      -4.783  -2.988  -1.849  1.00  0.00     0.001 A 
ATOM     20  C   UNL     1      -5.173  -3.331   0.507  1.00  0.00     0.001 A 
ATOM     21  C   UNL     1      -5.448  -3.652  -0.821  1.00  0.00     0.000 A 
ENDBRANCH  11  16
ENDBRANCH   1   7
BRANCH   5  22
ATOM     22  N   UNL     1       4.723   0.048   0.150  1.00  0.00    -0.311 N 
ATOM     23  C   UNL     1       4.879   1.090  -0.735  1.00  0.00     0.228 C 
ATOM     24  H   UNL     1       5.536  -0.442   0.498  1.00  0.00     0.171 HD
ATOM     25  O   UNL     1       3.982   1.804  -1.171  1.00  0.00    -0.275 OA
BRANCH  23  26
ATOM     26  C   UNL     1       6.337   1.341  -1.065  1.00  0.00     0.134 C 
BRANCH  26  27
ATOM     27  C   UNL     1       6.490   2.038  -2.400  1.00  0.00     0.224 C 
ATOM     28  F   UNL     1       6.325   1.118  -3.391  1.00  0.00    -0.251 F 
ENDBRANCH  26  27
ENDBRANCH  23  26
ENDBRANCH   5  22
TORSDOF 6
