REMARK SMILES COc1cc(-c2nc3ccccc3n3ccnc23)ccc1C(=O)O
REMARK SMILES IDX 3 1 4 2 5 3 19 4 20 5 21 6 2 7 1 8 22 9 23 10 24 11 6 13
REMARK SMILES IDX 7 14 18 15 8 16 17 17 14 18 9 19 13 20 16 21 15 22 10 23
REMARK SMILES IDX 12 24 11 25
REMARK H PARENT 24 12
ROOT
ATOM      1  C   UNL     1       3.202   0.241   0.161  1.00  0.00     0.134 A 
ATOM      2  C   UNL     1       1.825   0.185   0.422  1.00  0.00     0.057 A 
ATOM      3  C   UNL     1       0.896  -0.029  -0.612  1.00  0.00     0.008 A 
ATOM      4  C   UNL     1       1.357  -0.214  -1.917  1.00  0.00     0.011 A 
ATOM      5  C   UNL     1       2.727  -0.161  -2.190  1.00  0.00     0.020 A 
ATOM      6  C   UNL     1       3.652   0.068  -1.159  1.00  0.00     0.101 A 
ENDROOT
BRANCH   1   7
ATOM      7  O   UNL     1       4.153   0.417   1.130  1.00  0.00    -0.496 OA
ATOM      8  C   UNL     1       3.719   0.763   2.439  1.00  0.00     0.278 C 
ENDBRANCH   1   7
BRANCH   6   9
ATOM      9  C   UNL     1       5.100   0.149  -1.490  1.00  0.00     0.339 C 
ATOM     10  O   UNL     1       5.964   0.793  -0.930  1.00  0.00    -0.246 OA
BRANCH   9  11
ATOM     11  O   UNL     1       5.404  -0.617  -2.558  1.00  0.00    -0.478 OA
ATOM     12  H   UNL     1       6.371  -0.492  -2.653  1.00  0.00     0.297 HD
ENDBRANCH   9  11
ENDBRANCH   6   9
BRANCH   3  13
ATOM     13  C   UNL     1      -0.556  -0.093  -0.260  1.00  0.00     0.114 A 
ATOM     14  N   UNL     1      -0.891  -0.462   0.950  1.00  0.00    -0.242 NA
ATOM     15  C   UNL     1      -1.586   0.257  -1.216  1.00  0.00     0.163 A 
ATOM     16  C   UNL     1      -2.258  -0.537   1.305  1.00  0.00     0.088 A 
ATOM     17  N   UNL     1      -1.443   0.692  -2.454  1.00  0.00    -0.235 NA
ATOM     18  N   UNL     1      -2.911   0.186  -0.862  1.00  0.00    -0.296 N 
ATOM     19  C   UNL     1      -2.587  -0.946   2.597  1.00  0.00     0.030 A 
ATOM     20  C   UNL     1      -3.304  -0.221   0.420  1.00  0.00     0.073 A 
ATOM     21  C   UNL     1      -2.720   0.886  -2.915  1.00  0.00     0.132 A 
ATOM     22  C   UNL     1      -3.648   0.576  -1.948  1.00  0.00     0.113 A 
ATOM     23  C   UNL     1      -3.924  -1.036   2.996  1.00  0.00     0.002 A 
ATOM     24  C   UNL     1      -4.645  -0.305   0.805  1.00  0.00     0.029 A 
ATOM     25  C   UNL     1      -4.948  -0.716   2.103  1.00  0.00     0.002 A 
ENDBRANCH   3  13
TORSDOF 4
