REMARK SMILES O=C(O)c1ccc(-c2nc3ccccc3n3ccnc23)cc1F
REMARK SMILES IDX 1 1 2 2 3 3 4 5 5 6 22 7 6 8 21 9 7 10 23 11 8 12 9 13 20 14
REMARK SMILES IDX 10 15 19 16 16 17 11 18 15 19 18 20 17 21 12 22 14 23 13 24
REMARK H PARENT 3 4
ROOT
ATOM      1  O   UNL     1       6.408   0.316  -0.220  1.00  0.00    -0.246 OA
ATOM      2  C   UNL     1       5.639  -0.498   0.260  1.00  0.00     0.338 C 
ENDROOT
BRANCH   2   3
ATOM      3  O   UNL     1       6.090  -1.626   0.828  1.00  0.00    -0.478 OA
ATOM      4  H   UNL     1       7.066  -1.566   0.760  1.00  0.00     0.297 HD
ENDBRANCH   2   3
BRANCH   2   5
ATOM      5  C   UNL     1       4.166  -0.387   0.238  1.00  0.00     0.095 A 
ATOM      6  C   UNL     1       3.593   0.548  -0.635  1.00  0.00     0.019 A 
ATOM      7  C   UNL     1       3.332  -1.149   1.054  1.00  0.00     0.138 A 
ATOM      8  C   UNL     1       2.203   0.699  -0.700  1.00  0.00     0.011 A 
ATOM      9  C   UNL     1       1.946  -1.002   0.993  1.00  0.00     0.050 A 
ATOM     10  C   UNL     1       1.367  -0.084   0.105  1.00  0.00     0.007 A 
ATOM     11  F   UNL     1       3.824  -2.030   1.937  1.00  0.00    -0.206 F 
BRANCH  10  12
ATOM     12  C   UNL     1      -0.121   0.047   0.090  1.00  0.00     0.114 A 
ATOM     13  N   UNL     1      -0.787  -0.261   1.172  1.00  0.00    -0.242 NA
ATOM     14  C   UNL     1      -0.831   0.490  -1.091  1.00  0.00     0.163 A 
ATOM     15  C   UNL     1      -2.196  -0.140   1.184  1.00  0.00     0.088 A 
ATOM     16  N   UNL     1      -0.340   0.799  -2.276  1.00  0.00    -0.235 NA
ATOM     17  N   UNL     1      -2.200   0.603  -1.073  1.00  0.00    -0.296 N 
ATOM     18  C   UNL     1      -2.881  -0.465   2.355  1.00  0.00     0.030 A 
ATOM     19  C   UNL     1      -2.943   0.294   0.075  1.00  0.00     0.073 A 
ATOM     20  C   UNL     1      -1.429   1.141  -3.038  1.00  0.00     0.132 A 
ATOM     21  C   UNL     1      -2.594   1.031  -2.312  1.00  0.00     0.113 A 
ATOM     22  C   UNL     1      -4.273  -0.361   2.416  1.00  0.00     0.002 A 
ATOM     23  C   UNL     1      -4.335   0.403   0.121  1.00  0.00     0.029 A 
ATOM     24  C   UNL     1      -4.997   0.072   1.303  1.00  0.00     0.002 A 
ENDBRANCH  10  12
ENDBRANCH   2   5
TORSDOF 3
