REMARK SMILES CCC[C@H](C)NC(=O)c1ccc(-c2ccc(N)cc2)cc1C#N
REMARK SMILES IDX 6 1 7 2 8 3 4 5 5 6 3 7 2 8 1 9 9 10 10 11 21 12 11 13 20 14
REMARK SMILES IDX 12 15 22 16 23 17 13 18 14 19 19 20 15 21 18 22 16 23 17 24
REMARK H PARENT 6 4 17 25 17 26
ROOT
ATOM      1  N   UNL     1       2.407  -0.227  -0.232  1.00  0.00    -0.350 N 
ATOM      2  C   UNL     1       1.585  -1.313  -0.022  1.00  0.00     0.252 C 
ATOM      3  O   UNL     1       1.968  -2.466   0.110  1.00  0.00    -0.269 OA
ATOM      4  H   UNL     1       2.000   0.688  -0.374  1.00  0.00     0.164 HD
ENDROOT
BRANCH   1   5
ATOM      5  C   UNL     1       3.851  -0.376  -0.398  1.00  0.00     0.079 C 
ATOM      6  C   UNL     1       4.167  -0.719  -1.854  1.00  0.00     0.031 C 
BRANCH   5   7
ATOM      7  C   UNL     1       4.551   0.910   0.072  1.00  0.00     0.024 C 
BRANCH   7   8
ATOM      8  C   UNL     1       6.081   0.896   0.012  1.00  0.00    -0.001 C 
ATOM      9  C   UNL     1       6.714  -0.196   0.861  1.00  0.00     0.004 C 
ENDBRANCH   7   8
ENDBRANCH   5   7
ENDBRANCH   1   5
BRANCH   2  10
ATOM     10  C   UNL     1       0.139  -1.010   0.033  1.00  0.00     0.057 A 
ATOM     11  C   UNL     1      -0.445  -0.307  -1.029  1.00  0.00     0.016 A 
ATOM     12  C   UNL     1      -0.647  -1.448   1.104  1.00  0.00     0.065 A 
ATOM     13  C   UNL     1      -1.815  -0.033  -1.015  1.00  0.00     0.009 A 
ATOM     14  C   UNL     1      -2.022  -1.162   1.105  1.00  0.00     0.029 A 
ATOM     15  C   UNL     1      -2.627  -0.454   0.051  1.00  0.00    -0.017 A 
BRANCH  12  16
ATOM     16  C   UNL     1      -0.090  -2.139   2.232  1.00  0.00     0.100 C 
ATOM     17  N   UNL     1       0.304  -2.664   3.189  1.00  0.00    -0.192 NA
ENDBRANCH  12  16
BRANCH  15  18
ATOM     18  C   UNL     1      -4.069  -0.163   0.065  1.00  0.00    -0.018 A 
ATOM     19  C   UNL     1      -4.892  -0.518  -1.014  1.00  0.00     0.011 A 
ATOM     20  C   UNL     1      -4.665   0.495   1.151  1.00  0.00     0.011 A 
ATOM     21  C   UNL     1      -6.264  -0.239  -0.999  1.00  0.00     0.026 A 
ATOM     22  C   UNL     1      -6.037   0.773   1.162  1.00  0.00     0.026 A 
ATOM     23  C   UNL     1      -6.857   0.363   0.111  1.00  0.00     0.031 A 
BRANCH  23  24
ATOM     24  N   UNL     1      -8.201   0.747   0.071  1.00  0.00    -0.399 N 
ATOM     25  H   UNL     1      -8.777   0.167  -0.531  1.00  0.00     0.156 HD
ATOM     26  H   UNL     1      -8.618   0.880   0.988  1.00  0.00     0.156 HD
ENDBRANCH  23  24
ENDBRANCH  15  18
ENDBRANCH   2  10
TORSDOF 7
