MODEL        5USER    Run = 5USERUSER    Estimated Free Energy of Binding    =  -7.61 kcal/mol  [=(1)+(2)+(3)-(4)]USERUSER    (1) Final Intermolecular Energy     =  -8.80 kcal/molUSER        vdW + Hbond + desolv Energy     =  -8.67 kcal/molUSER        Electrostatic Energy            =  -0.13 kcal/molUSER        Moving Ligand-Fixed Receptor    =  -8.80 kcal/molUSER        Moving Ligand-Moving Receptor   =  +0.00 kcal/molUSER    (2) Final Total Internal Energy     =  -0.90 kcal/molUSER    (3) Torsional Free Energy           =  +1.19 kcal/molUSER    (4) Unbound System's Energy         =  -0.90 kcal/molUSERUSERREMARK SMILES CCNC(=O)c1ccc(-c2ccc(F)cc2)cc1C#NREMARK SMILES IDX 6 1 7 2 8 3 9 4 17 5 18 6 4 7 3 8 5 10 2 11 1 12 19 13 20 14REMARK SMILES IDX 10 15 11 16 16 17 12 18 15 19 13 20 14 21REMARK H PARENT 3 9USER                              x       y       z     vdW  Elec       q    TypeUSER                           _______ _______ _______ _____ _____    ______ ____ROOTATOM      1  C   UNL     1      39.641  47.401  16.567 -0.45 -0.02    +0.057 A  ATOM      2  C   UNL     1      39.768  46.654  17.745 -0.45 -0.00    +0.016 A  ATOM      3  C   UNL     1      38.814  45.686  18.073 -0.40 -0.00    +0.009 A  ATOM      4  C   UNL     1      37.722  45.433  17.229 -0.36 +0.01    -0.017 A  ATOM      5  C   UNL     1      37.622  46.175  16.038 -0.36 -0.01    +0.029 A  ATOM      6  C   UNL     1      38.575  47.150  15.698 -0.40 -0.03    +0.065 A  ENDROOTBRANCH   1   7ATOM      7  C   UNL     1      40.705  48.398  16.291 -0.43 -0.04    +0.252 C  ATOM      8  N   UNL     1      40.369  49.442  15.458 -0.31 +0.13    -0.352 N  ATOM      9  H   UNL     1      39.449  49.505  15.042 -0.20 -0.11    +0.163 HD ATOM     10  O   UNL     1      41.794  48.272  16.835 -0.72 -0.01    -0.269 OA BRANCH   8  11ATOM     11  C   UNL     1      41.346  50.436  15.062 -0.57 -0.03    +0.112 C  ATOM     12  C   UNL     1      42.122  49.999  13.833 -0.76 -0.01    +0.027 C  ENDBRANCH   8  11ENDBRANCH   1   7BRANCH   6  13ATOM     13  C   UNL     1      38.427  47.840  14.450 -0.51 -0.04    +0.100 C  ATOM     14  N   UNL     1      38.301  48.435  13.462 -0.53 +0.05    -0.192 NA ENDBRANCH   6  13BRANCH   4  15ATOM     15  C   UNL     1      36.717  44.414  17.574 -0.32 +0.01    -0.018 A  ATOM     16  C   UNL     1      36.173  43.570  16.587 -0.38 -0.00    +0.012 A  ATOM     17  C   UNL     1      36.275  44.256  18.900 -0.35 -0.00    +0.012 A  ATOM     18  C   UNL     1      35.219  42.603  16.916 -0.41 -0.02    +0.040 A  ATOM     19  C   UNL     1      35.320  43.290  19.228 -0.37 -0.01    +0.040 A  ATOM     20  C   UNL     1      34.802  42.473  18.234 -0.31 -0.03    +0.123 A  ATOM     21  F   UNL     1      33.887  41.548  18.548 -0.10 +0.03    -0.207 F  ENDBRANCH   4  15TORSDOF 4TERENDMDL