REMARK SMILES COc1cc(-c2ccccc2)cc(-c2ccnc(NC(=O)C(F)(F)F)c2)c1
REMARK SMILES IDX 14 1 15 2 16 3 17 4 18 5 26 6 13 7 3 8 4 9 27 10 5 11 12 12
REMARK SMILES IDX 2 13 1 14 6 15 7 16 11 17 8 18 10 19 9 20 19 21 20 22 21 24
REMARK SMILES IDX 22 25 23 26 24 27 25 28
REMARK H PARENT 19 23
ROOT
ATOM      1  C   UNL     1       1.472   0.999   0.281  1.00  0.00    -0.013 A 
ATOM      2  C   UNL     1       1.524   2.383   0.468  1.00  0.00     0.029 A 
ATOM      3  C   UNL     1       2.719   3.041   0.239  1.00  0.00     0.114 A 
ATOM      4  N   UNL     1       3.850   2.425  -0.161  1.00  0.00    -0.239 NA
ATOM      5  C   UNL     1       3.801   1.089  -0.340  1.00  0.00     0.133 A 
ATOM      6  C   UNL     1       2.646   0.349  -0.132  1.00  0.00     0.056 A 
ENDROOT
BRANCH   1   7
ATOM      7  C   UNL     1       0.226   0.248   0.512  1.00  0.00    -0.014 A 
ATOM      8  C   UNL     1      -0.975  -1.594   1.579  1.00  0.00     0.120 A 
ATOM      9  C   UNL     1      -2.158  -1.183   0.965  1.00  0.00     0.055 A 
ATOM     10  C   UNL     1       0.203  -0.877   1.350  1.00  0.00     0.055 A 
ATOM     11  C   UNL     1      -2.179  -0.062   0.117  1.00  0.00    -0.014 A 
ATOM     12  C   UNL     1      -0.978   0.638  -0.096  1.00  0.00     0.017 A 
BRANCH   8  13
ATOM     13  O   UNL     1      -0.835  -2.664   2.420  1.00  0.00    -0.497 OA
ATOM     14  C   UNL     1      -1.989  -3.465   2.644  1.00  0.00     0.278 C 
ENDBRANCH   8  13
BRANCH  11  15
ATOM     15  C   UNL     1      -3.427   0.369  -0.533  1.00  0.00    -0.018 A 
ATOM     16  C   UNL     1      -3.508   0.493  -1.930  1.00  0.00     0.009 A 
ATOM     17  C   UNL     1      -4.572   0.667   0.225  1.00  0.00     0.009 A 
ATOM     18  C   UNL     1      -4.693   0.901  -2.548  1.00  0.00     0.001 A 
ATOM     19  C   UNL     1      -5.756   1.077  -0.392  1.00  0.00     0.001 A 
ATOM     20  C   UNL     1      -5.816   1.194  -1.779  1.00  0.00     0.000 A 
ENDBRANCH  11  15
ENDBRANCH   1   7
BRANCH   5  21
ATOM     21  N   UNL     1       5.020   0.556  -0.750  1.00  0.00    -0.303 N 
ATOM     22  C   UNL     1       5.349  -0.762  -1.021  1.00  0.00     0.331 C 
ATOM     23  H   UNL     1       5.740   1.267  -0.845  1.00  0.00     0.171 HD
ATOM     24  O   UNL     1       4.572  -1.713  -0.936  1.00  0.00    -0.264 OA
BRANCH  22  25
ATOM     25  C   UNL     1       6.819  -0.930  -1.451  1.00  0.00     0.471 C 
ATOM     26  F   UNL     1       7.519  -1.745  -0.616  1.00  0.00    -0.162 F 
ATOM     27  F   UNL     1       6.942  -1.448  -2.703  1.00  0.00    -0.162 F 
ATOM     28  F   UNL     1       7.486   0.262  -1.465  1.00  0.00    -0.162 F 
ENDBRANCH  22  25
ENDBRANCH   5  21
TORSDOF 5
