MODEL        6USER    Run = 6USERUSER    Estimated Free Energy of Binding    =  -9.28 kcal/mol  [=(1)+(2)+(3)-(4)]USERUSER    (1) Final Intermolecular Energy     = -10.77 kcal/molUSER        vdW + Hbond + desolv Energy     = -10.69 kcal/molUSER        Electrostatic Energy            =  -0.08 kcal/molUSER        Moving Ligand-Fixed Receptor    = -10.77 kcal/molUSER        Moving Ligand-Moving Receptor   =  +0.00 kcal/molUSER    (2) Final Total Internal Energy     =  -0.96 kcal/molUSER    (3) Torsional Free Energy           =  +1.49 kcal/molUSER    (4) Unbound System's Energy         =  -0.96 kcal/molUSERUSERREMARK SMILES COc1cc(-c2ccccc2)cc(-c2ccnc(NC(=O)C(F)(F)F)c2)c1REMARK SMILES IDX 14 1 15 2 16 3 17 4 18 5 26 6 13 7 3 8 4 9 27 10 5 11 12 12REMARK SMILES IDX 2 13 1 14 6 15 7 16 11 17 8 18 10 19 9 20 19 21 20 22 21 24REMARK SMILES IDX 22 25 23 26 24 27 25 28REMARK H PARENT 19 23USER                              x       y       z     vdW  Elec       q    TypeUSER                           _______ _______ _______ _____ _____    ______ ____ROOTATOM      1  C   UNL     1      40.400  46.361  18.399 -0.47 +0.00    -0.013 A  ATOM      2  C   UNL     1      41.598  46.424  19.115 -0.47 +0.00    +0.029 A  ATOM      3  C   UNL     1      41.718  45.684  20.278 -0.30 +0.02    +0.114 A  ATOM      4  N   UNL     1      40.742  44.893  20.768 -0.20 -0.02    -0.239 NA ATOM      5  C   UNL     1      39.584  44.833  20.077 -0.29 -0.00    +0.133 A  ATOM      6  C   UNL     1      39.377  45.543  18.904 -0.39 -0.00    +0.056 A  ENDROOTBRANCH   1   7ATOM      7  C   UNL     1      40.218  47.130  17.156 -0.50 +0.00    -0.014 A  ATOM      8  C   UNL     1      40.883  48.955  15.672 -0.52 -0.02    +0.120 A  ATOM      9  C   UNL     1      39.879  48.595  14.773 -0.50 -0.02    +0.055 A  ATOM     10  C   UNL     1      41.045  48.221  16.851 -0.50 -0.01    +0.055 A  ATOM     11  C   UNL     1      39.027  47.509  15.040 -0.49 +0.00    -0.014 A  ATOM     12  C   UNL     1      39.213  46.791  16.235 -0.44 -0.00    +0.017 A  BRANCH   8  13ATOM     13  O   UNL     1      41.767  49.988  15.519 -0.72 +0.02    -0.497 OA ATOM     14  C   UNL     1      42.109  50.353  14.187 -0.49 -0.06    +0.278 C  ENDBRANCH   8  13BRANCH  11  15ATOM     15  C   UNL     1      37.966  47.132  14.093 -0.47 +0.01    -0.018 A  ATOM     16  C   UNL     1      37.179  48.111  13.463 -0.57 -0.00    +0.009 A  ATOM     17  C   UNL     1      37.711  45.783  13.791 -0.43 -0.00    +0.009 A  ATOM     18  C   UNL     1      36.172  47.753  12.562 -0.66 -0.00    +0.001 A  ATOM     19  C   UNL     1      36.703  45.426  12.893 -0.52 -0.00    +0.001 A  ATOM     20  C   UNL     1      35.934  46.411  12.279 -0.63 -0.00    +0.000 A  ENDBRANCH  11  15ENDBRANCH   1   7BRANCH   5  21ATOM     21  N   UNL     1      38.647  43.992  20.671 -0.13 -0.00    -0.303 N  ATOM     22  C   UNL     1      37.277  43.934  20.471 -0.22 -0.01    +0.331 C  ATOM     23  H   UNL     1      39.069  43.354  21.339 +0.11 +0.01    +0.171 HD ATOM     24  O   UNL     1      36.648  44.655  19.698 -0.26 +0.03    -0.264 OA BRANCH  22  25ATOM     25  C   UNL     1      36.598  42.851  21.332 -0.18 +0.02    +0.471 C  ATOM     26  F   UNL     1      36.554  43.182  22.651 -0.13 -0.02    -0.162 F  ATOM     27  F   UNL     1      35.318  42.601  20.944 -0.15 -0.01    -0.162 F  ATOM     28  F   UNL     1      37.257  41.656  21.262 -0.17 -0.00    -0.162 F  ENDBRANCH  22  25ENDBRANCH   5  21TORSDOF 5TERENDMDL