MODEL        1USER    Run = 1USERUSER    Estimated Free Energy of Binding    = -12.62 kcal/mol  [=(1)+(2)+(3)-(4)]USERUSER    (1) Final Intermolecular Energy     = -14.71 kcal/molUSER        vdW + Hbond + desolv Energy     = -14.65 kcal/molUSER        Electrostatic Energy            =  -0.06 kcal/molUSER        Moving Ligand-Fixed Receptor    = -14.71 kcal/molUSER        Moving Ligand-Moving Receptor   =  +0.00 kcal/molUSER    (2) Final Total Internal Energy     =  -2.15 kcal/molUSER    (3) Torsional Free Energy           =  +2.09 kcal/molUSER    (4) Unbound System's Energy         =  -2.15 kcal/molUSERUSERREMARK SMILES COc1ccc(-c2nc3ccccc3nc2-c2ccc(CN3CCC(n4c(O)nc5cc(F)ccc54)CC3)cc2)cc1REMARK SMILES IDX 17 1 18 2 19 3 20 4 39 5 40 6 16 7 7 8 8 9 9 10 15 11 10 12REMARK SMILES IDX 14 13 11 14 13 15 12 16 6 17 3 18 4 19 42 20 5 21 41 22 2 23REMARK SMILES IDX 1 24 21 25 22 26 23 27 38 28 24 29 37 30 25 31 26 32 27 33REMARK SMILES IDX 36 34 29 35 35 36 30 37 34 38 31 39 32 40 33 41 28 42REMARK H PARENT 28 43USER                              x       y       z     vdW  Elec       q    TypeUSER                           _______ _______ _______ _____ _____    ______ ____ROOTATOM      1  C   UNL     1      33.901  43.566  16.477 -0.35 -0.00    +0.002 A  ATOM      2  C   UNL     1      33.208  44.724  16.092 -0.32 -0.01    +0.011 A  ATOM      3  C   UNL     1      33.794  45.666  15.239 -0.19 -0.01    +0.006 A  ATOM      4  C   UNL     1      35.088  45.472  14.740 -0.30 +0.02    -0.034 A  ATOM      5  C   UNL     1      35.776  44.305  15.094 -0.25 -0.00    +0.006 A  ATOM      6  C   UNL     1      35.188  43.366  15.947 -0.36 -0.00    +0.011 A  ENDROOTBRANCH   1   7ATOM      7  C   UNL     1      33.312  42.570  17.391 -0.29 -0.03    +0.097 A  ATOM      8  C   UNL     1      33.781  42.280  18.682 -0.33 -0.01    +0.097 A  ATOM      9  N   UNL     1      33.130  41.383  19.479 -0.33 -0.03    -0.244 NA ATOM     10  C   UNL     1      32.048  40.767  18.972 -0.33 +0.00    +0.089 A  ATOM     11  N   UNL     1      32.222  41.932  16.877 -0.08 +0.12    -0.244 NA ATOM     12  C   UNL     1      31.361  39.839  19.745 -0.34 +0.00    +0.030 A  ATOM     13  C   UNL     1      31.594  41.040  17.663 -0.30 -0.02    +0.089 A  ATOM     14  C   UNL     1      30.237  39.173  19.254 -0.34 +0.00    +0.002 A  ATOM     15  C   UNL     1      30.474  40.372  17.183 -0.34 -0.00    +0.030 A  ATOM     16  C   UNL     1      29.792  39.440  17.967 -0.35 +0.00    +0.002 A  BRANCH   8  17ATOM     17  C   UNL     1      34.990  42.854  19.305 -0.41 -0.00    +0.003 A  ATOM     18  C   UNL     1      37.327  43.905  20.520 -0.31 -0.00    +0.118 A  ATOM     19  C   UNL     1      36.609  44.656  19.589 -0.23 -0.01    +0.047 A  ATOM     20  C   UNL     1      36.886  42.622  20.840 -0.39 +0.00    +0.047 A  ATOM     21  C   UNL     1      35.461  44.136  18.981 -0.36 -0.00    +0.014 A  ATOM     22  C   UNL     1      35.733  42.105  20.235 -0.45 -0.00    +0.014 A  BRANCH  18  23ATOM     23  O   UNL     1      38.427  44.530  21.036 -0.09 -0.01    -0.497 OA ATOM     24  C   UNL     1      38.269  45.173  22.294 -0.22 +0.02    +0.278 C  ENDBRANCH  18  23ENDBRANCH   8  17ENDBRANCH   1   7BRANCH   4  25ATOM     25  C   UNL     1      35.719  46.491  13.816 -0.45 -0.08    +0.120 C  BRANCH  25  26ATOM     26  N   UNL     1      36.371  47.605  14.522 -0.19 +0.25    -0.299 NA ATOM     27  C   UNL     1      36.728  47.324  15.916 -0.35 -0.08    +0.087 C  ATOM     28  C   UNL     1      37.534  48.120  13.796 -0.55 -0.04    +0.087 C  ATOM     29  C   UNL     1      37.836  46.287  16.061 -0.41 -0.02    +0.041 C  ATOM     30  C   UNL     1      38.773  47.222  13.859 -0.45 -0.01    +0.041 C  ATOM     31  C   UNL     1      39.091  46.644  15.252 -0.44 -0.03    +0.095 C  BRANCH  31  32ATOM     32  N   UNL     1      40.070  47.369  16.059 -0.27 +0.06    -0.291 N  ATOM     33  C   UNL     1      40.588  48.617  15.874 -0.34 -0.06    +0.295 A  ATOM     34  C   UNL     1      40.643  46.879  17.225 -0.46 -0.01    +0.072 A  ATOM     35  N   UNL     1      41.439  48.973  16.797 -0.97 -0.00    -0.195 NA ATOM     36  C   UNL     1      40.499  45.678  17.935 -0.44 -0.00    +0.032 A  ATOM     37  C   UNL     1      41.489  47.904  17.652 -0.40 -0.01    +0.095 A  ATOM     38  C   UNL     1      41.255  45.536  19.104 -0.42 +0.00    +0.041 A  ATOM     39  C   UNL     1      42.240  47.745  18.824 -0.38 +0.00    +0.070 A  ATOM     40  C   UNL     1      42.106  46.551  19.530 -0.38 +0.02    +0.125 A  ATOM     41  F   UNL     1      42.813  46.378  20.655 -0.10 -0.07    -0.207 F  BRANCH  33  42ATOM     42  O   UNL     1      40.295  49.428  14.881 -0.21 +0.20    -0.480 OA ATOM     43  H   UNL     1      39.661  50.033  15.308 -0.17 -0.22    +0.296 HD ENDBRANCH  33  42ENDBRANCH  31  32ENDBRANCH  25  26ENDBRANCH   4  25TORSDOF 7TERENDMDL