MODEL        7USER    Run = 7USERUSER    Estimated Free Energy of Binding    =  -9.56 kcal/mol  [=(1)+(2)+(3)-(4)]USERUSER    (1) Final Intermolecular Energy     = -11.35 kcal/molUSER        vdW + Hbond + desolv Energy     = -11.27 kcal/molUSER        Electrostatic Energy            =  -0.08 kcal/molUSER        Moving Ligand-Fixed Receptor    = -11.35 kcal/molUSER        Moving Ligand-Moving Receptor   =  +0.00 kcal/molUSER    (2) Final Total Internal Energy     =  -0.77 kcal/molUSER    (3) Torsional Free Energy           =  +1.79 kcal/molUSER    (4) Unbound System's Energy         =  -0.77 kcal/molUSERUSERREMARK SMILES COc1cc(-c2ccnc(NC(=O)CCF)c2)cc(-c2ccccc2)c1CREMARK SMILES IDX 6 1 7 2 8 3 9 4 10 5 17 6 5 7 3 8 4 9 26 10 19 11 18 12REMARK SMILES IDX 27 13 2 14 1 15 20 16 21 17 25 18 22 19 24 20 23 21 11 22REMARK SMILES IDX 12 23 13 25 14 26 15 27 16 28REMARK H PARENT 11 24USER                              x       y       z     vdW  Elec       q    TypeUSER                           _______ _______ _______ _____ _____    ______ ____ROOTATOM      1  C   UNL     1      37.504  47.120  14.184 -0.47 +0.01    -0.013 A  ATOM      2  C   UNL     1      37.729  47.245  12.809 -0.47 -0.01    +0.029 A  ATOM      3  C   UNL     1      36.680  47.024  11.937 -0.58 -0.04    +0.114 A  ATOM      4  N   UNL     1      35.432  46.695  12.331 -0.39 +0.16    -0.239 NA ATOM      5  C   UNL     1      35.212  46.577  13.656 -0.36 -0.10    +0.133 A  ATOM      6  C   UNL     1      36.210  46.774  14.601 -0.38 -0.04    +0.056 A  ENDROOTBRANCH   1   7ATOM      7  C   UNL     1      38.588  47.348  15.158 -0.46 +0.01    -0.014 A  ATOM      8  C   UNL     1      40.552  48.606  15.897 -0.49 -0.03    +0.123 A  ATOM      9  C   UNL     1      39.516  48.385  14.980 -0.51 -0.02    +0.055 A  ATOM     10  C   UNL     1      40.698  47.761  17.016 -0.54 +0.00    -0.001 A  ATOM     11  C   UNL     1      39.757  46.728  17.232 -0.47 +0.00    -0.011 A  ATOM     12  C   UNL     1      38.723  46.539  16.295 -0.40 -0.01    +0.018 A  ATOM     13  C   UNL     1      41.814  48.012  18.002 -0.48 -0.00    +0.049 C  BRANCH   8  14ATOM     14  O   UNL     1      41.479  49.613  15.782 -0.81 +0.03    -0.496 OA ATOM     15  C   UNL     1      41.761  50.102  14.477 -0.50 -0.06    +0.278 C  ENDBRANCH   8  14BRANCH  11  16ATOM     16  C   UNL     1      39.806  45.842  18.403 -0.44 +0.00    -0.018 A  ATOM     17  C   UNL     1      38.647  45.571  19.145 -0.32 -0.00    +0.009 A  ATOM     18  C   UNL     1      41.011  45.238  18.794 -0.45 +0.00    +0.009 A  ATOM     19  C   UNL     1      38.691  44.720  20.252 -0.37 -0.00    +0.001 A  ATOM     20  C   UNL     1      41.056  44.391  19.902 -0.37 +0.00    +0.001 A  ATOM     21  C   UNL     1      39.896  44.131  20.629 -0.21 +0.00    +0.000 A  ENDBRANCH  11  16ENDBRANCH   1   7BRANCH   5  22ATOM     22  N   UNL     1      33.892  46.240  13.959 -0.14 +0.30    -0.311 N  ATOM     23  C   UNL     1      33.418  45.495  15.014 -0.16 -0.20    +0.228 C  ATOM     24  H   UNL     1      33.244  46.634  13.291 -0.40 -0.16    +0.171 HD ATOM     25  O   UNL     1      34.093  45.027  15.925 -0.21 +0.20    -0.275 OA BRANCH  23  26ATOM     26  C   UNL     1      31.907  45.377  14.993 -0.40 -0.09    +0.134 C  BRANCH  26  27ATOM     27  C   UNL     1      31.262  46.627  14.433 -0.35 -0.14    +0.224 C  ATOM     28  F   UNL     1      31.088  46.461  13.092 -0.18 +0.14    -0.251 F  ENDBRANCH  26  27ENDBRANCH  23  26ENDBRANCH   5  22TORSDOF 6TERENDMDL