MODEL        10USER    Run = 10USERUSER    Estimated Free Energy of Binding    = -10.81 kcal/mol  [=(1)+(2)+(3)-(4)]USERUSER    (1) Final Intermolecular Energy     = -12.60 kcal/molUSER        vdW + Hbond + desolv Energy     = -12.26 kcal/molUSER        Electrostatic Energy            =  -0.34 kcal/molUSER        Moving Ligand-Fixed Receptor    = -12.60 kcal/molUSER        Moving Ligand-Moving Receptor   =  +0.00 kcal/molUSER    (2) Final Total Internal Energy     =  -1.46 kcal/molUSER    (3) Torsional Free Energy           =  +1.79 kcal/molUSER    (4) Unbound System's Energy         =  -1.46 kcal/molUSERUSERREMARK SMILES Cn1ncc2cc(-c3ccnc(Nc4ccc(N)c(-c5nnc(O)o5)c4)n3)ccc21REMARK SMILES IDX 14 1 15 2 16 3 17 4 19 5 26 6 13 7 12 9 8 10 9 11 27 12REMARK SMILES IDX 10 13 11 14 7 15 2 16 3 17 30 18 4 19 29 20 5 21 28 22 6 23REMARK SMILES IDX 1 24 20 25 21 26 25 27 22 28 23 29 24 30 18 32REMARK H PARENT 13 8 24 31 18 33 18 34USER                              x       y       z     vdW  Elec       q    TypeUSER                           _______ _______ _______ _____ _____    ______ ____ROOTATOM      1  C   UNL     1      40.078  45.498  20.207 -0.35 +0.00    +0.042 A  ATOM      2  C   UNL     1      41.271  45.495  20.924 -0.32 +0.00    +0.028 A  ATOM      3  C   UNL     1      42.384  46.223  20.483 -0.34 +0.01    +0.028 A  ATOM      4  C   UNL     1      42.327  47.013  19.329 -0.48 +0.01    +0.044 A  ATOM      5  C   UNL     1      41.145  46.998  18.559 -0.44 -0.00    +0.064 A  ATOM      6  C   UNL     1      40.038  46.255  19.023 -0.36 -0.00    +0.042 A  ENDROOTBRANCH   1   7ATOM      7  N   UNL     1      38.930  44.802  20.595 -0.17 -0.00    -0.324 N  ATOM      8  H   UNL     1      38.941  44.356  21.500 +0.10 +0.01    +0.170 HD BRANCH   7   9ATOM      9  C   UNL     1      37.682  44.590  20.015 -0.18 -0.01    +0.227 A  ATOM     10  C   UNL     1      36.388  44.863  18.114 -0.28 -0.02    +0.076 A  ATOM     11  C   UNL     1      35.314  44.252  18.730 -0.32 -0.01    +0.049 A  ATOM     12  N   UNL     1      37.565  45.040  18.755 -0.23 +0.03    -0.213 NA ATOM     13  C   UNL     1      35.521  43.832  20.019 -0.33 -0.01    +0.117 A  ATOM     14  N   UNL     1      36.684  43.987  20.673 -0.27 +0.00    -0.221 NA BRANCH  10  15ATOM     15  C   UNL     1      36.329  45.376  16.728 -0.34 -0.00    +0.001 A  ATOM     16  N   UNL     1      36.310  47.009  12.913 -0.39 +0.14    -0.268 N  ATOM     17  N   UNL     1      36.991  48.166  13.039 -0.92 +0.06    -0.181 NA ATOM     18  C   UNL     1      36.195  46.300  14.084 -0.40 -0.04    +0.068 A  ATOM     19  C   UNL     1      37.324  48.192  14.331 -0.42 -0.09    +0.143 A  ATOM     20  C   UNL     1      35.573  45.087  14.398 -0.12 -0.02    +0.029 A  ATOM     21  C   UNL     1      36.864  47.059  15.037 -0.40 -0.01    +0.021 A  ATOM     22  C   UNL     1      35.653  44.650  15.728 -0.34 -0.01    +0.012 A  ATOM     23  C   UNL     1      36.933  46.599  16.366 -0.36 -0.01    +0.022 A  ATOM     24  C   UNL     1      35.770  46.643  11.625 -0.33 -0.10    +0.174 C  ENDBRANCH  10  15ENDBRANCH   7   9ENDBRANCH   1   7BRANCH   5  25ATOM     25  C   UNL     1      41.040  47.766  17.319 -0.32 -0.03    +0.253 A  ATOM     26  N   UNL     1      40.361  47.511  16.209 -0.43 +0.02    -0.104 NA ATOM     27  O   UNL     1      41.752  48.942  17.238 -0.78 -0.05    -0.389 OA ATOM     28  N   UNL     1      40.612  48.554  15.339 -0.54 +0.01    -0.071 NA ATOM     29  C   UNL     1      41.419  49.347  15.992 -0.11 -0.01    +0.412 A  BRANCH  29  30ATOM     30  O   UNL     1      41.932  50.477  15.561 -0.63 +0.04    -0.465 OA ATOM     31  H   UNL     1      41.533  51.124  16.166 -0.32 -0.12    +0.298 HD ENDBRANCH  29  30ENDBRANCH   5  25BRANCH   4  32ATOM     32  N   UNL     1      43.520  47.605  18.878 -0.23 -0.07    -0.398 N  ATOM     33  H   UNL     1      43.552  47.757  17.868 -0.36 -0.01    +0.156 HD ATOM     34  H   UNL     1      43.806  48.426  19.400 -0.53 -0.03    +0.156 HD ENDBRANCH   4  32TORSDOF 6TERENDMDL