MODEL        10USER    Run = 10USERUSER    Estimated Free Energy of Binding    = -12.66 kcal/mol  [=(1)+(2)+(3)-(4)]USERUSER    (1) Final Intermolecular Energy     = -14.75 kcal/molUSER        vdW + Hbond + desolv Energy     = -14.71 kcal/molUSER        Electrostatic Energy            =  -0.04 kcal/molUSER        Moving Ligand-Fixed Receptor    = -14.75 kcal/molUSER        Moving Ligand-Moving Receptor   =  +0.00 kcal/molUSER    (2) Final Total Internal Energy     =  -1.85 kcal/molUSER    (3) Torsional Free Energy           =  +2.09 kcal/molUSER    (4) Unbound System's Energy         =  -1.85 kcal/molUSERUSERREMARK SMILES Oc1nc2ccccc2n1C1CCN(Cc2ccc(-c3nc4ccc(N5CCOCC5)cc4nc3-c3ccccc3)cc2)CC1REMARK SMILES IDX 11 1 12 2 13 3 14 4 44 5 45 6 10 7 2 8 3 9 4 10 9 11 5 12REMARK SMILES IDX 8 13 6 14 7 15 1 16 15 18 16 19 17 20 43 21 18 22 42 23REMARK SMILES IDX 19 24 20 25 21 26 35 27 22 28 34 29 23 30 33 31 24 32 32 33REMARK SMILES IDX 25 34 36 35 37 36 41 37 38 38 40 39 39 40 26 41 27 42 31 43REMARK SMILES IDX 28 44 30 45 29 46REMARK H PARENT 1 17USER                              x       y       z     vdW  Elec       q    TypeUSER                           _______ _______ _______ _____ _____    ______ ____ROOTATOM      1  C   UNL     1      39.924  46.089  17.661 -0.45 -0.01    +0.095 C  ATOM      2  C   UNL     1      41.279  46.327  18.332 -0.54 -0.00    +0.041 C  ATOM      3  C   UNL     1      41.448  45.386  19.524 -0.40 +0.01    +0.087 C  ATOM      4  N   UNL     1      40.347  45.524  20.492 -0.19 -0.01    -0.299 NA ATOM      5  C   UNL     1      39.037  45.299  19.864 -0.37 -0.00    +0.087 C  ATOM      6  C   UNL     1      38.798  46.239  18.683 -0.18 -0.01    +0.041 C  ENDROOTBRANCH   1   7ATOM      7  N   UNL     1      39.705  46.883  16.463 -0.25 +0.07    -0.291 N  ATOM      8  C   UNL     1      40.400  47.990  16.064 -0.31 -0.06    +0.295 A  ATOM      9  N   UNL     1      39.977  48.487  14.934 -0.39 +0.06    -0.195 NA ATOM     10  C   UNL     1      38.931  47.676  14.572 -0.43 -0.03    +0.092 A  ATOM     11  C   UNL     1      38.729  46.662  15.511 -0.38 -0.02    +0.072 A  ATOM     12  C   UNL     1      38.098  47.746  13.443 -0.45 -0.01    +0.031 A  ATOM     13  C   UNL     1      37.713  45.707  15.376 -0.35 -0.01    +0.029 A  ATOM     14  C   UNL     1      37.080  46.796  13.291 -0.55 -0.00    +0.002 A  ATOM     15  C   UNL     1      36.893  45.794  14.244 -0.42 -0.00    +0.002 A  BRANCH   8  16ATOM     16  O   UNL     1      41.398  48.534  16.729 -0.71 +0.01    -0.480 OA ATOM     17  H   UNL     1      42.100  47.871  16.587 -0.28 -0.03    +0.296 HD ENDBRANCH   8  16ENDBRANCH   1   7BRANCH   4  18ATOM     18  C   UNL     1      40.512  44.604  21.634 -0.26 +0.01    +0.120 C  BRANCH  18  19ATOM     19  C   UNL     1      39.681  44.976  22.843 -0.23 -0.00    -0.034 A  ATOM     20  C   UNL     1      40.049  46.052  23.661 -0.22 +0.00    +0.006 A  ATOM     21  C   UNL     1      38.516  44.260  23.153 -0.29 +0.00    +0.006 A  ATOM     22  C   UNL     1      39.273  46.399  24.769 -0.23 +0.00    +0.011 A  ATOM     23  C   UNL     1      37.750  44.599  24.272 -0.30 +0.00    +0.011 A  ATOM     24  C   UNL     1      38.122  45.668  25.105 -0.28 +0.00    +0.002 A  BRANCH  24  25ATOM     25  C   UNL     1      37.331  46.030  26.290 -0.29 -0.01    +0.097 A  ATOM     26  N   UNL     1      37.056  47.362  26.382 -0.30 +0.02    -0.244 NA ATOM     27  C   UNL     1      36.864  45.122  27.252 -0.32 -0.02    +0.097 A  ATOM     28  C   UNL     1      36.293  47.767  27.411 -0.24 -0.02    +0.090 A  ATOM     29  N   UNL     1      36.095  45.545  28.295 -0.28 +0.06    -0.244 NA ATOM     30  C   UNL     1      35.963  49.108  27.532 -0.32 -0.00    +0.033 A  ATOM     31  C   UNL     1      35.813  46.857  28.374 -0.24 -0.03    +0.092 A  ATOM     32  C   UNL     1      35.167  49.570  28.584 -0.22 -0.00    +0.028 A  ATOM     33  C   UNL     1      35.034  47.334  29.422 -0.37 -0.01    +0.056 A  ATOM     34  C   UNL     1      34.689  48.689  29.554 -0.31 -0.00    +0.039 A  BRANCH  27  35ATOM     35  C   UNL     1      37.141  43.672  27.260 -0.36 -0.00    +0.002 A  ATOM     36  C   UNL     1      38.433  43.157  27.483 -0.30 -0.00    +0.010 A  ATOM     37  C   UNL     1      36.095  42.751  27.066 -0.47 -0.00    +0.010 A  ATOM     38  C   UNL     1      38.673  41.779  27.477 -0.38 -0.00    +0.001 A  ATOM     39  C   UNL     1      36.333  41.373  27.066 -0.56 -0.00    +0.001 A  ATOM     40  C   UNL     1      37.623  40.888  27.265 -0.39 -0.00    +0.000 A  ENDBRANCH  27  35BRANCH  34  41ATOM     41  N   UNL     1      33.893  49.076  30.640 -0.09 +0.01    -0.367 N  ATOM     42  C   UNL     1      32.458  48.763  30.433 -0.29 +0.00    +0.145 C  ATOM     43  C   UNL     1      34.344  48.700  31.997 -0.18 -0.01    +0.145 C  ATOM     44  C   UNL     1      31.615  49.406  31.550 -0.19 +0.00    +0.181 C  ATOM     45  C   UNL     1      33.442  49.385  33.040 -0.09 -0.00    +0.181 C  ATOM     46  O   UNL     1      32.066  49.006  32.856 -0.06 +0.01    -0.378 OA ENDBRANCH  34  41ENDBRANCH  24  25ENDBRANCH  18  19ENDBRANCH   4  18TORSDOF 7TERENDMDL