REMARK SMILES Oc1nc2ccccc2n1C1CCN(Cc2ccc(-c3nc4ccc(N5CCOCC5)cc4nc3-c3ccccc3)cc2)CC1
REMARK SMILES IDX 11 1 12 2 13 3 14 4 44 5 45 6 10 7 2 8 3 9 4 10 9 11 5 12
REMARK SMILES IDX 8 13 6 14 7 15 1 16 15 18 16 19 17 20 43 21 18 22 42 23
REMARK SMILES IDX 19 24 20 25 21 26 35 27 22 28 34 29 23 30 33 31 24 32 32 33
REMARK SMILES IDX 25 34 36 35 37 36 41 37 38 38 40 39 39 40 26 41 27 42 31 43
REMARK SMILES IDX 28 44 30 45 29 46
REMARK H PARENT 1 17
ROOT
ATOM      1  C   UNL     1       6.377   0.145  -0.226  1.00  0.00     0.095 C 
ATOM      2  C   UNL     1       4.974   0.690  -0.503  1.00  0.00     0.041 C 
ATOM      3  C   UNL     1       4.002   0.211   0.574  1.00  0.00     0.087 C 
ATOM      4  N   UNL     1       3.986  -1.257   0.684  1.00  0.00    -0.299 NA
ATOM      5  C   UNL     1       5.327  -1.799   0.950  1.00  0.00     0.087 C 
ATOM      6  C   UNL     1       6.337  -1.379  -0.117  1.00  0.00     0.041 C 
ENDROOT
BRANCH   1   7
ATOM      7  N   UNL     1       7.393   0.615  -1.154  1.00  0.00    -0.291 N 
ATOM      8  C   UNL     1       7.377   0.521  -2.517  1.00  0.00     0.295 A 
ATOM      9  N   UNL     1       8.430   1.043  -3.084  1.00  0.00    -0.195 NA
ATOM     10  C   UNL     1       9.196   1.493  -2.038  1.00  0.00     0.092 A 
ATOM     11  C   UNL     1       8.578   1.236  -0.812  1.00  0.00     0.072 A 
ATOM     12  C   UNL     1      10.445   2.135  -2.060  1.00  0.00     0.031 A 
ATOM     13  C   UNL     1       9.164   1.590   0.411  1.00  0.00     0.029 A 
ATOM     14  C   UNL     1      11.042   2.499  -0.846  1.00  0.00     0.002 A 
ATOM     15  C   UNL     1      10.409   2.229   0.368  1.00  0.00     0.002 A 
BRANCH   8  16
ATOM     16  O   UNL     1       6.417  -0.039  -3.223  1.00  0.00    -0.480 OA
ATOM     17  H   UNL     1       6.756   0.086  -4.130  1.00  0.00     0.296 HD
ENDBRANCH   8  16
ENDBRANCH   1   7
BRANCH   4  18
ATOM     18  C   UNL     1       3.053  -1.711   1.734  1.00  0.00     0.120 C 
BRANCH  18  19
ATOM     19  C   UNL     1       1.600  -1.415   1.429  1.00  0.00    -0.034 A 
ATOM     20  C   UNL     1       0.926  -0.380   2.090  1.00  0.00     0.006 A 
ATOM     21  C   UNL     1       0.910  -2.162   0.464  1.00  0.00     0.006 A 
ATOM     22  C   UNL     1      -0.411  -0.104   1.798  1.00  0.00     0.011 A 
ATOM     23  C   UNL     1      -0.433  -1.894   0.185  1.00  0.00     0.011 A 
ATOM     24  C   UNL     1      -1.119  -0.867   0.855  1.00  0.00     0.002 A 
BRANCH  24  25
ATOM     25  C   UNL     1      -2.534  -0.579   0.578  1.00  0.00     0.097 A 
ATOM     26  N   UNL     1      -2.754   0.669   0.077  1.00  0.00    -0.244 NA
ATOM     27  C   UNL     1      -3.590  -1.481   0.776  1.00  0.00     0.097 A 
ATOM     28  C   UNL     1      -4.017   0.991  -0.250  1.00  0.00     0.090 A 
ATOM     29  N   UNL     1      -4.869  -1.142   0.445  1.00  0.00    -0.244 NA
ATOM     30  C   UNL     1      -4.287   2.240  -0.789  1.00  0.00     0.033 A 
ATOM     31  C   UNL     1      -5.080   0.085  -0.063  1.00  0.00     0.092 A 
ATOM     32  C   UNL     1      -5.585   2.612  -1.149  1.00  0.00     0.028 A 
ATOM     33  C   UNL     1      -6.367   0.475  -0.413  1.00  0.00     0.056 A 
ATOM     34  C   UNL     1      -6.654   1.735  -0.963  1.00  0.00     0.039 A 
BRANCH  27  35
ATOM     35  C   UNL     1      -3.458  -2.836   1.347  1.00  0.00     0.002 A 
ATOM     36  C   UNL     1      -2.758  -3.079   2.545  1.00  0.00     0.010 A 
ATOM     37  C   UNL     1      -4.061  -3.935   0.708  1.00  0.00     0.010 A 
ATOM     38  C   UNL     1      -2.639  -4.373   3.062  1.00  0.00     0.001 A 
ATOM     39  C   UNL     1      -3.947  -5.228   1.227  1.00  0.00     0.001 A 
ATOM     40  C   UNL     1      -3.230  -5.447   2.401  1.00  0.00     0.000 A 
ENDBRANCH  27  35
BRANCH  34  41
ATOM     41  N   UNL     1      -7.982   2.038  -1.292  1.00  0.00    -0.367 N 
ATOM     42  C   UNL     1      -8.811   2.330  -0.097  1.00  0.00     0.145 C 
ATOM     43  C   UNL     1      -8.219   3.017  -2.374  1.00  0.00     0.145 C 
ATOM     44  C   UNL     1     -10.293   2.436  -0.502  1.00  0.00     0.181 C 
ATOM     45  C   UNL     1      -9.723   3.054  -2.704  1.00  0.00     0.181 C 
ATOM     46  O   UNL     1     -10.494   3.409  -1.542  1.00  0.00    -0.378 OA
ENDBRANCH  34  41
ENDBRANCH  24  25
ENDBRANCH  18  19
ENDBRANCH   4  18
TORSDOF 7
