REMARK SMILES CN1CCN(C2=Cc3sc(NS(=O)(=O)c4ccc(F)cc4F)cc3C2=O)CC1
REMARK SMILES IDX 11 1 10 3 6 4 7 5 25 6 8 7 24 8 9 9 23 10 26 11 5 12 2 13
REMARK SMILES IDX 3 14 28 15 4 16 27 17 1 18 12 19 13 20 14 21 15 22 16 23
REMARK SMILES IDX 21 24 17 25 20 26 18 27 22 28 19 29
REMARK H PARENT 11 2
ROOT
ATOM      1  N   UNL     1       3.609  -0.394  -1.294  1.00  0.00    -0.270 N 
ATOM      2  H   UNL     1       3.819  -0.791  -2.213  1.00  0.00     0.181 HD
ENDROOT
BRANCH   1   3
ATOM      3  C   UNL     1       2.163  -0.462  -1.057  1.00  0.00     0.104 A 
ATOM      4  C   UNL     1      -2.201  -0.449  -0.251  1.00  0.00     0.087 C 
ATOM      5  C   UNL     1      -1.575  -1.154  -1.225  1.00  0.00     0.050 C 
ATOM      6  C   UNL     1      -1.106   0.359   0.496  1.00  0.00     0.210 C 
ATOM      7  C   UNL     1      -0.200  -0.889  -1.162  1.00  0.00     0.043 A 
ATOM      8  C   UNL     1       0.116  -0.013  -0.166  1.00  0.00     0.044 A 
ATOM      9  S   UNL     1       1.125  -1.405  -2.046  1.00  0.00    -0.117 S 
ATOM     10  C   UNL     1       1.496   0.264  -0.090  1.00  0.00     0.051 A 
ATOM     11  O   UNL     1      -1.236   1.157   1.406  1.00  0.00    -0.287 OA
BRANCH   4  12
ATOM     12  N   UNL     1      -3.562  -0.404   0.074  1.00  0.00    -0.366 N 
ATOM     13  N   UNL     1      -6.481  -0.114   0.656  1.00  0.00    -0.303 NA
ATOM     14  C   UNL     1      -5.446  -0.003   1.702  1.00  0.00     0.105 C 
ATOM     15  C   UNL     1      -5.963  -0.990  -0.412  1.00  0.00     0.105 C 
ATOM     16  C   UNL     1      -4.039   0.416   1.217  1.00  0.00     0.132 C 
ATOM     17  C   UNL     1      -4.583  -0.599  -0.982  1.00  0.00     0.132 C 
ATOM     18  C   UNL     1      -6.875   1.196   0.145  1.00  0.00     0.105 C 
ENDBRANCH   4  12
ENDBRANCH   1   3
BRANCH   1  19
ATOM     19  S   UNL     1       4.514  -1.292  -0.165  1.00  0.00     0.265 S 
ATOM     20  O   UNL     1       4.984  -2.451  -0.897  1.00  0.00    -0.201 OA
ATOM     21  O   UNL     1       3.824  -1.428   1.097  1.00  0.00    -0.201 OA
BRANCH  19  22
ATOM     22  C   UNL     1       5.904  -0.239   0.101  1.00  0.00     0.123 A 
ATOM     23  C   UNL     1       7.193  -0.663  -0.241  1.00  0.00     0.028 A 
ATOM     24  C   UNL     1       5.702   1.014   0.672  1.00  0.00     0.146 A 
ATOM     25  C   UNL     1       8.276   0.187  -0.010  1.00  0.00     0.041 A 
ATOM     26  C   UNL     1       6.780   1.862   0.903  1.00  0.00     0.080 A 
ATOM     27  C   UNL     1       8.059   1.440   0.559  1.00  0.00     0.126 A 
ATOM     28  F   UNL     1       4.476   1.438   1.002  1.00  0.00    -0.205 F 
ATOM     29  F   UNL     1       9.101   2.252   0.777  1.00  0.00    -0.207 F 
ENDBRANCH  19  22
ENDBRANCH   1  19
TORSDOF 4
