MODEL        8USER    Run = 8USERUSER    Estimated Free Energy of Binding    =  -9.45 kcal/mol  [=(1)+(2)+(3)-(4)]USERUSER    (1) Final Intermolecular Energy     = -10.35 kcal/molUSER        vdW + Hbond + desolv Energy     = -10.14 kcal/molUSER        Electrostatic Energy            =  -0.21 kcal/molUSER        Moving Ligand-Fixed Receptor    = -10.35 kcal/molUSER        Moving Ligand-Moving Receptor   =  +0.00 kcal/molUSER    (2) Final Total Internal Energy     =  -0.94 kcal/molUSER    (3) Torsional Free Energy           =  +0.89 kcal/molUSER    (4) Unbound System's Energy         =  -0.94 kcal/molUSERUSERREMARK SMILES CN1CCN([S@@H]2C(NS(=O)(=O)c3ccc(F)cc3)=Nc3ccccc32)CC1REMARK SMILES IDX 6 1 7 2 8 3 19 4 20 5 21 6 22 7 23 8 24 9 25 10 5 13 2 14REMARK SMILES IDX 3 15 27 16 4 17 26 18 1 19 9 20 10 21 11 22 12 23 13 24REMARK SMILES IDX 18 25 14 26 17 27 15 28 16 29REMARK H PARENT 6 11 8 12USER                              x       y       z     vdW  Elec       q    TypeUSER                           _______ _______ _______ _____ _____    ______ ____ROOTATOM      1  S   UNL     1      36.503  46.608  16.525 -0.45 +0.08    -0.108 S  ATOM      2  C   UNL     1      38.020  46.642  17.203 -0.24 -0.07    +0.172 C  ATOM      3  N   UNL     1      38.989  47.649  16.870 -0.23 +0.11    -0.258 N  ATOM      4  N   UNL     1      38.221  45.739  18.130 -0.25 +0.05    -0.223 NA ATOM      5  C   UNL     1      37.120  44.875  18.174 -0.30 -0.02    +0.079 A  ATOM      6  C   UNL     1      36.998  43.735  18.994 -0.25 -0.00    +0.029 A  ATOM      7  C   UNL     1      35.846  42.946  18.920 -0.35 -0.00    +0.002 A  ATOM      8  C   UNL     1      34.816  43.279  18.045 -0.34 -0.00    +0.001 A  ATOM      9  C   UNL     1      34.904  44.409  17.226 -0.29 -0.01    +0.017 A  ATOM     10  C   UNL     1      36.065  45.193  17.300 -0.31 -0.01    +0.033 A  ATOM     11  H   UNL     1      35.784  47.702  16.869 -0.05 -0.18    +0.111 HD ATOM     12  H   UNL     1      38.650  48.332  16.198 +0.12 -0.11    +0.182 HD ENDROOTBRANCH   1  13ATOM     13  N   UNL     1      36.774  46.255  14.909 -0.19 +0.14    -0.257 NA ATOM     14  N   UNL     1      36.987  47.721  12.297 -0.98 +0.08    -0.304 NA ATOM     15  C   UNL     1      35.690  47.387  12.923 -0.51 -0.06    +0.100 C  ATOM     16  C   UNL     1      38.035  47.758  13.334 -0.42 -0.02    +0.100 C  ATOM     17  C   UNL     1      35.716  46.173  13.879 -0.44 -0.07    +0.112 C  ATOM     18  C   UNL     1      38.071  46.528  14.265 -0.42 -0.04    +0.112 C  ATOM     19  C   UNL     1      37.318  46.784  11.225 -0.44 -0.03    +0.105 C  ENDBRANCH   1  13BRANCH   3  20ATOM     20  S   UNL     1      40.474  47.045  16.379 -0.48 -0.04    +0.263 S  ATOM     21  O   UNL     1      41.158  48.167  15.765 -0.53 +0.02    -0.201 OA ATOM     22  O   UNL     1      40.345  45.798  15.657 -0.27 +0.01    -0.201 OA BRANCH  20  23ATOM     23  C   UNL     1      41.279  46.726  17.932 -0.43 -0.01    +0.088 A  ATOM     24  C   UNL     1      42.264  47.610  18.389 -0.48 -0.00    +0.025 A  ATOM     25  C   UNL     1      40.887  45.628  18.708 -0.45 +0.00    +0.025 A  ATOM     26  C   UNL     1      42.877  47.379  19.620 -0.46 +0.01    +0.040 A  ATOM     27  C   UNL     1      41.505  45.404  19.939 -0.36 +0.01    +0.040 A  ATOM     28  C   UNL     1      42.493  46.279  20.382 -0.27 +0.03    +0.123 A  ATOM     29  F   UNL     1      43.082  46.061  21.566 -0.07 -0.07    -0.207 F  ENDBRANCH  20  23ENDBRANCH   3  20TORSDOF 3TERENDMDL