MODEL        10USER    Run = 10USERUSER    Estimated Free Energy of Binding    =  -9.20 kcal/mol  [=(1)+(2)+(3)-(4)]USERUSER    (1) Final Intermolecular Energy     = -10.40 kcal/molUSER        vdW + Hbond + desolv Energy     = -10.36 kcal/molUSER        Electrostatic Energy            =  -0.03 kcal/molUSER        Moving Ligand-Fixed Receptor    = -10.40 kcal/molUSER        Moving Ligand-Moving Receptor   =  +0.00 kcal/molUSER    (2) Final Total Internal Energy     =  -0.90 kcal/molUSER    (3) Torsional Free Energy           =  +1.19 kcal/molUSER    (4) Unbound System's Energy         =  -0.90 kcal/molUSERUSERREMARK SMILES CN1CCN(C2=Cc3sc(NS(=O)(=O)c4ccc(F)cc4F)cc3C2=O)CC1REMARK SMILES IDX 11 1 10 3 6 4 7 5 25 6 8 7 24 8 9 9 23 10 26 11 5 12 2 13REMARK SMILES IDX 3 14 28 15 4 16 27 17 1 18 12 19 13 20 14 21 15 22 16 23REMARK SMILES IDX 21 24 17 25 20 26 18 27 22 28 19 29REMARK H PARENT 11 2USER                              x       y       z     vdW  Elec       q    TypeUSER                           _______ _______ _______ _____ _____    ______ ____ROOTATOM      1  N   UNL     1      38.917  48.288  13.839 -0.29 +0.08    -0.270 N  ATOM      2  H   UNL     1      39.274  49.183  13.495 -0.15 -0.08    +0.181 HD ENDROOTBRANCH   1   3ATOM      3  C   UNL     1      39.599  47.946  15.092 -0.45 -0.03    +0.104 A  ATOM      4  C   UNL     1      41.656  46.684  18.817 -0.52 +0.00    +0.087 C  ATOM      5  C   UNL     1      41.779  47.891  18.211 -0.45 -0.00    +0.050 C  ATOM      6  C   UNL     1      40.688  45.838  17.946 -0.39 -0.01    +0.210 C  ATOM      7  C   UNL     1      40.979  47.902  17.060 -0.49 -0.01    +0.043 A  ATOM      8  C   UNL     1      40.321  46.722  16.872 -0.46 -0.01    +0.044 A  ATOM      9  S   UNL     1      40.669  49.039  15.870 -0.75 +0.03    -0.117 S  ATOM     10  C   UNL     1      39.512  46.718  15.717 -0.42 -0.01    +0.051 A  ATOM     11  O   UNL     1      40.339  44.682  18.099 -0.26 +0.01    -0.287 OA BRANCH   4  12ATOM     12  N   UNL     1      42.255  46.219  19.993 -0.17 -0.08    -0.366 N  ATOM     13  N   UNL     1      43.372  45.326  22.620 -0.07 -0.08    -0.303 NA ATOM     14  C   UNL     1      44.047  46.321  21.765 -0.25 +0.07    +0.105 C  ATOM     15  C   UNL     1      42.569  44.443  21.752 -0.25 +0.02    +0.105 C  ATOM     16  C   UNL     1      43.135  47.107  20.795 -0.35 +0.04    +0.132 C  ATOM     17  C   UNL     1      41.596  45.160  20.793 -0.31 +0.02    +0.132 C  ATOM     18  C   UNL     1      42.558  45.964  23.651 -0.12 +0.01    +0.105 C  ENDBRANCH   4  12ENDBRANCH   1   3BRANCH   1  19ATOM     19  S   UNL     1      37.236  48.482  14.025 -0.56 -0.16    +0.265 S  ATOM     20  O   UNL     1      36.709  48.506  12.675 -1.00 +0.06    -0.201 OA ATOM     21  O   UNL     1      36.912  49.518  14.977 -0.53 +0.23    -0.201 OA BRANCH  19  22ATOM     22  C   UNL     1      36.773  46.938  14.742 -0.33 -0.08    +0.123 A  ATOM     23  C   UNL     1      36.312  46.877  16.062 -0.34 -0.03    +0.028 A  ATOM     24  C   UNL     1      36.888  45.779  13.982 -0.33 -0.06    +0.146 A  ATOM     25  C   UNL     1      35.963  45.641  16.608 -0.32 -0.02    +0.041 A  ATOM     26  C   UNL     1      36.541  44.546  14.524 -0.31 -0.03    +0.080 A  ATOM     27  C   UNL     1      36.080  44.489  15.834 -0.27 -0.05    +0.126 A  ATOM     28  F   UNL     1      37.323  45.818  12.716 -0.13 +0.07    -0.205 F  ATOM     29  F   UNL     1      35.742  43.305  16.362 -0.10 +0.08    -0.207 F  ENDBRANCH  19  22ENDBRANCH   1  19TORSDOF 4TERENDMDL