REMARK SMILES CN1CCN([S@@H]2C(NS(=O)(=O)c3ccc(F)cc3)=Nc3ccccc32)CC1
REMARK SMILES IDX 6 1 7 2 8 3 19 4 20 5 21 6 22 7 23 8 24 9 25 10 5 13 2 14
REMARK SMILES IDX 3 15 27 16 4 17 26 18 1 19 9 20 10 21 11 22 12 23 13 24
REMARK SMILES IDX 18 25 14 26 17 27 15 28 16 29
REMARK H PARENT 6 11 8 12
ROOT
ATOM      1  S   UNL     1       0.805  -0.149  -1.617  1.00  0.00    -0.108 S 
ATOM      2  C   UNL     1      -0.751   0.143  -1.110  1.00  0.00     0.172 C 
ATOM      3  N   UNL     1      -1.330   1.458  -1.123  1.00  0.00    -0.258 N 
ATOM      4  N   UNL     1      -1.429  -0.931  -0.793  1.00  0.00    -0.223 NA
ATOM      5  C   UNL     1      -0.573  -2.039  -0.820  1.00  0.00     0.079 A 
ATOM      6  C   UNL     1      -0.920  -3.359  -0.468  1.00  0.00     0.029 A 
ATOM      7  C   UNL     1       0.046  -4.369  -0.522  1.00  0.00     0.002 A 
ATOM      8  C   UNL     1       1.347  -4.082  -0.925  1.00  0.00     0.001 A 
ATOM      9  C   UNL     1       1.718  -2.784  -1.290  1.00  0.00     0.017 A 
ATOM     10  C   UNL     1       0.747  -1.774  -1.227  1.00  0.00     0.033 A 
ATOM     11  H   UNL     1       0.954   0.124  -2.934  1.00  0.00     0.111 HD
ATOM     12  H   UNL     1      -0.703   2.173  -1.480  1.00  0.00     0.182 HD
ENDROOT
BRANCH   1  13
ATOM     13  N   UNL     1       1.767   0.625  -0.484  1.00  0.00    -0.257 NA
ATOM     14  N   UNL     1       4.299   0.102   1.043  1.00  0.00    -0.304 NA
ATOM     15  C   UNL     1       2.994  -0.467   1.440  1.00  0.00     0.100 C 
ATOM     16  C   UNL     1       4.273   0.426  -0.396  1.00  0.00     0.100 C 
ATOM     17  C   UNL     1       1.758   0.331   0.965  1.00  0.00     0.112 C 
ATOM     18  C   UNL     1       3.050   1.247  -0.854  1.00  0.00     0.112 C 
ATOM     19  C   UNL     1       4.642   1.268   1.855  1.00  0.00     0.105 C 
ENDBRANCH   1  13
BRANCH   3  20
ATOM     20  S   UNL     1      -1.982   1.941   0.344  1.00  0.00     0.263 S 
ATOM     21  O   UNL     1      -1.832   3.384   0.371  1.00  0.00    -0.201 OA
ATOM     22  O   UNL     1      -1.492   1.145   1.448  1.00  0.00    -0.201 OA
BRANCH  20  23
ATOM     23  C   UNL     1      -3.712   1.598   0.115  1.00  0.00     0.088 A 
ATOM     24  C   UNL     1      -4.219   0.348   0.490  1.00  0.00     0.025 A 
ATOM     25  C   UNL     1      -4.559   2.594  -0.387  1.00  0.00     0.025 A 
ATOM     26  C   UNL     1      -5.581   0.086   0.339  1.00  0.00     0.040 A 
ATOM     27  C   UNL     1      -5.920   2.324  -0.534  1.00  0.00     0.040 A 
ATOM     28  C   UNL     1      -6.417   1.075  -0.172  1.00  0.00     0.123 A 
ATOM     29  F   UNL     1      -7.725   0.821  -0.314  1.00  0.00    -0.207 F 
ENDBRANCH  20  23
ENDBRANCH   3  20
TORSDOF 3
