MODEL        1USER    Run = 1USERUSER    Estimated Free Energy of Binding    = -10.27 kcal/mol  [=(1)+(2)+(3)-(4)]USERUSER    (1) Final Intermolecular Energy     = -14.15 kcal/molUSER        vdW + Hbond + desolv Energy     = -13.97 kcal/molUSER        Electrostatic Energy            =  -0.18 kcal/molUSER        Moving Ligand-Fixed Receptor    = -14.15 kcal/molUSER        Moving Ligand-Moving Receptor   =  +0.00 kcal/molUSER    (2) Final Total Internal Energy     =  -4.20 kcal/molUSER    (3) Torsional Free Energy           =  +3.88 kcal/molUSER    (4) Unbound System's Energy         =  -4.20 kcal/molUSERUSERREMARK SMILES COc1ccc(O)c(C(=O)c2ccc(C(=O)N[C@@H]3CCN(CC(=O)N4CCN(CCO)CC4)C[C@H]3NC(=O)c3ccncc3)cc2)c1FREMARK SMILES IDX 18 1 19 2 20 3 21 4 34 5 35 6 17 7 15 8 16 9 14 11 11 12REMARK SMILES IDX 12 13 46 14 13 15 45 16 9 17 10 18 8 19 3 20 4 21 47 22 5 23REMARK SMILES IDX 6 24 48 25 2 26 1 27 7 28 36 30 37 31 38 33 39 34 40 35REMARK SMILES IDX 44 36 41 37 43 38 42 39 22 40 23 41 25 42 26 43 33 44 27 45REMARK SMILES IDX 32 46 28 47 24 48 29 49 30 50 31 51REMARK H PARENT 17 10 7 29 36 32 31 52USER                              x       y       z     vdW  Elec       q    TypeUSER                           _______ _______ _______ _____ _____    ______ ____ROOTATOM      1  C   UNL     1      39.586  44.045  20.436 -0.12 +0.00    +0.107 C  ATOM      2  C   UNL     1      41.065  44.437  20.297 -0.39 +0.00    +0.042 C  ATOM      3  C   UNL     1      41.292  45.545  19.273 -0.44 +0.01    +0.087 C  ATOM      4  N   UNL     1      40.816  45.106  17.960 -0.23 +0.00    -0.292 NA ATOM      5  C   UNL     1      39.410  44.650  17.975 -0.27 -0.01    +0.112 C  ATOM      6  C   UNL     1      38.694  44.707  19.348 -0.36 -0.01    +0.118 C  ENDROOTBRANCH   1   7ATOM      7  N   UNL     1      39.109  44.341  21.799 -0.10 -0.01    -0.347 N  ATOM      8  C   UNL     1      38.024  43.703  22.361 -0.25 +0.01    +0.251 C  ATOM      9  O   UNL     1      37.342  42.882  21.754 -0.26 -0.01    -0.269 OA ATOM     10  H   UNL     1      39.699  44.907  22.393 +0.09 +0.01    +0.164 HD BRANCH   8  11ATOM     11  C   UNL     1      37.724  44.032  23.782 -0.30 +0.00    +0.039 A  ATOM     12  C   UNL     1      37.145  44.542  26.482 -0.32 -0.00    +0.023 A  ATOM     13  C   UNL     1      38.015  45.385  25.777 -0.27 +0.00    +0.013 A  ATOM     14  C   UNL     1      36.536  43.469  25.819 -0.37 -0.00    +0.013 A  ATOM     15  C   UNL     1      38.301  45.132  24.429 -0.26 +0.00    +0.014 A  ATOM     16  C   UNL     1      36.823  43.215  24.476 -0.35 +0.00    +0.014 A  BRANCH  12  17ATOM     17  C   UNL     1      36.833  44.754  27.922 -0.33 -0.04    +0.199 C  ATOM     18  O   UNL     1      37.340  44.038  28.782 -0.23 +0.07    -0.288 OA BRANCH  17  19ATOM     19  C   UNL     1      35.944  45.847  28.340 -0.23 -0.03    +0.104 A  ATOM     20  C   UNL     1      35.543  48.236  28.527 -0.28 -0.02    +0.155 A  ATOM     21  C   UNL     1      34.338  47.969  29.182 -0.33 -0.00    +0.053 A  ATOM     22  C   UNL     1      36.340  47.163  28.112 -0.23 -0.05    +0.179 A  ATOM     23  C   UNL     1      33.936  46.647  29.414 -0.30 -0.01    +0.051 A  ATOM     24  C   UNL     1      34.738  45.588  28.989 -0.28 -0.03    +0.130 A  ATOM     25  F   UNL     1      37.498  47.408  27.477 -0.08 +0.03    -0.202 F  BRANCH  20  26ATOM     26  O   UNL     1      36.025  49.482  28.230 -0.08 +0.01    -0.494 OA ATOM     27  C   UNL     1      36.137  49.833  26.857 -0.24 +0.01    +0.278 C  ENDBRANCH  20  26BRANCH  24  28ATOM     28  O   UNL     1      34.317  44.302  29.165 -0.34 +0.12    -0.507 OA ATOM     29  H   UNL     1      35.085  43.712  29.252 -0.33 -0.14    +0.293 HD ENDBRANCH  24  28ENDBRANCH  17  19ENDBRANCH  12  17ENDBRANCH   8  11ENDBRANCH   1   7BRANCH   6  30ATOM     30  N   UNL     1      37.370  44.083  19.297 -0.13 +0.04    -0.346 N  ATOM     31  C   UNL     1      36.267  44.752  18.809 -0.23 -0.05    +0.251 C  ATOM     32  H   UNL     1      37.212  43.352  19.991 +0.11 -0.01    +0.164 HD ATOM     33  O   UNL     1      36.343  45.848  18.263 -0.20 +0.09    -0.269 OA BRANCH  31  34ATOM     34  C   UNL     1      34.937  44.100  18.990 -0.34 -0.01    +0.042 A  ATOM     35  C   UNL     1      33.733  44.807  18.968 -0.40 -0.01    +0.034 A  ATOM     36  C   UNL     1      34.911  42.720  19.209 -0.39 -0.00    +0.034 A  ATOM     37  C   UNL     1      32.558  44.096  19.145 -0.31 -0.01    +0.112 A  ATOM     38  C   UNL     1      33.685  42.104  19.382 -0.28 +0.00    +0.112 A  ATOM     39  N   UNL     1      32.507  42.763  19.352 -0.41 +0.00    -0.265 NA ENDBRANCH  31  34ENDBRANCH   6  30BRANCH   4  40ATOM     40  C   UNL     1      41.019  46.137  16.918 -0.19 -0.01    +0.185 C  BRANCH  40  41ATOM     41  C   UNL     1      39.802  47.064  16.772 -0.37 -0.05    +0.236 C  ATOM     42  N   UNL     1      38.871  46.772  15.785 -0.17 +0.11    -0.339 N  ATOM     43  C   UNL     1      37.674  47.598  15.656 -0.40 -0.09    +0.135 C  ATOM     44  C   UNL     1      39.011  45.689  14.810 -0.26 -0.03    +0.135 C  ATOM     45  C   UNL     1      36.437  46.773  15.250 -0.37 -0.08    +0.106 C  ATOM     46  C   UNL     1      38.017  45.806  13.639 -0.33 -0.03    +0.106 C  ATOM     47  N   UNL     1      36.613  45.877  14.084 -0.20 +0.14    -0.298 NA ATOM     48  O   UNL     1      39.670  48.031  17.530 +0.06 +0.09    -0.273 OA BRANCH  47  49ATOM     49  C   UNL     1      35.676  46.205  13.001 -0.49 -0.06    +0.112 C  BRANCH  49  50ATOM     50  C   UNL     1      35.773  47.649  12.483 -0.45 -0.10    +0.171 C  BRANCH  50  51ATOM     51  O   UNL     1      37.121  48.112  12.546 -0.91 +0.07    -0.395 OA ATOM     52  H   UNL     1      37.489  47.829  13.401 +0.16 -0.07    +0.210 HD ENDBRANCH  50  51ENDBRANCH  49  50ENDBRANCH  47  49ENDBRANCH  40  41ENDBRANCH   4  40TORSDOF 13TERENDMDL