MODEL        7USER    Run = 7USERUSER    Estimated Free Energy of Binding    = -10.40 kcal/mol  [=(1)+(2)+(3)-(4)]USERUSER    (1) Final Intermolecular Energy     = -13.39 kcal/molUSER        vdW + Hbond + desolv Energy     = -13.05 kcal/molUSER        Electrostatic Energy            =  -0.33 kcal/molUSER        Moving Ligand-Fixed Receptor    = -13.39 kcal/molUSER        Moving Ligand-Moving Receptor   =  +0.00 kcal/molUSER    (2) Final Total Internal Energy     =  -2.39 kcal/molUSER    (3) Torsional Free Energy           =  +2.98 kcal/molUSER    (4) Unbound System's Energy         =  -2.39 kcal/molUSERUSERREMARK SMILES CCN1CCN(C(=O)N2CC[C@@H](NC(=O)c3ccc(C(=O)c4c(O)ccc(OC)c4F)cc3)[C@H](NC(=O)c3ccncc3)C2)CC1REMARK SMILES IDX 16 1 17 2 18 3 19 4 32 5 33 6 14 7 13 8 15 10 12 11 9 12REMARK SMILES IDX 10 13 44 14 11 15 34 16 7 17 3 18 4 19 46 20 5 21 45 22 6 23REMARK SMILES IDX 8 24 2 25 1 26 35 27 36 28 37 30 38 31 39 32 43 33 40 34REMARK SMILES IDX 42 35 41 36 20 37 21 38 22 39 23 40 30 41 25 42 27 43 26 44REMARK SMILES IDX 31 45 24 46 28 48 29 49REMARK H PARENT 13 9 35 29 24 47USER                              x       y       z     vdW  Elec       q    TypeUSER                           _______ _______ _______ _____ _____    ______ ____ROOTATOM      1  C   UNL     1      40.510  44.677  21.809 -0.25 +0.00    +0.039 A  ATOM      2  C   UNL     1      41.187  43.478  21.552 -0.27 +0.00    +0.014 A  ATOM      3  C   UNL     1      42.564  43.385  21.796 -0.32 +0.00    +0.013 A  ATOM      4  C   UNL     1      43.276  44.481  22.305 -0.22 +0.01    +0.023 A  ATOM      5  C   UNL     1      42.598  45.677  22.563 -0.20 +0.00    +0.013 A  ATOM      6  C   UNL     1      41.222  45.768  22.332 -0.23 +0.00    +0.014 A  ENDROOTBRANCH   1   7ATOM      7  C   UNL     1      39.057  44.874  21.528 -0.24 +0.01    +0.251 C  ATOM      8  N   UNL     1      38.471  44.019  20.623 -0.12 +0.00    -0.347 N  ATOM      9  H   UNL     1      39.027  43.322  20.132 +0.14 +0.00    +0.164 HD ATOM     10  O   UNL     1      38.451  45.803  22.056 -0.26 -0.03    -0.269 OA BRANCH   8  11ATOM     11  C   UNL     1      37.112  44.235  20.136 -0.36 -0.01    +0.108 C  ATOM     12  N   UNL     1      34.600  44.201  19.056 -0.16 +0.07    -0.322 N  ATOM     13  C   UNL     1      35.013  42.895  19.558 -0.40 -0.01    +0.123 C  ATOM     14  C   UNL     1      35.595  44.875  18.227 -0.30 -0.05    +0.148 C  ATOM     15  C   UNL     1      36.215  43.031  20.489 -0.48 -0.00    +0.049 C  ATOM     16  C   UNL     1      37.053  44.544  18.614 -0.32 -0.02    +0.124 C  BRANCH  12  17ATOM     17  C   UNL     1      33.272  44.498  18.792 -0.23 -0.08    +0.320 C  ATOM     18  N   UNL     1      31.032  41.405  17.124 -0.14 +0.09    -0.300 NA ATOM     19  C   UNL     1      30.248  42.549  17.607 -0.22 -0.02    +0.106 C  ATOM     20  C   UNL     1      32.072  41.016  18.106 -0.38 -0.02    +0.106 C  ATOM     21  C   UNL     1      31.139  43.783  17.879 -0.17 -0.02    +0.137 C  ATOM     22  C   UNL     1      32.511  42.137  19.072 -0.34 -0.00    +0.137 C  ATOM     23  N   UNL     1      32.453  43.447  18.428 -0.13 +0.05    -0.322 N  ATOM     24  O   UNL     1      32.843  45.649  18.892 -0.09 +0.10    -0.248 OA BRANCH  18  25ATOM     25  C   UNL     1      30.229  40.247  16.720 -0.33 -0.01    +0.081 C  ATOM     26  C   UNL     1      29.120  40.597  15.735 -0.46 -0.00    +0.021 C  ENDBRANCH  18  25ENDBRANCH  12  17BRANCH  16  27ATOM     27  N   UNL     1      37.966  45.620  18.196 -0.16 +0.07    -0.345 N  ATOM     28  C   UNL     1      39.329  45.444  18.127 -0.31 -0.03    +0.251 C  ATOM     29  H   UNL     1      37.560  46.493  17.889 +0.08 -0.06    +0.164 HD ATOM     30  O   UNL     1      39.884  44.393  18.429 -0.28 +0.01    -0.269 OA BRANCH  28  31ATOM     31  C   UNL     1      40.126  46.596  17.641 -0.46 -0.01    +0.042 A  ATOM     32  C   UNL     1      39.818  47.255  16.452 -0.47 -0.01    +0.034 A  ATOM     33  C   UNL     1      41.199  47.031  18.419 -0.48 -0.00    +0.034 A  ATOM     34  C   UNL     1      40.626  48.315  16.076 -0.49 -0.02    +0.112 A  ATOM     35  C   UNL     1      41.947  48.096  17.954 -0.31 -0.00    +0.112 A  ATOM     36  N   UNL     1      41.688  48.741  16.796 -0.78 -0.03    -0.265 NA ENDBRANCH  28  31ENDBRANCH  16  27ENDBRANCH   8  11ENDBRANCH   1   7BRANCH   4  37ATOM     37  C   UNL     1      44.749  44.355  22.476 -0.15 +0.09    +0.199 C  ATOM     38  O   UNL     1      45.450  45.371  22.478 -0.28 -0.24    -0.288 OA BRANCH  37  39ATOM     39  C   UNL     1      45.423  43.068  22.743 -0.22 +0.02    +0.104 A  ATOM     40  C   UNL     1      46.713  42.855  22.246 -0.20 +0.03    +0.130 A  ATOM     41  C   UNL     1      44.802  42.046  23.464 -0.19 -0.01    +0.179 A  ATOM     42  C   UNL     1      47.395  41.675  22.525 -0.15 -0.01    +0.051 A  ATOM     43  C   UNL     1      45.471  40.845  23.742 -0.20 -0.02    +0.155 A  ATOM     44  C   UNL     1      46.775  40.670  23.274 -0.19 -0.01    +0.053 A  ATOM     45  F   UNL     1      43.539  42.201  23.891 -0.07 +0.01    -0.202 F  BRANCH  40  46ATOM     46  O   UNL     1      47.365  43.775  21.471 -0.54 -0.53    -0.507 OA ATOM     47  H   UNL     1      47.412  44.612  21.986 +0.07 +0.35    +0.293 HD ENDBRANCH  40  46BRANCH  43  48ATOM     48  O   UNL     1      44.759  39.933  24.474 -0.63 +0.06    -0.494 OA ATOM     49  C   UNL     1      45.166  38.571  24.396 -0.13 -0.07    +0.278 C  ENDBRANCH  43  48ENDBRANCH  37  39ENDBRANCH   4  37TORSDOF 10TERENDMDL