REMARK SMILES Oc1nc2ccccc2n1C1CCN(Cc2ccc(-c3cnc4cc(N5CCOCC5)ccc4n3)cc2)CC1
REMARK SMILES IDX 11 1 12 2 13 3 14 4 38 5 39 6 10 7 2 8 3 9 4 10 9 11 5 12
REMARK SMILES IDX 8 13 6 14 7 15 1 16 15 18 16 19 17 20 37 21 18 22 36 23
REMARK SMILES IDX 19 24 20 25 21 26 35 27 22 28 34 29 23 30 33 31 24 32 32 33
REMARK SMILES IDX 25 34 26 35 27 36 31 37 28 38 30 39 29 40
REMARK H PARENT 1 17
ROOT
ATOM      1  C   UNL     1      -6.038  -0.196  -0.440  1.00  0.00     0.095 C 
ATOM      2  C   UNL     1      -6.063  -1.650   0.062  1.00  0.00     0.041 C 
ATOM      3  C   UNL     1      -5.113  -1.886   1.235  1.00  0.00     0.087 C 
ATOM      4  N   UNL     1      -3.730  -1.457   0.997  1.00  0.00    -0.299 NA
ATOM      5  C   UNL     1      -3.583  -0.400  -0.010  1.00  0.00     0.087 C 
ATOM      6  C   UNL     1      -4.773   0.554  -0.012  1.00  0.00     0.041 C 
ENDROOT
BRANCH   1   7
ATOM      7  N   UNL     1      -7.248   0.563  -0.142  1.00  0.00    -0.291 N 
ATOM      8  C   UNL     1      -7.792   0.792   1.091  1.00  0.00     0.295 A 
ATOM      9  N   UNL     1      -8.870   1.525   1.056  1.00  0.00    -0.195 NA
ATOM     10  C   UNL     1      -9.046   1.808  -0.275  1.00  0.00     0.092 A 
ATOM     11  C   UNL     1      -8.047   1.223  -1.056  1.00  0.00     0.072 A 
ATOM     12  C   UNL     1     -10.045   2.580  -0.891  1.00  0.00     0.031 A 
ATOM     13  C   UNL     1      -7.996   1.382  -2.447  1.00  0.00     0.029 A 
ATOM     14  C   UNL     1     -10.008   2.750  -2.279  1.00  0.00     0.002 A 
ATOM     15  C   UNL     1      -8.997   2.163  -3.041  1.00  0.00     0.002 A 
BRANCH   8  16
ATOM     16  O   UNL     1      -7.303   0.343   2.228  1.00  0.00    -0.480 OA
ATOM     17  H   UNL     1      -7.930   0.725   2.869  1.00  0.00     0.296 HD
ENDBRANCH   8  16
ENDBRANCH   1   7
BRANCH   4  18
ATOM     18  C   UNL     1      -2.820  -2.591   0.769  1.00  0.00     0.120 C 
BRANCH  18  19
ATOM     19  C   UNL     1      -1.355  -2.207   0.814  1.00  0.00    -0.034 A 
ATOM     20  C   UNL     1      -0.829  -1.530   1.921  1.00  0.00     0.006 A 
ATOM     21  C   UNL     1      -0.498  -2.528  -0.241  1.00  0.00     0.006 A 
ATOM     22  C   UNL     1       0.519  -1.152   1.957  1.00  0.00     0.011 A 
ATOM     23  C   UNL     1       0.852  -2.157  -0.195  1.00  0.00     0.011 A 
ATOM     24  C   UNL     1       1.396  -1.455   0.900  1.00  0.00     0.002 A 
BRANCH  24  25
ATOM     25  C   UNL     1       2.819  -1.047   0.903  1.00  0.00     0.089 A 
ATOM     26  C   UNL     1       3.526  -0.682   2.045  1.00  0.00     0.140 A 
ATOM     27  N   UNL     1       3.445  -1.028  -0.304  1.00  0.00    -0.245 NA
ATOM     28  N   UNL     1       4.820  -0.276   2.030  1.00  0.00    -0.252 NA
ATOM     29  C   UNL     1       4.733  -0.629  -0.340  1.00  0.00     0.090 A 
ATOM     30  C   UNL     1       5.423  -0.242   0.827  1.00  0.00     0.091 A 
ATOM     31  C   UNL     1       5.404  -0.590  -1.548  1.00  0.00     0.033 A 
ATOM     32  C   UNL     1       6.745   0.184   0.725  1.00  0.00     0.056 A 
ATOM     33  C   UNL     1       6.735  -0.162  -1.628  1.00  0.00     0.028 A 
ATOM     34  C   UNL     1       7.439   0.256  -0.494  1.00  0.00     0.039 A 
BRANCH  34  35
ATOM     35  N   UNL     1       8.747   0.702  -0.560  1.00  0.00    -0.367 N 
ATOM     36  C   UNL     1       9.584   0.509  -1.758  1.00  0.00     0.145 C 
ATOM     37  C   UNL     1       9.287   1.641   0.443  1.00  0.00     0.145 C 
ATOM     38  C   UNL     1      11.063   0.739  -1.407  1.00  0.00     0.181 C 
ATOM     39  C   UNL     1      10.233   2.651  -0.229  1.00  0.00     0.181 C 
ATOM     40  O   UNL     1      11.343   2.055  -0.911  1.00  0.00    -0.378 OA
ENDBRANCH  34  35
ENDBRANCH  24  25
ENDBRANCH  18  19
ENDBRANCH   4  18
TORSDOF 6
