MODEL        3USER    Run = 3USERUSER    Estimated Free Energy of Binding    = -11.56 kcal/mol  [=(1)+(2)+(3)-(4)]USERUSER    (1) Final Intermolecular Energy     = -13.35 kcal/molUSER        vdW + Hbond + desolv Energy     = -13.25 kcal/molUSER        Electrostatic Energy            =  -0.10 kcal/molUSER        Moving Ligand-Fixed Receptor    = -13.35 kcal/molUSER        Moving Ligand-Moving Receptor   =  +0.00 kcal/molUSER    (2) Final Total Internal Energy     =  -1.39 kcal/molUSER    (3) Torsional Free Energy           =  +1.79 kcal/molUSER    (4) Unbound System's Energy         =  -1.39 kcal/molUSERUSERREMARK SMILES Oc1nc2ccccc2n1C1CCN(Cc2ccc(-c3cnc4cc(N5CCOCC5)ccc4n3)cc2)CC1REMARK SMILES IDX 11 1 12 2 13 3 14 4 38 5 39 6 10 7 2 8 3 9 4 10 9 11 5 12REMARK SMILES IDX 8 13 6 14 7 15 1 16 15 18 16 19 17 20 37 21 18 22 36 23REMARK SMILES IDX 19 24 20 25 21 26 35 27 22 28 34 29 23 30 33 31 24 32 32 33REMARK SMILES IDX 25 34 26 35 27 36 31 37 28 38 30 39 29 40REMARK H PARENT 1 17USER                              x       y       z     vdW  Elec       q    TypeUSER                           _______ _______ _______ _____ _____    ______ ____ROOTATOM      1  C   UNL     1      36.402  45.061  27.415 -0.33 -0.02    +0.095 C  ATOM      2  C   UNL     1      35.787  44.025  26.459 -0.39 -0.01    +0.041 C  ATOM      3  C   UNL     1      36.109  42.586  26.860 -0.47 -0.02    +0.087 C  ATOM      4  N   UNL     1      37.537  42.311  27.052 -0.17 +0.05    -0.299 NA ATOM      5  C   UNL     1      38.345  43.486  27.399 -0.29 -0.01    +0.087 C  ATOM      6  C   UNL     1      37.560  44.488  28.239 -0.24 -0.01    +0.041 C  ENDROOTBRANCH   1   7ATOM      7  N   UNL     1      35.431  45.757  28.252 -0.07 +0.10    -0.291 N  ATOM      8  C   UNL     1      34.343  45.213  28.876 -0.28 -0.06    +0.295 A  ATOM      9  N   UNL     1      33.662  46.075  29.578 -0.52 +0.03    -0.195 NA ATOM     10  C   UNL     1      34.342  47.256  29.421 -0.37 -0.01    +0.092 A  ATOM     11  C   UNL     1      35.458  47.095  28.598 -0.29 -0.02    +0.072 A  ATOM     12  C   UNL     1      34.063  48.518  29.973 -0.32 -0.00    +0.031 A  ATOM     13  C   UNL     1      36.326  48.153  28.300 -0.30 -0.01    +0.029 A  ATOM     14  C   UNL     1      34.921  49.585  29.686 -0.23 -0.00    +0.002 A  ATOM     15  C   UNL     1      36.035  49.402  28.867 -0.25 -0.00    +0.002 A  BRANCH   8  16ATOM     16  O   UNL     1      33.988  43.947  28.807 -0.38 +0.08    -0.480 OA ATOM     17  H   UNL     1      34.681  43.525  29.348 -0.21 -0.13    +0.296 HD ENDBRANCH   8  16ENDBRANCH   1   7BRANCH   4  18ATOM     18  C   UNL     1      38.113  41.530  25.945 -0.15 -0.01    +0.120 C  BRANCH  18  19ATOM     19  C   UNL     1      37.901  42.164  24.586 -0.21 -0.00    -0.034 A  ATOM     20  C   UNL     1      38.740  43.193  24.140 -0.25 +0.00    +0.006 A  ATOM     21  C   UNL     1      36.874  41.729  23.746 -0.40 +0.00    +0.006 A  ATOM     22  C   UNL     1      38.533  43.798  22.894 -0.29 +0.00    +0.011 A  ATOM     23  C   UNL     1      36.678  42.331  22.496 -0.47 +0.00    +0.011 A  ATOM     24  C   UNL     1      37.497  43.384  22.038 -0.39 +0.00    +0.002 A  BRANCH  24  25ATOM     25  C   UNL     1      37.243  44.022  20.727 -0.34 -0.00    +0.089 A  ATOM     26  C   UNL     1      35.984  44.137  20.143 -0.29 -0.01    +0.140 A  ATOM     27  N   UNL     1      38.330  44.508  20.070 -0.22 +0.01    -0.245 NA ATOM     28  N   UNL     1      35.769  44.692  18.925 -0.20 +0.06    -0.252 NA ATOM     29  C   UNL     1      38.137  45.066  18.858 -0.32 -0.01    +0.090 A  ATOM     30  C   UNL     1      36.855  45.152  18.276 -0.27 -0.02    +0.091 A  ATOM     31  C   UNL     1      39.216  45.567  18.155 -0.40 -0.00    +0.033 A  ATOM     32  C   UNL     1      36.720  45.717  17.010 -0.32 -0.03    +0.056 A  ATOM     33  C   UNL     1      39.058  46.135  16.885 -0.40 -0.01    +0.028 A  ATOM     34  C   UNL     1      37.805  46.209  16.267 -0.35 -0.02    +0.039 A  BRANCH  34  35ATOM     35  N   UNL     1      37.636  46.747  15.004 -0.12 +0.18    -0.367 N  ATOM     36  C   UNL     1      36.823  46.084  13.969 -0.40 -0.07    +0.145 C  ATOM     37  C   UNL     1      38.017  48.143  14.709 -0.49 -0.08    +0.145 C  ATOM     38  C   UNL     1      37.135  46.687  12.589 -0.53 -0.06    +0.181 C  ATOM     39  C   UNL     1      37.000  48.779  13.745 -0.39 -0.10    +0.181 C  ATOM     40  O   UNL     1      36.863  48.092  12.496 -0.95 +0.10    -0.378 OA ENDBRANCH  34  35ENDBRANCH  24  25ENDBRANCH  18  19ENDBRANCH   4  18TORSDOF 6TERENDMDL