MODEL        4USER    Run = 4USERUSER    Estimated Free Energy of Binding    =  -7.94 kcal/mol  [=(1)+(2)+(3)-(4)]USERUSER    (1) Final Intermolecular Energy     = -12.41 kcal/molUSER        vdW + Hbond + desolv Energy     = -12.36 kcal/molUSER        Electrostatic Energy            =  -0.24 kcal/molUSER        Moving Ligand-Fixed Receptor    = -12.60 kcal/molUSER        Moving Ligand-Moving Receptor   =  +0.19 kcal/molUSER    (2) Final Total Internal Energy     =  -2.53 kcal/molUSER    (3) Torsional Free Energy           =  +4.47 kcal/molUSER    (4) Unbound System's Energy         =  -2.53 kcal/molUSERUSERREMARK SMILES O=C(N[C@@H]1CCCN(C2CC2)C[C@H]1NC(=O)c1cncc(F)c1)c1ccc(C(=O)c2c(O)ccc(O)c2F)cc1REMARK SMILES IDX 3 1 2 2 1 3 4 5 13 6 14 7 15 8 16 9 17 11 18 12 23 13 19 14REMARK SMILES IDX 21 15 20 16 22 17 12 18 8 19 9 20 10 21 11 22 7 23 6 24 5 26REMARK SMILES IDX 24 28 25 29 40 30 26 31 39 32 27 33 28 34 29 35 30 36 31 37REMARK SMILES IDX 37 38 33 39 35 40 34 41 38 42 32 43 36 45REMARK H PARENT 3 4 14 10 32 44 36 46REMARK Flexibility Score:   88.900USER                              x       y       z     vdW  Elec       q    TypeUSER                           _______ _______ _______ _____ _____    ______ ____ROOTATOM      1  N   UNL     1      32.510  44.488  16.869 -0.09 +0.14    -0.347 N  ATOM      2  C   UNL     1      31.619  44.048  15.910 -0.23 -0.12    +0.251 C  ATOM      3  O   UNL     1      31.939  43.794  14.756 -0.24 +0.16    -0.269 OA ATOM      4  H   UNL     1      32.228  44.443  17.839 +0.12 -0.04    +0.164 HD ENDROOTBRANCH   1   5ATOM      5  C   UNL     1      33.939  44.663  16.575 -0.30 -0.06    +0.106 C  BRANCH   5   6ATOM      6  C   UNL     1      34.600  45.619  17.600 -0.37 -0.08    +0.118 C  BRANCH   6   7ATOM      7  N   UNL     1      35.985  45.926  17.206 -0.14 +0.21    -0.346 N  ATOM      8  C   UNL     1      36.254  46.483  15.973 -0.25 -0.20    +0.253 C  ATOM      9  O   UNL     1      35.408  46.628  15.097 -0.26 +0.29    -0.269 OA ATOM     10  H   UNL     1      36.573  46.213  17.981 +0.09 -0.07    +0.164 HD BRANCH   8  11ATOM     11  C   UNL     1      37.637  46.959  15.740 -0.37 -0.03    +0.061 A  ATOM     12  C   UNL     1      38.005  47.655  14.592 -0.41 -0.06    +0.125 A  ATOM     13  C   UNL     1      38.612  46.733  16.712 -0.37 -0.02    +0.056 A  ATOM     14  N   UNL     1      39.263  48.100  14.345 -0.31 +0.08    -0.261 NA ATOM     15  C   UNL     1      39.903  47.185  16.484 -0.39 -0.03    +0.142 A  ATOM     16  C   UNL     1      40.187  47.852  15.305 -0.42 -0.03    +0.150 A  ATOM     17  F   UNL     1      40.862  46.974  17.394 -0.15 +0.02    -0.205 F  ENDBRANCH   8  11ENDBRANCH   6   7BRANCH   6  18ATOM     18  C   UNL     1      34.572  45.127  19.068 -0.38 -0.04    +0.111 C  BRANCH  18  19ATOM     19  N   UNL     1      35.164  43.782  19.196 -0.17 +0.05    -0.298 NA BRANCH  19  20ATOM     20  C   UNL     1      35.773  43.568  20.523 -0.43 -0.00    +0.056 C  ATOM     21  C   UNL     1      37.272  43.513  20.641 -0.43 -0.00    +0.021 C  ATOM     22  C   UNL     1      36.463  42.263  20.819 -0.53 -0.00    +0.021 C  ENDBRANCH  19  20BRANCH  19  23ATOM     23  C   UNL     1      34.240  42.693  18.856 -0.40 -0.01    +0.085 C  BRANCH  23  24ATOM     24  C   UNL     1      34.212  42.236  17.395 -0.47 -0.01    +0.018 CG0ATOM     25  G   UNL     1      34.638  43.303  16.388 +0.00 +0.00    +0.000 G0 ENDBRANCH  23  24ENDBRANCH  19  23ENDBRANCH  18  19ENDBRANCH   6  18ENDBRANCH   5   6BRANCH   5  26ATOM     26  C   UNL     1      34.640  43.303  16.387 -0.43 -0.01    +0.028 CG0ATOM     27  G   UNL     1      34.214  42.236  17.394 +0.00 +0.00    +0.000 G0 ENDBRANCH   5  26ENDBRANCH   1   5BRANCH   2  28ATOM     28  C   UNL     1      30.210  43.848  16.357 -0.27 -0.01    +0.039 A  ATOM     29  C   UNL     1      29.909  42.711  17.120 -0.24 -0.00    +0.014 A  ATOM     30  C   UNL     1      29.186  44.745  16.022 -0.31 -0.00    +0.014 A  ATOM     31  C   UNL     1      28.604  42.479  17.563 -0.19 -0.00    +0.013 A  ATOM     32  C   UNL     1      27.882  44.519  16.471 -0.26 -0.00    +0.013 A  ATOM     33  C   UNL     1      27.588  43.380  17.228 -0.22 -0.00    +0.023 A  BRANCH  33  34ATOM     34  C   UNL     1      26.201  43.191  17.705 -0.25 -0.02    +0.199 C  ATOM     35  O   UNL     1      25.465  44.176  17.781 -0.35 +0.01    -0.288 OA BRANCH  34  36ATOM     36  C   UNL     1      25.668  41.881  18.142 -0.22 -0.01    +0.104 A  ATOM     37  C   UNL     1      25.095  41.757  19.416 -0.28 -0.02    +0.130 A  ATOM     38  C   UNL     1      25.679  40.766  17.304 -0.18 -0.01    +0.179 A  ATOM     39  C   UNL     1      24.595  40.533  19.862 -0.31 -0.01    +0.051 A  ATOM     40  C   UNL     1      25.172  39.541  17.748 -0.24 -0.01    +0.152 A  ATOM     41  C   UNL     1      24.637  39.417  19.028 -0.31 -0.02    +0.053 A  ATOM     42  F   UNL     1      26.148  40.858  16.050 -0.07 +0.02    -0.202 F  BRANCH  37  43ATOM     43  O   UNL     1      24.986  42.809  20.287 -0.16 +0.19    -0.507 OA ATOM     44  H   UNL     1      24.829  43.625  19.760 -0.24 -0.16    +0.293 HD ENDBRANCH  37  43BRANCH  40  45ATOM     45  O   UNL     1      25.207  38.470  16.901 -0.70 -0.14    -0.505 OA ATOM     46  H   UNL     1      24.341  38.368  16.470 -0.26 -0.16    +0.293 HD ENDBRANCH  40  45ENDBRANCH  34  36ENDBRANCH  33  34ENDBRANCH   2  28TORSDOF 9TERENDMDL