MODEL        6USER    Run = 6USERUSER    Estimated Free Energy of Binding    = -13.46 kcal/mol  [=(1)+(2)+(3)-(4)]USERUSER    (1) Final Intermolecular Energy     = -15.54 kcal/molUSER        vdW + Hbond + desolv Energy     = -15.46 kcal/molUSER        Electrostatic Energy            =  -0.09 kcal/molUSER        Moving Ligand-Fixed Receptor    = -15.54 kcal/molUSER        Moving Ligand-Moving Receptor   =  +0.00 kcal/molUSER    (2) Final Total Internal Energy     =  -2.38 kcal/molUSER    (3) Torsional Free Energy           =  +2.09 kcal/molUSER    (4) Unbound System's Energy         =  -2.38 kcal/molUSERUSERREMARK SMILES CN1CCN(c2ccc(-c3nc4cc(F)ccc4nc3-c3ccc(CN4CCC(n5c(O)nc6ccccc65)CC4)cc3)cc2)CC1REMARK SMILES IDX 21 1 22 2 23 3 24 4 42 5 43 6 20 7 10 8 11 9 12 10 19 11REMARK SMILES IDX 13 12 18 13 14 14 17 15 16 16 15 17 9 18 6 19 7 20 45 21REMARK SMILES IDX 8 22 44 23 5 24 2 25 3 26 47 27 4 28 46 29 1 30 25 31 26 32REMARK SMILES IDX 27 33 41 34 28 35 40 36 29 37 30 38 31 39 39 40 33 41 38 42REMARK SMILES IDX 34 43 37 44 35 45 36 46 32 47REMARK H PARENT 32 48USER                              x       y       z     vdW  Elec       q    TypeUSER                           _______ _______ _______ _____ _____    ______ ____ROOTATOM      1  C   UNL     1      39.741  43.950  22.969 -0.24 +0.00    +0.002 A  ATOM      2  C   UNL     1      39.761  45.354  22.950 -0.25 +0.00    +0.011 A  ATOM      3  C   UNL     1      40.599  46.054  22.078 -0.24 +0.00    +0.006 A  ATOM      4  C   UNL     1      41.428  45.368  21.180 -0.30 -0.00    -0.034 A  ATOM      5  C   UNL     1      41.404  43.968  21.181 -0.33 +0.00    +0.006 A  ATOM      6  C   UNL     1      40.567  43.272  22.059 -0.25 +0.00    +0.011 A  ENDROOTBRANCH   1   7ATOM      7  C   UNL     1      38.870  43.226  23.909 -0.20 +0.01    +0.097 A  ATOM      8  C   UNL     1      37.547  42.835  23.644 -0.31 +0.01    +0.097 A  ATOM      9  N   UNL     1      36.788  42.234  24.605 -0.27 +0.00    -0.244 NA ATOM     10  C   UNL     1      37.361  42.002  25.797 -0.30 -0.01    +0.092 A  ATOM     11  N   UNL     1      39.452  42.976  25.116 -0.11 -0.01    -0.244 NA ATOM     12  C   UNL     1      36.624  41.386  26.797 -0.43 -0.02    +0.069 A  ATOM     13  C   UNL     1      38.703  42.372  26.053 -0.21 -0.00    +0.090 A  ATOM     14  C   UNL     1      37.193  41.135  28.039 -0.33 -0.04    +0.125 A  ATOM     15  C   UNL     1      39.254  42.111  27.303 -0.29 -0.00    +0.033 A  ATOM     16  C   UNL     1      38.505  41.492  28.304 -0.30 -0.00    +0.041 A  ATOM     17  F   UNL     1      36.465  40.540  28.991 -0.02 +0.11    -0.207 F  BRANCH   8  18ATOM     18  C   UNL     1      36.858  43.001  22.351 -0.41 +0.00    +0.003 A  ATOM     19  C   UNL     1      35.546  43.353  19.817 -0.40 -0.00    +0.037 A  ATOM     20  C   UNL     1      36.256  44.391  20.434 -0.30 -0.00    +0.026 A  ATOM     21  C   UNL     1      35.498  42.137  20.514 -0.43 +0.00    +0.026 A  ATOM     22  C   UNL     1      36.894  44.226  21.673 -0.33 +0.00    +0.012 A  ATOM     23  C   UNL     1      36.130  41.963  21.755 -0.50 +0.00    +0.012 A  BRANCH  19  24ATOM     24  N   UNL     1      34.934  43.516  18.586 -0.09 +0.08    -0.369 N  ATOM     25  N   UNL     1      33.736  43.842  15.853 -0.13 +0.15    -0.303 NA ATOM     26  C   UNL     1      34.242  42.559  16.386 -0.36 -0.05    +0.105 C  ATOM     27  C   UNL     1      33.869  44.928  16.847 -0.31 -0.06    +0.105 C  ATOM     28  C   UNL     1      34.221  42.407  17.927 -0.37 -0.04    +0.132 C  ATOM     29  C   UNL     1      35.068  44.760  17.809 -0.29 -0.05    +0.132 C  ATOM     30  C   UNL     1      32.355  43.734  15.390 -0.29 -0.06    +0.105 C  ENDBRANCH  19  24ENDBRANCH   8  18ENDBRANCH   1   7BRANCH   4  31ATOM     31  C   UNL     1      42.356  46.119  20.248 -0.29 +0.03    +0.120 C  BRANCH  31  32ATOM     32  N   UNL     1      41.794  46.342  18.903 -0.28 -0.02    -0.299 NA ATOM     33  C   UNL     1      42.125  47.683  18.387 -0.52 -0.00    +0.087 C  ATOM     34  C   UNL     1      40.351  46.100  18.891 -0.45 -0.00    +0.087 C  ATOM     35  C   UNL     1      41.140  48.197  17.328 -0.49 -0.00    +0.041 C  ATOM     36  C   UNL     1      39.850  46.016  17.448 -0.48 -0.01    +0.041 C  ATOM     37  C   UNL     1      40.545  47.035  16.528 -0.48 -0.01    +0.095 C  BRANCH  37  38ATOM     38  N   UNL     1      39.686  47.481  15.439 -0.26 +0.08    -0.291 N  ATOM     39  C   UNL     1      39.778  48.667  14.765 -0.27 -0.11    +0.295 A  ATOM     40  C   UNL     1      38.632  46.786  14.886 -0.39 -0.02    +0.072 A  ATOM     41  N   UNL     1      38.887  48.796  13.820 -0.24 +0.08    -0.195 NA ATOM     42  C   UNL     1      38.051  45.539  15.151 -0.35 -0.01    +0.029 A  ATOM     43  C   UNL     1      38.160  47.631  13.879 -0.44 -0.03    +0.092 A  ATOM     44  C   UNL     1      36.961  45.157  14.359 -0.41 -0.00    +0.002 A  ATOM     45  C   UNL     1      37.069  47.229  13.093 -0.57 -0.01    +0.031 A  ATOM     46  C   UNL     1      36.476  45.986  13.345 -0.51 -0.00    +0.002 A  BRANCH  39  47ATOM     47  O   UNL     1      40.659  49.614  15.017 -0.28 +0.17    -0.480 OA ATOM     48  H   UNL     1      40.086  50.401  15.043 -0.15 -0.23    +0.296 HD ENDBRANCH  39  47ENDBRANCH  37  38ENDBRANCH  31  32ENDBRANCH   4  31TORSDOF 7TERENDMDL