MODEL        5USER    Run = 5USERUSER    Estimated Free Energy of Binding    =  -8.77 kcal/mol  [=(1)+(2)+(3)-(4)]USERUSER    (1) Final Intermolecular Energy     = -10.26 kcal/molUSER        vdW + Hbond + desolv Energy     = -10.10 kcal/molUSER        Electrostatic Energy            =  -0.16 kcal/molUSER        Moving Ligand-Fixed Receptor    = -10.26 kcal/molUSER        Moving Ligand-Moving Receptor   =  +0.00 kcal/molUSER    (2) Final Total Internal Energy     =  -0.58 kcal/molUSER    (3) Torsional Free Energy           =  +1.49 kcal/molUSER    (4) Unbound System's Energy         =  -0.58 kcal/molUSERUSERREMARK SMILES Cc1cc(-n2cc(Nc3ccccc3Cl)nn2)ccc1C(=O)OREMARK SMILES IDX 1 1 2 2 3 3 4 4 18 5 19 6 20 7 21 8 22 9 23 10 5 12 6 13REMARK SMILES IDX 17 14 7 15 16 16 8 17 9 19 10 20 14 21 11 22 13 23 12 24REMARK SMILES IDX 15 25REMARK H PARENT 23 11 8 18USER                              x       y       z     vdW  Elec       q    TypeUSER                           _______ _______ _______ _____ _____    ______ ____ROOTATOM      1  C   UNL     1      37.152  44.854  14.437 -0.39 -0.02    +0.045 C  ATOM      2  C   UNL     1      37.865  46.175  14.548 -0.39 +0.01    -0.034 A  ATOM      3  C   UNL     1      38.830  46.331  15.565 -0.40 -0.01    +0.032 A  ATOM      4  C   UNL     1      39.546  47.531  15.705 -0.46 -0.02    +0.067 A  ATOM      5  C   UNL     1      39.297  48.587  14.821 -0.49 -0.01    +0.029 A  ATOM      6  C   UNL     1      38.334  48.448  13.820 -0.41 -0.01    +0.018 A  ATOM      7  C   UNL     1      37.603  47.258  13.685 -0.47 -0.02    +0.062 A  ENDROOTBRANCH   7   8ATOM      8  C   UNL     1      36.594  47.237  12.596 -0.45 -0.14    +0.335 C  ATOM      9  O   UNL     1      36.124  46.237  12.087 -0.52 +0.12    -0.246 OA BRANCH   8  10ATOM     10  O   UNL     1      36.287  48.461  12.136 -0.62 +0.20    -0.478 OA ATOM     11  H   UNL     1      35.892  48.288  11.256 -0.14 -0.24    +0.297 HD ENDBRANCH   8  10ENDBRANCH   7   8BRANCH   4  12ATOM     12  N   UNL     1      40.522  47.688  16.725 -0.37 +0.04    -0.219 N  ATOM     13  C   UNL     1      40.759  46.896  17.825 -0.39 -0.02    +0.164 A  ATOM     14  N   UNL     1      41.392  48.730  16.724 -1.04 +0.00    -0.060 NA ATOM     15  C   UNL     1      41.811  47.497  18.465 -0.37 -0.00    +0.173 A  ATOM     16  N   UNL     1      42.167  48.626  17.794 -0.53 -0.01    -0.112 NA BRANCH  15  17ATOM     17  N   UNL     1      42.425  47.168  19.615 -0.28 -0.04    -0.336 N  ATOM     18  H   UNL     1      43.155  47.813  19.920 -0.26 +0.01    +0.168 HD BRANCH  17  19ATOM     19  C   UNL     1      42.312  46.073  20.503 -0.29 +0.01    +0.059 A  ATOM     20  C   UNL     1      41.464  44.984  20.260 -0.34 +0.00    +0.027 A  ATOM     21  C   UNL     1      43.034  46.075  21.716 -0.26 +0.02    +0.064 A  ATOM     22  C   UNL     1      41.342  43.939  21.182 -0.33 +0.00    +0.002 A  ATOM     23  C   UNL     1      42.913  45.033  22.641 -0.18 +0.00    +0.023 A  ATOM     24  C   UNL     1      42.063  43.964  22.373 -0.27 +0.00    +0.002 A  ATOM     25  Cl  UNL     1      44.108  47.379  22.102 -0.45 -0.03    -0.082 Cl ENDBRANCH  17  19ENDBRANCH  15  17ENDBRANCH   4  12TORSDOF 5TERENDMDL