REMARK SMILES Cc1cc(-n2cc(Nc3ccccc3Cl)nn2)ccc1C(=O)O
REMARK SMILES IDX 1 1 2 2 3 3 4 4 18 5 19 6 20 7 21 8 22 9 23 10 5 12 6 13
REMARK SMILES IDX 17 14 7 15 16 16 8 17 9 19 10 20 14 21 11 22 13 23 12 24
REMARK SMILES IDX 15 25
REMARK H PARENT 23 11 8 18
ROOT
ATOM      1  C   UNL     1       3.302  -1.324  -2.266  1.00  0.00     0.045 C 
ATOM      2  C   UNL     1       3.189  -0.862  -0.838  1.00  0.00    -0.034 A 
ATOM      3  C   UNL     1       1.926  -0.447  -0.367  1.00  0.00     0.032 A 
ATOM      4  C   UNL     1       1.751  -0.028   0.962  1.00  0.00     0.067 A 
ATOM      5  C   UNL     1       2.848  -0.022   1.831  1.00  0.00     0.029 A 
ATOM      6  C   UNL     1       4.106  -0.417   1.371  1.00  0.00     0.018 A 
ATOM      7  C   UNL     1       4.291  -0.820   0.040  1.00  0.00     0.062 A 
ENDROOT
BRANCH   7   8
ATOM      8  C   UNL     1       5.677  -1.199  -0.335  1.00  0.00     0.335 C 
ATOM      9  O   UNL     1       6.504  -1.684   0.414  1.00  0.00    -0.246 OA
BRANCH   8  10
ATOM     10  O   UNL     1       5.990  -0.875  -1.600  1.00  0.00    -0.478 OA
ATOM     11  H   UNL     1       6.934  -1.127  -1.679  1.00  0.00     0.297 HD
ENDBRANCH   8  10
ENDBRANCH   7   8
BRANCH   4  12
ATOM     12  N   UNL     1       0.478   0.385   1.440  1.00  0.00    -0.219 N 
ATOM     13  C   UNL     1      -0.718   0.457   0.763  1.00  0.00     0.164 A 
ATOM     14  N   UNL     1       0.297   0.793   2.721  1.00  0.00    -0.060 NA
ATOM     15  C   UNL     1      -1.617   0.906   1.695  1.00  0.00     0.173 A 
ATOM     16  N   UNL     1      -0.976   1.129   2.875  1.00  0.00    -0.112 NA
BRANCH  15  17
ATOM     17  N   UNL     1      -2.924   1.195   1.566  1.00  0.00    -0.336 N 
ATOM     18  H   UNL     1      -3.331   1.726   2.336  1.00  0.00     0.168 HD
BRANCH  17  19
ATOM     19  C   UNL     1      -3.900   0.883   0.592  1.00  0.00     0.059 A 
ATOM     20  C   UNL     1      -3.735  -0.146  -0.345  1.00  0.00     0.027 A 
ATOM     21  C   UNL     1      -5.078   1.657   0.506  1.00  0.00     0.064 A 
ATOM     22  C   UNL     1      -4.703  -0.398  -1.324  1.00  0.00     0.002 A 
ATOM     23  C   UNL     1      -6.046   1.409  -0.473  1.00  0.00     0.023 A 
ATOM     24  C   UNL     1      -5.855   0.380  -1.391  1.00  0.00     0.002 A 
ATOM     25  Cl  UNL     1      -5.369   2.949   1.623  1.00  0.00    -0.082 Cl
ENDBRANCH  17  19
ENDBRANCH  15  17
ENDBRANCH   4  12
TORSDOF 5
