REMARK SMILES Cc1nc(-c2ccc(CN[C@@H]3C[C@H](O)CC[C@@H]3n3cnc4c(N)ncnc43)cc2)n[nH]1
REMARK SMILES IDX 10 1 9 3 8 4 5 5 6 6 29 7 7 8 28 9 4 10 2 11 3 12 31 13
REMARK SMILES IDX 30 14 1 15 11 17 12 18 17 19 13 20 16 21 15 22 18 23 19 24
REMARK SMILES IDX 27 25 20 26 26 27 21 28 25 29 22 30 24 31 23 32 14 35
REMARK H PARENT 10 2 31 16 23 33 23 34 14 36
ROOT
ATOM      1  N   UNL     1      -0.292  -1.796  -0.405  1.00  0.00    -0.308 NA
ATOM      2  H   UNL     1      -0.400  -0.937  -0.947  1.00  0.00     0.123 HD
ENDROOT
BRANCH   1   3
ATOM      3  C   UNL     1       0.289  -1.465   0.895  1.00  0.00     0.117 C 
BRANCH   3   4
ATOM      4  C   UNL     1       1.551  -0.655   0.725  1.00  0.00    -0.034 A 
ATOM      5  C   UNL     1       3.919   0.855   0.415  1.00  0.00     0.021 A 
ATOM      6  C   UNL     1       2.711   1.480   0.752  1.00  0.00     0.012 A 
ATOM      7  C   UNL     1       3.925  -0.533   0.218  1.00  0.00     0.012 A 
ATOM      8  C   UNL     1       1.537   0.735   0.902  1.00  0.00     0.006 A 
ATOM      9  C   UNL     1       2.753  -1.280   0.367  1.00  0.00     0.006 A 
BRANCH   5  10
ATOM     10  C   UNL     1       5.144   1.639   0.277  1.00  0.00     0.181 A 
ATOM     11  C   UNL     1       6.437   3.325   0.305  1.00  0.00     0.121 A 
ATOM     12  N   UNL     1       5.182   2.998   0.517  1.00  0.00    -0.212 NA
ATOM     13  N   UNL     1       7.125   2.206  -0.055  1.00  0.00    -0.263 N 
ATOM     14  N   UNL     1       6.334   1.125  -0.076  1.00  0.00    -0.154 NA
ATOM     15  C   UNL     1       7.062   4.658   0.415  1.00  0.00     0.089 C 
ATOM     16  H   UNL     1       8.107   2.108  -0.291  1.00  0.00     0.192 HD
ENDBRANCH   5  10
ENDBRANCH   3   4
ENDBRANCH   1   3
BRANCH   1  17
ATOM     17  C   UNL     1      -1.559  -2.534  -0.304  1.00  0.00     0.079 C 
ATOM     18  C   UNL     1      -1.842  -3.171  -1.674  1.00  0.00     0.052 C 
ATOM     19  C   UNL     1      -2.781  -1.739   0.249  1.00  0.00     0.107 C 
ATOM     20  C   UNL     1      -3.112  -4.019  -1.655  1.00  0.00     0.116 C 
ATOM     21  C   UNL     1      -4.085  -2.555   0.172  1.00  0.00     0.030 C 
ATOM     22  C   UNL     1      -4.324  -3.227  -1.176  1.00  0.00     0.034 C 
BRANCH  19  23
ATOM     23  N   UNL     1      -2.929  -0.386  -0.275  1.00  0.00    -0.310 N 
ATOM     24  C   UNL     1      -3.196   0.003  -1.560  1.00  0.00     0.202 A 
ATOM     25  C   UNL     1      -2.817   0.761   0.475  1.00  0.00     0.165 A 
ATOM     26  N   UNL     1      -3.253   1.313  -1.685  1.00  0.00    -0.231 NA
ATOM     27  N   UNL     1      -2.572   0.866   1.793  1.00  0.00    -0.217 NA
ATOM     28  C   UNL     1      -3.009   1.799  -0.420  1.00  0.00     0.150 A 
ATOM     29  C   UNL     1      -2.539   2.158   2.177  1.00  0.00     0.226 A 
ATOM     30  C   UNL     1      -2.936   3.104   0.096  1.00  0.00     0.155 A 
ATOM     31  N   UNL     1      -2.710   3.263   1.420  1.00  0.00    -0.217 NA
BRANCH  30  32
ATOM     32  N   UNL     1      -3.105   4.241  -0.683  1.00  0.00    -0.382 N 
ATOM     33  H   UNL     1      -3.398   5.039  -0.135  1.00  0.00     0.158 HD
ATOM     34  H   UNL     1      -3.591   4.062  -1.555  1.00  0.00     0.158 HD
ENDBRANCH  30  32
ENDBRANCH  19  23
BRANCH  20  35
ATOM     35  O   UNL     1      -3.388  -4.495  -2.966  1.00  0.00    -0.393 OA
ATOM     36  H   UNL     1      -2.606  -4.982  -3.279  1.00  0.00     0.210 HD
ENDBRANCH  20  35
ENDBRANCH   1  17
TORSDOF 7
