REMARK SMILES Nc1ncnc2c1ncn2[C@H]1CC[C@@H](O)C[C@@H]1NCc1ccc(O)c(N2CCN(CC(F)(F)F)CC2)c1
REMARK SMILES IDX 19 1 18 2 17 4 11 5 12 6 13 7 16 8 14 9 10 10 2 11 3 12 7 13
REMARK SMILES IDX 4 14 6 15 8 16 5 17 9 18 1 19 15 22 20 24 21 25 37 26 22 27
REMARK SMILES IDX 25 28 23 29 26 30 27 31 36 32 28 33 35 34 29 35 30 36 31 37
REMARK SMILES IDX 32 38 33 39 34 40 24 41
REMARK H PARENT 18 3 1 20 1 21 15 23 24 42
ROOT
ATOM      1  C   UNL     1      -0.981  -0.522   2.047  1.00  0.00     0.117 C 
ENDROOT
BRANCH   1   2
ATOM      2  N   UNL     1      -1.487   0.677   1.383  1.00  0.00    -0.308 NA
ATOM      3  H   UNL     1      -1.112   1.507   1.838  1.00  0.00     0.123 HD
BRANCH   2   4
ATOM      4  C   UNL     1      -2.963   0.709   1.302  1.00  0.00     0.079 C 
ATOM      5  C   UNL     1      -3.404   1.487   0.017  1.00  0.00     0.107 C 
ATOM      6  C   UNL     1      -3.875   2.918   0.332  1.00  0.00     0.030 C 
ATOM      7  C   UNL     1      -4.926   3.039   1.444  1.00  0.00     0.034 C 
ATOM      8  C   UNL     1      -3.516   1.317   2.613  1.00  0.00     0.052 C 
ATOM      9  C   UNL     1      -4.915   1.885   2.445  1.00  0.00     0.116 C 
BRANCH   5  10
ATOM     10  N   UNL     1      -4.297   0.700  -0.836  1.00  0.00    -0.310 N 
ATOM     11  C   UNL     1      -4.893  -1.921  -3.095  1.00  0.00     0.155 A 
ATOM     12  N   UNL     1      -3.704  -2.565  -3.129  1.00  0.00    -0.217 NA
ATOM     13  C   UNL     1      -5.025  -0.792  -2.270  1.00  0.00     0.150 A 
ATOM     14  C   UNL     1      -2.690  -2.069  -2.386  1.00  0.00     0.226 A 
ATOM     15  C   UNL     1      -3.902  -0.403  -1.559  1.00  0.00     0.165 A 
ATOM     16  N   UNL     1      -6.090   0.039  -1.997  1.00  0.00    -0.231 NA
ATOM     17  N   UNL     1      -2.694  -0.995  -1.573  1.00  0.00    -0.217 NA
ATOM     18  C   UNL     1      -5.617   0.915  -1.134  1.00  0.00     0.202 A 
BRANCH  11  19
ATOM     19  N   UNL     1      -5.936  -2.429  -3.862  1.00  0.00    -0.382 N 
ATOM     20  H   UNL     1      -6.847  -2.127  -3.534  1.00  0.00     0.158 HD
ATOM     21  H   UNL     1      -5.809  -3.411  -4.069  1.00  0.00     0.158 HD
ENDBRANCH  11  19
ENDBRANCH   5  10
BRANCH   9  22
ATOM     22  O   UNL     1      -5.787   0.864   1.980  1.00  0.00    -0.393 OA
ATOM     23  H   UNL     1      -5.963   0.257   2.721  1.00  0.00     0.210 HD
ENDBRANCH   9  22
ENDBRANCH   2   4
ENDBRANCH   1   2
BRANCH   1  24
ATOM     24  C   UNL     1       0.525  -0.471   2.145  1.00  0.00    -0.032 A 
ATOM     25  C   UNL     1       1.158  -0.151   3.350  1.00  0.00     0.009 A 
ATOM     26  C   UNL     1       1.314  -0.720   1.009  1.00  0.00     0.035 A 
ATOM     27  C   UNL     1       2.550  -0.091   3.415  1.00  0.00     0.049 A 
ATOM     28  C   UNL     1       2.721  -0.682   1.045  1.00  0.00     0.079 A 
ATOM     29  C   UNL     1       3.320  -0.351   2.275  1.00  0.00     0.138 A 
BRANCH  28  30
ATOM     30  N   UNL     1       3.403  -0.951  -0.156  1.00  0.00    -0.366 N 
ATOM     31  C   UNL     1       4.704  -1.643  -0.101  1.00  0.00     0.132 C 
ATOM     32  C   UNL     1       3.345   0.194  -1.093  1.00  0.00     0.132 C 
ATOM     33  C   UNL     1       5.879  -0.730  -0.529  1.00  0.00     0.106 C 
ATOM     34  C   UNL     1       4.319  -0.021  -2.274  1.00  0.00     0.106 C 
ATOM     35  N   UNL     1       5.741  -0.094  -1.863  1.00  0.00    -0.291 NA
BRANCH  35  36
ATOM     36  C   UNL     1       6.562  -0.742  -2.918  1.00  0.00     0.200 C 
BRANCH  36  37
ATOM     37  C   UNL     1       8.099  -0.611  -2.834  1.00  0.00     0.401 C 
ATOM     38  F   UNL     1       8.667  -1.101  -3.965  1.00  0.00    -0.170 F 
ATOM     39  F   UNL     1       8.492   0.677  -2.712  1.00  0.00    -0.170 F 
ATOM     40  F   UNL     1       8.619  -1.308  -1.799  1.00  0.00    -0.170 F 
ENDBRANCH  36  37
ENDBRANCH  35  36
ENDBRANCH  28  30
BRANCH  29  41
ATOM     41  O   UNL     1       4.683  -0.236   2.374  1.00  0.00    -0.506 OA
ATOM     42  H   UNL     1       4.909   0.030   3.278  1.00  0.00     0.293 HD
ENDBRANCH  29  41
ENDBRANCH   1  24
TORSDOF 10
