MODEL        10USER    Run = 10USERUSER    Estimated Free Energy of Binding    = -10.24 kcal/mol  [=(1)+(2)+(3)-(4)]USERUSER    (1) Final Intermolecular Energy     = -11.73 kcal/molUSER        vdW + Hbond + desolv Energy     = -11.77 kcal/molUSER        Electrostatic Energy            =  +0.05 kcal/molUSER        Moving Ligand-Fixed Receptor    = -11.73 kcal/molUSER        Moving Ligand-Moving Receptor   =  +0.00 kcal/molUSER    (2) Final Total Internal Energy     =  -1.33 kcal/molUSER    (3) Torsional Free Energy           =  +1.49 kcal/molUSER    (4) Unbound System's Energy         =  -1.33 kcal/molUSERUSERREMARK SMILES COC1=c2cc[nH]c2=C(N2CC[C@@H](Cc3ccc(C(=O)N4CCOCC4)c(F)c3)C2=O)C[C@H]1CREMARK SMILES IDX 10 1 11 2 12 3 13 4 30 5 31 6 9 7 3 8 4 9 33 10 5 11 8 12REMARK SMILES IDX 32 13 6 14 7 15 34 16 2 18 1 19 14 20 15 21 16 22 29 23REMARK SMILES IDX 17 24 27 25 18 26 28 27 19 28 21 29 22 30 26 31 23 32 25 33REMARK SMILES IDX 24 34 20 35REMARK H PARENT 7 17USER                              x       y       z     vdW  Elec       q    TypeUSER                           _______ _______ _______ _____ _____    ______ ____ROOTATOM      1  N   UNL     1      37.607  47.158  14.865 -0.19 +0.16    -0.314 N  ATOM      2  C   UNL     1      37.651  46.799  13.465 -0.47 -0.04    +0.126 C  ATOM      3  C   UNL     1      36.366  46.027  13.240 -0.57 -0.02    +0.036 C  ATOM      4  C   UNL     1      35.386  46.736  14.165 -0.37 -0.07    +0.085 C  ATOM      5  C   UNL     1      36.277  47.120  15.333 -0.21 -0.22    +0.230 C  ATOM      6  O   UNL     1      35.856  47.402  16.445 -0.17 +0.39    -0.274 OA ENDROOTBRANCH   1   7ATOM      7  C   UNL     1      38.730  47.486  15.625 -0.50 -0.02    +0.046 C  ATOM      8  C   UNL     1      41.168  47.944  17.183 -0.49 -0.01    +0.108 C  ATOM      9  C   UNL     1      40.924  48.556  16.014 -0.55 -0.01    +0.039 A  ATOM     10  C   UNL     1      40.204  46.898  17.705 -0.50 -0.01    +0.058 C  ATOM     11  C   UNL     1      41.678  49.603  15.347 -0.47 -0.00    +0.031 A  ATOM     12  C   UNL     1      39.764  48.225  15.172 -0.50 -0.02    +0.069 A  ATOM     13  C   UNL     1      38.785  47.011  17.077 -0.40 -0.02    +0.067 C  ATOM     14  C   UNL     1      41.053  49.803  14.175 -0.37 -0.03    +0.083 A  ATOM     15  N   UNL     1      39.970  48.951  14.006 -0.09 +0.12    -0.360 N  ATOM     16  C   UNL     1      40.771  45.490  17.473 -0.42 -0.00    +0.016 C  ATOM     17  H   UNL     1      39.148  49.348  13.568 -0.23 -0.09    +0.166 HD BRANCH   8  18ATOM     18  O   UNL     1      42.205  48.275  18.034 -0.39 -0.01    -0.500 OA ATOM     19  C   UNL     1      42.298  47.399  19.156 -0.34 +0.02    +0.278 C  ENDBRANCH   8  18ENDBRANCH   1   7BRANCH   4  20ATOM     20  C   UNL     1      34.203  45.882  14.611 -0.30 -0.05    +0.049 C  BRANCH  20  21ATOM     21  C   UNL     1      34.452  45.185  15.928 -0.29 +0.03    -0.044 A  ATOM     22  C   UNL     1      33.954  45.733  17.120 -0.31 -0.00    +0.005 A  ATOM     23  C   UNL     1      35.183  43.990  15.981 -0.32 -0.02    +0.043 A  ATOM     24  C   UNL     1      34.185  45.100  18.344 -0.40 -0.01    +0.017 A  ATOM     25  C   UNL     1      35.407  43.359  17.203 -0.27 -0.05    +0.136 A  ATOM     26  C   UNL     1      34.899  43.898  18.382 -0.28 -0.02    +0.075 A  ATOM     27  F   UNL     1      36.117  42.222  17.215 +0.08 +0.07    -0.206 F  BRANCH  26  28ATOM     28  C   UNL     1      35.172  43.276  19.691 -0.30 -0.02    +0.256 C  ATOM     29  N   UNL     1      36.333  43.616  20.388 -0.20 +0.01    -0.334 N  ATOM     30  C   UNL     1      37.557  44.092  19.731 -0.31 -0.01    +0.148 C  ATOM     31  C   UNL     1      36.571  42.924  21.657 -0.39 +0.01    +0.148 C  ATOM     32  C   UNL     1      38.469  44.832  20.714 -0.29 +0.00    +0.181 C  ATOM     33  C   UNL     1      37.530  43.706  22.557 -0.31 +0.01    +0.181 C  ATOM     34  O   UNL     1      38.749  44.024  21.866 -0.12 -0.01    -0.378 OA ATOM     35  O   UNL     1      34.351  42.462  20.108 -0.54 -0.03    -0.269 OA ENDBRANCH  26  28ENDBRANCH  20  21ENDBRANCH   4  20TORSDOF 5TERENDMDL