MODEL        4USER    Run = 4USERUSER    Estimated Free Energy of Binding    = -12.14 kcal/mol  [=(1)+(2)+(3)-(4)]USERUSER    (1) Final Intermolecular Energy     = -14.83 kcal/molUSER        vdW + Hbond + desolv Energy     = -14.40 kcal/molUSER        Electrostatic Energy            =  -0.42 kcal/molUSER        Moving Ligand-Fixed Receptor    = -14.83 kcal/molUSER        Moving Ligand-Moving Receptor   =  +0.00 kcal/molUSER    (2) Final Total Internal Energy     =  -1.66 kcal/molUSER    (3) Torsional Free Energy           =  +2.68 kcal/molUSER    (4) Unbound System's Energy         =  -1.66 kcal/molUSERUSERREMARK SMILES Nc1ncnc2c1ncn2[C@H]1CC[C@@H](O)C[C@@H]1NCc1ccc(O)c(N2CCC(O)CC2)c1REMARK SMILES IDX 18 1 17 3 11 4 12 5 13 6 16 7 14 8 10 9 2 10 3 11 7 12 4 13REMARK SMILES IDX 6 14 8 15 5 16 9 17 1 18 15 21 19 23 20 24 21 25 33 26 22 27REMARK SMILES IDX 25 28 23 29 26 30 27 31 32 32 28 33 31 34 29 35 30 36 24 38REMARK H PARENT 18 2 1 19 1 20 15 22 30 37 24 39USER                              x       y       z     vdW  Elec       q    TypeUSER                           _______ _______ _______ _____ _____    ______ ____ROOTATOM      1  N   UNL     1      36.749  45.613  15.375 -0.14 +0.15    -0.308 NA ATOM      2  H   UNL     1      36.201  46.270  15.937 +0.09 -0.09    +0.123 HD ENDROOTBRANCH   1   3ATOM      3  C   UNL     1      37.977  46.300  14.911 -0.41 -0.03    +0.079 C  ATOM      4  C   UNL     1      38.067  47.728  15.552 -0.45 -0.06    +0.107 C  ATOM      5  C   UNL     1      37.698  48.875  14.587 -0.53 -0.02    +0.030 C  ATOM      6  C   UNL     1      36.533  48.476  13.685 -0.44 -0.02    +0.034 C  ATOM      7  C   UNL     1      38.020  46.412  13.381 -0.39 -0.01    +0.052 C  ATOM      8  C   UNL     1      36.881  47.265  12.812 -0.62 -0.04    +0.116 C  BRANCH   4   9ATOM      9  N   UNL     1      39.365  47.937  16.191 -0.25 +0.12    -0.310 N  ATOM     10  C   UNL     1      41.910  47.093  18.445 -0.40 -0.00    +0.155 A  ATOM     11  N   UNL     1      41.344  46.105  19.176 -0.31 -0.01    -0.217 NA ATOM     12  C   UNL     1      41.154  47.689  17.419 -0.39 -0.02    +0.150 A  ATOM     13  C   UNL     1      40.091  45.715  18.858 -0.30 -0.01    +0.226 A  ATOM     14  C   UNL     1      39.879  47.186  17.213 -0.35 -0.04    +0.165 A  ATOM     15  N   UNL     1      41.426  48.715  16.534 -0.90 +0.00    -0.231 NA ATOM     16  N   UNL     1      39.286  46.180  17.879 -0.29 +0.04    -0.217 NA ATOM     17  C   UNL     1      40.330  48.836  15.816 -0.42 -0.06    +0.202 A  BRANCH  10  18ATOM     18  N   UNL     1      43.211  47.458  18.737 -0.30 -0.05    -0.382 N  ATOM     19  H   UNL     1      43.302  48.192  19.425 -0.48 -0.01    +0.158 HD ATOM     20  H   UNL     1      43.874  47.391  17.970 -0.46 +0.01    +0.158 HD ENDBRANCH  10  18ENDBRANCH   4   9BRANCH   8  21ATOM     21  O   UNL     1      37.285  47.737  11.527 -0.84 +0.06    -0.393 OA ATOM     22  H   UNL     1      36.703  48.483  11.295 -0.26 -0.09    +0.210 HD ENDBRANCH   8  21ENDBRANCH   1   3BRANCH   1  23ATOM     23  C   UNL     1      36.988  44.427  16.210 -0.33 -0.04    +0.117 C  BRANCH  23  24ATOM     24  C   UNL     1      35.981  44.256  17.324 -0.29 +0.01    -0.032 A  ATOM     25  C   UNL     1      34.607  44.424  17.066 -0.30 -0.00    +0.009 A  ATOM     26  C   UNL     1      36.400  43.889  18.618 -0.31 -0.01    +0.035 A  ATOM     27  C   UNL     1      33.666  44.220  18.075 -0.30 -0.02    +0.049 A  ATOM     28  C   UNL     1      35.466  43.675  19.638 -0.35 -0.01    +0.079 A  ATOM     29  C   UNL     1      34.104  43.848  19.338 -0.31 -0.02    +0.138 A  BRANCH  28  30ATOM     30  N   UNL     1      35.799  43.250  20.949 -0.17 -0.02    -0.368 N  ATOM     31  C   UNL     1      36.007  41.788  20.986 -0.48 +0.00    +0.119 C  ATOM     32  C   UNL     1      36.911  44.019  21.536 -0.37 +0.01    +0.119 C  ATOM     33  C   UNL     1      36.151  41.346  22.440 -0.52 +0.00    +0.053 C  ATOM     34  C   UNL     1      37.070  43.620  23.000 -0.37 +0.01    +0.053 C  ATOM     35  C   UNL     1      37.284  42.111  23.121 -0.43 +0.01    +0.118 C  BRANCH  35  36ATOM     36  O   UNL     1      37.348  41.758  24.499 -0.21 -0.00    -0.393 OA ATOM     37  H   UNL     1      36.681  41.069  24.659 +0.01 -0.05    +0.210 HD ENDBRANCH  35  36ENDBRANCH  28  30BRANCH  29  38ATOM     38  O   UNL     1      33.187  43.634  20.331 -0.65 -0.05    -0.506 OA ATOM     39  H   UNL     1      33.062  44.535  20.703 -0.19 -0.04    +0.293 HD ENDBRANCH  29  38ENDBRANCH  23  24ENDBRANCH   1  23TORSDOF 9TERENDMDL