REMARK SMILES COC1=c2cc[nH]c2=C(N2CC[C@H](Cc3ccc(C(=O)N4CCN(C)CC4)cc3)C2=O)C[C@H]1C
REMARK SMILES IDX 10 1 11 2 12 3 13 4 30 5 31 6 9 7 3 8 4 9 33 10 5 11 8 12
REMARK SMILES IDX 32 13 6 14 7 15 34 16 2 18 1 19 14 20 15 21 16 22 29 23
REMARK SMILES IDX 17 24 28 25 18 26 19 27 21 28 22 29 27 30 23 31 26 32 24 33
REMARK SMILES IDX 20 34 25 35
REMARK H PARENT 7 17
ROOT
ATOM      1  N   UNL     1      -3.152  -0.225  -0.218  1.00  0.00    -0.314 N 
ATOM      2  C   UNL     1      -2.482  -1.011   0.793  1.00  0.00     0.126 C 
ATOM      3  C   UNL     1      -1.219  -1.498   0.114  1.00  0.00     0.036 C 
ATOM      4  C   UNL     1      -0.866  -0.365  -0.845  1.00  0.00     0.085 C 
ATOM      5  C   UNL     1      -2.233   0.184  -1.205  1.00  0.00     0.230 C 
ATOM      6  O   UNL     1      -2.423   0.914  -2.166  1.00  0.00    -0.274 OA
ENDROOT
BRANCH   1   7
ATOM      7  C   UNL     1      -4.514   0.086  -0.196  1.00  0.00     0.046 C 
ATOM      8  C   UNL     1      -7.409   0.524  -0.275  1.00  0.00     0.108 C 
ATOM      9  C   UNL     1      -6.738   0.292   0.864  1.00  0.00     0.039 A 
ATOM     10  C   UNL     1      -6.686   0.480  -1.605  1.00  0.00     0.058 C 
ATOM     11  C   UNL     1      -7.216   0.316   2.235  1.00  0.00     0.031 A 
ATOM     12  C   UNL     1      -5.308  -0.052   0.885  1.00  0.00     0.069 A 
ATOM     13  C   UNL     1      -5.146   0.645  -1.468  1.00  0.00     0.067 C 
ATOM     14  C   UNL     1      -6.170  -0.064   2.985  1.00  0.00     0.083 A 
ATOM     15  N   UNL     1      -5.055  -0.364   2.216  1.00  0.00    -0.360 N 
ATOM     16  C   UNL     1      -7.014  -0.823  -2.345  1.00  0.00     0.016 C 
ATOM     17  H   UNL     1      -4.156  -0.093   2.589  1.00  0.00     0.166 HD
BRANCH   8  18
ATOM     18  O   UNL     1      -8.736   0.906  -0.333  1.00  0.00    -0.500 OA
ATOM     19  C   UNL     1      -9.630  -0.171  -0.051  1.00  0.00     0.278 C 
ENDBRANCH   8  18
ENDBRANCH   1   7
BRANCH   4  20
ATOM     20  C   UNL     1      -0.030   0.763  -0.229  1.00  0.00     0.049 C 
BRANCH  20  21
ATOM     21  C   UNL     1       1.357   0.337   0.191  1.00  0.00    -0.047 A 
ATOM     22  C   UNL     1       2.269  -0.161  -0.752  1.00  0.00     0.004 A 
ATOM     23  C   UNL     1       1.752   0.442   1.533  1.00  0.00     0.004 A 
ATOM     24  C   UNL     1       3.550  -0.556  -0.360  1.00  0.00     0.014 A 
ATOM     25  C   UNL     1       3.034   0.052   1.926  1.00  0.00     0.014 A 
ATOM     26  C   UNL     1       3.939  -0.429   0.976  1.00  0.00     0.040 A 
BRANCH  26  27
ATOM     27  C   UNL     1       5.284  -0.855   1.429  1.00  0.00     0.253 C 
ATOM     28  N   UNL     1       6.406  -0.381   0.758  1.00  0.00    -0.336 N 
ATOM     29  C   UNL     1       6.413   0.774  -0.150  1.00  0.00     0.135 C 
ATOM     30  C   UNL     1       7.718  -0.882   1.164  1.00  0.00     0.135 C 
ATOM     31  C   UNL     1       7.762   1.518  -0.129  1.00  0.00     0.105 C 
ATOM     32  C   UNL     1       8.778  -0.709   0.061  1.00  0.00     0.105 C 
ATOM     33  N   UNL     1       8.898   0.654  -0.499  1.00  0.00    -0.303 NA
ATOM     34  O   UNL     1       5.349  -1.617   2.391  1.00  0.00    -0.269 OA
ATOM     35  C   UNL     1      10.166   1.282  -0.144  1.00  0.00     0.105 C 
ENDBRANCH  26  27
ENDBRANCH  20  21
ENDBRANCH   4  20
TORSDOF 5
