REMARK SMILES C[C@@H]1CC(N2CC[C@H](Cc3ccc(C(=O)N4CCOCC4)cc3)C2=O)=c2[nH]ccc2=C1F
REMARK SMILES IDX 9 1 8 2 5 3 6 4 24 5 7 6 25 7 4 8 2 9 3 10 31 11 30 12 26 13
REMARK SMILES IDX 29 14 27 15 28 16 1 17 32 18 10 20 11 21 23 22 12 23 22 24
REMARK SMILES IDX 13 25 14 26 16 27 17 28 21 29 18 30 20 31 19 32 15 33
REMARK H PARENT 27 19
ROOT
ATOM      1  C   UNL     1       0.236  -0.360   1.196  1.00  0.00     0.049 C 
ENDROOT
BRANCH   1   2
ATOM      2  C   UNL     1      -0.932   0.218   0.401  1.00  0.00     0.085 C 
ATOM      3  N   UNL     1      -3.205  -0.286  -0.042  1.00  0.00    -0.314 N 
ATOM      4  C   UNL     1      -2.539  -0.108  -1.316  1.00  0.00     0.126 C 
ATOM      5  C   UNL     1      -2.270  -0.155   1.009  1.00  0.00     0.230 C 
ATOM      6  C   UNL     1      -1.069  -0.322  -1.013  1.00  0.00     0.036 C 
ATOM      7  O   UNL     1      -2.461  -0.272   2.211  1.00  0.00    -0.274 OA
BRANCH   3   8
ATOM      8  C   UNL     1      -4.594  -0.338   0.120  1.00  0.00     0.046 C 
ATOM      9  C   UNL     1      -6.654   0.435   1.559  1.00  0.00     0.052 C 
ATOM     10  C   UNL     1      -5.165  -0.003   1.503  1.00  0.00     0.067 C 
ATOM     11  C   UNL     1      -7.489  -0.183   0.475  1.00  0.00     0.113 C 
ATOM     12  C   UNL     1      -6.921  -0.669  -0.630  1.00  0.00     0.033 A 
ATOM     13  C   UNL     1      -5.470  -0.660  -0.855  1.00  0.00     0.068 A 
ATOM     14  C   UNL     1      -7.571  -1.250  -1.787  1.00  0.00     0.031 A 
ATOM     15  N   UNL     1      -5.335  -1.139  -2.152  1.00  0.00    -0.360 N 
ATOM     16  C   UNL     1      -6.574  -1.533  -2.641  1.00  0.00     0.083 A 
ATOM     17  C   UNL     1      -6.781   1.960   1.476  1.00  0.00     0.016 C 
ATOM     18  F   UNL     1      -8.833  -0.222   0.617  1.00  0.00    -0.211 F 
ATOM     19  H   UNL     1      -4.565  -1.774  -2.323  1.00  0.00     0.166 HD
ENDBRANCH   3   8
ENDBRANCH   1   2
BRANCH   1  20
ATOM     20  C   UNL     1       1.580   0.014   0.615  1.00  0.00    -0.047 A 
ATOM     21  C   UNL     1       2.339  -0.932  -0.089  1.00  0.00     0.004 A 
ATOM     22  C   UNL     1       2.070   1.321   0.753  1.00  0.00     0.004 A 
ATOM     23  C   UNL     1       3.572  -0.581  -0.640  1.00  0.00     0.014 A 
ATOM     24  C   UNL     1       3.302   1.677   0.201  1.00  0.00     0.014 A 
ATOM     25  C   UNL     1       4.059   0.719  -0.478  1.00  0.00     0.040 A 
BRANCH  25  26
ATOM     26  C   UNL     1       5.354   1.124  -1.070  1.00  0.00     0.254 C 
ATOM     27  N   UNL     1       6.492   0.391  -0.759  1.00  0.00    -0.334 N 
ATOM     28  C   UNL     1       6.607  -0.560   0.353  1.00  0.00     0.148 C 
ATOM     29  C   UNL     1       7.752   0.750  -1.409  1.00  0.00     0.148 C 
ATOM     30  C   UNL     1       8.018  -0.536   0.952  1.00  0.00     0.181 C 
ATOM     31  C   UNL     1       8.754  -0.406  -1.336  1.00  0.00     0.181 C 
ATOM     32  O   UNL     1       9.045  -0.842   0.000  1.00  0.00    -0.378 OA
ATOM     33  O   UNL     1       5.365   2.099  -1.818  1.00  0.00    -0.269 OA
ENDBRANCH  25  26
ENDBRANCH   1  20
TORSDOF 4
