MODEL        3USER    Run = 3USERUSER    Estimated Free Energy of Binding    = -10.74 kcal/mol  [=(1)+(2)+(3)-(4)]USERUSER    (1) Final Intermolecular Energy     = -12.83 kcal/molUSER        vdW + Hbond + desolv Energy     = -12.72 kcal/molUSER        Electrostatic Energy            =  -0.11 kcal/molUSER        Moving Ligand-Fixed Receptor    = -12.83 kcal/molUSER        Moving Ligand-Moving Receptor   =  +0.00 kcal/molUSER    (2) Final Total Internal Energy     =  -1.99 kcal/molUSER    (3) Torsional Free Energy           =  +2.09 kcal/molUSER    (4) Unbound System's Energy         =  -1.99 kcal/molUSERUSERREMARK SMILES Cc1nc(-c2ccc(CN[C@@H]3C[C@H](O)CC[C@@H]3n3cnc4c(N)ncnc43)cc2)n[nH]1REMARK SMILES IDX 10 1 9 3 8 4 5 5 6 6 29 7 7 8 28 9 4 10 2 11 3 12 31 13REMARK SMILES IDX 30 14 1 15 11 17 12 18 17 19 13 20 16 21 15 22 18 23 19 24REMARK SMILES IDX 27 25 20 26 26 27 21 28 25 29 22 30 24 31 23 32 14 35REMARK H PARENT 10 2 31 16 23 33 23 34 14 36USER                              x       y       z     vdW  Elec       q    TypeUSER                           _______ _______ _______ _____ _____    ______ ____ROOTATOM      1  N   UNL     1      37.529  44.135  17.726 -0.12 +0.06    -0.308 NA ATOM      2  H   UNL     1      37.557  44.339  16.726 +0.07 -0.03    +0.123 HD ENDROOTBRANCH   1   3ATOM      3  C   UNL     1      38.824  44.474  18.314 -0.33 -0.01    +0.117 C  BRANCH   3   4ATOM      4  C   UNL     1      39.451  45.640  17.589 -0.40 +0.00    -0.034 A  ATOM      5  C   UNL     1      40.629  47.815  16.223 -0.53 -0.00    +0.021 A  ATOM      6  C   UNL     1      40.858  47.621  17.592 -0.50 -0.00    +0.012 A  ATOM      7  C   UNL     1      39.789  46.918  15.549 -0.47 -0.00    +0.012 A  ATOM      8  C   UNL     1      40.273  46.547  18.271 -0.47 -0.00    +0.006 A  ATOM      9  C   UNL     1      39.202  45.844  16.225 -0.33 -0.00    +0.006 A  BRANCH   5  10ATOM     10  C   UNL     1      41.258  48.930  15.519 -0.40 -0.02    +0.181 A  ATOM     11  C   UNL     1      42.072  50.060  13.914 -0.57 -0.03    +0.121 A  ATOM     12  N   UNL     1      41.534  48.888  14.167 -0.37 +0.02    -0.212 NA ATOM     13  N   UNL     1      42.123  50.776  15.071 -0.44 +0.04    -0.263 N  ATOM     14  N   UNL     1      41.610  50.089  16.101 -1.01 +0.01    -0.154 NA ATOM     15  C   UNL     1      42.563  50.576  12.621 -0.67 -0.03    +0.089 C  ATOM     16  H   UNL     1      42.480  51.713  15.228 -0.15 -0.03    +0.192 HD ENDBRANCH   5  10ENDBRANCH   3   4ENDBRANCH   1   3BRANCH   1  17ATOM     17  C   UNL     1      36.399  44.807  18.384 -0.34 -0.02    +0.079 C  ATOM     18  C   UNL     1      35.326  43.746  18.673 -0.37 -0.01    +0.052 C  ATOM     19  C   UNL     1      35.821  46.060  17.658 -0.31 -0.06    +0.107 C  ATOM     20  C   UNL     1      34.130  44.335  19.419 -0.39 -0.03    +0.116 C  ATOM     21  C   UNL     1      34.552  46.594  18.349 -0.47 -0.02    +0.030 C  ATOM     22  C   UNL     1      33.520  45.521  18.680 -0.49 -0.02    +0.034 C  BRANCH  19  23ATOM     23  N   UNL     1      35.663  45.922  16.215 -0.15 +0.24    -0.310 N  ATOM     24  C   UNL     1      35.003  44.944  15.521 -0.18 -0.12    +0.202 A  ATOM     25  C   UNL     1      36.179  46.793  15.284 -0.24 -0.14    +0.165 A  ATOM     26  N   UNL     1      35.068  45.123  14.218 +0.15 +0.13    -0.231 NA ATOM     27  N   UNL     1      36.892  47.911  15.505 -0.28 +0.21    -0.217 NA ATOM     28  C   UNL     1      35.808  46.272  14.056 -0.34 -0.10    +0.150 A  ATOM     29  C   UNL     1      37.221  48.512  14.343 -0.35 -0.15    +0.226 A  ATOM     30  C   UNL     1      36.223  46.980  12.915 -0.50 -0.08    +0.155 A  ATOM     31  N   UNL     1      36.927  48.122  13.084 -0.88 +0.08    -0.217 NA BRANCH  30  32ATOM     32  N   UNL     1      35.928  46.575  11.620 -0.32 +0.20    -0.382 N  ATOM     33  H   UNL     1      36.373  47.161  10.926 +0.01 -0.09    +0.158 HD ATOM     34  H   UNL     1      34.950  46.343  11.485 -0.21 -0.12    +0.158 HD ENDBRANCH  30  32ENDBRANCH  19  23BRANCH  20  35ATOM     35  O   UNL     1      33.122  43.343  19.565 -0.50 +0.01    -0.393 OA ATOM     36  H   UNL     1      32.569  43.587  20.327 +0.11 +0.02    +0.210 HD ENDBRANCH  20  35ENDBRANCH   1  17TORSDOF 7TERENDMDL