REMARK SMILES Cc1nc(-c2ccc(CN[C@H]3C[C@H](O)CC[C@@H]3n3cnc4c(N)ncnc43)cc2)no1
REMARK SMILES IDX 10 1 9 3 8 4 5 5 6 6 29 7 7 8 28 9 4 10 2 11 3 12 31 13
REMARK SMILES IDX 30 14 1 15 11 16 12 17 17 18 13 19 16 20 15 21 18 22 19 23
REMARK SMILES IDX 27 24 20 25 26 26 21 27 25 28 22 29 24 30 23 31 14 34
REMARK H PARENT 10 2 23 32 23 33 14 35
ROOT
ATOM      1  N   UNL     1      -0.816  -2.374   0.851  1.00  0.00    -0.308 NA
ATOM      2  H   UNL     1       0.007  -2.978   0.855  1.00  0.00     0.123 HD
ENDROOT
BRANCH   1   3
ATOM      3  C   UNL     1      -0.585  -1.302   1.827  1.00  0.00     0.117 C 
BRANCH   3   4
ATOM      4  C   UNL     1       0.737  -0.591   1.649  1.00  0.00    -0.034 A 
ATOM      5  C   UNL     1       3.210   0.742   1.303  1.00  0.00     0.023 A 
ATOM      6  C   UNL     1       2.000   1.431   1.151  1.00  0.00     0.012 A 
ATOM      7  C   UNL     1       3.169  -0.620   1.640  1.00  0.00     0.012 A 
ATOM      8  C   UNL     1       0.777   0.773   1.328  1.00  0.00     0.006 A 
ATOM      9  C   UNL     1       1.947  -1.278   1.814  1.00  0.00     0.006 A 
BRANCH   5  10
ATOM     10  C   UNL     1       4.494   1.413   1.116  1.00  0.00     0.202 A 
ATOM     11  C   UNL     1       6.573   1.688   0.999  1.00  0.00     0.223 A 
ATOM     12  N   UNL     1       5.697   0.749   1.261  1.00  0.00    -0.191 NA
ATOM     13  O   UNL     1       6.005   2.890   0.704  1.00  0.00    -0.339 OA
ATOM     14  N   UNL     1       4.627   2.709   0.785  1.00  0.00    -0.057 NA
ATOM     15  C   UNL     1       8.043   1.623   0.972  1.00  0.00     0.114 C 
ENDBRANCH   5  10
ENDBRANCH   3   4
ENDBRANCH   1   3
BRANCH   1  16
ATOM     16  C   UNL     1      -1.073  -1.917  -0.535  1.00  0.00     0.079 C 
ATOM     17  C   UNL     1      -0.893  -3.146  -1.452  1.00  0.00     0.052 C 
ATOM     18  C   UNL     1      -2.504  -1.313  -0.717  1.00  0.00     0.107 C 
ATOM     19  C   UNL     1      -1.065  -2.789  -2.927  1.00  0.00     0.116 C 
ATOM     20  C   UNL     1      -3.198  -1.735  -2.035  1.00  0.00     0.030 C 
ATOM     21  C   UNL     1      -2.226  -1.833  -3.206  1.00  0.00     0.034 C 
BRANCH  18  22
ATOM     22  N   UNL     1      -2.538   0.141  -0.573  1.00  0.00    -0.310 N 
ATOM     23  C   UNL     1      -1.770   1.057  -1.242  1.00  0.00     0.202 A 
ATOM     24  C   UNL     1      -3.395   0.844   0.233  1.00  0.00     0.165 A 
ATOM     25  N   UNL     1      -2.069   2.294  -0.907  1.00  0.00    -0.231 NA
ATOM     26  N   UNL     1      -4.324   0.360   1.069  1.00  0.00    -0.217 NA
ATOM     27  C   UNL     1      -3.092   2.175   0.008  1.00  0.00     0.150 A 
ATOM     28  C   UNL     1      -4.960   1.359   1.712  1.00  0.00     0.226 A 
ATOM     29  C   UNL     1      -3.835   3.125   0.727  1.00  0.00     0.155 A 
ATOM     30  N   UNL     1      -4.766   2.689   1.601  1.00  0.00    -0.217 NA
BRANCH  29  31
ATOM     31  N   UNL     1      -3.643   4.492   0.593  1.00  0.00    -0.382 N 
ATOM     32  H   UNL     1      -3.956   5.018   1.396  1.00  0.00     0.158 HD
ATOM     33  H   UNL     1      -2.757   4.745   0.174  1.00  0.00     0.158 HD
ENDBRANCH  29  31
ENDBRANCH  18  22
BRANCH  19  34
ATOM     34  O   UNL     1       0.140  -2.181  -3.378  1.00  0.00    -0.393 OA
ATOM     35  H   UNL     1       0.052  -1.996  -4.332  1.00  0.00     0.210 HD
ENDBRANCH  19  34
ENDBRANCH   1  16
TORSDOF 7
