MODEL        7USER    Run = 7USERUSER    Estimated Free Energy of Binding    =  -8.07 kcal/mol  [=(1)+(2)+(3)-(4)]USERUSER    (1) Final Intermolecular Energy     = -10.16 kcal/molUSER        vdW + Hbond + desolv Energy     =  -9.66 kcal/molUSER        Electrostatic Energy            =  -0.50 kcal/molUSER        Moving Ligand-Fixed Receptor    = -10.16 kcal/molUSER        Moving Ligand-Moving Receptor   =  +0.00 kcal/molUSER    (2) Final Total Internal Energy     =  -1.86 kcal/molUSER    (3) Torsional Free Energy           =  +2.09 kcal/molUSER    (4) Unbound System's Energy         =  -1.86 kcal/molUSERUSERREMARK SMILES O=C(O)c1cccc(O)c1C(=O)c1ccc(O)c(N2CCNCC2)c1REMARK SMILES IDX 4 1 5 2 6 3 7 4 8 5 10 6 2 7 1 8 3 9 11 11 12 12 13 13 14 14REMARK SMILES IDX 25 15 15 16 18 17 16 18 19 19 20 20 24 21 21 22 23 23 22 24REMARK SMILES IDX 17 26 9 28REMARK H PARENT 3 10 22 25 17 27 9 29USER                              x       y       z     vdW  Elec       q    TypeUSER                           _______ _______ _______ _____ _____    ______ ____ROOTATOM      1  C   UNL     1      32.682  43.616  18.328 -0.29 -0.01    +0.074 A  ATOM      2  C   UNL     1      31.850  42.604  17.825 -0.30 -0.00    +0.017 A  ATOM      3  C   UNL     1      31.372  42.676  16.515 -0.31 -0.00    +0.005 A  ATOM      4  C   UNL     1      31.721  43.756  15.701 -0.32 -0.02    +0.047 A  ATOM      5  C   UNL     1      32.554  44.758  16.197 -0.24 -0.07    +0.127 A  ATOM      6  C   UNL     1      33.032  44.698  17.513 -0.27 -0.03    +0.079 A  ENDROOTBRANCH   1   7ATOM      7  C   UNL     1      33.116  43.564  19.737 -0.23 -0.00    +0.336 C  ATOM      8  O   UNL     1      34.019  42.887  20.188 -0.74 -0.04    -0.246 OA BRANCH   7   9ATOM      9  O   UNL     1      32.402  44.406  20.507 -0.35 +0.02    -0.478 OA ATOM     10  H   UNL     1      32.748  45.292  20.267 -0.32 -0.11    +0.297 HD ENDBRANCH   7   9ENDBRANCH   1   7BRANCH   6  11ATOM     11  C   UNL     1      33.993  45.708  17.990 -0.36 -0.13    +0.197 C  ATOM     12  O   UNL     1      33.562  46.604  18.713 -0.67 +0.20    -0.288 OA BRANCH  11  13ATOM     13  C   UNL     1      35.434  45.646  17.617 -0.35 -0.01    +0.025 A  ATOM     14  C   UNL     1      36.414  45.152  18.491 -0.28 -0.00    +0.016 A  ATOM     15  C   UNL     1      35.797  46.080  16.329 -0.33 -0.03    +0.042 A  ATOM     16  C   UNL     1      37.749  45.106  18.090 -0.34 -0.01    +0.049 A  ATOM     17  C   UNL     1      37.130  46.039  15.913 -0.31 -0.04    +0.080 A  ATOM     18  C   UNL     1      38.087  45.551  16.819 -0.28 -0.04    +0.138 A  BRANCH  17  19ATOM     19  N   UNL     1      37.574  46.422  14.625 -0.12 +0.16    -0.366 N  ATOM     20  C   UNL     1      36.628  45.931  13.586 -0.44 -0.06    +0.132 C  ATOM     21  C   UNL     1      37.941  47.854  14.479 -0.48 -0.06    +0.132 C  ATOM     22  C   UNL     1      36.892  46.629  12.234 -0.65 -0.04    +0.102 C  ATOM     23  C   UNL     1      36.934  48.641  13.612 -0.49 -0.05    +0.102 C  ATOM     24  N   UNL     1      36.737  48.095  12.253 -0.90 +0.09    -0.313 NA ATOM     25  H   UNL     1      35.797  48.345  11.943 -0.16 -0.07    +0.122 HD ENDBRANCH  17  19BRANCH  18  26ATOM     26  O   UNL     1      39.400  45.532  16.434 -0.01 +0.09    -0.506 OA ATOM     27  H   UNL     1      39.397  46.111  15.641 +0.21 -0.06    +0.293 HD ENDBRANCH  18  26ENDBRANCH  11  13ENDBRANCH   6  11BRANCH   5  28ATOM     28  O   UNL     1      32.910  45.802  15.391 -0.04 +0.55    -0.507 OA ATOM     29  H   UNL     1      32.958  46.620  15.913 -0.26 -0.70    +0.293 HD ENDBRANCH   5  28TORSDOF 7TERENDMDL