MODEL        6USER    Run = 6USERUSER    Estimated Free Energy of Binding    =  -7.02 kcal/mol  [=(1)+(2)+(3)-(4)]USERUSER    (1) Final Intermolecular Energy     = -11.19 kcal/molUSER        vdW + Hbond + desolv Energy     = -12.43 kcal/molUSER        Electrostatic Energy            =  -0.31 kcal/molUSER        Moving Ligand-Fixed Receptor    = -12.74 kcal/molUSER        Moving Ligand-Moving Receptor   =  +1.55 kcal/molUSER    (2) Final Total Internal Energy     =  -3.97 kcal/molUSER    (3) Torsional Free Energy           =  +4.18 kcal/molUSER    (4) Unbound System's Energy         =  -3.97 kcal/molUSERUSERREMARK SMILES COc1ccc(O)c(C(=O)c2ccc(C(=O)N[C@@H]3CCCNC[C@H]3NC(=O)c3cnc4ccc(F)cc4n3)cc2)c1FREMARK SMILES IDX 18 1 17 3 15 4 16 5 14 7 11 8 12 9 40 10 13 11 39 12 9 13REMARK SMILES IDX 10 14 8 15 3 16 4 17 41 18 5 19 6 20 42 21 2 22 1 23 7 24REMARK SMILES IDX 24 26 23 27 22 28 21 30 20 31 19 32 25 34 26 35 27 37 28 38REMARK SMILES IDX 29 39 38 40 30 41 37 42 31 43 36 44 32 45 34 46 33 47 35 48REMARK H PARENT 17 6 7 25 22 29 25 36REMARK Flexibility Score:  100.900USER                              x       y       z     vdW  Elec       q    TypeUSER                           _______ _______ _______ _____ _____    ______ ____ROOTATOM      1  C   UNL     1      37.666  42.667  25.040 -0.32 +0.00    +0.106 CG0ATOM      2  G   UNL     1      36.458  41.754  24.768 +0.00 +0.00    +0.000 G0 ENDROOTBRANCH   1   3ATOM      3  N   UNL     1      38.287  43.124  23.782 -0.10 -0.02    -0.347 N  ATOM      4  C   UNL     1      39.644  43.368  23.686 -0.15 +0.01    +0.251 C  ATOM      5  O   UNL     1      40.449  43.111  24.575 -0.13 -0.00    -0.269 OA ATOM      6  H   UNL     1      37.703  43.744  23.223 +0.09 +0.01    +0.164 HD BRANCH   4   7ATOM      7  C   UNL     1      40.107  44.004  22.419 -0.23 +0.00    +0.039 A  ATOM      8  C   UNL     1      40.963  45.308  20.074 -0.38 +0.00    +0.023 A  ATOM      9  C   UNL     1      39.803  45.732  20.740 -0.27 +0.00    +0.013 A  ATOM     10  C   UNL     1      41.684  44.220  20.579 -0.28 +0.00    +0.013 A  ATOM     11  C   UNL     1      39.384  45.090  21.909 -0.31 +0.00    +0.014 A  ATOM     12  C   UNL     1      41.260  43.573  21.747 -0.32 +0.00    +0.014 A  BRANCH   8  13ATOM     13  C   UNL     1      41.378  46.035  18.841 -0.40 +0.01    +0.199 C  ATOM     14  O   UNL     1      42.561  46.287  18.623 -0.31 -0.04    -0.288 OA BRANCH  13  15ATOM     15  C   UNL     1      40.380  46.454  17.848 -0.42 -0.01    +0.104 A  ATOM     16  C   UNL     1      38.254  46.051  16.748 -0.29 -0.05    +0.155 A  ATOM     17  C   UNL     1      38.432  47.224  16.007 -0.39 -0.02    +0.053 A  ATOM     18  C   UNL     1      39.235  45.677  17.674 -0.30 -0.03    +0.179 A  ATOM     19  C   UNL     1      39.578  48.009  16.183 -0.46 -0.02    +0.051 A  ATOM     20  C   UNL     1      40.551  47.621  17.103 -0.42 -0.02    +0.130 A  ATOM     21  F   UNL     1      39.084  44.539  18.371 -0.10 +0.02    -0.202 F  BRANCH  16  22ATOM     22  O   UNL     1      37.185  45.204  16.645 -0.05 +0.18    -0.494 OA ATOM     23  C   UNL     1      35.889  45.758  16.826 -0.22 -0.17    +0.278 C  ENDBRANCH  16  22BRANCH  20  24ATOM     24  O   UNL     1      41.676  48.376  17.265 -0.57 -0.00    -0.507 OA ATOM     25  H   UNL     1      42.460  47.802  17.264 -0.34 -0.04    +0.293 HD ENDBRANCH  20  24ENDBRANCH  13  15ENDBRANCH   8  13ENDBRANCH   4   7ENDBRANCH   1   3BRANCH   1  26ATOM     26  C   UNL     1      37.321  43.908  25.919 -0.29 -0.01    +0.118 C  BRANCH  26  27ATOM     27  C   UNL     1      36.999  43.613  27.396 -0.37 -0.02    +0.108 C  BRANCH  27  28ATOM     28  N   UNL     1      37.163  42.201  27.765 -0.19 +0.09    -0.315 NA ATOM     29  H   UNL     1      37.185  42.141  28.785 -0.43 -0.07    +0.122 HD BRANCH  28  30ATOM     30  C   UNL     1      36.022  41.403  27.306 -0.60 -0.03    +0.081 C  BRANCH  30  31ATOM     31  C   UNL     1      35.465  41.799  25.940 -0.35 -0.00    +0.017 C  BRANCH  31  32ATOM     32  C   UNL     1      36.461  41.766  24.777 -0.39 -0.00    +0.028 CG0ATOM     33  G   UNL     1      37.681  42.668  25.035 +0.00 +0.00    +0.000 G0 ENDBRANCH  31  32ENDBRANCH  30  31ENDBRANCH  28  30ENDBRANCH  27  28ENDBRANCH  26  27BRANCH  26  34ATOM     34  N   UNL     1      38.398  44.905  25.835 -0.05 +0.00    -0.345 N  ATOM     35  C   UNL     1      38.181  46.223  25.494 -0.19 +0.01    +0.271 C  ATOM     36  H   UNL     1      39.355  44.564  25.757 +0.07 +0.00    +0.164 HD ATOM     37  O   UNL     1      37.062  46.712  25.358 -0.86 -0.03    -0.267 OA BRANCH  35  38ATOM     38  C   UNL     1      39.416  47.027  25.276 -0.17 +0.01    +0.147 A  ATOM     39  C   UNL     1      39.558  48.259  25.884 -0.20 +0.01    +0.146 A  ATOM     40  N   UNL     1      40.374  46.491  24.470 -0.08 -0.02    -0.239 NA ATOM     41  N   UNL     1      40.672  49.014  25.724 -0.19 -0.04    -0.252 NA ATOM     42  C   UNL     1      41.487  47.233  24.309 -0.17 +0.01    +0.093 A  ATOM     43  C   UNL     1      41.638  48.500  24.940 -0.28 +0.01    +0.089 A  ATOM     44  C   UNL     1      42.514  46.746  23.514 -0.16 +0.01    +0.069 A  ATOM     45  C   UNL     1      42.813  49.219  24.743 -0.35 +0.01    +0.033 A  ATOM     46  C   UNL     1      43.680  47.480  23.341 -0.21 +0.03    +0.125 A  ATOM     47  C   UNL     1      43.843  48.714  23.952 -0.25 +0.01    +0.041 A  ATOM     48  F   UNL     1      44.667  46.982  22.589 -0.07 -0.11    -0.207 F  ENDBRANCH  35  38ENDBRANCH  26  34ENDBRANCH   1  26TORSDOF 8TERENDMDL