REMARK SMILES COC1=c2cc[nH]c2=C(N2CC[C@H](Cc3ccc(C#N)cc3)C2=O)C[C@@H]1C
REMARK SMILES IDX 10 1 11 2 12 3 13 4 23 5 24 6 9 7 3 8 4 9 26 10 5 11 8 12
REMARK SMILES IDX 25 13 6 14 7 15 27 16 2 18 1 19 14 20 15 21 16 22 22 23
REMARK SMILES IDX 17 24 21 25 18 26 19 27 20 28
REMARK H PARENT 7 17
ROOT
ATOM      1  N   UNL     1      -0.232   0.173   0.472  1.00  0.00    -0.314 N 
ATOM      2  C   UNL     1       0.496   1.379   0.131  1.00  0.00     0.126 C 
ATOM      3  C   UNL     1       1.736   1.341   0.997  1.00  0.00     0.036 C 
ATOM      4  C   UNL     1       2.031  -0.145   1.138  1.00  0.00     0.085 C 
ATOM      5  C   UNL     1       0.642  -0.755   1.077  1.00  0.00     0.230 C 
ATOM      6  O   UNL     1       0.424  -1.902   1.443  1.00  0.00    -0.274 OA
ENDROOT
BRANCH   1   7
ATOM      7  C   UNL     1      -1.569  -0.030   0.101  1.00  0.00     0.046 C 
ATOM      8  C   UNL     1      -4.393  -0.330  -0.664  1.00  0.00     0.108 C 
ATOM      9  C   UNL     1      -3.700  -1.291  -0.033  1.00  0.00     0.039 A 
ATOM     10  C   UNL     1      -3.753   1.019  -0.909  1.00  0.00     0.058 C 
ATOM     11  C   UNL     1      -4.096  -2.650   0.307  1.00  0.00     0.031 A 
ATOM     12  C   UNL     1      -2.333  -1.077   0.473  1.00  0.00     0.069 A 
ATOM     13  C   UNL     1      -2.201   0.969  -0.873  1.00  0.00     0.067 C 
ATOM     14  C   UNL     1      -3.093  -3.137   1.056  1.00  0.00     0.083 A 
ATOM     15  N   UNL     1      -2.101  -2.198   1.241  1.00  0.00    -0.360 N 
ATOM     16  C   UNL     1      -4.275   2.042   0.108  1.00  0.00     0.016 C 
ATOM     17  H   UNL     1      -1.134  -2.467   1.429  1.00  0.00     0.166 HD
BRANCH   8  18
ATOM     18  O   UNL     1      -5.660  -0.486  -1.188  1.00  0.00    -0.500 OA
ATOM     19  C   UNL     1      -6.666  -0.583  -0.180  1.00  0.00     0.278 C 
ENDBRANCH   8  18
ENDBRANCH   1   7
BRANCH   4  20
ATOM     20  C   UNL     1       2.880  -0.736   0.006  1.00  0.00     0.049 C 
BRANCH  20  21
ATOM     21  C   UNL     1       4.313  -0.259   0.027  1.00  0.00    -0.047 A 
ATOM     22  C   UNL     1       4.793   0.598  -0.972  1.00  0.00     0.005 A 
ATOM     23  C   UNL     1       5.183  -0.672   1.045  1.00  0.00     0.005 A 
ATOM     24  C   UNL     1       6.118   1.041  -0.949  1.00  0.00     0.020 A 
ATOM     25  C   UNL     1       6.508  -0.230   1.069  1.00  0.00     0.020 A 
ATOM     26  C   UNL     1       6.979   0.629   0.073  1.00  0.00     0.052 A 
BRANCH  26  27
ATOM     27  C   UNL     1       8.338   1.084   0.097  1.00  0.00     0.099 C 
ATOM     28  N   UNL     1       9.437   1.457   0.116  1.00  0.00    -0.192 NA
ENDBRANCH  26  27
ENDBRANCH  20  21
ENDBRANCH   4  20
TORSDOF 5
