MODEL        8USER    Run = 8USERUSER    Estimated Free Energy of Binding    =  -8.02 kcal/mol  [=(1)+(2)+(3)-(4)]USERUSER    (1) Final Intermolecular Energy     = -10.11 kcal/molUSER        vdW + Hbond + desolv Energy     =  -9.75 kcal/molUSER        Electrostatic Energy            =  -0.36 kcal/molUSER        Moving Ligand-Fixed Receptor    = -10.11 kcal/molUSER        Moving Ligand-Moving Receptor   =  +0.00 kcal/molUSER    (2) Final Total Internal Energy     =  -1.26 kcal/molUSER    (3) Torsional Free Energy           =  +2.09 kcal/molUSER    (4) Unbound System's Energy         =  -1.26 kcal/molUSERUSERREMARK SMILES CN1CCN(c2cc(C(=O)c3c(O)cccc3C(=O)O)ccc2O)CC1REMARK SMILES IDX 11 1 12 2 14 3 15 4 16 5 17 6 9 7 10 8 8 9 6 10 7 11 23 12REMARK SMILES IDX 22 13 21 14 5 15 2 16 3 17 26 18 4 19 25 20 1 21 24 22 13 24REMARK SMILES IDX 18 26 19 27 20 28REMARK H PARENT 24 23 13 25 20 29USER                              x       y       z     vdW  Elec       q    TypeUSER                           _______ _______ _______ _____ _____    ______ ____ROOTATOM      1  C   UNL     1      35.574  45.480  16.948 -0.29 -0.05    +0.079 A  ATOM      2  C   UNL     1      34.864  46.027  18.029 -0.34 -0.08    +0.127 A  ATOM      3  C   UNL     1      34.354  45.215  19.040 -0.35 -0.02    +0.047 A  ATOM      4  C   UNL     1      34.520  43.834  18.971 -0.37 -0.00    +0.005 A  ATOM      5  C   UNL     1      35.179  43.267  17.879 -0.33 -0.00    +0.017 A  ATOM      6  C   UNL     1      35.697  44.085  16.861 -0.28 -0.03    +0.074 A  ENDROOTBRANCH   1   7ATOM      7  C   UNL     1      36.181  46.423  15.980 -0.29 -0.16    +0.197 C  ATOM      8  O   UNL     1      35.467  46.857  15.076 -0.20 +0.33    -0.288 OA BRANCH   7   9ATOM      9  C   UNL     1      37.565  46.938  16.133 -0.38 -0.01    +0.025 A  ATOM     10  C   UNL     1      39.815  46.763  17.087 -0.42 -0.02    +0.080 A  ATOM     11  C   UNL     1      38.500  46.289  16.956 -0.37 -0.01    +0.042 A  ATOM     12  C   UNL     1      40.141  47.944  16.380 -0.42 -0.03    +0.138 A  ATOM     13  C   UNL     1      39.206  48.616  15.584 -0.48 -0.02    +0.049 A  ATOM     14  C   UNL     1      37.915  48.111  15.464 -0.47 -0.01    +0.016 A  BRANCH  10  15ATOM     15  N   UNL     1      40.766  46.109  17.886 -0.22 +0.02    -0.366 N  ATOM     16  N   UNL     1      41.249  45.331  20.753 -0.17 -0.03    -0.303 NA ATOM     17  C   UNL     1      40.203  44.732  19.894 -0.38 +0.00    +0.105 C  ATOM     18  C   UNL     1      42.146  46.215  19.972 -0.38 +0.02    +0.105 C  ATOM     19  C   UNL     1      40.515  44.742  18.381 -0.38 -0.00    +0.132 C  ATOM     20  C   UNL     1      41.421  47.013  18.865 -0.43 -0.00    +0.132 C  ATOM     21  C   UNL     1      42.023  44.315  21.459 -0.29 +0.02    +0.105 C  ENDBRANCH  10  15BRANCH  12  22ATOM     22  O   UNL     1      41.419  48.442  16.449 -0.64 +0.02    -0.506 OA ATOM     23  H   UNL     1      42.044  47.701  16.489 -0.30 -0.05    +0.293 HD ENDBRANCH  12  22ENDBRANCH   7   9ENDBRANCH   1   7BRANCH   2  24ATOM     24  O   UNL     1      34.635  47.372  18.160 -0.60 +0.55    -0.507 OA ATOM     25  H   UNL     1      34.415  47.729  17.269 -0.22 -0.79    +0.293 HD ENDBRANCH   2  24BRANCH   6  26ATOM     26  C   UNL     1      36.288  43.438  15.674 -0.24 -0.12    +0.336 C  ATOM     27  O   UNL     1      36.560  43.978  14.622 -0.31 +0.09    -0.246 OA BRANCH  26  28ATOM     28  O   UNL     1      36.543  42.139  15.905 -0.15 +0.18    -0.478 OA ATOM     29  H   UNL     1      35.657  41.742  16.048 -0.04 -0.15    +0.297 HD ENDBRANCH  26  28ENDBRANCH   6  26TORSDOF 7TERENDMDL