REMARK SMILES O=C(O)c1cccc(O)c1C(=O)c1ccc(O)c(N2CCNCC2)c1
REMARK SMILES IDX 4 1 5 2 6 3 7 4 8 5 10 6 2 7 1 8 3 9 11 11 12 12 13 13 14 14
REMARK SMILES IDX 25 15 15 16 18 17 16 18 19 19 20 20 24 21 21 22 23 23 22 24
REMARK SMILES IDX 17 26 9 28
REMARK H PARENT 3 10 22 25 17 27 9 29
ROOT
ATOM      1  C   UNL     1      -4.005   0.868  -0.091  1.00  0.00     0.074 A 
ATOM      2  C   UNL     1      -5.368   0.546  -0.176  1.00  0.00     0.017 A 
ATOM      3  C   UNL     1      -5.829  -0.683   0.300  1.00  0.00     0.005 A 
ATOM      4  C   UNL     1      -4.935  -1.596   0.862  1.00  0.00     0.047 A 
ATOM      5  C   UNL     1      -3.581  -1.274   0.954  1.00  0.00     0.127 A 
ATOM      6  C   UNL     1      -3.108  -0.046   0.472  1.00  0.00     0.079 A 
ENDROOT
BRANCH   1   7
ATOM      7  C   UNL     1      -3.522   2.138  -0.667  1.00  0.00     0.336 C 
ATOM      8  O   UNL     1      -2.501   2.296  -1.307  1.00  0.00    -0.246 OA
BRANCH   7   9
ATOM      9  O   UNL     1      -4.380   3.147  -0.431  1.00  0.00    -0.478 OA
ATOM     10  H   UNL     1      -3.928   3.931  -0.809  1.00  0.00     0.297 HD
ENDBRANCH   7   9
ENDBRANCH   1   7
BRANCH   6  11
ATOM     11  C   UNL     1      -1.695   0.323   0.669  1.00  0.00     0.197 C 
ATOM     12  O   UNL     1      -1.450   1.217   1.476  1.00  0.00    -0.288 OA
BRANCH  11  13
ATOM     13  C   UNL     1      -0.603  -0.363  -0.076  1.00  0.00     0.025 A 
ATOM     14  C   UNL     1      -0.856  -1.203  -1.171  1.00  0.00     0.016 A 
ATOM     15  C   UNL     1       0.721  -0.126   0.335  1.00  0.00     0.042 A 
ATOM     16  C   UNL     1       0.203  -1.816  -1.841  1.00  0.00     0.049 A 
ATOM     17  C   UNL     1       1.792  -0.731  -0.327  1.00  0.00     0.080 A 
ATOM     18  C   UNL     1       1.501  -1.577  -1.411  1.00  0.00     0.138 A 
BRANCH  17  19
ATOM     19  N   UNL     1       3.152  -0.518  -0.001  1.00  0.00    -0.366 N 
ATOM     20  C   UNL     1       3.657   0.711  -0.671  1.00  0.00     0.132 C 
ATOM     21  C   UNL     1       3.479  -0.594   1.447  1.00  0.00     0.132 C 
ATOM     22  C   UNL     1       5.003   1.154  -0.057  1.00  0.00     0.102 C 
ATOM     23  C   UNL     1       3.832   0.783   2.050  1.00  0.00     0.102 C 
ATOM     24  N   UNL     1       4.952   1.477   1.381  1.00  0.00    -0.313 NA
ATOM     25  H   UNL     1       4.823   2.482   1.503  1.00  0.00     0.122 HD
ENDBRANCH  17  19
BRANCH  18  26
ATOM     26  O   UNL     1       2.540  -2.198  -2.050  1.00  0.00    -0.506 OA
ATOM     27  H   UNL     1       3.313  -1.932  -1.507  1.00  0.00     0.293 HD
ENDBRANCH  18  26
ENDBRANCH  11  13
ENDBRANCH   6  11
BRANCH   5  28
ATOM     28  O   UNL     1      -2.712  -2.162   1.523  1.00  0.00    -0.507 OA
ATOM     29  H   UNL     1      -3.204  -2.914   1.892  1.00  0.00     0.293 HD
ENDBRANCH   5  28
TORSDOF 7
