REMARK SMILES Nc1ncnc2c1ncn2[C@H]1CC[C@@H](O)C[C@@H]1NCc1ccc(C(F)(F)F)cc1
REMARK SMILES IDX 18 1 17 3 11 4 12 5 13 6 16 7 14 8 10 9 2 10 3 11 7 12 4 13
REMARK SMILES IDX 6 14 8 15 5 16 9 17 1 18 15 21 19 23 20 24 21 25 29 26 22 27
REMARK SMILES IDX 28 28 23 29 24 30 25 31 26 32 27 33
REMARK H PARENT 18 2 1 19 1 20 15 22
ROOT
ATOM      1  N   UNL     1       0.958   0.178  -0.510  1.00  0.00    -0.308 NA
ATOM      2  H   UNL     1       1.501   0.838  -1.071  1.00  0.00     0.123 HD
ENDROOT
BRANCH   1   3
ATOM      3  C   UNL     1      -0.467   0.262  -0.906  1.00  0.00     0.079 C 
ATOM      4  C   UNL     1      -1.305  -0.940  -0.374  1.00  0.00     0.107 C 
ATOM      5  C   UNL     1      -0.954  -2.263  -1.090  1.00  0.00     0.030 C 
ATOM      6  C   UNL     1      -0.883  -2.170  -2.613  1.00  0.00     0.034 C 
ATOM      7  C   UNL     1      -0.538   0.318  -2.443  1.00  0.00     0.052 C 
ATOM      8  C   UNL     1      -0.068  -0.977  -3.099  1.00  0.00     0.116 C 
BRANCH   4   9
ATOM      9  N   UNL     1      -2.728  -0.608  -0.307  1.00  0.00    -0.310 N 
ATOM     10  C   UNL     1      -5.418   1.089   1.176  1.00  0.00     0.155 A 
ATOM     11  N   UNL     1      -4.822   1.765   2.184  1.00  0.00    -0.217 NA
ATOM     12  C   UNL     1      -4.624   0.271   0.355  1.00  0.00     0.150 A 
ATOM     13  C   UNL     1      -3.485   1.643   2.334  1.00  0.00     0.226 A 
ATOM     14  C   UNL     1      -3.268   0.241   0.631  1.00  0.00     0.165 A 
ATOM     15  N   UNL     1      -4.922  -0.556  -0.706  1.00  0.00    -0.231 NA
ATOM     16  N   UNL     1      -2.622   0.906   1.605  1.00  0.00    -0.217 NA
ATOM     17  C   UNL     1      -3.765  -1.068  -1.071  1.00  0.00     0.202 A 
BRANCH  10  18
ATOM     18  N   UNL     1      -6.792   1.221   1.018  1.00  0.00    -0.382 N 
ATOM     19  H   UNL     1      -7.212   0.460   0.498  1.00  0.00     0.158 HD
ATOM     20  H   UNL     1      -7.247   1.520   1.870  1.00  0.00     0.158 HD
ENDBRANCH  10  18
ENDBRANCH   4   9
BRANCH   8  21
ATOM     21  O   UNL     1      -0.229  -0.848  -4.509  1.00  0.00    -0.393 OA
ATOM     22  H   UNL     1       0.149  -1.643  -4.923  1.00  0.00     0.210 HD
ENDBRANCH   8  21
ENDBRANCH   1   3
BRANCH   1  23
ATOM     23  C   UNL     1       1.164   0.544   0.896  1.00  0.00     0.117 C 
BRANCH  23  24
ATOM     24  C   UNL     1       2.640   0.565   1.220  1.00  0.00    -0.034 A 
ATOM     25  C   UNL     1       3.358  -0.634   1.325  1.00  0.00     0.005 A 
ATOM     26  C   UNL     1       3.317   1.778   1.399  1.00  0.00     0.005 A 
ATOM     27  C   UNL     1       4.725  -0.622   1.613  1.00  0.00     0.013 A 
ATOM     28  C   UNL     1       4.684   1.791   1.688  1.00  0.00     0.013 A 
ATOM     29  C   UNL     1       5.404   0.592   1.791  1.00  0.00     0.056 A 
BRANCH  29  30
ATOM     30  C   UNL     1       6.875   0.606   2.124  1.00  0.00     0.416 C 
ATOM     31  F   UNL     1       7.519   1.714   1.658  1.00  0.00    -0.166 F 
ATOM     32  F   UNL     1       7.553  -0.459   1.608  1.00  0.00    -0.166 F 
ATOM     33  F   UNL     1       7.103   0.578   3.466  1.00  0.00    -0.166 F 
ENDBRANCH  29  30
ENDBRANCH  23  24
ENDBRANCH   1  23
TORSDOF 7
