MODEL        2USER    Run = 2USERUSER    Estimated Free Energy of Binding    =  -9.68 kcal/mol  [=(1)+(2)+(3)-(4)]USERUSER    (1) Final Intermolecular Energy     = -11.17 kcal/molUSER        vdW + Hbond + desolv Energy     = -11.10 kcal/molUSER        Electrostatic Energy            =  -0.07 kcal/molUSER        Moving Ligand-Fixed Receptor    = -11.17 kcal/molUSER        Moving Ligand-Moving Receptor   =  +0.00 kcal/molUSER    (2) Final Total Internal Energy     =  -1.86 kcal/molUSER    (3) Torsional Free Energy           =  +1.49 kcal/molUSER    (4) Unbound System's Energy         =  -1.86 kcal/molUSERUSERREMARK SMILES COC1=c2cc[nH]c2=C(N2CC[C@H](Cc3ccc(C#N)cc3)C2=O)C[C@@H]1CREMARK SMILES IDX 10 1 11 2 12 3 13 4 23 5 24 6 9 7 3 8 4 9 26 10 5 11 8 12REMARK SMILES IDX 25 13 6 14 7 15 27 16 2 18 1 19 14 20 15 21 16 22 22 23REMARK SMILES IDX 17 24 21 25 18 26 19 27 20 28REMARK H PARENT 7 17USER                              x       y       z     vdW  Elec       q    TypeUSER                           _______ _______ _______ _____ _____    ______ ____ROOTATOM      1  N   UNL     1      37.344  45.468  17.812 -0.16 +0.09    -0.314 N  ATOM      2  C   UNL     1      37.498  44.045  18.044 -0.19 -0.02    +0.126 C  ATOM      3  C   UNL     1      36.194  43.612  18.676 -0.37 -0.01    +0.036 C  ATOM      4  C   UNL     1      35.164  44.541  18.049 -0.33 -0.03    +0.085 C  ATOM      5  C   UNL     1      35.974  45.804  17.814 -0.23 -0.11    +0.230 C  ATOM      6  O   UNL     1      35.439  46.881  17.591 -0.26 +0.26    -0.274 OA ENDROOTBRANCH   1   7ATOM      7  C   UNL     1      38.427  46.302  17.501 -0.40 -0.01    +0.046 C  ATOM      8  C   UNL     1      40.666  48.044  16.725 -0.53 -0.02    +0.108 C  ATOM      9  C   UNL     1      40.712  47.223  17.786 -0.48 -0.00    +0.039 A  ATOM     10  C   UNL     1      39.466  48.015  15.805 -0.54 -0.02    +0.058 C  ATOM     11  C   UNL     1      41.744  47.076  18.802 -0.49 +0.00    +0.031 A  ATOM     12  C   UNL     1      39.644  46.252  18.081 -0.40 -0.01    +0.069 A  ATOM     13  C   UNL     1      38.199  47.420  16.479 -0.34 -0.04    +0.067 C  ATOM     14  C   UNL     1      41.365  46.023  19.545 -0.38 +0.01    +0.083 A  ATOM     15  N   UNL     1      40.191  45.473  19.078 -0.19 +0.01    -0.360 N  ATOM     16  C   UNL     1      39.802  47.237  14.526 -0.48 -0.00    +0.016 C  ATOM     17  H   UNL     1      39.560  44.953  19.689 +0.10 -0.00    +0.166 HD BRANCH   8  18ATOM     18  O   UNL     1      41.620  48.995  16.422 -0.77 -0.05    -0.500 OA ATOM     19  C   UNL     1      41.091  50.086  15.668 -0.47 -0.07    +0.278 C  ENDBRANCH   8  18ENDBRANCH   1   7BRANCH   4  20ATOM     20  C   UNL     1      34.602  44.057  16.707 -0.35 -0.02    +0.049 C  BRANCH  20  21ATOM     21  C   UNL     1      35.192  44.782  15.520 -0.30 +0.03    -0.047 A  ATOM     22  C   UNL     1      34.519  45.866  14.942 -0.32 -0.00    +0.005 A  ATOM     23  C   UNL     1      36.419  44.375  14.979 -0.37 -0.00    +0.005 A  ATOM     24  C   UNL     1      35.068  46.537  13.846 -0.42 -0.02    +0.020 A  ATOM     25  C   UNL     1      36.968  45.045  13.883 -0.41 -0.01    +0.020 A  ATOM     26  C   UNL     1      36.295  46.129  13.314 -0.48 -0.03    +0.052 A  BRANCH  26  27ATOM     27  C   UNL     1      36.858  46.818  12.191 -0.67 -0.04    +0.099 C  ATOM     28  N   UNL     1      37.318  47.373  11.281 -0.85 +0.04    -0.192 NA ENDBRANCH  26  27ENDBRANCH  20  21ENDBRANCH   4  20TORSDOF 5TERENDMDL