MODEL        2USER    Run = 2USERUSER    Estimated Free Energy of Binding    = -12.07 kcal/mol  [=(1)+(2)+(3)-(4)]USERUSER    (1) Final Intermolecular Energy     = -13.86 kcal/molUSER        vdW + Hbond + desolv Energy     = -13.79 kcal/molUSER        Electrostatic Energy            =  -0.06 kcal/molUSER        Moving Ligand-Fixed Receptor    = -13.86 kcal/molUSER        Moving Ligand-Moving Receptor   =  +0.00 kcal/molUSER    (2) Final Total Internal Energy     =  -1.35 kcal/molUSER    (3) Torsional Free Energy           =  +1.79 kcal/molUSER    (4) Unbound System's Energy         =  -1.35 kcal/molUSERUSERREMARK SMILES Oc1nc2ccccc2n1C1CCN(Cc2ccc(-c3nc4ccccc4nc3-c3ccccn3)cc2)CC1REMARK SMILES IDX 11 1 12 2 13 3 14 4 38 5 39 6 10 7 2 8 3 9 4 10 9 11 5 12REMARK SMILES IDX 8 13 6 14 7 15 1 16 15 18 16 19 17 20 37 21 18 22 36 23REMARK SMILES IDX 19 24 20 25 21 26 29 27 22 28 28 29 23 30 27 31 24 32 26 33REMARK SMILES IDX 25 34 30 35 31 36 35 37 32 38 34 39 33 40REMARK H PARENT 1 17USER                              x       y       z     vdW  Elec       q    TypeUSER                           _______ _______ _______ _____ _____    ______ ____ROOTATOM      1  C   UNL     1      39.681  46.602  17.717 -0.45 -0.02    +0.095 C  ATOM      2  C   UNL     1      41.004  45.828  17.863 -0.51 -0.00    +0.041 C  ATOM      3  C   UNL     1      40.904  44.683  18.875 -0.41 +0.00    +0.087 C  ATOM      4  N   UNL     1      40.041  45.080  19.982 -0.20 -0.00    -0.299 NA ATOM      5  C   UNL     1      38.642  45.252  19.580 -0.34 -0.00    +0.087 C  ATOM      6  C   UNL     1      38.483  45.746  18.137 -0.41 -0.01    +0.041 C  ENDROOTBRANCH   1   7ATOM      7  N   UNL     1      39.524  47.193  16.396 -0.26 +0.08    -0.291 N  ATOM      8  C   UNL     1      40.352  48.109  15.810 -0.32 -0.06    +0.295 A  ATOM      9  N   UNL     1      39.971  48.461  14.612 -0.39 +0.06    -0.195 NA ATOM     10  C   UNL     1      38.821  47.742  14.397 -0.43 -0.03    +0.092 A  ATOM     11  C   UNL     1      38.509  46.938  15.497 -0.38 -0.03    +0.072 A  ATOM     12  C   UNL     1      37.982  47.730  13.272 -0.40 -0.01    +0.031 A  ATOM     13  C   UNL     1      37.377  46.113  15.524 -0.36 -0.01    +0.029 A  ATOM     14  C   UNL     1      36.848  46.910  13.283 -0.57 -0.00    +0.002 A  ATOM     15  C   UNL     1      36.553  46.117  14.392 -0.42 -0.00    +0.002 A  BRANCH   8  16ATOM     16  O   UNL     1      41.431  48.616  16.368 -0.72 +0.01    -0.480 OA ATOM     17  H   UNL     1      41.961  47.814  16.521 -0.27 -0.03    +0.296 HD ENDBRANCH   8  16ENDBRANCH   1   7BRANCH   4  18ATOM     18  C   UNL     1      40.216  44.291  21.209 -0.28 +0.01    +0.120 C  BRANCH  18  19ATOM     19  C   UNL     1      39.443  44.741  22.430 -0.26 -0.00    -0.034 A  ATOM     20  C   UNL     1      38.096  44.394  22.596 -0.34 +0.00    +0.006 A  ATOM     21  C   UNL     1      40.056  45.525  23.416 -0.21 +0.00    +0.006 A  ATOM     22  C   UNL     1      37.383  44.813  23.726 -0.21 +0.00    +0.011 A  ATOM     23  C   UNL     1      39.340  45.942  24.544 -0.21 +0.00    +0.011 A  ATOM     24  C   UNL     1      37.989  45.604  24.715 -0.29 +0.00    +0.002 A  BRANCH  24  25ATOM     25  C   UNL     1      37.260  46.035  25.922 -0.28 -0.00    +0.099 A  ATOM     26  N   UNL     1      36.962  47.368  25.921 -0.54 +0.01    -0.244 NA ATOM     27  C   UNL     1      36.928  45.220  27.014 -0.30 -0.02    +0.116 A  ATOM     28  C   UNL     1      36.359  47.878  27.007 -0.22 -0.02    +0.089 A  ATOM     29  N   UNL     1      36.337  45.754  28.130 -0.27 +0.06    -0.242 NA ATOM     30  C   UNL     1      36.038  49.229  27.044 -0.35 -0.00    +0.030 A  ATOM     31  C   UNL     1      36.049  47.067  28.120 -0.22 -0.02    +0.090 A  ATOM     32  C   UNL     1      35.416  49.798  28.157 -0.22 +0.00    +0.002 A  ATOM     33  C   UNL     1      35.432  47.643  29.224 -0.37 -0.01    +0.030 A  ATOM     34  C   UNL     1      35.113  49.001  29.252 -0.29 -0.00    +0.002 A  BRANCH  27  35ATOM     35  C   UNL     1      37.144  43.760  27.077 -0.30 -0.01    +0.091 A  ATOM     36  C   UNL     1      38.416  43.218  27.282 -0.27 -0.00    +0.031 A  ATOM     37  N   UNL     1      36.050  42.963  26.963 -0.26 +0.05    -0.255 NA ATOM     38  C   UNL     1      38.571  41.835  27.347 -0.38 -0.00    +0.004 A  ATOM     39  C   UNL     1      36.227  41.625  27.028 -0.46 -0.03    +0.112 A  ATOM     40  C   UNL     1      37.456  41.020  27.216 -0.45 -0.00    +0.020 A  ENDBRANCH  27  35ENDBRANCH  24  25ENDBRANCH  18  19ENDBRANCH   4  18TORSDOF 6TERENDMDL