MODEL        10USER    Run = 10USERUSER    Estimated Free Energy of Binding    =  -8.81 kcal/mol  [=(1)+(2)+(3)-(4)]USERUSER    (1) Final Intermolecular Energy     = -10.60 kcal/molUSER        vdW + Hbond + desolv Energy     = -10.47 kcal/molUSER        Electrostatic Energy            =  -0.13 kcal/molUSER        Moving Ligand-Fixed Receptor    = -10.60 kcal/molUSER        Moving Ligand-Moving Receptor   =  +0.00 kcal/molUSER    (2) Final Total Internal Energy     =  -1.76 kcal/molUSER    (3) Torsional Free Energy           =  +1.79 kcal/molUSER    (4) Unbound System's Energy         =  -1.76 kcal/molUSERUSERREMARK SMILES Nc1ccc2[nH]c3c(NCCc4ccccc4)cccc3c2c1C=OREMARK SMILES IDX 9 1 8 3 2 4 3 5 23 6 4 7 22 8 5 9 21 10 6 11 20 12 7 13REMARK SMILES IDX 19 14 18 15 1 17 24 20 25 21 10 22 11 23 12 24 13 25 17 26REMARK SMILES IDX 14 27 16 28 15 29REMARK H PARENT 9 2 6 16 1 18 1 19USER                              x       y       z     vdW  Elec       q    TypeUSER                           _______ _______ _______ _____ _____    ______ ____ROOTATOM      1  N   UNL     1      34.929  45.135  14.954 -0.08 +0.24    -0.383 N  ATOM      2  H   UNL     1      35.303  44.202  15.069 +0.11 -0.07    +0.160 HD ENDROOTBRANCH   1   3ATOM      3  C   UNL     1      35.882  46.112  14.687 -0.36 -0.04    +0.059 A  ATOM      4  C   UNL     1      41.071  47.179  17.687 -0.49 -0.00    +0.043 A  ATOM      5  C   UNL     1      40.621  46.075  18.413 -0.47 -0.00    +0.028 A  ATOM      6  C   UNL     1      40.253  47.699  16.653 -0.49 -0.01    +0.047 A  ATOM      7  C   UNL     1      39.424  45.428  18.098 -0.41 -0.00    +0.029 A  ATOM      8  C   UNL     1      39.044  47.047  16.286 -0.43 -0.01    +0.020 A  ATOM      9  C   UNL     1      38.668  45.932  17.036 -0.37 -0.01    +0.047 A  ATOM     10  C   UNL     1      38.036  47.211  15.262 -0.43 -0.00    +0.010 A  ATOM     11  N   UNL     1      37.471  45.484  16.537 -0.12 +0.13    -0.353 N  ATOM     12  C   UNL     1      37.876  48.082  14.164 -0.53 -0.01    +0.011 A  ATOM     13  C   UNL     1      37.049  46.242  15.470 -0.33 -0.04    +0.070 A  ATOM     14  C   UNL     1      36.757  47.963  13.341 -0.60 -0.00    +0.003 A  ATOM     15  C   UNL     1      35.788  46.997  13.601 -0.49 -0.02    +0.028 A  ATOM     16  H   UNL     1      36.975  44.681  16.889 +0.11 -0.05    +0.167 HD BRANCH   4  17ATOM     17  N   UNL     1      42.204  47.870  18.164 -0.26 +0.01    -0.398 N  ATOM     18  H   UNL     1      41.999  48.864  18.321 +0.06 +0.00    +0.156 HD ATOM     19  H   UNL     1      43.037  47.742  17.598 -0.49 -0.02    +0.156 HD ENDBRANCH   4  17BRANCH   6  20ATOM     20  C   UNL     1      40.656  48.936  15.952 -0.45 -0.06    +0.262 C  ATOM     21  O   UNL     1      41.616  49.613  16.303 -1.04 -0.02    -0.298 OA ENDBRANCH   6  20ENDBRANCH   1   3BRANCH   1  22ATOM     22  C   UNL     1      33.808  45.411  15.855 -0.27 -0.10    +0.117 C  BRANCH  22  23ATOM     23  C   UNL     1      34.288  45.809  17.256 -0.39 -0.05    +0.056 C  BRANCH  23  24ATOM     24  C   UNL     1      34.754  44.613  18.048 -0.30 +0.02    -0.046 A  ATOM     25  C   UNL     1      35.427  44.782  19.266 -0.35 -0.00    +0.004 A  ATOM     26  C   UNL     1      34.544  43.316  17.560 -0.34 -0.00    +0.004 A  ATOM     27  C   UNL     1      35.875  43.673  19.984 -0.42 -0.00    +0.000 A  ATOM     28  C   UNL     1      34.993  42.209  18.280 -0.42 -0.00    +0.000 A  ATOM     29  C   UNL     1      35.658  42.387  19.492 -0.42 -0.00    +0.000 A  ENDBRANCH  23  24ENDBRANCH  22  23ENDBRANCH   1  22TORSDOF 6TERENDMDL