REMARK SMILES COc1ccc(O)c(C(=O)c2ccc(CN[C@@H]3CCCNC[C@H]3N)cc2)c1F
REMARK SMILES IDX 15 1 14 2 11 3 12 4 26 5 13 6 25 7 9 8 10 9 8 10 3 11 4 12
REMARK SMILES IDX 27 13 5 14 6 15 28 16 2 17 1 18 7 19 16 21 17 23 18 24 19 25
REMARK SMILES IDX 23 27 22 28 21 29 20 31 24 33
REMARK H PARENT 7 20 16 22 21 30 24 34 24 35
REMARK Flexibility Score:   49.900
ROOT
ATOM      1  C   UNL     1      -2.422  -0.814  -1.908  1.00  0.00     0.117 C 
ENDROOT
BRANCH   1   2
ATOM      2  C   UNL     1      -0.940  -1.111  -1.891  1.00  0.00    -0.034 A 
ATOM      3  C   UNL     1       1.813  -1.660  -1.804  1.00  0.00     0.023 A 
ATOM      4  C   UNL     1       0.887  -2.706  -1.744  1.00  0.00     0.012 A 
ATOM      5  C   UNL     1       1.367  -0.341  -1.936  1.00  0.00     0.012 A 
ATOM      6  C   UNL     1      -0.482  -2.432  -1.778  1.00  0.00     0.006 A 
ATOM      7  C   UNL     1      -0.003  -0.070  -1.972  1.00  0.00     0.006 A 
BRANCH   3   8
ATOM      8  C   UNL     1       3.256  -1.995  -1.791  1.00  0.00     0.199 C 
ATOM      9  O   UNL     1       3.642  -2.995  -2.398  1.00  0.00    -0.288 OA
BRANCH   8  10
ATOM     10  C   UNL     1       4.276  -1.154  -1.127  1.00  0.00     0.104 A 
ATOM     11  C   UNL     1       4.974   0.366   0.648  1.00  0.00     0.155 A 
ATOM     12  C   UNL     1       6.247   0.440   0.080  1.00  0.00     0.053 A 
ATOM     13  C   UNL     1       3.999  -0.440   0.040  1.00  0.00     0.179 A 
ATOM     14  C   UNL     1       6.545  -0.296  -1.070  1.00  0.00     0.051 A 
ATOM     15  C   UNL     1       5.570  -1.098  -1.658  1.00  0.00     0.130 A 
ATOM     16  F   UNL     1       2.791  -0.535   0.619  1.00  0.00    -0.202 F 
BRANCH  11  17
ATOM     17  O   UNL     1       4.571   1.023   1.780  1.00  0.00    -0.494 OA
ATOM     18  C   UNL     1       5.535   1.830   2.444  1.00  0.00     0.278 C 
ENDBRANCH  11  17
BRANCH  15  19
ATOM     19  O   UNL     1       5.955  -1.812  -2.762  1.00  0.00    -0.507 OA
ATOM     20  H   UNL     1       5.258  -2.485  -2.942  1.00  0.00     0.293 HD
ENDBRANCH  15  19
ENDBRANCH   8  10
ENDBRANCH   3   8
ENDBRANCH   1   2
BRANCH   1  21
ATOM     21  N   UNL     1      -3.046  -0.876  -0.583  1.00  0.00    -0.308 NA
ATOM     22  H   UNL     1      -2.744  -1.743  -0.138  1.00  0.00     0.123 HD
BRANCH  21  23
ATOM     23  C   UNL     1      -2.723   0.261   0.309  1.00  0.00     0.072 C 
BRANCH  23  24
ATOM     24  C   UNL     1      -3.053  -0.148   1.767  1.00  0.00     0.022 C 
BRANCH  24  25
ATOM     25  C   UNL     1      -4.520  -0.493   2.029  1.00  0.00     0.017 CG0
ATOM     26  G   UNL     1      -5.426   0.706   2.319  1.00  0.00     0.000 G0
ENDBRANCH  24  25
ENDBRANCH  23  24
BRANCH  23  27
ATOM     27  C   UNL     1      -3.407   1.595  -0.120  1.00  0.00     0.081 C 
BRANCH  27  28
ATOM     28  C   UNL     1      -4.949   1.587   0.062  1.00  0.00     0.101 C 
BRANCH  28  29
ATOM     29  N   UNL     1      -5.388   1.861   1.432  1.00  0.00    -0.315 NA
ATOM     30  H   UNL     1      -4.811   2.595   1.833  1.00  0.00     0.122 HD
BRANCH  29  31
ATOM     31  C   UNL     1      -5.426   0.706   2.319  1.00  0.00     0.081 CG0
ATOM     32  G   UNL     1      -4.520  -0.493   2.029  1.00  0.00     0.000 G0
ENDBRANCH  29  31
ENDBRANCH  28  29
ENDBRANCH  27  28
BRANCH  27  33
ATOM     33  N   UNL     1      -2.786   2.754   0.568  1.00  0.00    -0.325 NA
ATOM     34  H   UNL     1      -2.811   2.612   1.574  1.00  0.00     0.119 HD
ATOM     35  H   UNL     1      -3.343   3.586   0.375  1.00  0.00     0.119 HD
ENDBRANCH  27  33
ENDBRANCH  23  27
ENDBRANCH  21  23
ENDBRANCH   1  21
TORSDOF 8
