MODEL        5USER    Run = 5USERUSER    Estimated Free Energy of Binding    =  -8.17 kcal/mol  [=(1)+(2)+(3)-(4)]USERUSER    (1) Final Intermolecular Energy     =  -9.07 kcal/molUSER        vdW + Hbond + desolv Energy     =  -9.00 kcal/molUSER        Electrostatic Energy            =  -0.06 kcal/molUSER        Moving Ligand-Fixed Receptor    =  -9.07 kcal/molUSER        Moving Ligand-Moving Receptor   =  +0.00 kcal/molUSER    (2) Final Total Internal Energy     =  -0.84 kcal/molUSER    (3) Torsional Free Energy           =  +0.89 kcal/molUSER    (4) Unbound System's Energy         =  -0.84 kcal/molUSERUSERREMARK SMILES CO[C@H]1CC=C(F)C=C1[C@@H]1c2cc(-c3n[nH]c4cc(F)c(F)cc34)[nH]c21REMARK SMILES IDX 3 1 4 2 5 3 6 4 7 5 8 6 9 7 2 8 1 9 10 10 11 11 26 12 12 13REMARK SMILES IDX 25 14 13 15 14 17 15 18 24 19 16 20 23 21 17 22 21 23 18 24REMARK SMILES IDX 19 25 22 27 20 28REMARK H PARENT 25 16 16 26USER                              x       y       z     vdW  Elec       q    TypeUSER                           _______ _______ _______ _____ _____    ______ ____ROOTATOM      1  C   UNL     1      40.096  48.338  16.450 -0.44 -0.04    +0.149 C  ATOM      2  C   UNL     1      39.075  49.180  15.638 -0.38 -0.04    +0.067 C  ATOM      3  C   UNL     1      38.521  48.504  14.417 -0.57 -0.01    +0.015 C  ATOM      4  C   UNL     1      38.666  47.191  14.221 -0.44 -0.04    +0.119 C  ATOM      5  F   UNL     1      38.132  46.611  13.126 -0.11 +0.05    -0.207 F  ATOM      6  C   UNL     1      39.338  46.344  15.165 -0.47 -0.01    +0.042 C  ATOM      7  C   UNL     1      40.011  46.831  16.228 -0.53 +0.00    -0.025 C  ENDROOTBRANCH   1   8ATOM      8  O   UNL     1      41.434  48.724  16.088 -0.81 +0.01    -0.377 OA ATOM      9  C   UNL     1      41.469  49.893  15.279 -0.56 -0.03    +0.195 C  ENDBRANCH   1   8BRANCH   7  10ATOM     10  C   UNL     1      40.750  45.998  17.192 -0.42 -0.01    +0.097 C  ATOM     11  C   UNL     1      40.024  45.097  18.061 -0.39 +0.00    -0.012 A  ATOM     12  C   UNL     1      40.620  46.296  18.612 -0.46 -0.00    +0.031 A  ATOM     13  C   UNL     1      39.410  44.457  19.118 -0.35 -0.00    +0.035 A  ATOM     14  N   UNL     1      40.308  46.248  19.919 -0.10 -0.00    -0.356 N  ATOM     15  C   UNL     1      39.581  45.163  20.267 -0.33 +0.00    +0.067 A  ATOM     16  H   UNL     1      40.578  46.945  20.598 +0.13 +0.01    +0.166 HD BRANCH  15  17ATOM     17  C   UNL     1      39.100  44.893  21.716 -0.26 +0.01    +0.116 A  ATOM     18  N   UNL     1      39.518  45.706  22.696 -0.21 -0.01    -0.173 NA ATOM     19  C   UNL     1      38.243  43.867  22.197 -0.32 +0.00    +0.032 A  ATOM     20  N   UNL     1      38.936  45.207  23.796 -0.12 -0.02    -0.277 N  ATOM     21  C   UNL     1      37.533  42.776  21.658 -0.34 +0.00    +0.055 A  ATOM     22  C   UNL     1      38.157  44.105  23.570 -0.26 +0.00    +0.069 A  ATOM     23  C   UNL     1      36.774  41.979  22.517 -0.40 +0.01    +0.159 A  ATOM     24  C   UNL     1      37.400  43.315  24.443 -0.30 +0.00    +0.070 A  ATOM     25  C   UNL     1      36.710  42.242  23.879 -0.31 +0.01    +0.160 A  ATOM     26  H   UNL     1      39.109  45.669  24.682 +0.09 +0.01    +0.190 HD ATOM     27  F   UNL     1      36.097  40.940  22.006 -0.22 -0.00    -0.204 F  ATOM     28  F   UNL     1      35.972  41.458  24.678 -0.12 +0.03    -0.204 F  ENDBRANCH  15  17ENDBRANCH   7  10TORSDOF 3TERENDMDL