MODEL        5USER    Run = 5USERUSER    Estimated Free Energy of Binding    =  -8.60 kcal/mol  [=(1)+(2)+(3)-(4)]USERUSER    (1) Final Intermolecular Energy     =  -9.79 kcal/molUSER        vdW + Hbond + desolv Energy     =  -9.52 kcal/molUSER        Electrostatic Energy            =  -0.28 kcal/molUSER        Moving Ligand-Fixed Receptor    =  -9.79 kcal/molUSER        Moving Ligand-Moving Receptor   =  +0.00 kcal/molUSER    (2) Final Total Internal Energy     =  -0.42 kcal/molUSER    (3) Torsional Free Energy           =  +1.19 kcal/molUSER    (4) Unbound System's Energy         =  -0.42 kcal/molUSERUSERREMARK SMILES Nc1nccc(-c2ccc(Nc3nc4ccc(F)cc4s3)cc2)n1REMARK SMILES IDX 7 1 8 2 9 3 10 4 22 5 23 6 6 7 2 8 3 9 24 10 4 11 5 12 1 13REMARK SMILES IDX 11 16 12 18 13 19 21 20 14 21 20 22 15 23 19 24 16 25 17 26REMARK SMILES IDX 18 27REMARK H PARENT 1 14 1 15 11 17USER                              x       y       z     vdW  Elec       q    TypeUSER                           _______ _______ _______ _____ _____    ______ ____ROOTATOM      1  C   UNL     1      38.471  29.325  23.932 -0.29 +0.00    +0.000 A  ATOM      2  C   UNL     1      38.226  30.507  23.216 -0.42 +0.00    +0.012 A  ATOM      3  C   UNL     1      37.018  30.706  22.532 -0.41 +0.00    +0.027 A  ATOM      4  C   UNL     1      36.008  29.734  22.530 -0.35 -0.00    +0.040 A  ATOM      5  C   UNL     1      36.248  28.556  23.238 -0.28 -0.00    +0.027 A  ATOM      6  C   UNL     1      37.457  28.353  23.918 -0.24 +0.00    +0.012 A  ENDROOTBRANCH   1   7ATOM      7  C   UNL     1      39.733  29.091  24.663 -0.28 +0.03    +0.076 A  ATOM      8  C   UNL     1      40.955  29.513  26.565 -0.23 +0.08    +0.220 A  ATOM      9  N   UNL     1      41.988  28.769  26.165 -0.19 -0.12    -0.222 NA ATOM     10  N   UNL     1      39.828  29.689  25.874 -0.59 -0.10    -0.213 NA ATOM     11  C   UNL     1      41.874  28.196  24.956 -0.19 +0.08    +0.117 A  ATOM     12  C   UNL     1      40.765  28.323  24.157 -0.24 +0.03    +0.049 A  BRANCH   8  13ATOM     13  N   UNL     1      41.040  30.104  27.808 +0.01 +0.16    -0.368 N  ATOM     14  H   UNL     1      41.865  29.769  28.285 -0.43 -0.10    +0.159 HD ATOM     15  H   UNL     1      40.929  31.104  27.714 -0.41 -0.17    +0.159 HD ENDBRANCH   8  13ENDBRANCH   1   7BRANCH   4  16ATOM     16  N   UNL     1      34.812  30.026  21.851 -0.18 +0.08    -0.332 N  ATOM     17  H   UNL     1      34.844  29.747  20.876 -0.33 -0.12    +0.169 HD BRANCH  16  18ATOM     18  C   UNL     1      33.555  30.193  22.326 -0.29 -0.01    +0.188 A  ATOM     19  N   UNL     1      32.526  30.233  21.507 -0.91 -0.01    -0.220 NA ATOM     20  S   UNL     1      33.157  30.510  23.975 -0.29 -0.02    -0.097 S  ATOM     21  C   UNL     1      31.350  30.458  22.196 -0.54 -0.00    +0.084 A  ATOM     22  C   UNL     1      31.492  30.633  23.573 -0.54 +0.01    +0.059 A  ATOM     23  C   UNL     1      30.060  30.527  21.630 -0.42 -0.01    +0.033 A  ATOM     24  C   UNL     1      30.392  30.873  24.410 -0.45 +0.03    +0.060 A  ATOM     25  C   UNL     1      28.955  30.765  22.454 -0.46 -0.01    +0.041 A  ATOM     26  C   UNL     1      29.131  30.933  23.820 -0.41 +0.04    +0.124 A  ATOM     27  F   UNL     1      28.061  31.161  24.592 -0.12 -0.14    -0.207 F  ENDBRANCH  16  18ENDBRANCH   4  16TORSDOF 4TERENDMDL