REMARK SMILES Nc1nccc(-c2ccc(Nc3nc4ccc(F)cc4s3)cc2)n1
REMARK SMILES IDX 7 1 8 2 9 3 10 4 22 5 23 6 6 7 2 8 3 9 24 10 4 11 5 12 1 13
REMARK SMILES IDX 11 16 12 18 13 19 21 20 14 21 20 22 15 23 19 24 16 25 17 26
REMARK SMILES IDX 18 27
REMARK H PARENT 1 14 1 15 11 17
ROOT
ATOM      1  C   UNL     1      -2.608  -0.390   0.488  1.00  0.00     0.000 A 
ATOM      2  C   UNL     1      -2.188  -1.687   0.823  1.00  0.00     0.012 A 
ATOM      3  C   UNL     1      -0.842  -2.065   0.717  1.00  0.00     0.027 A 
ATOM      4  C   UNL     1       0.138  -1.169   0.268  1.00  0.00     0.040 A 
ATOM      5  C   UNL     1      -0.275   0.120  -0.069  1.00  0.00     0.027 A 
ATOM      6  C   UNL     1      -1.621   0.499   0.032  1.00  0.00     0.012 A 
ENDROOT
BRANCH   1   7
ATOM      7  C   UNL     1      -4.019   0.036   0.594  1.00  0.00     0.076 A 
ATOM      8  C   UNL     1      -5.689   1.371  -0.253  1.00  0.00     0.220 A 
ATOM      9  N   UNL     1      -6.593   0.939   0.628  1.00  0.00    -0.222 NA
ATOM     10  N   UNL     1      -4.425   0.950  -0.318  1.00  0.00    -0.213 NA
ATOM     11  C   UNL     1      -6.163   0.041   1.529  1.00  0.00     0.117 A 
ATOM     12  C   UNL     1      -4.880  -0.448   1.560  1.00  0.00     0.049 A 
BRANCH   8  13
ATOM     13  N   UNL     1      -6.106   2.285  -1.197  1.00  0.00    -0.368 N 
ATOM     14  H   UNL     1      -5.525   2.209  -2.020  1.00  0.00     0.159 HD
ATOM     15  H   UNL     1      -7.105   2.208  -1.323  1.00  0.00     0.159 HD
ENDBRANCH   8  13
ENDBRANCH   1   7
BRANCH   4  16
ATOM     16  N   UNL     1       1.471  -1.615   0.225  1.00  0.00    -0.332 N 
ATOM     17  H   UNL     1       1.551  -2.555  -0.149  1.00  0.00     0.169 HD
BRANCH  16  18
ATOM     18  C   UNL     1       2.628  -0.912   0.179  1.00  0.00     0.188 A 
ATOM     19  N   UNL     1       3.694  -1.410  -0.410  1.00  0.00    -0.220 NA
ATOM     20  S   UNL     1       2.899   0.596   0.973  1.00  0.00    -0.097 S 
ATOM     21  C   UNL     1       4.770  -0.550  -0.299  1.00  0.00     0.084 A 
ATOM     22  C   UNL     1       4.527   0.616   0.428  1.00  0.00     0.059 A 
ATOM     23  C   UNL     1       6.055  -0.759  -0.842  1.00  0.00     0.033 A 
ATOM     24  C   UNL     1       5.520   1.586   0.632  1.00  0.00     0.060 A 
ATOM     25  C   UNL     1       7.053   0.201  -0.647  1.00  0.00     0.041 A 
ATOM     26  C   UNL     1       6.777   1.350   0.080  1.00  0.00     0.124 A 
ATOM     27  F   UNL     1       7.746   2.258   0.257  1.00  0.00    -0.207 F 
ENDBRANCH  16  18
ENDBRANCH   4  16
TORSDOF 4
