MODEL        1USER    Run = 1USERUSER    Estimated Free Energy of Binding    =  -9.19 kcal/mol  [=(1)+(2)+(3)-(4)]USERUSER    (1) Final Intermolecular Energy     =  -9.78 kcal/molUSER        vdW + Hbond + desolv Energy     =  -9.66 kcal/molUSER        Electrostatic Energy            =  -0.13 kcal/molUSER        Moving Ligand-Fixed Receptor    =  -9.78 kcal/molUSER        Moving Ligand-Moving Receptor   =  +0.00 kcal/molUSER    (2) Final Total Internal Energy     =  -0.25 kcal/molUSER    (3) Torsional Free Energy           =  +0.60 kcal/molUSER    (4) Unbound System's Energy         =  -0.25 kcal/molUSERUSERREMARK SMILES CNc1nccc(-c2cc3c(cn2)-c2c(F)cc(F)cc2CC3=O)n1REMARK SMILES IDX 3 1 4 2 5 3 6 4 7 5 25 6 2 7 1 8 8 10 9 11 13 12 10 13 12 14REMARK SMILES IDX 11 15 23 16 14 17 22 18 15 19 21 20 17 21 20 22 18 23 24 24REMARK SMILES IDX 16 25 19 26REMARK H PARENT 2 9USER                              x       y       z     vdW  Elec       q    TypeUSER                           _______ _______ _______ _____ _____    ______ ____ROOTATOM      1  C   UNL     1      43.150  46.720  21.595 -0.22 +0.07    +0.222 A  ATOM      2  N   UNL     1      43.220  45.567  22.265 -0.13 -0.07    -0.222 NA ATOM      3  C   UNL     1      42.480  44.547  21.797 -0.21 +0.02    +0.117 A  ATOM      4  C   UNL     1      41.671  44.645  20.694 -0.29 +0.01    +0.051 A  ATOM      5  C   UNL     1      41.644  45.874  20.062 -0.33 +0.01    +0.094 A  ATOM      6  N   UNL     1      42.382  46.915  20.517 -0.28 -0.04    -0.211 NA ENDROOTBRANCH   1   7ATOM      7  N   UNL     1      43.940  47.749  22.092 -0.17 -0.10    -0.357 N  ATOM      8  C   UNL     1      45.252  47.340  22.536 -0.24 +0.09    +0.143 C  ATOM      9  H   UNL     1      43.922  48.476  21.386 -0.53 -0.04    +0.163 HD ENDBRANCH   1   7BRANCH   5  10ATOM     10  C   UNL     1      40.814  46.127  18.863 -0.41 -0.00    +0.090 A  ATOM     11  C   UNL     1      41.039  47.194  18.006 -0.50 -0.00    +0.043 A  ATOM     12  N   UNL     1      39.795  45.265  18.630 -0.26 +0.02    -0.254 NA ATOM     13  C   UNL     1      40.205  47.371  16.891 -0.49 -0.01    +0.030 A  ATOM     14  C   UNL     1      39.013  45.460  17.534 -0.32 -0.02    +0.121 A  ATOM     15  C   UNL     1      39.158  46.487  16.605 -0.42 -0.00    +0.014 A  ATOM     16  C   UNL     1      40.460  48.545  16.024 -0.51 -0.04    +0.168 C  ATOM     17  C   UNL     1      38.302  46.664  15.411 -0.40 -0.01    +0.024 A  ATOM     18  C   UNL     1      39.485  48.871  14.926 -0.44 -0.05    +0.117 C  ATOM     19  C   UNL     1      37.316  45.739  14.999 -0.28 -0.06    +0.134 A  ATOM     20  C   UNL     1      38.465  47.811  14.604 -0.50 +0.01    -0.026 A  ATOM     21  C   UNL     1      36.521  45.936  13.872 -0.39 -0.04    +0.079 A  ATOM     22  C   UNL     1      37.656  48.014  13.469 -0.48 -0.01    +0.044 A  ATOM     23  C   UNL     1      36.696  47.077  13.116 -0.50 -0.06    +0.126 A  ATOM     24  O   UNL     1      41.436  49.263  16.233 -1.04 -0.00    -0.294 OA ATOM     25  F   UNL     1      37.107  44.603  15.680 -0.07 +0.07    -0.206 F  ATOM     26  F   UNL     1      35.937  47.281  12.033 -0.25 +0.12    -0.207 F  ENDBRANCH   5  10TORSDOF 2TERENDMDL