MODEL        2USER    Run = 2USERUSER    Estimated Free Energy of Binding    =  -8.73 kcal/mol  [=(1)+(2)+(3)-(4)]USERUSER    (1) Final Intermolecular Energy     =  -9.62 kcal/molUSER        vdW + Hbond + desolv Energy     =  -9.58 kcal/molUSER        Electrostatic Energy            =  -0.04 kcal/molUSER        Moving Ligand-Fixed Receptor    =  -9.62 kcal/molUSER        Moving Ligand-Moving Receptor   =  +0.00 kcal/molUSER    (2) Final Total Internal Energy     =  -0.27 kcal/molUSER    (3) Torsional Free Energy           =  +0.89 kcal/molUSER    (4) Unbound System's Energy         =  -0.27 kcal/molUSERUSERREMARK SMILES CNc1nccc(-c2cc3c(cn2)-c2c(F)cccc2C[C@]3(C)O)n1REMARK SMILES IDX 8 1 9 2 10 3 11 4 12 5 13 6 14 7 15 8 16 9 17 10 18 11 19 12REMARK SMILES IDX 20 13 21 14 22 15 23 16 7 17 3 18 4 19 25 20 5 21 6 22 2 23REMARK SMILES IDX 1 24 24 26REMARK H PARENT 2 25 24 27USER                              x       y       z     vdW  Elec       q    TypeUSER                           _______ _______ _______ _____ _____    ______ ____ROOTATOM      1  C   UNL     1      37.545  46.979  16.051 -0.34 -0.05    +0.089 A  ATOM      2  C   UNL     1      37.009  46.370  17.183 -0.25 -0.02    +0.038 A  ATOM      3  C   UNL     1      35.715  45.817  17.155 -0.35 +0.00    -0.005 A  ATOM      4  C   UNL     1      34.973  45.871  15.953 -0.32 -0.01    +0.009 A  ATOM      5  C   UNL     1      35.605  46.494  14.873 -0.26 -0.11    +0.121 A  ATOM      6  N   UNL     1      36.838  47.057  14.894 -0.22 +0.17    -0.254 NA ATOM      7  C   UNL     1      33.613  45.280  15.876 -0.29 -0.02    +0.023 A  ATOM      8  C   UNL     1      32.696  45.528  14.838 -0.19 -0.11    +0.131 A  ATOM      9  F   UNL     1      33.000  46.363  13.831 -0.12 +0.19    -0.206 F  ATOM     10  C   UNL     1      31.436  44.929  14.795 -0.38 -0.03    +0.040 A  ATOM     11  C   UNL     1      31.048  44.057  15.799 -0.34 -0.00    +0.003 A  ATOM     12  C   UNL     1      31.922  43.791  16.848 -0.31 -0.00    +0.004 A  ATOM     13  C   UNL     1      33.187  44.405  16.898 -0.29 +0.02    -0.034 A  ATOM     14  C   UNL     1      34.119  44.073  18.041 -0.33 -0.02    +0.076 C  ATOM     15  C   UNL     1      35.066  45.237  18.403 -0.38 -0.04    +0.092 C  ATOM     16  C   UNL     1      36.037  44.741  19.489 -0.30 -0.01    +0.048 C  ENDROOTBRANCH   1  17ATOM     17  C   UNL     1      38.900  47.574  16.037 -0.39 -0.04    +0.094 A  ATOM     18  C   UNL     1      40.939  47.793  17.093 -0.34 -0.03    +0.222 A  ATOM     19  N   UNL     1      41.422  48.592  16.138 -0.82 +0.01    -0.222 NA ATOM     20  N   UNL     1      39.703  47.280  17.088 -0.33 +0.05    -0.211 NA ATOM     21  C   UNL     1      40.604  48.872  15.109 -0.51 -0.03    +0.117 A  ATOM     22  C   UNL     1      39.332  48.374  15.001 -0.50 -0.02    +0.051 A  BRANCH  18  23ATOM     23  N   UNL     1      41.838  47.466  18.110 -0.29 +0.02    -0.357 N  ATOM     24  C   UNL     1      41.447  46.263  18.819 -0.46 +0.00    +0.143 C  ATOM     25  H   UNL     1      42.733  47.383  17.635 -0.48 -0.04    +0.163 HD ENDBRANCH  18  23ENDBRANCH   1  17BRANCH  15  26ATOM     26  O   UNL     1      34.293  46.275  19.028 -0.49 +0.20    -0.385 OA ATOM     27  H   UNL     1      33.856  45.899  19.811 -0.30 -0.14    +0.211 HD ENDBRANCH  15  26TORSDOF 3TERENDMDL