REMARK SMILES CNc1nc(C)cc(-c2cc3c(cn2)-c2c(F)cccc2CC3=O)n1
REMARK SMILES IDX 3 1 4 2 5 3 6 4 7 5 8 6 25 7 2 8 1 9 9 11 10 12 14 13 11 14
REMARK SMILES IDX 13 15 12 16 23 17 15 18 22 19 16 20 21 21 18 22 20 23 19 24
REMARK SMILES IDX 24 25 17 26
REMARK H PARENT 2 10
ROOT
ATOM      1  C   UNL     1      -4.120   0.663  -0.709  1.00  0.00     0.223 A 
ATOM      2  N   UNL     1      -4.792  -0.366  -0.177  1.00  0.00    -0.218 NA
ATOM      3  C   UNL     1      -4.078  -1.334   0.425  1.00  0.00     0.044 A 
ATOM      4  C   UNL     1      -4.837  -2.483   1.016  1.00  0.00     0.067 C 
ATOM      5  C   UNL     1      -2.703  -1.290   0.509  1.00  0.00     0.054 A 
ATOM      6  C   UNL     1      -2.086  -0.191  -0.058  1.00  0.00     0.094 A 
ATOM      7  N   UNL     1      -2.792   0.787  -0.669  1.00  0.00    -0.211 NA
ENDROOT
BRANCH   1   8
ATOM      8  N   UNL     1      -4.795   1.694  -1.351  1.00  0.00    -0.357 N 
ATOM      9  C   UNL     1      -6.067   2.026  -0.753  1.00  0.00     0.143 C 
ATOM     10  H   UNL     1      -4.126   2.456  -1.397  1.00  0.00     0.163 HD
ENDBRANCH   1   8
BRANCH   6  11
ATOM     11  C   UNL     1      -0.620  -0.021  -0.041  1.00  0.00     0.090 A 
ATOM     12  C   UNL     1       0.251  -1.047  -0.368  1.00  0.00     0.043 A 
ATOM     13  N   UNL     1      -0.151   1.197   0.314  1.00  0.00    -0.254 NA
ATOM     14  C   UNL     1       1.632  -0.806  -0.327  1.00  0.00     0.030 A 
ATOM     15  C   UNL     1       1.193   1.395   0.344  1.00  0.00     0.121 A 
ATOM     16  C   UNL     1       2.158   0.435   0.049  1.00  0.00     0.014 A 
ATOM     17  C   UNL     1       2.533  -1.914  -0.715  1.00  0.00     0.168 C 
ATOM     18  C   UNL     1       3.618   0.665   0.111  1.00  0.00     0.023 A 
ATOM     19  C   UNL     1       3.986  -1.614  -0.964  1.00  0.00     0.117 C 
ATOM     20  C   UNL     1       4.212   1.825   0.650  1.00  0.00     0.131 A 
ATOM     21  C   UNL     1       4.498  -0.325  -0.376  1.00  0.00    -0.029 A 
ATOM     22  C   UNL     1       5.594   2.014   0.682  1.00  0.00     0.040 A 
ATOM     23  C   UNL     1       5.893  -0.127  -0.351  1.00  0.00     0.005 A 
ATOM     24  C   UNL     1       6.439   1.038   0.176  1.00  0.00     0.003 A 
ATOM     25  O   UNL     1       2.074  -3.044  -0.878  1.00  0.00    -0.294 OA
ATOM     26  F   UNL     1       3.464   2.804   1.177  1.00  0.00    -0.206 F 
ENDBRANCH   6  11
TORSDOF 2
