REMARK SMILES CNc1nccc(-c2cc3c(cn2)-c2c(F)cccc2C[C@]3(C)O)n1
REMARK SMILES IDX 8 1 9 2 10 3 11 4 12 5 13 6 14 7 15 8 16 9 17 10 18 11 19 12
REMARK SMILES IDX 20 13 21 14 22 15 23 16 7 17 3 18 4 19 25 20 5 21 6 22 2 23
REMARK SMILES IDX 1 24 24 26
REMARK H PARENT 2 25 24 27
ROOT
ATOM      1  C   UNL     1       1.348   0.151  -0.913  1.00  0.00     0.089 A 
ATOM      2  C   UNL     1       0.491   0.564   0.105  1.00  0.00     0.038 A 
ATOM      3  C   UNL     1      -0.855   0.154   0.119  1.00  0.00    -0.005 A 
ATOM      4  C   UNL     1      -1.322  -0.701  -0.905  1.00  0.00     0.009 A 
ATOM      5  C   UNL     1      -0.381  -1.065  -1.872  1.00  0.00     0.121 A 
ATOM      6  N   UNL     1       0.911  -0.654  -1.915  1.00  0.00    -0.254 NA
ATOM      7  C   UNL     1      -2.730  -1.173  -0.914  1.00  0.00     0.023 A 
ATOM      8  C   UNL     1      -3.358  -1.778  -2.018  1.00  0.00     0.131 A 
ATOM      9  F   UNL     1      -2.704  -1.949  -3.179  1.00  0.00    -0.206 F 
ATOM     10  C   UNL     1      -4.678  -2.230  -1.972  1.00  0.00     0.040 A 
ATOM     11  C   UNL     1      -5.419  -2.088  -0.810  1.00  0.00     0.003 A 
ATOM     12  C   UNL     1      -4.837  -1.487   0.302  1.00  0.00     0.004 A 
ATOM     13  C   UNL     1      -3.511  -1.020   0.251  1.00  0.00    -0.034 A 
ATOM     14  C   UNL     1      -2.905  -0.395   1.487  1.00  0.00     0.076 C 
ATOM     15  C   UNL     1      -1.837   0.671   1.160  1.00  0.00     0.092 C 
ATOM     16  C   UNL     1      -1.215   1.143   2.486  1.00  0.00     0.048 C 
ENDROOT
BRANCH   1  17
ATOM     17  C   UNL     1       2.769   0.559  -0.967  1.00  0.00     0.094 A 
ATOM     18  C   UNL     1       4.614   1.340   0.177  1.00  0.00     0.222 A 
ATOM     19  N   UNL     1       5.379   1.331  -0.918  1.00  0.00    -0.222 NA
ATOM     20  N   UNL     1       3.325   0.979   0.195  1.00  0.00    -0.211 NA
ATOM     21  C   UNL     1       4.802   0.915  -2.058  1.00  0.00     0.117 A 
ATOM     22  C   UNL     1       3.498   0.501  -2.136  1.00  0.00     0.051 A 
BRANCH  18  23
ATOM     23  N   UNL     1       5.262   1.710   1.357  1.00  0.00    -0.357 N 
ATOM     24  C   UNL     1       4.986   0.792   2.444  1.00  0.00     0.143 C 
ATOM     25  H   UNL     1       6.245   1.749   1.099  1.00  0.00     0.163 HD
ENDBRANCH  18  23
ENDBRANCH   1  17
BRANCH  15  26
ATOM     26  O   UNL     1      -2.498   1.825   0.616  1.00  0.00    -0.385 OA
ATOM     27  H   UNL     1      -2.561   1.713  -0.349  1.00  0.00     0.211 HD
ENDBRANCH  15  26
TORSDOF 3
