REMARK SMILES CNc1nccc(-c2cc3c(cn2)-c2c(F)cc(F)cc2CC3=O)n1
REMARK SMILES IDX 3 1 4 2 5 3 6 4 7 5 25 6 2 7 1 8 8 10 9 11 13 12 10 13 12 14
REMARK SMILES IDX 11 15 23 16 14 17 22 18 15 19 21 20 17 21 20 22 18 23 24 24
REMARK SMILES IDX 16 25 19 26
REMARK H PARENT 2 9
ROOT
ATOM      1  C   UNL     1      -4.681   0.337  -0.329  1.00  0.00     0.222 A 
ATOM      2  N   UNL     1      -5.235   1.552  -0.286  1.00  0.00    -0.222 NA
ATOM      3  C   UNL     1      -4.396   2.599  -0.208  1.00  0.00     0.117 A 
ATOM      4  C   UNL     1      -3.031   2.472  -0.164  1.00  0.00     0.051 A 
ATOM      5  C   UNL     1      -2.535   1.183  -0.202  1.00  0.00     0.094 A 
ATOM      6  N   UNL     1      -3.362   0.113  -0.280  1.00  0.00    -0.211 NA
ENDROOT
BRANCH   1   7
ATOM      7  N   UNL     1      -5.572  -0.723  -0.427  1.00  0.00    -0.357 N 
ATOM      8  C   UNL     1      -5.157  -1.924   0.259  1.00  0.00     0.143 C 
ATOM      9  H   UNL     1      -6.475  -0.351  -0.153  1.00  0.00     0.163 HD
ENDBRANCH   1   7
BRANCH   5  10
ATOM     10  C   UNL     1      -1.084   0.894  -0.158  1.00  0.00     0.090 A 
ATOM     11  C   UNL     1      -0.574  -0.395  -0.203  1.00  0.00     0.043 A 
ATOM     12  N   UNL     1      -0.250   1.957  -0.060  1.00  0.00    -0.254 NA
ATOM     13  C   UNL     1       0.815  -0.590  -0.152  1.00  0.00     0.030 A 
ATOM     14  C   UNL     1       1.091   1.733  -0.024  1.00  0.00     0.121 A 
ATOM     15  C   UNL     1       1.708   0.485  -0.075  1.00  0.00     0.014 A 
ATOM     16  C   UNL     1       1.313  -1.985  -0.166  1.00  0.00     0.168 C 
ATOM     17  C   UNL     1       3.173   0.273  -0.051  1.00  0.00     0.024 A 
ATOM     18  C   UNL     1       2.776  -2.244   0.067  1.00  0.00     0.117 C 
ATOM     19  C   UNL     1       4.125   1.316  -0.104  1.00  0.00     0.134 A 
ATOM     20  C   UNL     1       3.682  -1.042   0.014  1.00  0.00    -0.026 A 
ATOM     21  C   UNL     1       5.499   1.085  -0.074  1.00  0.00     0.079 A 
ATOM     22  C   UNL     1       5.071  -1.275   0.052  1.00  0.00     0.044 A 
ATOM     23  C   UNL     1       5.961  -0.213   0.007  1.00  0.00     0.126 A 
ATOM     24  O   UNL     1       0.526  -2.917  -0.323  1.00  0.00    -0.294 OA
ATOM     25  F   UNL     1       3.742   2.597  -0.199  1.00  0.00    -0.206 F 
ATOM     26  F   UNL     1       7.278  -0.450   0.040  1.00  0.00    -0.207 F 
ENDBRANCH   5  10
TORSDOF 2
