MODEL        5USER    Run = 5USERUSER    Estimated Free Energy of Binding    =  -9.51 kcal/mol  [=(1)+(2)+(3)-(4)]USERUSER    (1) Final Intermolecular Energy     = -10.11 kcal/molUSER        vdW + Hbond + desolv Energy     =  -9.96 kcal/molUSER        Electrostatic Energy            =  -0.14 kcal/molUSER        Moving Ligand-Fixed Receptor    = -10.11 kcal/molUSER        Moving Ligand-Moving Receptor   =  +0.00 kcal/molUSER    (2) Final Total Internal Energy     =  -0.30 kcal/molUSER    (3) Torsional Free Energy           =  +0.60 kcal/molUSER    (4) Unbound System's Energy         =  -0.30 kcal/molUSERUSERREMARK SMILES CNc1nc(C)cc(-c2cc3c(cn2)-c2c(F)cccc2CC3=O)n1REMARK SMILES IDX 3 1 4 2 5 3 6 4 7 5 8 6 25 7 2 8 1 9 9 11 10 12 14 13 11 14REMARK SMILES IDX 13 15 12 16 23 17 15 18 22 19 16 20 21 21 18 22 20 23 19 24REMARK SMILES IDX 24 25 17 26REMARK H PARENT 2 10USER                              x       y       z     vdW  Elec       q    TypeUSER                           _______ _______ _______ _____ _____    ______ ____ROOTATOM      1  C   UNL     1      43.162  46.656  21.622 -0.21 +0.07    +0.223 A  ATOM      2  N   UNL     1      43.253  45.469  22.234 -0.13 -0.07    -0.218 NA ATOM      3  C   UNL     1      42.516  44.456  21.744 -0.25 +0.01    +0.044 A  ATOM      4  C   UNL     1      42.621  43.130  22.436 -0.33 +0.00    +0.067 C  ATOM      5  C   UNL     1      41.692  44.607  20.650 -0.29 +0.01    +0.054 A  ATOM      6  C   UNL     1      41.661  45.861  20.071 -0.33 +0.01    +0.094 A  ATOM      7  N   UNL     1      42.394  46.889  20.555 -0.27 -0.04    -0.211 NA ENDROOTBRANCH   1   8ATOM      8  N   UNL     1      43.891  47.747  22.079 -0.17 -0.09    -0.357 N  ATOM      9  C   UNL     1      45.245  47.427  22.468 -0.25 +0.08    +0.143 C  ATOM     10  H   UNL     1      43.804  48.445  21.348 -0.53 -0.03    +0.163 HD ENDBRANCH   1   8BRANCH   6  11ATOM     11  C   UNL     1      40.819  46.161  18.896 -0.41 -0.00    +0.090 A  ATOM     12  C   UNL     1      41.082  47.221  18.044 -0.49 -0.00    +0.043 A  ATOM     13  N   UNL     1      39.762  45.346  18.679 -0.26 +0.02    -0.254 NA ATOM     14  C   UNL     1      40.234  47.440  16.949 -0.49 -0.01    +0.030 A  ATOM     15  C   UNL     1      38.960  45.588  17.609 -0.33 -0.02    +0.121 A  ATOM     16  C   UNL     1      39.121  46.629  16.698 -0.43 -0.00    +0.014 A  ATOM     17  C   UNL     1      40.563  48.560  16.040 -0.52 -0.04    +0.168 C  ATOM     18  C   UNL     1      38.223  46.889  15.552 -0.40 -0.01    +0.023 A  ATOM     19  C   UNL     1      39.862  48.648  14.712 -0.50 -0.04    +0.117 C  ATOM     20  C   UNL     1      36.994  46.228  15.347 -0.28 -0.07    +0.131 A  ATOM     21  C   UNL     1      38.580  47.864  14.597 -0.50 +0.01    -0.029 A  ATOM     22  C   UNL     1      36.176  46.490  14.247 -0.42 -0.03    +0.040 A  ATOM     23  C   UNL     1      37.756  48.120  13.482 -0.47 -0.00    +0.005 A  ATOM     24  C   UNL     1      36.559  47.435  13.308 -0.60 -0.00    +0.003 A  ATOM     25  O   UNL     1      41.436  49.367  16.359 -1.06 -0.00    -0.294 OA ATOM     26  F   UNL     1      36.545  45.316  16.220 -0.04 +0.10    -0.206 F  ENDBRANCH   6  11TORSDOF 2TERENDMDL