REMARK SMILES COc1ccc(C=Cc2nnc(NC(=O)C[C@@H]3CCCN3)o2)cc1C=C1C=C(C(C)(C)C)OC1
REMARK SMILES IDX 7 1 6 2 3 3 4 4 24 5 5 6 23 7 2 8 1 9 25 10 26 11 27 12
REMARK SMILES IDX 34 13 28 14 33 15 29 16 30 17 31 18 32 19 8 20 9 21 10 22
REMARK SMILES IDX 22 23 11 24 12 25 13 26 14 27 15 29 16 30 17 31 18 32 21 33
REMARK SMILES IDX 19 34 20 35
REMARK H PARENT 13 28 21 36
ROOT
ATOM      1  C   UNL     1       0.665   0.931   0.764  1.00  0.00     0.014 C 
ENDROOT
BRANCH   1   2
ATOM      2  C   UNL     1      -0.698   1.336   1.142  1.00  0.00    -0.025 A 
ATOM      3  C   UNL     1      -3.269   2.193   1.960  1.00  0.00     0.126 A 
ATOM      4  C   UNL     1      -2.175   3.059   2.030  1.00  0.00     0.047 A 
ATOM      5  C   UNL     1      -3.074   0.883   1.483  1.00  0.00     0.017 A 
ATOM      6  C   UNL     1      -0.903   2.632   1.627  1.00  0.00     0.012 A 
ATOM      7  C   UNL     1      -1.792   0.464   1.088  1.00  0.00     0.020 A 
BRANCH   3   8
ATOM      8  O   UNL     1      -4.544   2.519   2.344  1.00  0.00    -0.496 OA
ATOM      9  C   UNL     1      -4.786   3.856   2.762  1.00  0.00     0.278 C 
ENDBRANCH   3   8
BRANCH   5  10
ATOM     10  C   UNL     1      -4.167  -0.095   1.379  1.00  0.00     0.019 C 
BRANCH  10  11
ATOM     11  C   UNL     1      -5.132  -0.027   0.452  1.00  0.00    -0.007 C 
ATOM     12  C   UNL     1      -6.198  -0.968   0.292  1.00  0.00     0.049 C 
ATOM     13  C   UNL     1      -5.342   0.993  -0.627  1.00  0.00     0.265 C 
ATOM     14  C   UNL     1      -6.941  -0.597  -0.752  1.00  0.00     0.102 C 
ATOM     15  O   UNL     1      -6.496   0.568  -1.392  1.00  0.00    -0.493 OA
BRANCH  14  16
ATOM     16  C   UNL     1      -8.177  -1.260  -1.335  1.00  0.00     0.019 C 
ATOM     17  C   UNL     1      -7.906  -1.644  -2.801  1.00  0.00     0.019 C 
ATOM     18  C   UNL     1      -9.355  -0.270  -1.280  1.00  0.00     0.019 C 
ATOM     19  C   UNL     1      -8.584  -2.535  -0.570  1.00  0.00     0.019 C 
ENDBRANCH  14  16
ENDBRANCH  10  11
ENDBRANCH   5  10
ENDBRANCH   1   2
BRANCH   1  20
ATOM     20  C   UNL     1       0.949   0.028  -0.188  1.00  0.00     0.071 C 
BRANCH  20  21
ATOM     21  C   UNL     1       2.287  -0.319  -0.518  1.00  0.00     0.242 A 
ATOM     22  N   UNL     1       2.653  -1.229  -1.407  1.00  0.00    -0.107 NA
ATOM     23  O   UNL     1       3.407   0.264   0.057  1.00  0.00    -0.404 OA
ATOM     24  N   UNL     1       4.030  -1.264  -1.434  1.00  0.00    -0.090 NA
ATOM     25  C   UNL     1       4.439  -0.374  -0.566  1.00  0.00     0.322 A 
BRANCH  25  26
ATOM     26  N   UNL     1       5.683   0.025  -0.178  1.00  0.00    -0.278 N 
ATOM     27  C   UNL     1       6.824  -0.531  -0.712  1.00  0.00     0.229 C 
ATOM     28  H   UNL     1       5.726   0.756   0.514  1.00  0.00     0.174 HD
ATOM     29  O   UNL     1       6.869  -1.420  -1.552  1.00  0.00    -0.275 OA
BRANCH  27  30
ATOM     30  C   UNL     1       8.074   0.097  -0.118  1.00  0.00     0.119 C 
BRANCH  30  31
ATOM     31  C   UNL     1       9.361  -0.502  -0.681  1.00  0.00     0.063 C 
ATOM     32  C   UNL     1       9.623  -1.944  -0.241  1.00  0.00     0.021 C 
ATOM     33  N   UNL     1      10.552   0.231  -0.199  1.00  0.00    -0.313 NA
ATOM     34  C   UNL     1      11.137  -2.048  -0.096  1.00  0.00     0.017 C 
ATOM     35  C   UNL     1      11.665  -0.681  -0.489  1.00  0.00     0.081 C 
ATOM     36  H   UNL     1      10.492   0.340   0.815  1.00  0.00     0.122 HD
ENDBRANCH  30  31
ENDBRANCH  27  30
ENDBRANCH  25  26
ENDBRANCH  20  21
ENDBRANCH   1  20
TORSDOF 10
