REMARK SMILES CN1CCC(NC2=N[C@@H](c3ccc(NS(=O)(=O)c4ccccc4)cc3)N3CC3=N2)CC1
REMARK SMILES IDX 10 1 11 2 12 3 13 4 24 5 25 6 9 7 6 8 7 9 8 10 29 11 28 12
REMARK SMILES IDX 26 13 27 14 5 16 2 17 3 18 31 19 4 20 30 21 1 22 14 23 15 25
REMARK SMILES IDX 16 26 17 27 18 28 19 29 23 30 20 31 22 32 21 33
REMARK H PARENT 6 15 14 24
ROOT
ATOM      1  C   UNL     1       1.295   0.328  -1.530  1.00  0.00    -0.003 A 
ATOM      2  C   UNL     1       2.495   1.002  -1.818  1.00  0.00     0.010 A 
ATOM      3  C   UNL     1       3.719   0.326  -1.807  1.00  0.00     0.027 A 
ATOM      4  C   UNL     1       3.759  -1.035  -1.502  1.00  0.00     0.049 A 
ATOM      5  C   UNL     1       2.581  -1.717  -1.212  1.00  0.00     0.027 A 
ATOM      6  C   UNL     1       1.357  -1.042  -1.230  1.00  0.00     0.010 A 
ENDROOT
BRANCH   1   7
ATOM      7  C   UNL     1      -0.037   1.081  -1.596  1.00  0.00     0.237 C 
ATOM      8  N   UNL     1      -3.364  -0.038  -0.664  1.00  0.00    -0.352 N 
ATOM      9  C   UNL     1      -2.301   0.552  -1.276  1.00  0.00     0.222 C 
ATOM     10  N   UNL     1      -1.095   0.395  -0.847  1.00  0.00    -0.221 NA
ATOM     11  N   UNL     1      -2.607   1.315  -2.366  1.00  0.00    -0.198 NA
ATOM     12  C   UNL     1      -1.662   1.471  -3.217  1.00  0.00     0.130 C 
ATOM     13  N   UNL     1      -0.319   1.396  -2.990  1.00  0.00    -0.325 N 
ATOM     14  C   UNL     1      -0.862   0.400  -3.848  1.00  0.00     0.195 C 
ATOM     15  H   UNL     1      -4.256   0.347  -0.962  1.00  0.00     0.163 HD
BRANCH   8  16
ATOM     16  C   UNL     1      -3.358  -0.484   0.723  1.00  0.00     0.084 C 
ATOM     17  N   UNL     1      -5.940   0.473   0.954  1.00  0.00    -0.306 NA
ATOM     18  C   UNL     1      -4.915   1.366   1.518  1.00  0.00     0.086 C 
ATOM     19  C   UNL     1      -5.785  -0.894   1.449  1.00  0.00     0.086 C 
ATOM     20  C   UNL     1      -3.539   0.704   1.667  1.00  0.00     0.040 C 
ATOM     21  C   UNL     1      -4.482  -1.513   0.928  1.00  0.00     0.040 C 
ATOM     22  C   UNL     1      -7.281   0.992   1.213  1.00  0.00     0.105 C 
ENDBRANCH   8  16
ENDBRANCH   1   7
BRANCH   4  23
ATOM     23  N   UNL     1       5.012  -1.704  -1.488  1.00  0.00    -0.280 N 
ATOM     24  H   UNL     1       5.748  -1.365  -2.104  1.00  0.00     0.180 HD
BRANCH  23  25
ATOM     25  S   UNL     1       5.613  -2.332  -0.043  1.00  0.00     0.261 S 
ATOM     26  O   UNL     1       6.988  -2.704  -0.312  1.00  0.00    -0.201 OA
ATOM     27  O   UNL     1       4.674  -3.288   0.502  1.00  0.00    -0.201 OA
BRANCH  25  28
ATOM     28  C   UNL     1       5.647  -0.910   1.026  1.00  0.00     0.087 A 
ATOM     29  C   UNL     1       4.576  -0.663   1.888  1.00  0.00     0.022 A 
ATOM     30  C   UNL     1       6.770  -0.076   1.020  1.00  0.00     0.022 A 
ATOM     31  C   UNL     1       4.619   0.448   2.731  1.00  0.00     0.001 A 
ATOM     32  C   UNL     1       6.805   1.031   1.868  1.00  0.00     0.001 A 
ATOM     33  C   UNL     1       5.730   1.293   2.719  1.00  0.00     0.000 A 
ENDBRANCH  25  28
ENDBRANCH  23  25
ENDBRANCH   4  23
TORSDOF 5
