MODEL        9USER    Run = 9USERUSER    Estimated Free Energy of Binding    =  -8.45 kcal/mol  [=(1)+(2)+(3)-(4)]USERUSER    (1) Final Intermolecular Energy     = -10.24 kcal/molUSER        vdW + Hbond + desolv Energy     = -10.01 kcal/molUSER        Electrostatic Energy            =  -0.23 kcal/molUSER        Moving Ligand-Fixed Receptor    = -10.24 kcal/molUSER        Moving Ligand-Moving Receptor   =  +0.00 kcal/molUSER    (2) Final Total Internal Energy     =  -1.77 kcal/molUSER    (3) Torsional Free Energy           =  +1.79 kcal/molUSER    (4) Unbound System's Energy         =  -1.77 kcal/molUSERUSERREMARK SMILES COc1ccc(NS(=O)(=O)c2ccc(F)cc2)cc1C1=NC(NC2CCN(C)CC2)=NC2=NC=N[C@H]21REMARK SMILES IDX 3 1 4 2 5 3 6 4 18 5 19 6 2 7 1 8 20 9 21 10 36 11 22 12REMARK SMILES IDX 35 13 32 14 23 15 31 16 34 17 33 18 24 20 25 21 30 22 26 23REMARK SMILES IDX 29 24 27 25 28 26 7 27 8 29 9 30 10 31 11 32 12 33 17 34REMARK SMILES IDX 13 35 16 36 14 37 15 38REMARK H PARENT 23 19 7 28USER                              x       y       z     vdW  Elec       q    TypeUSER                           _______ _______ _______ _____ _____    ______ ____ROOTATOM      1  C   UNL     1       9.729 -14.137 -15.448 -0.15 -0.06    +0.128 A  ATOM      2  C   UNL     1       8.777 -14.265 -16.462 -0.21 -0.02    +0.049 A  ATOM      3  C   UNL     1       7.502 -13.721 -16.299 -0.26 -0.01    +0.030 A  ATOM      4  C   UNL     1       7.181 -13.026 -15.130 -0.29 -0.01    +0.050 A  ATOM      5  C   UNL     1       8.127 -12.898 -14.114 -0.24 -0.01    +0.040 A  ATOM      6  C   UNL     1       9.410 -13.437 -14.281 -0.24 -0.02    +0.043 A  ENDROOTBRANCH   1   7ATOM      7  O   UNL     1      10.997 -14.601 -15.671 -0.02 +0.19    -0.496 OA ATOM      8  C   UNL     1      11.610 -13.898 -16.751 -0.26 -0.19    +0.278 C  ENDBRANCH   1   7BRANCH   6   9ATOM      9  C   UNL     1      10.397 -13.248 -13.201 -0.30 -0.03    +0.088 C  ATOM     10  N   UNL     1      11.466 -13.986 -13.129 -0.15 +0.07    -0.215 NA ATOM     11  C   UNL     1      10.106 -12.230 -12.139 -0.33 -0.06    +0.225 C  ATOM     12  C   UNL     1      12.332 -13.818 -12.068 -0.20 -0.09    +0.225 C  ATOM     13  N   UNL     1       9.583 -10.939 -12.631 -0.26 +0.11    -0.255 NA ATOM     14  C   UNL     1      11.430 -11.826 -11.633 -0.42 -0.08    +0.164 C  ATOM     15  N   UNL     1      13.183 -14.865 -11.876 -0.04 +0.12    -0.351 N  ATOM     16  N   UNL     1      12.346 -12.764 -11.313 -0.25 +0.13    -0.195 NA ATOM     17  C   UNL     1      10.483 -10.082 -12.237 -0.49 -0.10    +0.219 C  ATOM     18  N   UNL     1      11.613 -10.556 -11.624 -0.35 +0.10    -0.219 NA ATOM     19  H   UNL     1      13.226 -15.470 -12.688 +0.12 -0.05    +0.163 HD BRANCH  15  20ATOM     20  C   UNL     1      14.349 -14.893 -11.006 -0.30 -0.03    +0.084 C  ATOM     21  C   UNL     1      14.016 -14.548  -9.549 -0.40 -0.02    +0.040 C  ATOM     22  C   UNL     1      15.508 -14.064 -11.564 -0.39 -0.01    +0.040 C  ATOM     23  C   UNL     1      14.783 -13.319  -9.061 -0.37 -0.05    +0.086 C  ATOM     24  C   UNL     1      16.631 -14.022 -10.529 -0.40 -0.02    +0.086 C  ATOM     25  N   UNL     1      16.237 -13.402  -9.259 -0.15 +0.08    -0.306 NA ATOM     26  C   UNL     1      16.907 -14.049  -8.133 -0.36 -0.02    +0.105 C  ENDBRANCH  15  20ENDBRANCH   6   9BRANCH   4  27ATOM     27  N   UNL     1       5.870 -12.491 -15.002 -0.15 -0.08    -0.280 N  ATOM     28  H   UNL     1       5.079 -13.127 -15.061 -0.34 +0.03    +0.180 HD BRANCH  27  29ATOM     29  S   UNL     1       5.491 -10.961 -15.606 -0.24 +0.13    +0.261 S  ATOM     30  O   UNL     1       4.064 -10.859 -15.805 -0.75 -0.28    -0.201 OA ATOM     31  O   UNL     1       6.420 -10.727 -16.690 -0.18 -0.02    -0.201 OA BRANCH  29  32ATOM     32  C   UNL     1       5.947  -9.875 -14.271 -0.18 +0.03    +0.088 A  ATOM     33  C   UNL     1       7.274  -9.437 -14.162 -0.27 -0.00    +0.025 A  ATOM     34  C   UNL     1       4.970  -9.426 -13.374 -0.22 +0.01    +0.025 A  ATOM     35  C   UNL     1       7.625  -8.571 -13.129 -0.30 -0.01    +0.040 A  ATOM     36  C   UNL     1       5.332  -8.561 -12.343 -0.24 +0.01    +0.040 A  ATOM     37  C   UNL     1       6.653  -8.143 -12.229 -0.27 -0.00    +0.123 A  ATOM     38  F   UNL     1       6.999  -7.310 -11.242 -0.14 +0.02    -0.207 F  ENDBRANCH  29  32ENDBRANCH  27  29ENDBRANCH   4  27TORSDOF 6TERENDMDL