REMARK SMILES COc1ccc(NS(=O)(=O)c2ccc(F)cc2)cc1C1=NC(NC2CCN(C)CC2)=NC2=NC=N[C@H]21
REMARK SMILES IDX 3 1 4 2 5 3 6 4 18 5 19 6 2 7 1 8 20 9 21 10 36 11 22 12
REMARK SMILES IDX 35 13 32 14 23 15 31 16 34 17 33 18 24 20 25 21 30 22 26 23
REMARK SMILES IDX 29 24 27 25 28 26 7 27 8 29 9 30 10 31 11 32 12 33 17 34
REMARK SMILES IDX 13 35 16 36 14 37 15 38
REMARK H PARENT 23 19 7 28
ROOT
ATOM      1  C   UNL     1       2.035  -1.979  -0.723  1.00  0.00     0.128 A 
ATOM      2  C   UNL     1       3.316  -2.343  -1.144  1.00  0.00     0.049 A 
ATOM      3  C   UNL     1       4.134  -1.411  -1.784  1.00  0.00     0.030 A 
ATOM      4  C   UNL     1       3.684  -0.104  -1.985  1.00  0.00     0.050 A 
ATOM      5  C   UNL     1       2.405   0.263  -1.570  1.00  0.00     0.040 A 
ATOM      6  C   UNL     1       1.586  -0.670  -0.919  1.00  0.00     0.043 A 
ENDROOT
BRANCH   1   7
ATOM      7  O   UNL     1       1.289  -2.885  -0.020  1.00  0.00    -0.496 OA
ATOM      8  C   UNL     1       0.681  -3.830  -0.900  1.00  0.00     0.278 C 
ENDBRANCH   1   7
BRANCH   6   9
ATOM      9  C   UNL     1       0.254  -0.234  -0.459  1.00  0.00     0.088 C 
ATOM     10  N   UNL     1      -0.826  -0.850  -0.843  1.00  0.00    -0.215 NA
ATOM     11  C   UNL     1       0.162   0.985   0.409  1.00  0.00     0.225 C 
ATOM     12  C   UNL     1      -2.056  -0.373  -0.439  1.00  0.00     0.225 C 
ATOM     13  N   UNL     1       1.165   1.064   1.491  1.00  0.00    -0.255 NA
ATOM     14  C   UNL     1      -1.078   0.802   1.184  1.00  0.00     0.164 C 
ATOM     15  N   UNL     1      -3.100  -0.830  -1.185  1.00  0.00    -0.351 N 
ATOM     16  N   UNL     1      -2.218   0.439   0.559  1.00  0.00    -0.195 NA
ATOM     17  C   UNL     1       0.438   1.084   2.572  1.00  0.00     0.219 C 
ATOM     18  N   UNL     1      -0.919   0.938   2.450  1.00  0.00    -0.219 NA
ATOM     19  H   UNL     1      -2.844  -1.640  -1.737  1.00  0.00     0.163 HD
BRANCH  15  20
ATOM     20  C   UNL     1      -4.516  -0.701  -0.875  1.00  0.00     0.084 C 
ATOM     21  C   UNL     1      -4.984   0.759  -0.814  1.00  0.00     0.040 C 
ATOM     22  C   UNL     1      -4.913  -1.505   0.365  1.00  0.00     0.040 C 
ATOM     23  C   UNL     1      -5.558   1.121   0.556  1.00  0.00     0.086 C 
ATOM     24  C   UNL     1      -6.370  -1.200   0.709  1.00  0.00     0.086 C 
ATOM     25  N   UNL     1      -6.617   0.213   1.021  1.00  0.00    -0.306 NA
ATOM     26  C   UNL     1      -7.938   0.627   0.554  1.00  0.00     0.105 C 
ENDBRANCH  15  20
ENDBRANCH   6   9
BRANCH   4  27
ATOM     27  N   UNL     1       4.547   0.813  -2.645  1.00  0.00    -0.280 N 
ATOM     28  H   UNL     1       5.319   0.443  -3.194  1.00  0.00     0.180 HD
BRANCH  27  29
ATOM     29  S   UNL     1       4.928   2.303  -1.951  1.00  0.00     0.261 S 
ATOM     30  O   UNL     1       3.718   3.066  -1.746  1.00  0.00    -0.201 OA
ATOM     31  O   UNL     1       6.025   2.831  -2.733  1.00  0.00    -0.201 OA
BRANCH  29  32
ATOM     32  C   UNL     1       5.580   1.852  -0.357  1.00  0.00     0.088 A 
ATOM     33  C   UNL     1       6.947   1.574  -0.226  1.00  0.00     0.025 A 
ATOM     34  C   UNL     1       4.736   1.831   0.760  1.00  0.00     0.025 A 
ATOM     35  C   UNL     1       7.460   1.241   1.026  1.00  0.00     0.040 A 
ATOM     36  C   UNL     1       5.258   1.495   2.008  1.00  0.00     0.040 A 
ATOM     37  C   UNL     1       6.612   1.202   2.129  1.00  0.00     0.123 A 
ATOM     38  F   UNL     1       7.113   0.884   3.327  1.00  0.00    -0.207 F 
ENDBRANCH  29  32
ENDBRANCH  27  29
ENDBRANCH   4  27
TORSDOF 6
