MODEL        4USER    Run = 4USERUSER    Estimated Free Energy of Binding    =  -9.24 kcal/mol  [=(1)+(2)+(3)-(4)]USERUSER    (1) Final Intermolecular Energy     = -10.74 kcal/molUSER        vdW + Hbond + desolv Energy     = -10.82 kcal/molUSER        Electrostatic Energy            =  +0.08 kcal/molUSER        Moving Ligand-Fixed Receptor    = -10.74 kcal/molUSER        Moving Ligand-Moving Receptor   =  +0.00 kcal/molUSER    (2) Final Total Internal Energy     =  -1.93 kcal/molUSER    (3) Torsional Free Energy           =  +1.49 kcal/molUSER    (4) Unbound System's Energy         =  -1.93 kcal/molUSERUSERREMARK SMILES Cn1c(-c2cccc(NC(=O)Cc3nnc(-c4ccc(F)cc4)o3)c2)nc2c(F)cccc21REMARK SMILES IDX 9 1 10 2 11 3 8 5 4 6 5 7 25 8 6 9 7 10 3 11 2 12 33 13REMARK SMILES IDX 26 14 32 15 27 16 31 17 28 18 30 19 1 20 29 21 12 22 13 23REMARK SMILES IDX 14 24 24 25 15 26 16 27 17 28 18 29 23 30 19 31 22 32 20 33REMARK SMILES IDX 21 34REMARK H PARENT 9 4USER                              x       y       z     vdW  Elec       q    TypeUSER                           _______ _______ _______ _____ _____    ______ ____ROOTATOM      1  N   UNL     1      17.859 -17.923  -8.135 -0.19 -0.04    -0.326 N  ATOM      2  C   UNL     1      18.648 -18.748  -8.923 -0.30 +0.03    +0.233 C  ATOM      3  O   UNL     1      19.875 -18.744  -8.982 -0.62 -0.03    -0.274 OA ATOM      4  H   UNL     1      16.853 -18.005  -8.244 +0.09 +0.02    +0.169 HD ENDROOTBRANCH   1   5ATOM      5  C   UNL     1      18.289 -16.904  -7.260 -0.39 +0.01    +0.041 A  ATOM      6  C   UNL     1      18.097 -14.550  -6.623 -0.42 +0.00    +0.019 A  ATOM      7  C   UNL     1      19.053 -14.752  -5.623 -0.49 +0.00    +0.012 A  ATOM      8  C   UNL     1      17.740 -15.628  -7.448 -0.38 +0.00    +0.038 A  ATOM      9  C   UNL     1      19.603 -16.019  -5.425 -0.44 +0.00    +0.003 A  ATOM     10  C   UNL     1      19.216 -17.091  -6.235 -0.38 +0.01    +0.026 A  BRANCH   6  11ATOM     11  C   UNL     1      17.486 -13.238  -6.863 -0.31 -0.01    +0.141 A  ATOM     12  N   UNL     1      16.907 -12.421  -5.909 -0.20 +0.04    -0.327 N  ATOM     13  C   UNL     1      16.480 -11.265  -6.523 -0.43 -0.01    +0.071 A  ATOM     14  N   UNL     1      17.366 -12.689  -8.059 -0.22 +0.03    -0.225 NA ATOM     15  C   UNL     1      15.871 -10.093  -6.050 -0.45 -0.01    +0.029 A  ATOM     16  C   UNL     1      16.772 -11.464  -7.870 -0.35 -0.02    +0.125 A  ATOM     17  C   UNL     1      15.553  -9.104  -6.991 -0.53 -0.00    +0.005 A  ATOM     18  C   UNL     1      16.438 -10.458  -8.793 -0.43 -0.03    +0.151 A  ATOM     19  C   UNL     1      15.831  -9.281  -8.346 -0.64 -0.01    +0.042 A  ATOM     20  C   UNL     1      16.706 -12.737  -4.513 -0.27 +0.01    +0.152 C  ATOM     21  F   UNL     1      16.689 -10.606 -10.102 -0.10 +0.04    -0.205 F  ENDBRANCH   6  11ENDBRANCH   1   5BRANCH   2  22ATOM     22  C   UNL     1      17.850 -19.744  -9.737 -0.31 +0.04    +0.199 C  BRANCH  22  23ATOM     23  C   UNL     1      16.761 -19.024 -10.418 -0.25 +0.01    +0.226 A  ATOM     24  N   UNL     1      15.927 -19.464 -11.334 -0.31 -0.00    -0.112 NA ATOM     25  O   UNL     1      16.547 -17.716 -10.079 -0.14 +0.00    -0.420 OA ATOM     26  N   UNL     1      15.091 -18.406 -11.629 -0.34 +0.01    -0.108 NA ATOM     27  C   UNL     1      15.474 -17.395 -10.873 -0.20 -0.03    +0.247 A  BRANCH  27  28ATOM     28  C   UNL     1      14.941 -16.042 -10.770 -0.29 -0.01    +0.039 A  ATOM     29  C   UNL     1      14.242 -15.486 -11.856 -0.26 -0.01    +0.017 A  ATOM     30  C   UNL     1      15.101 -15.269  -9.606 -0.31 -0.00    +0.017 A  ATOM     31  C   UNL     1      13.721 -14.191 -11.783 -0.27 -0.02    +0.040 A  ATOM     32  C   UNL     1      14.579 -13.974  -9.533 -0.34 -0.02    +0.040 A  ATOM     33  C   UNL     1      13.895 -13.447 -10.622 -0.25 -0.07    +0.123 A  ATOM     34  F   UNL     1      13.398 -12.205 -10.551 -0.09 +0.14    -0.207 F  ENDBRANCH  27  28ENDBRANCH  22  23ENDBRANCH   2  22TORSDOF 5TERENDMDL