MODEL        9USER    Run = 9USERUSER    Estimated Free Energy of Binding    = -10.08 kcal/mol  [=(1)+(2)+(3)-(4)]USERUSER    (1) Final Intermolecular Energy     = -11.87 kcal/molUSER        vdW + Hbond + desolv Energy     = -11.87 kcal/molUSER        Electrostatic Energy            =  +0.00 kcal/molUSER        Moving Ligand-Fixed Receptor    = -11.87 kcal/molUSER        Moving Ligand-Moving Receptor   =  +0.00 kcal/molUSER    (2) Final Total Internal Energy     =  -2.00 kcal/molUSER    (3) Torsional Free Energy           =  +1.79 kcal/molUSER    (4) Unbound System's Energy         =  -2.00 kcal/molUSERUSERREMARK SMILES Cc1cc(NS(=O)(=O)c2ccccc2)ccc1[C@H]1N=C(NC2CCN(C3CC3)CC2)N=C2CN21REMARK SMILES IDX 1 1 2 2 3 3 4 4 15 5 16 6 17 7 18 8 19 9 34 10 20 11 33 12REMARK SMILES IDX 32 13 21 14 31 15 22 17 23 18 30 19 24 20 29 21 25 22 26 23REMARK SMILES IDX 27 24 28 25 5 26 6 28 7 29 8 30 9 31 10 32 14 33 11 34 13 35REMARK SMILES IDX 12 36REMARK H PARENT 21 16 5 27USER                              x       y       z     vdW  Elec       q    TypeUSER                           _______ _______ _______ _____ _____    ______ ____ROOTATOM      1  C   UNL     1      13.226 -14.901  -9.360 -0.42 -0.04    +0.045 C  ATOM      2  C   UNL     1      14.608 -14.505  -9.801 -0.32 +0.02    -0.042 A  ATOM      3  C   UNL     1      15.032 -13.182  -9.578 -0.35 -0.01    +0.030 A  ATOM      4  C   UNL     1      16.308 -12.765  -9.952 -0.33 -0.01    +0.049 A  ATOM      5  C   UNL     1      17.186 -13.663 -10.552 -0.41 -0.01    +0.027 A  ATOM      6  C   UNL     1      16.776 -14.976 -10.788 -0.38 -0.00    +0.010 A  ATOM      7  C   UNL     1      15.483 -15.417 -10.437 -0.32 +0.00    -0.000 A  ENDROOTBRANCH   7   8ATOM      8  C   UNL     1      15.090 -16.878 -10.700 -0.26 -0.04    +0.237 C  ATOM      9  N   UNL     1      14.777 -17.097 -12.118 -0.19 +0.05    -0.221 NA ATOM     10  N   UNL     1      16.124 -17.713 -10.109 -0.18 +0.01    -0.325 N  ATOM     11  C   UNL     1      15.295 -18.106 -12.729 -0.28 -0.05    +0.222 C  ATOM     12  C   UNL     1      15.802 -19.091  -9.700 -0.19 +0.02    +0.195 C  ATOM     13  C   UNL     1      16.431 -18.722 -10.941 -0.27 +0.00    +0.130 C  ATOM     14  N   UNL     1      15.048 -18.354 -14.046 -0.13 +0.10    -0.352 N  ATOM     15  N   UNL     1      16.113 -19.020 -12.130 -0.28 +0.02    -0.198 NA ATOM     16  H   UNL     1      15.361 -19.277 -14.326 -0.40 -0.08    +0.163 HD BRANCH  14  17ATOM     17  C   UNL     1      13.928 -17.800 -14.785 -0.36 -0.01    +0.084 C  ATOM     18  C   UNL     1      14.239 -16.369 -15.227 -0.44 -0.01    +0.040 C  ATOM     19  C   UNL     1      12.683 -17.826 -13.897 -0.35 -0.01    +0.040 C  ATOM     20  C   UNL     1      13.012 -15.720 -15.868 -0.34 -0.02    +0.087 C  ATOM     21  C   UNL     1      11.509 -17.127 -14.582 -0.24 -0.01    +0.087 C  ATOM     22  N   UNL     1      11.816 -15.760 -15.017 -0.05 +0.05    -0.300 NA BRANCH  22  23ATOM     23  C   UNL     1      11.850 -14.786 -13.913 -0.24 -0.02    +0.056 C  ATOM     24  C   UNL     1      12.306 -13.379 -14.192 -0.39 -0.01    +0.021 C  ATOM     25  C   UNL     1      13.184 -14.307 -13.407 -0.33 -0.01    +0.021 C  ENDBRANCH  22  23ENDBRANCH  14  17ENDBRANCH   7   8BRANCH   4  26ATOM     26  N   UNL     1      16.716 -11.416  -9.761 -0.23 +0.06    -0.280 N  ATOM     27  H   UNL     1      17.046 -10.902 -10.576 +0.13 -0.04    +0.180 HD BRANCH  26  28ATOM     28  S   UNL     1      15.832 -10.432  -8.711 -0.58 -0.07    +0.261 S  ATOM     29  O   UNL     1      16.400  -9.101  -8.696 -0.54 +0.04    -0.201 OA ATOM     30  O   UNL     1      14.438 -10.644  -9.046 -0.42 +0.09    -0.201 OA BRANCH  28  31ATOM     31  C   UNL     1      16.118 -11.179  -7.122 -0.42 -0.02    +0.087 A  ATOM     32  C   UNL     1      15.163 -11.044  -6.111 -0.52 -0.01    +0.022 A  ATOM     33  C   UNL     1      17.283 -11.921  -6.910 -0.39 -0.00    +0.022 A  ATOM     34  C   UNL     1      15.395 -11.626  -4.865 -0.49 -0.00    +0.001 A  ATOM     35  C   UNL     1      17.507 -12.504  -5.663 -0.47 -0.00    +0.001 A  ATOM     36  C   UNL     1      16.567 -12.352  -4.642 -0.50 +0.00    +0.000 A  ENDBRANCH  28  31ENDBRANCH  26  28ENDBRANCH   4  26TORSDOF 6TERENDMDL