REMARK SMILES Cn1c(-c2cccc(NC(=O)Cc3nnc(-c4ccc(F)cc4)o3)c2)nc2c(F)cccc21
REMARK SMILES IDX 9 1 10 2 11 3 8 5 4 6 5 7 25 8 6 9 7 10 3 11 2 12 33 13
REMARK SMILES IDX 26 14 32 15 27 16 31 17 28 18 30 19 1 20 29 21 12 22 13 23
REMARK SMILES IDX 14 24 24 25 15 26 16 27 17 28 18 29 23 30 19 31 22 32 20 33
REMARK SMILES IDX 21 34
REMARK H PARENT 9 4
ROOT
ATOM      1  N   UNL     1       0.666   1.955   0.007  1.00  0.00    -0.326 N 
ATOM      2  C   UNL     1       1.816   2.618  -0.394  1.00  0.00     0.233 C 
ATOM      3  O   UNL     1       2.071   3.014  -1.528  1.00  0.00    -0.274 OA
ATOM      4  H   UNL     1       0.629   1.635   0.970  1.00  0.00     0.169 HD
ENDROOT
BRANCH   1   5
ATOM      5  C   UNL     1      -0.434   1.581  -0.794  1.00  0.00     0.041 A 
ATOM      6  C   UNL     1      -2.619   0.484  -0.871  1.00  0.00     0.019 A 
ATOM      7  C   UNL     1      -2.687   0.738  -2.244  1.00  0.00     0.012 A 
ATOM      8  C   UNL     1      -1.478   0.892  -0.162  1.00  0.00     0.038 A 
ATOM      9  C   UNL     1      -1.655   1.427  -2.882  1.00  0.00     0.003 A 
ATOM     10  C   UNL     1      -0.538   1.853  -2.158  1.00  0.00     0.026 A 
BRANCH   6  11
ATOM     11  C   UNL     1      -3.683  -0.229  -0.156  1.00  0.00     0.141 A 
ATOM     12  N   UNL     1      -5.040   0.019  -0.255  1.00  0.00    -0.327 N 
ATOM     13  C   UNL     1      -5.709  -0.883   0.543  1.00  0.00     0.071 A 
ATOM     14  N   UNL     1      -3.463  -1.184   0.730  1.00  0.00    -0.225 NA
ATOM     15  C   UNL     1      -7.069  -1.119   0.796  1.00  0.00     0.029 A 
ATOM     16  C   UNL     1      -4.696  -1.617   1.155  1.00  0.00     0.125 A 
ATOM     17  C   UNL     1      -7.390  -2.136   1.705  1.00  0.00     0.005 A 
ATOM     18  C   UNL     1      -5.047  -2.628   2.066  1.00  0.00     0.151 A 
ATOM     19  C   UNL     1      -6.394  -2.883   2.334  1.00  0.00     0.042 A 
ATOM     20  C   UNL     1      -5.668   1.083  -1.004  1.00  0.00     0.152 C 
ATOM     21  F   UNL     1      -4.109  -3.356   2.689  1.00  0.00    -0.205 F 
ENDBRANCH   6  11
ENDBRANCH   1   5
BRANCH   2  22
ATOM     22  C   UNL     1       2.790   2.869   0.737  1.00  0.00     0.199 C 
BRANCH  22  23
ATOM     23  C   UNL     1       3.444   1.596   1.081  1.00  0.00     0.226 A 
ATOM     24  N   UNL     1       3.106   0.714   1.996  1.00  0.00    -0.112 NA
ATOM     25  O   UNL     1       4.559   1.236   0.374  1.00  0.00    -0.420 OA
ATOM     26  N   UNL     1       4.029  -0.307   1.903  1.00  0.00    -0.108 NA
ATOM     27  C   UNL     1       4.866   0.023   0.938  1.00  0.00     0.247 A 
BRANCH  27  28
ATOM     28  C   UNL     1       6.024  -0.690   0.412  1.00  0.00     0.039 A 
ATOM     29  C   UNL     1       6.397  -1.922   0.977  1.00  0.00     0.017 A 
ATOM     30  C   UNL     1       6.785  -0.182  -0.656  1.00  0.00     0.017 A 
ATOM     31  C   UNL     1       7.503  -2.626   0.492  1.00  0.00     0.040 A 
ATOM     32  C   UNL     1       7.891  -0.886  -1.141  1.00  0.00     0.040 A 
ATOM     33  C   UNL     1       8.240  -2.100  -0.563  1.00  0.00     0.123 A 
ATOM     34  F   UNL     1       9.301  -2.773  -1.028  1.00  0.00    -0.207 F 
ENDBRANCH  27  28
ENDBRANCH  22  23
ENDBRANCH   2  22
TORSDOF 5
