REMARK SMILES Cn1c(-c2cccc(NC(=O)c3ccncc3)c2)nc2c(F)c(-c3c(F)cccc3F)ccc21
REMARK SMILES IDX 1 1 2 2 3 3 19 4 20 5 21 6 22 7 23 8 32 9 33 10 34 11 4 12
REMARK SMILES IDX 5 13 18 14 6 15 8 16 7 17 9 18 10 19 11 21 12 22 13 23 17 24
REMARK SMILES IDX 14 25 16 26 15 27 24 28 25 29 30 30 27 31 29 32 28 33 26 34
REMARK SMILES IDX 31 35
REMARK H PARENT 9 20
ROOT
ATOM      1  C   UNL     1      -0.251   0.554  -1.989  1.00  0.00     0.152 C 
ATOM      2  N   UNL     1       0.644  -0.069  -1.040  1.00  0.00    -0.327 N 
ATOM      3  C   UNL     1       0.358  -1.139  -0.211  1.00  0.00     0.141 A 
ATOM      4  N   UNL     1       1.456  -1.528   0.414  1.00  0.00    -0.225 NA
ATOM      5  C   UNL     1       2.451  -0.656   0.043  1.00  0.00     0.125 A 
ATOM      6  C   UNL     1       3.801  -0.593   0.433  1.00  0.00     0.159 A 
ATOM      7  F   UNL     1       4.282  -1.482   1.319  1.00  0.00    -0.204 F 
ATOM      8  C   UNL     1       4.647   0.407  -0.082  1.00  0.00     0.026 A 
ATOM      9  C   UNL     1       4.109   1.339  -0.987  1.00  0.00     0.014 A 
ATOM     10  C   UNL     1       2.768   1.296  -1.397  1.00  0.00     0.029 A 
ATOM     11  C   UNL     1       1.966   0.281  -0.862  1.00  0.00     0.071 A 
ENDROOT
BRANCH   3  12
ATOM     12  C   UNL     1      -0.946  -1.795  -0.056  1.00  0.00     0.019 A 
ATOM     13  C   UNL     1      -1.000  -3.191   0.043  1.00  0.00     0.012 A 
ATOM     14  C   UNL     1      -2.140  -1.064   0.041  1.00  0.00     0.038 A 
ATOM     15  C   UNL     1      -2.220  -3.845   0.206  1.00  0.00     0.003 A 
ATOM     16  C   UNL     1      -3.372  -1.710   0.180  1.00  0.00     0.042 A 
ATOM     17  C   UNL     1      -3.402  -3.106   0.272  1.00  0.00     0.026 A 
BRANCH  16  18
ATOM     18  N   UNL     1      -4.604  -1.026   0.257  1.00  0.00    -0.322 N 
ATOM     19  C   UNL     1      -4.825   0.313  -0.014  1.00  0.00     0.255 C 
ATOM     20  H   UNL     1      -5.417  -1.605   0.422  1.00  0.00     0.170 HD
ATOM     21  O   UNL     1      -4.014   1.110  -0.472  1.00  0.00    -0.269 OA
BRANCH  19  22
ATOM     22  C   UNL     1      -6.215   0.783   0.231  1.00  0.00     0.043 A 
ATOM     23  C   UNL     1      -6.982   0.288   1.287  1.00  0.00     0.034 A 
ATOM     24  C   UNL     1      -6.741   1.769  -0.604  1.00  0.00     0.034 A 
ATOM     25  C   UNL     1      -8.262   0.788   1.443  1.00  0.00     0.112 A 
ATOM     26  C   UNL     1      -8.032   2.199  -0.365  1.00  0.00     0.112 A 
ATOM     27  N   UNL     1      -8.806   1.722   0.634  1.00  0.00    -0.265 NA
ENDBRANCH  19  22
ENDBRANCH  16  18
ENDBRANCH   3  12
BRANCH   8  28
ATOM     28  C   UNL     1       6.059   0.481   0.320  1.00  0.00     0.056 A 
ATOM     29  C   UNL     1       6.584   1.615   0.956  1.00  0.00     0.134 A 
ATOM     30  C   UNL     1       6.946  -0.579   0.085  1.00  0.00     0.134 A 
ATOM     31  C   UNL     1       7.922   1.690   1.348  1.00  0.00     0.040 A 
ATOM     32  C   UNL     1       8.287  -0.519   0.471  1.00  0.00     0.040 A 
ATOM     33  C   UNL     1       8.778   0.618   1.107  1.00  0.00     0.006 A 
ATOM     34  F   UNL     1       5.795   2.671   1.208  1.00  0.00    -0.206 F 
ATOM     35  F   UNL     1       6.522  -1.684  -0.548  1.00  0.00    -0.206 F 
ENDBRANCH   8  28
TORSDOF 4
