REMARK SMILES Cc1cc(NS(=O)(=O)c2ccccc2)ccc1[C@H]1N=C(NC2CCN(C3CC3)CC2)N=C2CN21
REMARK SMILES IDX 1 1 2 2 3 3 4 4 15 5 16 6 17 7 18 8 19 9 34 10 20 11 33 12
REMARK SMILES IDX 32 13 21 14 31 15 22 17 23 18 30 19 24 20 29 21 25 22 26 23
REMARK SMILES IDX 27 24 28 25 5 26 6 28 7 29 8 30 9 31 10 32 14 33 11 34 13 35
REMARK SMILES IDX 12 36
REMARK H PARENT 21 16 5 27
ROOT
ATOM      1  C   UNL     1      -2.823   3.736   1.313  1.00  0.00     0.045 C 
ATOM      2  C   UNL     1      -2.632   3.006   0.012  1.00  0.00    -0.042 A 
ATOM      3  C   UNL     1      -3.752   2.806  -0.817  1.00  0.00     0.030 A 
ATOM      4  C   UNL     1      -3.630   2.150  -2.040  1.00  0.00     0.049 A 
ATOM      5  C   UNL     1      -2.388   1.686  -2.461  1.00  0.00     0.027 A 
ATOM      6  C   UNL     1      -1.270   1.869  -1.645  1.00  0.00     0.010 A 
ATOM      7  C   UNL     1      -1.370   2.511  -0.394  1.00  0.00    -0.000 A 
ENDROOT
BRANCH   7   8
ATOM      8  C   UNL     1      -0.106   2.705   0.455  1.00  0.00     0.237 C 
ATOM      9  N   UNL     1       0.792   1.548   0.343  1.00  0.00    -0.221 NA
ATOM     10  N   UNL     1       0.442   4.009   0.117  1.00  0.00    -0.325 N 
ATOM     11  C   UNL     1       2.045   1.744   0.117  1.00  0.00     0.222 C 
ATOM     12  C   UNL     1       1.284   4.722   1.093  1.00  0.00     0.195 C 
ATOM     13  C   UNL     1       1.777   3.930  -0.003  1.00  0.00     0.130 C 
ATOM     14  N   UNL     1       2.924   0.710  -0.006  1.00  0.00    -0.352 N 
ATOM     15  N   UNL     1       2.614   2.979  -0.003  1.00  0.00    -0.198 NA
ATOM     16  H   UNL     1       3.888   1.023   0.016  1.00  0.00     0.163 HD
BRANCH  14  17
ATOM     17  C   UNL     1       2.671  -0.638   0.473  1.00  0.00     0.084 C 
ATOM     18  C   UNL     1       2.837  -0.702   1.992  1.00  0.00     0.040 C 
ATOM     19  C   UNL     1       3.642  -1.601  -0.212  1.00  0.00     0.040 C 
ATOM     20  C   UNL     1       2.729  -2.143   2.490  1.00  0.00     0.087 C 
ATOM     21  C   UNL     1       3.507  -3.011   0.361  1.00  0.00     0.087 C 
ATOM     22  N   UNL     1       3.653  -3.066   1.820  1.00  0.00    -0.300 NA
BRANCH  22  23
ATOM     23  C   UNL     1       5.047  -2.932   2.276  1.00  0.00     0.056 C 
ATOM     24  C   UNL     1       5.950  -4.136   2.235  1.00  0.00     0.021 C 
ATOM     25  C   UNL     1       5.463  -3.612   3.553  1.00  0.00     0.021 C 
ENDBRANCH  22  23
ENDBRANCH  14  17
ENDBRANCH   7   8
BRANCH   4  26
ATOM     26  N   UNL     1      -4.772   1.915  -2.855  1.00  0.00    -0.280 N 
ATOM     27  H   UNL     1      -4.627   1.836  -3.860  1.00  0.00     0.180 HD
BRANCH  26  28
ATOM     28  S   UNL     1      -5.968   0.856  -2.305  1.00  0.00     0.261 S 
ATOM     29  O   UNL     1      -6.513   1.344  -1.056  1.00  0.00    -0.201 OA
ATOM     30  O   UNL     1      -6.827   0.599  -3.443  1.00  0.00    -0.201 OA
BRANCH  28  31
ATOM     31  C   UNL     1      -5.062  -0.638  -1.972  1.00  0.00     0.087 A 
ATOM     32  C   UNL     1      -4.593  -0.891  -0.680  1.00  0.00     0.022 A 
ATOM     33  C   UNL     1      -4.856  -1.562  -3.001  1.00  0.00     0.022 A 
ATOM     34  C   UNL     1      -3.878  -2.061  -0.426  1.00  0.00     0.001 A 
ATOM     35  C   UNL     1      -4.144  -2.732  -2.738  1.00  0.00     0.001 A 
ATOM     36  C   UNL     1      -3.652  -2.978  -1.455  1.00  0.00     0.000 A 
ENDBRANCH  28  31
ENDBRANCH  26  28
ENDBRANCH   4  26
TORSDOF 6
