MODEL        10USER    Run = 10USERUSER    Estimated Free Energy of Binding    =  -9.42 kcal/mol  [=(1)+(2)+(3)-(4)]USERUSER    (1) Final Intermolecular Energy     = -12.40 kcal/molUSER        vdW + Hbond + desolv Energy     = -11.65 kcal/molUSER        Electrostatic Energy            =  -0.75 kcal/molUSER        Moving Ligand-Fixed Receptor    = -12.40 kcal/molUSER        Moving Ligand-Moving Receptor   =  +0.00 kcal/molUSER    (2) Final Total Internal Energy     =  -2.14 kcal/molUSER    (3) Torsional Free Energy           =  +2.98 kcal/molUSER    (4) Unbound System's Energy         =  -2.14 kcal/molUSERUSERREMARK SMILES COc1ccc(C=Cc2nnc(NC(=O)C[C@@H]3CCCN3)o2)cc1C=C1C=C(C(C)(C)C)OC1REMARK SMILES IDX 7 1 6 2 3 3 4 4 24 5 5 6 23 7 2 8 1 9 25 10 26 11 27 12REMARK SMILES IDX 34 13 28 14 33 15 29 16 30 17 31 18 32 19 8 20 9 21 10 22REMARK SMILES IDX 22 23 11 24 12 25 13 26 14 27 15 29 16 30 17 31 18 32 21 33REMARK SMILES IDX 19 34 20 35REMARK H PARENT 13 28 21 36USER                              x       y       z     vdW  Elec       q    TypeUSER                           _______ _______ _______ _____ _____    ______ ____ROOTATOM      1  C   UNL     1       6.097  -6.204 -12.174 -0.31 -0.00    +0.014 C  ENDROOTBRANCH   1   2ATOM      2  C   UNL     1       5.800  -6.175 -13.615 -0.19 +0.00    -0.025 A  ATOM      3  C   UNL     1       5.180  -5.998 -16.372 -0.07 +0.09    +0.126 A  ATOM      4  C   UNL     1       5.542  -4.858 -15.650 -0.18 +0.01    +0.047 A  ATOM      5  C   UNL     1       5.121  -7.237 -15.707 -0.12 +0.01    +0.017 A  ATOM      6  C   UNL     1       5.847  -4.947 -14.285 -0.25 -0.00    +0.012 A  ATOM      7  C   UNL     1       5.421  -7.313 -14.336 -0.14 +0.00    +0.020 A  BRANCH   3   8ATOM      8  O   UNL     1       4.854  -6.003 -17.703 -0.12 -0.53    -0.496 OA ATOM      9  C   UNL     1       4.500  -4.763 -18.301 -0.13 +0.06    +0.278 C  ENDBRANCH   3   8BRANCH   5  10ATOM     10  C   UNL     1       4.746  -8.486 -16.387 -0.14 +0.02    +0.019 C  BRANCH  10  11ATOM     11  C   UNL     1       5.004  -9.703 -15.890 -0.19 -0.00    -0.007 C  ATOM     12  C   UNL     1       5.840 -10.690 -16.502 -0.22 +0.02    +0.049 C  ATOM     13  C   UNL     1       4.503 -10.339 -14.628 -0.16 +0.28    +0.265 C  ATOM     14  C   UNL     1       5.832 -11.786 -15.741 -0.27 +0.03    +0.102 C  ATOM     15  O   UNL     1       5.036 -11.685 -14.592 -0.63 -0.42    -0.493 OA BRANCH  14  16ATOM     16  C   UNL     1       6.551 -13.107 -15.954 -0.34 -0.00    +0.019 C  ATOM     17  C   UNL     1       7.842 -12.862 -16.756 -0.26 -0.01    +0.019 C  ATOM     18  C   UNL     1       5.635 -14.059 -16.746 -0.39 +0.00    +0.019 C  ATOM     19  C   UNL     1       6.930 -13.797 -14.629 -0.36 +0.00    +0.019 C  ENDBRANCH  14  16ENDBRANCH  10  11ENDBRANCH   5  10ENDBRANCH   1   2BRANCH   1  20ATOM     20  C   UNL     1       6.366  -7.322 -11.480 -0.36 -0.00    +0.071 C  BRANCH  20  21ATOM     21  C   UNL     1       7.649  -7.931 -11.507 -0.25 -0.02    +0.242 A  ATOM     22  N   UNL     1       8.708  -7.535 -10.819 -0.70 -0.00    -0.107 NA ATOM     23  O   UNL     1       7.966  -9.046 -12.270 -0.24 +0.04    -0.404 OA ATOM     24  N   UNL     1       9.750  -8.385 -11.118 -1.12 -0.02    -0.090 NA ATOM     25  C   UNL     1       9.279  -9.260 -11.969 -0.30 -0.06    +0.322 A  BRANCH  25  26ATOM     26  N   UNL     1       9.849 -10.327 -12.598 -0.32 +0.14    -0.278 N  ATOM     27  C   UNL     1      10.108 -11.506 -11.937 -0.37 -0.06    +0.229 C  ATOM     28  H   UNL     1      10.062 -10.212 -13.576 -0.32 -0.22    +0.174 HD ATOM     29  O   UNL     1       9.886 -11.736 -10.756 -0.88 -0.00    -0.275 OA BRANCH  27  30ATOM     30  C   UNL     1      10.734 -12.534 -12.866 -0.33 -0.05    +0.119 C  BRANCH  30  31ATOM     31  C   UNL     1      12.054 -13.086 -12.334 -0.35 -0.03    +0.063 C  ATOM     32  C   UNL     1      11.997 -14.563 -11.935 -0.31 -0.01    +0.021 C  ATOM     33  N   UNL     1      12.459 -12.404 -11.086 -0.17 +0.23    -0.313 NA ATOM     34  C   UNL     1      12.920 -14.685 -10.728 -0.39 -0.01    +0.017 C  ATOM     35  C   UNL     1      13.481 -13.291 -10.517 -0.33 -0.06    +0.081 C  ATOM     36  H   UNL     1      11.667 -12.384 -10.441 -0.45 -0.16    +0.122 HD ENDBRANCH  30  31ENDBRANCH  27  30ENDBRANCH  25  26ENDBRANCH  20  21ENDBRANCH   1  20TORSDOF 10TERENDMDL