MODEL        4USER    Run = 4USERUSER    Estimated Free Energy of Binding    =  -9.01 kcal/mol  [=(1)+(2)+(3)-(4)]USERUSER    (1) Final Intermolecular Energy     = -11.40 kcal/molUSER        vdW + Hbond + desolv Energy     = -11.30 kcal/molUSER        Electrostatic Energy            =  -0.10 kcal/molUSER        Moving Ligand-Fixed Receptor    = -11.40 kcal/molUSER        Moving Ligand-Moving Receptor   =  +0.00 kcal/molUSER    (2) Final Total Internal Energy     =  -1.11 kcal/molUSER    (3) Torsional Free Energy           =  +2.39 kcal/molUSER    (4) Unbound System's Energy         =  -1.11 kcal/molUSERUSERREMARK SMILES C=Cc1cccc(C=Cc2nnc(NC(=O)CC3CCN(C4CCN(C)CC4)CC3)o2)c1REMARK SMILES IDX 10 1 11 2 12 3 13 4 31 5 9 6 8 7 7 8 3 9 4 10 32 11 5 12REMARK SMILES IDX 6 13 2 14 1 15 14 16 15 17 16 19 17 20 18 21 19 22 30 23REMARK SMILES IDX 20 24 29 25 21 26 22 27 23 28 28 29 24 30 27 31 25 32 26 33REMARK H PARENT 14 18USER                              x       y       z     vdW  Elec       q    TypeUSER                           _______ _______ _______ _____ _____    ______ ____ROOTATOM      1  C   UNL     1       0.091   1.475  -4.471 -0.25 +0.05    +0.242 A  ATOM      2  N   UNL     1       0.728   0.357  -4.794 -0.33 -0.03    -0.107 NA ATOM      3  N   UNL     1       1.882   0.706  -5.461 -0.40 -0.01    -0.090 NA ATOM      4  C   UNL     1       1.882   2.015  -5.525 -0.06 +0.00    +0.322 A  ATOM      5  O   UNL     1       0.797   2.573  -4.929 -0.22 -0.01    -0.404 OA ENDROOTBRANCH   1   6ATOM      6  C   UNL     1      -1.132   1.557  -3.755 -0.37 +0.01    +0.071 C  BRANCH   6   7ATOM      7  C   UNL     1      -1.240   1.113  -2.493 -0.48 +0.00    +0.014 C  BRANCH   7   8ATOM      8  C   UNL     1      -0.794   1.857  -1.304 -0.41 +0.00    -0.025 A  ATOM      9  C   UNL     1      -1.063   3.825   0.132 -0.35 +0.01    -0.026 A  ATOM     10  C   UNL     1      -0.005   3.371   0.926 -0.44 -0.00    +0.008 A  ATOM     11  C   UNL     1      -1.452   3.054  -0.975 -0.32 -0.00    +0.016 A  ATOM     12  C   UNL     1       0.672   2.195   0.600 -0.53 -0.00    +0.001 A  ATOM     13  C   UNL     1       0.286   1.449  -0.514 -0.43 -0.00    +0.008 A  BRANCH   9  14ATOM     14  C   UNL     1      -1.817   5.051   0.438 -0.34 -0.00    +0.000 C  ATOM     15  C   UNL     1      -2.237   5.951  -0.459 -0.36 -0.01    +0.009 C  ENDBRANCH   9  14ENDBRANCH   7   8ENDBRANCH   6   7ENDBRANCH   1   6BRANCH   4  16ATOM     16  N   UNL     1       2.851   2.788  -6.093 -0.22 +0.06    -0.278 N  ATOM     17  C   UNL     1       4.066   2.297  -6.502 -0.36 -0.04    +0.228 C  ATOM     18  H   UNL     1       2.633   3.773  -6.146 -0.47 -0.08    +0.174 HD ATOM     19  O   UNL     1       4.457   1.141  -6.391 -0.83 -0.02    -0.275 OA BRANCH  17  20ATOM     20  C   UNL     1       4.935   3.357  -7.160 -0.49 -0.02    +0.104 C  BRANCH  20  21ATOM     21  C   UNL     1       4.503   3.747  -8.579 -0.46 -0.00    +0.001 C  ATOM     22  C   UNL     1       4.222   5.243  -8.747 -0.52 -0.00    +0.020 C  ATOM     23  C   UNL     1       3.292   2.945  -9.069 -0.33 -0.00    +0.020 C  ATOM     24  C   UNL     1       3.828   5.569 -10.192 -0.39 -0.00    +0.085 C  ATOM     25  C   UNL     1       2.924   3.335 -10.502 -0.26 -0.02    +0.085 C  ATOM     26  N   UNL     1       2.665   4.780 -10.617 -0.18 +0.03    -0.300 NA BRANCH  26  27ATOM     27  C   UNL     1       2.133   5.140 -11.955 -0.29 -0.01    +0.059 C  ATOM     28  C   UNL     1       2.800   6.356 -12.628 -0.32 -0.00    +0.035 C  ATOM     29  C   UNL     1       0.592   5.251 -11.979 -0.21 -0.00    +0.035 C  ATOM     30  C   UNL     1       1.938   6.858 -13.786 -0.27 -0.01    +0.086 C  ATOM     31  C   UNL     1       0.118   6.693 -12.135 -0.21 -0.02    +0.086 C  ATOM     32  N   UNL     1       0.638   7.366 -13.333 -0.11 +0.05    -0.306 NA ATOM     33  C   UNL     1      -0.328   7.366 -14.430 -0.11 -0.01    +0.105 C  ENDBRANCH  26  27ENDBRANCH  20  21ENDBRANCH  17  20ENDBRANCH   4  16TORSDOF 8TERENDMDL