MODEL        7USER    Run = 7USERUSER    Estimated Free Energy of Binding    =  -9.64 kcal/mol  [=(1)+(2)+(3)-(4)]USERUSER    (1) Final Intermolecular Energy     = -11.13 kcal/molUSER        vdW + Hbond + desolv Energy     = -11.12 kcal/molUSER        Electrostatic Energy            =  -0.01 kcal/molUSER        Moving Ligand-Fixed Receptor    = -11.13 kcal/molUSER        Moving Ligand-Moving Receptor   =  +0.00 kcal/molUSER    (2) Final Total Internal Energy     =  -1.62 kcal/molUSER    (3) Torsional Free Energy           =  +1.49 kcal/molUSER    (4) Unbound System's Energy         =  -1.62 kcal/molUSERUSERREMARK SMILES CN1CCC(NC2=N[C@@H](c3ccc(NS(=O)(=O)c4ccccc4)cc3)N3CC3=N2)CC1REMARK SMILES IDX 10 1 11 2 12 3 13 4 24 5 25 6 9 7 6 8 7 9 8 10 29 11 28 12REMARK SMILES IDX 26 13 27 14 5 16 2 17 3 18 31 19 4 20 30 21 1 22 14 23 15 25REMARK SMILES IDX 16 26 17 27 18 28 19 29 23 30 20 31 22 32 21 33REMARK H PARENT 6 15 14 24USER                              x       y       z     vdW  Elec       q    TypeUSER                           _______ _______ _______ _____ _____    ______ ____ROOTATOM      1  C   UNL     1      17.461 -16.576  -8.729 -0.39 -0.00    -0.003 A  ATOM      2  C   UNL     1      16.657 -15.429  -8.607 -0.35 -0.00    +0.010 A  ATOM      3  C   UNL     1      16.760 -14.596  -7.489 -0.17 -0.00    +0.027 A  ATOM      4  C   UNL     1      17.667 -14.903  -6.474 -0.34 +0.00    +0.049 A  ATOM      5  C   UNL     1      18.468 -16.036  -6.577 -0.42 +0.00    +0.027 A  ATOM      6  C   UNL     1      18.370 -16.865  -7.699 -0.41 +0.00    +0.010 A  ENDROOTBRANCH   1   7ATOM      7  C   UNL     1      17.363 -17.446  -9.986 +0.06 -0.00    +0.237 C  ATOM      8  N   UNL     1      14.434 -18.372 -11.923 -0.12 +0.06    -0.352 N  ATOM      9  C   UNL     1      15.635 -18.362 -11.283 -0.30 -0.02    +0.222 C  ATOM     10  N   UNL     1      16.054 -17.328 -10.636 -0.21 +0.02    -0.221 NA ATOM     11  N   UNL     1      16.354 -19.519 -11.377 -0.32 -0.00    -0.198 NA ATOM     12  C   UNL     1      17.202 -19.724 -10.439 -0.42 +0.02    +0.130 C  ATOM     13  N   UNL     1      17.811 -18.791  -9.652 -0.17 -0.03    -0.325 N  ATOM     14  C   UNL     1      16.930 -19.688  -8.986 -0.35 +0.03    +0.195 C  ATOM     15  H   UNL     1      14.336 -19.151 -12.568 -0.47 -0.06    +0.163 HD BRANCH   8  16ATOM     16  C   UNL     1      13.734 -17.169 -12.354 -0.34 -0.02    +0.084 C  ATOM     17  N   UNL     1      13.547 -18.283 -14.876 -0.17 +0.05    -0.306 NA ATOM     18  C   UNL     1      14.619 -17.284 -14.738 -0.35 -0.02    +0.086 C  ATOM     19  C   UNL     1      12.273 -17.767 -14.377 -0.27 -0.01    +0.086 C  ATOM     20  C   UNL     1      14.523 -16.455 -13.451 -0.38 -0.01    +0.040 C  ATOM     21  C   UNL     1      12.333 -17.553 -12.860 -0.41 -0.00    +0.040 C  ATOM     22  C   UNL     1      13.439 -18.741 -16.259 -0.40 +0.01    +0.105 C  ENDBRANCH   8  16ENDBRANCH   1   7BRANCH   4  23ATOM     23  N   UNL     1      17.752 -14.049  -5.342 -0.24 -0.03    -0.280 N  ATOM     24  H   UNL     1      17.900 -14.472  -4.428 +0.10 +0.06    +0.180 HD BRANCH  23  25ATOM     25  S   UNL     1      18.484 -12.536  -5.483 -0.40 +0.02    +0.261 S  ATOM     26  O   UNL     1      19.653 -12.736  -6.317 -0.27 -0.02    -0.201 OA ATOM     27  O   UNL     1      18.594 -11.923  -4.178 -0.65 -0.04    -0.201 OA BRANCH  25  28ATOM     28  C   UNL     1      17.303 -11.610  -6.438 -0.32 -0.01    +0.087 A  ATOM     29  C   UNL     1      16.265 -10.933  -5.793 -0.51 -0.01    +0.022 A  ATOM     30  C   UNL     1      17.453 -11.536  -7.827 -0.34 -0.00    +0.022 A  ATOM     31  C   UNL     1      15.352 -10.199  -6.551 -0.63 -0.00    +0.001 A  ATOM     32  C   UNL     1      16.536 -10.798  -8.576 -0.51 -0.00    +0.001 A  ATOM     33  C   UNL     1      15.487 -10.134  -7.939 -0.64 -0.00    +0.000 A  ENDBRANCH  25  28ENDBRANCH  23  25ENDBRANCH   4  23TORSDOF 5TERENDMDL