REMARK SMILES C=Cc1cccc(C=C2C=C(C=Cc3nnc(NC(=O)C[C@H]4CCCN4)o3)O2)c1
REMARK SMILES IDX 12 1 11 2 9 3 10 4 28 5 8 6 7 7 3 8 4 9 29 10 5 11 6 12 2 13
REMARK SMILES IDX 1 14 13 15 14 16 15 17 27 18 16 19 17 20 18 21 19 22 20 24
REMARK SMILES IDX 21 25 22 26 23 27 26 28 24 29 25 30
REMARK H PARENT 18 23 26 31
ROOT
ATOM      1  C   UNL     1       0.700  -1.850  -3.626  1.00  0.00     0.053 C 
ENDROOT
BRANCH   1   2
ATOM      2  C   UNL     1       2.147  -1.480  -3.201  1.00  0.00     0.131 C 
ATOM      3  C   UNL     1       3.842  -1.002  -2.630  1.00  0.00     0.131 C 
ATOM      4  C   UNL     1       3.334  -1.608  -3.807  1.00  0.00     0.094 C 
ATOM      5  O   UNL     1       2.650  -0.933  -2.155  1.00  0.00    -0.457 OA
BRANCH   3   6
ATOM      6  C   UNL     1       5.065  -0.649  -2.212  1.00  0.00     0.055 C 
BRANCH   6   7
ATOM      7  C   UNL     1       5.436  -0.017  -0.933  1.00  0.00    -0.021 A 
ATOM      8  C   UNL     1       7.134   1.152   0.392  1.00  0.00    -0.026 A 
ATOM      9  C   UNL     1       6.244   1.199   1.470  1.00  0.00     0.008 A 
ATOM     10  C   UNL     1       6.715   0.550  -0.806  1.00  0.00     0.016 A 
ATOM     11  C   UNL     1       4.973   0.636   1.360  1.00  0.00     0.001 A 
ATOM     12  C   UNL     1       4.573   0.029   0.168  1.00  0.00     0.008 A 
BRANCH   8  13
ATOM     13  C   UNL     1       8.466   1.769   0.449  1.00  0.00     0.000 C 
ATOM     14  C   UNL     1       9.248   1.787   1.536  1.00  0.00     0.009 C 
ENDBRANCH   8  13
ENDBRANCH   6   7
ENDBRANCH   3   6
ENDBRANCH   1   2
BRANCH   1  15
ATOM     15  C   UNL     1      -0.445  -1.684  -2.950  1.00  0.00     0.074 C 
BRANCH  15  16
ATOM     16  C   UNL     1      -0.584  -1.159  -1.637  1.00  0.00     0.242 A 
ATOM     17  N   UNL     1       0.324  -1.022  -0.681  1.00  0.00    -0.107 NA
ATOM     18  O   UNL     1      -1.819  -0.740  -1.168  1.00  0.00    -0.404 OA
ATOM     19  N   UNL     1      -0.295  -0.493   0.429  1.00  0.00    -0.090 NA
ATOM     20  C   UNL     1      -1.554  -0.340   0.102  1.00  0.00     0.322 A 
BRANCH  20  21
ATOM     21  N   UNL     1      -2.538   0.151   0.908  1.00  0.00    -0.278 N 
ATOM     22  C   UNL     1      -3.845   0.298   0.505  1.00  0.00     0.229 C 
ATOM     23  H   UNL     1      -2.242   0.407   1.838  1.00  0.00     0.174 HD
ATOM     24  O   UNL     1      -4.293   0.044  -0.608  1.00  0.00    -0.275 OA
BRANCH  22  25
ATOM     25  C   UNL     1      -4.709   0.856   1.623  1.00  0.00     0.119 C 
BRANCH  25  26
ATOM     26  C   UNL     1      -6.194   0.870   1.269  1.00  0.00     0.063 C 
ATOM     27  C   UNL     1      -6.821  -0.519   1.190  1.00  0.00     0.021 C 
ATOM     28  N   UNL     1      -6.980   1.504   2.341  1.00  0.00    -0.313 NA
ATOM     29  C   UNL     1      -8.289  -0.298   1.531  1.00  0.00     0.017 C 
ATOM     30  C   UNL     1      -8.366   1.119   2.078  1.00  0.00     0.081 C 
ATOM     31  H   UNL     1      -6.886   2.518   2.306  1.00  0.00     0.122 HD
ENDBRANCH  25  26
ENDBRANCH  22  25
ENDBRANCH  20  21
ENDBRANCH  15  16
ENDBRANCH   1  15
TORSDOF 9
