MODEL        1USER    Run = 1USERUSER    Estimated Free Energy of Binding    = -10.00 kcal/mol  [=(1)+(2)+(3)-(4)]USERUSER    (1) Final Intermolecular Energy     = -11.20 kcal/molUSER        vdW + Hbond + desolv Energy     = -11.17 kcal/molUSER        Electrostatic Energy            =  -0.03 kcal/molUSER        Moving Ligand-Fixed Receptor    = -11.20 kcal/molUSER        Moving Ligand-Moving Receptor   =  +0.00 kcal/molUSER    (2) Final Total Internal Energy     =  -1.33 kcal/molUSER    (3) Torsional Free Energy           =  +1.19 kcal/molUSER    (4) Unbound System's Energy         =  -1.33 kcal/molUSERUSERREMARK SMILES Cn1c(-c2cccc(NC(=O)NO)c2)nc2c(F)c(-c3c(F)cccc3F)ccc21REMARK SMILES IDX 4 1 5 2 6 3 7 4 8 5 14 6 3 7 2 8 30 9 15 10 29 11 16 12REMARK SMILES IDX 28 13 17 14 19 15 1 16 18 17 20 18 21 19 26 20 23 21 25 22REMARK SMILES IDX 24 23 22 24 27 25 9 26 10 27 12 28 11 30 13 32REMARK H PARENT 9 29 12 31 13 33USER                              x       y       z     vdW  Elec       q    TypeUSER                           _______ _______ _______ _____ _____    ______ ____ROOTATOM      1  C   UNL     1      17.740 -13.232  -6.592 -0.40 -0.00    +0.019 A  ATOM      2  C   UNL     1      18.982 -13.878  -6.539 -0.38 +0.00    +0.012 A  ATOM      3  C   UNL     1      19.860 -13.643  -5.483 -0.54 +0.00    +0.003 A  ATOM      4  C   UNL     1      19.503 -12.759  -4.466 -0.51 +0.00    +0.026 A  ATOM      5  C   UNL     1      18.263 -12.108  -4.491 -0.48 +0.01    +0.043 A  ATOM      6  C   UNL     1      17.385 -12.363  -5.549 -0.45 -0.00    +0.038 A  ENDROOTBRANCH   1   7ATOM      7  C   UNL     1      16.834 -13.522  -7.711 -0.29 -0.03    +0.141 A  ATOM      8  N   UNL     1      15.998 -12.622  -8.347 -0.16 +0.11    -0.327 N  ATOM      9  C   UNL     1      15.280 -13.297  -9.313 -0.32 -0.03    +0.071 A  ATOM     10  N   UNL     1      16.736 -14.708  -8.288 -0.24 +0.03    -0.225 NA ATOM     11  C   UNL     1      14.278 -12.907 -10.209 -0.33 -0.02    +0.029 A  ATOM     12  C   UNL     1      15.772 -14.596  -9.261 -0.26 -0.03    +0.125 A  ATOM     13  C   UNL     1      13.776 -13.887 -11.078 -0.30 -0.01    +0.014 A  ATOM     14  C   UNL     1      15.255 -15.559 -10.147 -0.22 -0.04    +0.159 A  ATOM     15  C   UNL     1      14.250 -15.212 -11.070 -0.27 -0.01    +0.026 A  ATOM     16  C   UNL     1      15.916 -11.199  -8.111 -0.43 -0.05    +0.152 C  ATOM     17  F   UNL     1      15.710 -16.823 -10.099 -0.08 +0.02    -0.204 F  BRANCH  15  18ATOM     18  C   UNL     1      13.703 -16.210 -12.000 -0.24 -0.01    +0.056 A  ATOM     19  C   UNL     1      12.590 -16.993 -11.667 -0.31 -0.03    +0.134 A  ATOM     20  C   UNL     1      14.271 -16.424 -13.263 -0.23 -0.04    +0.134 A  ATOM     21  C   UNL     1      12.069 -17.949 -12.542 -0.43 -0.00    +0.040 A  ATOM     22  C   UNL     1      13.762 -17.375 -14.151 -0.30 -0.01    +0.040 A  ATOM     23  C   UNL     1      12.658 -18.143 -13.788 -0.33 -0.00    +0.006 A  ATOM     24  F   UNL     1      11.991 -16.839 -10.475 -0.14 +0.07    -0.206 F  ATOM     25  F   UNL     1      15.319 -15.688 -13.664 -0.12 +0.09    -0.206 F  ENDBRANCH  15  18ENDBRANCH   1   7BRANCH   5  26ATOM     26  N   UNL     1      17.978 -11.225  -3.431 -0.21 -0.09    -0.306 N  ATOM     27  C   UNL     1      18.759 -10.192  -2.962 -0.47 +0.09    +0.342 C  ATOM     28  N   UNL     1      18.162  -9.545  -1.889 -0.53 -0.07    -0.219 N  ATOM     29  H   UNL     1      17.075 -11.327  -2.992 +0.12 +0.08    +0.171 HD ATOM     30  O   UNL     1      19.853  -9.828  -3.382 -0.80 -0.09    -0.246 OA ATOM     31  H   UNL     1      17.694 -10.126  -1.204 -0.30 +0.07    +0.200 HD BRANCH  28  32ATOM     32  O   UNL     1      18.999  -8.553  -1.300 -0.89 -0.14    -0.287 OA ATOM     33  H   UNL     1      19.496  -8.210  -2.076 -0.34 +0.10    +0.246 HD ENDBRANCH  28  32ENDBRANCH   5  26TORSDOF 4TERENDMDL