MODEL        9USER    Run = 9USERUSER    Estimated Free Energy of Binding    = -10.04 kcal/mol  [=(1)+(2)+(3)-(4)]USERUSER    (1) Final Intermolecular Energy     = -12.73 kcal/molUSER        vdW + Hbond + desolv Energy     = -12.57 kcal/molUSER        Electrostatic Energy            =  -0.16 kcal/molUSER        Moving Ligand-Fixed Receptor    = -12.73 kcal/molUSER        Moving Ligand-Moving Receptor   =  +0.00 kcal/molUSER    (2) Final Total Internal Energy     =  -1.50 kcal/molUSER    (3) Torsional Free Energy           =  +2.68 kcal/molUSER    (4) Unbound System's Energy         =  -1.50 kcal/molUSERUSERREMARK SMILES C=Cc1cccc(C=C2C=C(C=Cc3nnc(NC(=O)C[C@H]4CCCN4)o3)O2)c1REMARK SMILES IDX 12 1 11 2 9 3 10 4 28 5 8 6 7 7 3 8 4 9 29 10 5 11 6 12 2 13REMARK SMILES IDX 1 14 13 15 14 16 15 17 27 18 16 19 17 20 18 21 19 22 20 24REMARK SMILES IDX 21 25 22 26 23 27 26 28 24 29 25 30REMARK H PARENT 18 23 26 31USER                              x       y       z     vdW  Elec       q    TypeUSER                           _______ _______ _______ _____ _____    ______ ____ROOTATOM      1  C   UNL     1      13.767 -14.235 -12.889 -0.34 -0.02    +0.053 C  ENDROOTBRANCH   1   2ATOM      2  C   UNL     1      14.732 -13.889 -11.723 -0.29 -0.05    +0.131 C  ATOM      3  C   UNL     1      15.819 -13.452 -10.290 -0.32 -0.04    +0.131 C  ATOM      4  C   UNL     1      16.066 -13.873 -11.621 -0.38 -0.03    +0.094 C  ATOM      5  O   UNL     1      14.554 -13.505 -10.512 -0.08 +0.21    -0.457 OA BRANCH   3   6ATOM      6  C   UNL     1      16.599 -13.130  -9.249 -0.40 -0.01    +0.055 C  BRANCH   6   7ATOM      7  C   UNL     1      16.367 -12.088  -8.233 -0.41 +0.01    -0.021 A  ATOM      8  C   UNL     1      16.667 -11.338  -5.919 -0.48 +0.00    -0.026 A  ATOM      9  C   UNL     1      15.964 -10.167  -6.220 -0.52 -0.00    +0.008 A  ATOM     10  C   UNL     1      16.870 -12.285  -6.936 -0.41 -0.00    +0.016 A  ATOM     11  C   UNL     1      15.454  -9.960  -7.501 -0.67 -0.00    +0.001 A  ATOM     12  C   UNL     1      15.651 -10.915  -8.500 -0.51 -0.00    +0.008 A  BRANCH   8  13ATOM     13  C   UNL     1      17.258 -11.579  -4.596 -0.63 +0.00    +0.000 C  ATOM     14  C   UNL     1      17.549 -10.618  -3.709 -0.63 +0.00    +0.009 C  ENDBRANCH   8  13ENDBRANCH   6   7ENDBRANCH   3   6ENDBRANCH   1   2BRANCH   1  15ATOM     15  C   UNL     1      12.817 -13.474 -13.451 -0.35 -0.04    +0.074 C  BRANCH  15  16ATOM     16  C   UNL     1      12.136 -12.385 -12.843 -0.21 -0.12    +0.242 A  ATOM     17  N   UNL     1      12.345 -11.806 -11.669 -0.32 +0.06    -0.107 NA ATOM     18  O   UNL     1      11.046 -11.795 -13.464 -0.16 +0.31    -0.404 OA ATOM     19  N   UNL     1      11.407 -10.812 -11.505 -0.49 +0.04    -0.090 NA ATOM     20  C   UNL     1      10.663 -10.836 -12.582 -0.26 -0.18    +0.322 A  BRANCH  20  21ATOM     21  N   UNL     1       9.602 -10.021 -12.842 -0.30 +0.17    -0.278 N  ATOM     22  C   UNL     1       9.236  -8.972 -12.032 -0.46 -0.05    +0.229 C  ATOM     23  H   UNL     1       9.089 -10.241 -13.683 -0.31 -0.20    +0.174 HD ATOM     24  O   UNL     1       9.775  -8.646 -10.980 -1.50 -0.08    -0.275 OA BRANCH  22  25ATOM     25  C   UNL     1       8.024  -8.241 -12.586 -0.15 -0.04    +0.119 C  BRANCH  25  26ATOM     26  C   UNL     1       7.218  -9.094 -13.562 -0.31 -0.01    +0.063 C  ATOM     27  C   UNL     1       5.789  -8.601 -13.774 -0.23 +0.01    +0.021 C  ATOM     28  N   UNL     1       7.780  -9.006 -14.920 -0.55 +0.13    -0.313 NA ATOM     29  C   UNL     1       5.425  -9.070 -15.177 -0.19 +0.01    +0.017 C  ATOM     30  C   UNL     1       6.735  -9.525 -15.801 -0.23 +0.01    +0.081 C  ATOM     31  H   UNL     1       8.621  -9.577 -15.000 -0.46 -0.24    +0.122 HD ENDBRANCH  25  26ENDBRANCH  22  25ENDBRANCH  20  21ENDBRANCH  15  16ENDBRANCH   1  15TORSDOF 9TERENDMDL