REMARK SMILES C=Cc1cccc(C=Cc2nnc(NC(=O)CC3CCN(C4CCN(C)CC4)CC3)o2)c1
REMARK SMILES IDX 10 1 11 2 12 3 13 4 31 5 9 6 8 7 7 8 3 9 4 10 32 11 5 12
REMARK SMILES IDX 6 13 2 14 1 15 14 16 15 17 16 19 17 20 18 21 19 22 30 23
REMARK SMILES IDX 20 24 29 25 21 26 22 27 23 28 28 29 24 30 27 31 25 32 26 33
REMARK H PARENT 14 18
ROOT
ATOM      1  C   UNL     1      -3.667   0.701  -2.673  1.00  0.00     0.242 A 
ATOM      2  N   UNL     1      -3.328   0.869  -3.944  1.00  0.00    -0.107 NA
ATOM      3  N   UNL     1      -2.184   1.637  -3.977  1.00  0.00    -0.090 NA
ATOM      4  C   UNL     1      -1.894   1.911  -2.728  1.00  0.00     0.322 A 
ATOM      5  O   UNL     1      -2.773   1.362  -1.850  1.00  0.00    -0.404 OA
ENDROOT
BRANCH   1   6
ATOM      6  C   UNL     1      -4.777  -0.049  -2.202  1.00  0.00     0.071 C 
BRANCH   6   7
ATOM      7  C   UNL     1      -5.010  -0.212  -0.890  1.00  0.00     0.014 C 
BRANCH   7   8
ATOM      8  C   UNL     1      -6.135  -0.977  -0.329  1.00  0.00    -0.025 A 
ATOM      9  C   UNL     1      -7.654  -1.349   1.558  1.00  0.00    -0.026 A 
ATOM     10  C   UNL     1      -8.256  -2.393   0.847  1.00  0.00     0.008 A 
ATOM     11  C   UNL     1      -6.600  -0.645   0.954  1.00  0.00     0.016 A 
ATOM     12  C   UNL     1      -7.791  -2.749  -0.419  1.00  0.00     0.001 A 
ATOM     13  C   UNL     1      -6.731  -2.052  -0.999  1.00  0.00     0.008 A 
BRANCH   9  14
ATOM     14  C   UNL     1      -8.113  -0.927   2.890  1.00  0.00     0.000 C 
ATOM     15  C   UNL     1      -8.750  -1.703   3.776  1.00  0.00     0.009 C 
ENDBRANCH   9  14
ENDBRANCH   7   8
ENDBRANCH   6   7
ENDBRANCH   1   6
BRANCH   4  16
ATOM     16  N   UNL     1      -0.827   2.640  -2.296  1.00  0.00    -0.278 N 
ATOM     17  C   UNL     1      -0.618   2.966  -0.978  1.00  0.00     0.228 C 
ATOM     18  H   UNL     1      -0.217   2.976  -3.027  1.00  0.00     0.174 HD
ATOM     19  O   UNL     1      -1.351   2.688  -0.036  1.00  0.00    -0.275 OA
BRANCH  17  20
ATOM     20  C   UNL     1       0.679   3.729  -0.762  1.00  0.00     0.104 C 
BRANCH  20  21
ATOM     21  C   UNL     1       1.863   2.862  -0.316  1.00  0.00     0.001 C 
ATOM     22  C   UNL     1       2.170   1.702  -1.269  1.00  0.00     0.020 C 
ATOM     23  C   UNL     1       1.694   2.317   1.107  1.00  0.00     0.020 C 
ATOM     24  C   UNL     1       3.381   0.898  -0.783  1.00  0.00     0.085 C 
ATOM     25  C   UNL     1       2.916   1.496   1.525  1.00  0.00     0.085 C 
ATOM     26  N   UNL     1       3.174   0.397   0.581  1.00  0.00    -0.300 NA
BRANCH  26  27
ATOM     27  C   UNL     1       4.240  -0.512   1.071  1.00  0.00     0.059 C 
ATOM     28  C   UNL     1       5.637   0.124   1.219  1.00  0.00     0.035 C 
ATOM     29  C   UNL     1       4.302  -1.843   0.290  1.00  0.00     0.035 C 
ATOM     30  C   UNL     1       6.702  -0.964   1.351  1.00  0.00     0.086 C 
ATOM     31  C   UNL     1       5.544  -1.940  -0.591  1.00  0.00     0.086 C 
ATOM     32  N   UNL     1       6.809  -1.788   0.141  1.00  0.00    -0.306 NA
ATOM     33  C   UNL     1       7.430  -3.075   0.445  1.00  0.00     0.105 C 
ENDBRANCH  26  27
ENDBRANCH  20  21
ENDBRANCH  17  20
ENDBRANCH   4  16
TORSDOF 8
