MODEL        1USER    Run = 1USERUSER    Estimated Free Energy of Binding    =  -8.98 kcal/mol  [=(1)+(2)+(3)-(4)]USERUSER    (1) Final Intermolecular Energy     = -10.17 kcal/molUSER        vdW + Hbond + desolv Energy     = -10.27 kcal/molUSER        Electrostatic Energy            =  +0.09 kcal/molUSER        Moving Ligand-Fixed Receptor    = -10.17 kcal/molUSER        Moving Ligand-Moving Receptor   =  +0.00 kcal/molUSER    (2) Final Total Internal Energy     =  -0.94 kcal/molUSER    (3) Torsional Free Energy           =  +1.19 kcal/molUSER    (4) Unbound System's Energy         =  -0.94 kcal/molUSERUSERREMARK SMILES Cn1c(-c2cccc(NC(=O)c3ccncc3)c2)nc2c(F)c(-c3c(F)cccc3F)ccc21REMARK SMILES IDX 1 1 2 2 3 3 19 4 20 5 21 6 22 7 23 8 32 9 33 10 34 11 4 12REMARK SMILES IDX 5 13 18 14 6 15 8 16 7 17 9 18 10 19 11 21 12 22 13 23 17 24REMARK SMILES IDX 14 25 16 26 15 27 24 28 25 29 30 30 27 31 29 32 28 33 26 34REMARK SMILES IDX 31 35REMARK H PARENT 9 20USER                              x       y       z     vdW  Elec       q    TypeUSER                           _______ _______ _______ _____ _____    ______ ____ROOTATOM      1  C   UNL     1      15.828 -13.531  -9.667 -0.31 -0.05    +0.152 C  ATOM      2  N   UNL     1      15.932 -14.839 -10.273 -0.12 +0.08    -0.327 N  ATOM      3  C   UNL     1      16.562 -15.950  -9.741 -0.26 -0.02    +0.141 A  ATOM      4  N   UNL     1      16.333 -17.004 -10.506 -0.19 +0.02    -0.225 NA ATOM      5  C   UNL     1      15.607 -16.559 -11.584 -0.22 -0.02    +0.125 A  ATOM      6  C   UNL     1      15.124 -17.253 -12.708 -0.26 -0.04    +0.159 A  ATOM      7  F   UNL     1      15.376 -18.567 -12.841 -0.10 +0.06    -0.204 F  ATOM      8  C   UNL     1      14.396 -16.578 -13.706 -0.33 -0.01    +0.026 A  ATOM      9  C   UNL     1      14.170 -15.198 -13.553 -0.30 -0.01    +0.014 A  ATOM     10  C   UNL     1      14.636 -14.483 -12.439 -0.34 -0.01    +0.029 A  ATOM     11  C   UNL     1      15.350 -15.197 -11.471 -0.28 -0.02    +0.071 A  ENDROOTBRANCH   3  12ATOM     12  C   UNL     1      17.340 -15.997  -8.498 -0.38 -0.00    +0.019 A  ATOM     13  C   UNL     1      18.093 -17.142  -8.206 -0.40 +0.00    +0.012 A  ATOM     14  C   UNL     1      17.390 -14.912  -7.609 -0.37 -0.00    +0.038 A  ATOM     15  C   UNL     1      18.855 -17.214  -7.042 -0.41 +0.00    +0.003 A  ATOM     16  C   UNL     1      18.131 -14.982  -6.426 -0.40 +0.00    +0.042 A  ATOM     17  C   UNL     1      18.871 -16.137  -6.154 -0.42 +0.01    +0.026 A  BRANCH  16  18ATOM     18  N   UNL     1      18.195 -13.931  -5.486 -0.23 -0.04    -0.322 N  ATOM     19  C   UNL     1      17.908 -12.597  -5.716 -0.32 +0.01    +0.255 C  ATOM     20  H   UNL     1      18.364 -14.209  -4.528 +0.11 +0.06    +0.170 HD ATOM     21  O   UNL     1      17.444 -12.115  -6.743 -0.26 +0.03    -0.269 OA BRANCH  19  22ATOM     22  C   UNL     1      18.143 -11.694  -4.557 -0.47 +0.01    +0.043 A  ATOM     23  C   UNL     1      19.431 -11.354  -4.140 -0.36 +0.00    +0.034 A  ATOM     24  C   UNL     1      17.037 -11.154  -3.900 -0.44 +0.00    +0.034 A  ATOM     25  C   UNL     1      19.553 -10.503  -3.057 -0.19 +0.02    +0.112 A  ATOM     26  C   UNL     1      17.268 -10.316  -2.826 -0.18 +0.02    +0.112 A  ATOM     27  N   UNL     1      18.502  -9.987  -2.386 -0.67 -0.08    -0.265 NA ENDBRANCH  19  22ENDBRANCH  16  18ENDBRANCH   3  12BRANCH   8  28ATOM     28  C   UNL     1      13.888 -17.295 -14.884 -0.32 -0.01    +0.056 A  ATOM     29  C   UNL     1      14.268 -16.934 -16.185 -0.31 +0.00    +0.134 A  ATOM     30  C   UNL     1      12.998 -18.372 -14.762 -0.24 -0.02    +0.134 A  ATOM     31  C   UNL     1      13.796 -17.615 -17.309 -0.39 +0.01    +0.040 A  ATOM     32  C   UNL     1      12.517 -19.062 -15.876 -0.25 -0.00    +0.040 A  ATOM     33  C   UNL     1      12.918 -18.686 -17.155 -0.41 +0.00    +0.006 A  ATOM     34  F   UNL     1      15.112 -15.909 -16.379 -0.12 +0.05    -0.206 F  ATOM     35  F   UNL     1      12.565 -18.753 -13.550 -0.11 +0.04    -0.206 F  ENDBRANCH   8  28TORSDOF 4TERENDMDL