REMARK SMILES Cn1c(-c2cccc(NC(=O)NO)c2)nc2c(F)c(-c3c(F)cccc3F)ccc21
REMARK SMILES IDX 4 1 5 2 6 3 7 4 8 5 14 6 3 7 2 8 30 9 15 10 29 11 16 12
REMARK SMILES IDX 28 13 17 14 19 15 1 16 18 17 20 18 21 19 26 20 23 21 25 22
REMARK SMILES IDX 24 23 22 24 27 25 9 26 10 27 12 28 11 30 13 32
REMARK H PARENT 9 29 12 31 13 33
ROOT
ATOM      1  C   UNL     1       2.114   1.429  -0.173  1.00  0.00     0.019 A 
ATOM      2  C   UNL     1       2.235   2.736  -0.662  1.00  0.00     0.012 A 
ATOM      3  C   UNL     1       3.491   3.308  -0.855  1.00  0.00     0.003 A 
ATOM      4  C   UNL     1       4.641   2.576  -0.562  1.00  0.00     0.026 A 
ATOM      5  C   UNL     1       4.546   1.264  -0.082  1.00  0.00     0.043 A 
ATOM      6  C   UNL     1       3.281   0.696   0.094  1.00  0.00     0.038 A 
ENDROOT
BRANCH   1   7
ATOM      7  C   UNL     1       0.773   0.854  -0.003  1.00  0.00     0.141 A 
ATOM      8  N   UNL     1       0.342   0.070   1.052  1.00  0.00    -0.327 N 
ATOM      9  C   UNL     1      -0.964  -0.305   0.814  1.00  0.00     0.071 A 
ATOM     10  N   UNL     1      -0.225   1.058  -0.846  1.00  0.00    -0.225 NA
ATOM     11  C   UNL     1      -1.868  -1.118   1.507  1.00  0.00     0.029 A 
ATOM     12  C   UNL     1      -1.296   0.338  -0.373  1.00  0.00     0.125 A 
ATOM     13  C   UNL     1      -3.151  -1.265   0.959  1.00  0.00     0.014 A 
ATOM     14  C   UNL     1      -2.591   0.178  -0.899  1.00  0.00     0.159 A 
ATOM     15  C   UNL     1      -3.536  -0.626  -0.234  1.00  0.00     0.026 A 
ATOM     16  C   UNL     1       1.085  -0.261   2.246  1.00  0.00     0.152 C 
ATOM     17  F   UNL     1      -2.922   0.781  -2.053  1.00  0.00    -0.204 F 
BRANCH  15  18
ATOM     18  C   UNL     1      -4.892  -0.800  -0.774  1.00  0.00     0.056 A 
ATOM     19  C   UNL     1      -5.387  -2.063  -1.125  1.00  0.00     0.134 A 
ATOM     20  C   UNL     1      -5.751   0.291  -0.964  1.00  0.00     0.134 A 
ATOM     21  C   UNL     1      -6.671  -2.235  -1.646  1.00  0.00     0.040 A 
ATOM     22  C   UNL     1      -7.038   0.136  -1.484  1.00  0.00     0.040 A 
ATOM     23  C   UNL     1      -7.500  -1.132  -1.829  1.00  0.00     0.006 A 
ATOM     24  F   UNL     1      -4.621  -3.154  -0.965  1.00  0.00    -0.206 F 
ATOM     25  F   UNL     1      -5.357   1.527  -0.621  1.00  0.00    -0.206 F 
ENDBRANCH  15  18
ENDBRANCH   1   7
BRANCH   5  26
ATOM     26  N   UNL     1       5.753   0.592   0.197  1.00  0.00    -0.306 N 
ATOM     27  C   UNL     1       5.913  -0.674   0.715  1.00  0.00     0.342 C 
ATOM     28  N   UNL     1       7.253  -0.998   0.872  1.00  0.00    -0.219 N 
ATOM     29  H   UNL     1       6.604   1.074  -0.056  1.00  0.00     0.171 HD
ATOM     30  O   UNL     1       5.035  -1.473   1.026  1.00  0.00    -0.246 OA
ATOM     31  H   UNL     1       7.865  -0.270   1.220  1.00  0.00     0.200 HD
BRANCH  28  32
ATOM     32  O   UNL     1       7.452  -2.250   1.522  1.00  0.00    -0.287 OA
ATOM     33  H   UNL     1       6.535  -2.601   1.587  1.00  0.00     0.246 HD
ENDBRANCH  28  32
ENDBRANCH   5  26
TORSDOF 4
