MODEL        2USER    Run = 2USERUSER    Estimated Free Energy of Binding    = -11.04 kcal/mol  [=(1)+(2)+(3)-(4)]USERUSER    (1) Final Intermolecular Energy     = -12.83 kcal/molUSER        vdW + Hbond + desolv Energy     = -12.57 kcal/molUSER        Electrostatic Energy            =  -0.27 kcal/molUSER        Moving Ligand-Fixed Receptor    = -12.83 kcal/molUSER        Moving Ligand-Moving Receptor   =  +0.00 kcal/molUSER    (2) Final Total Internal Energy     =  -1.87 kcal/molUSER    (3) Torsional Free Energy           =  +1.79 kcal/molUSER    (4) Unbound System's Energy         =  -1.87 kcal/molUSERUSERREMARK SMILES NC[C@@H]1CN(c2nc(-c3ccc(F)cc3)cc3[nH]ncc23)CC[C@@H]1CN1N=NC1=OREMARK SMILES IDX 3 1 4 2 5 3 22 4 23 5 24 6 2 7 1 8 25 11 26 12 27 13 29 14REMARK SMILES IDX 28 15 30 16 6 17 7 18 21 19 8 20 20 21 17 22 16 23 19 24REMARK SMILES IDX 18 25 9 27 10 28 15 29 11 30 14 31 12 32 13 33REMARK H PARENT 1 9 1 10 18 26USER                              x       y       z     vdW  Elec       q    TypeUSER                           _______ _______ _______ _____ _____    ______ ____ROOTATOM      1  C   UNL     1      34.135  44.763  17.043 -0.36 -0.01    +0.027 C  ATOM      2  C   UNL     1      35.239  45.792  16.693 -0.32 -0.10    +0.123 C  ATOM      3  N   UNL     1      36.539  45.162  16.392 -0.09 +0.16    -0.356 N  ATOM      4  C   UNL     1      36.486  43.944  15.605 -0.37 -0.04    +0.118 C  ATOM      5  C   UNL     1      35.708  42.859  16.354 -0.50 -0.01    +0.027 C  ATOM      6  C   UNL     1      34.747  43.396  17.430 -0.39 -0.01    +0.019 C  ENDROOTBRANCH   1   7ATOM      7  C   UNL     1      33.005  44.755  15.990 -0.33 -0.05    +0.083 C  BRANCH   7   8ATOM      8  N   UNL     1      31.834  45.562  16.302 -0.57 +0.16    -0.330 NA ATOM      9  H   UNL     1      31.523  45.362  17.255 +0.09 +0.01    +0.118 HD ATOM     10  H   UNL     1      32.114  46.543  16.325 -0.43 -0.15    +0.118 HD ENDBRANCH   7   8ENDBRANCH   1   7BRANCH   6  11ATOM     11  C   UNL     1      33.742  42.300  17.828 -0.34 -0.05    +0.156 C  BRANCH  11  12ATOM     12  N   UNL     1      32.909  42.613  18.956 -0.26 +0.01    -0.193 N  ATOM     13  N   UNL     1      33.304  43.102  20.144 -0.88 -0.01    -0.057 NA ATOM     14  C   UNL     1      31.788  43.312  19.052 -0.12 -0.02    +0.385 C  ATOM     15  N   UNL     1      32.157  43.628  20.324 -0.82 -0.01    -0.070 NA ATOM     16  O   UNL     1      30.869  43.625  18.331 -0.20 +0.01    -0.242 OA ENDBRANCH  11  12ENDBRANCH   6  11BRANCH   3  17ATOM     17  C   UNL     1      37.523  46.125  16.127 -0.28 -0.06    +0.140 A  ATOM     18  N   UNL     1      38.555  46.195  17.031 -0.25 +0.07    -0.230 NA ATOM     19  C   UNL     1      37.589  47.018  15.025 -0.38 -0.03    +0.062 A  ATOM     20  C   UNL     1      39.605  47.042  16.891 -0.42 -0.02    +0.075 A  ATOM     21  C   UNL     1      36.788  47.356  13.908 -0.40 -0.08    +0.147 A  ATOM     22  C   UNL     1      38.677  47.881  14.902 -0.46 -0.03    +0.071 A  ATOM     23  C   UNL     1      39.720  47.920  15.822 -0.49 -0.02    +0.057 A  ATOM     24  N   UNL     1      37.321  48.304  13.133 -0.85 +0.05    -0.183 NA ATOM     25  N   UNL     1      38.471  48.594  13.751 -0.21 +0.10    -0.278 N  ATOM     26  H   UNL     1      39.071  49.302  13.341 -0.17 -0.08    +0.190 HD BRANCH  20  27ATOM     27  C   UNL     1      40.641  46.934  17.938 -0.51 -0.00    +0.000 A  ATOM     28  C   UNL     1      41.740  47.816  17.943 -0.49 -0.00    +0.013 A  ATOM     29  C   UNL     1      40.571  45.972  18.965 -0.45 -0.00    +0.013 A  ATOM     30  C   UNL     1      42.713  47.761  18.942 -0.46 +0.00    +0.040 A  ATOM     31  C   UNL     1      41.544  45.914  19.964 -0.38 +0.00    +0.040 A  ATOM     32  C   UNL     1      42.606  46.809  19.945 -0.36 +0.03    +0.123 A  ATOM     33  F   UNL     1      43.530  46.761  20.913 -0.11 -0.10    -0.207 F  ENDBRANCH  20  27ENDBRANCH   3  17TORSDOF 6TERENDMDL