REMARK SMILES NC[C@@H]1CN(c2nc(-c3ccc(F)cc3)cc3[nH]ncc23)CC[C@@H]1CN1N=NC1=O
REMARK SMILES IDX 3 1 4 2 5 3 22 4 23 5 24 6 2 7 1 8 25 11 26 12 27 13 29 14
REMARK SMILES IDX 28 15 30 16 6 17 7 18 21 19 8 20 20 21 17 22 16 23 19 24
REMARK SMILES IDX 18 25 9 27 10 28 15 29 11 30 14 31 12 32 13 33
REMARK H PARENT 1 9 1 10 18 26
ROOT
ATOM      1  C   UNL     1       2.378  -0.272  -0.545  1.00  0.00     0.027 C 
ATOM      2  C   UNL     1       0.947   0.322  -0.524  1.00  0.00     0.123 C 
ATOM      3  N   UNL     1       0.318   0.261   0.809  1.00  0.00    -0.356 N 
ATOM      4  C   UNL     1       1.184   0.562   1.934  1.00  0.00     0.118 C 
ATOM      5  C   UNL     1       2.328  -0.452   2.012  1.00  0.00     0.027 C 
ATOM      6  C   UNL     1       2.627  -1.175   0.686  1.00  0.00     0.019 C 
ENDROOT
BRANCH   1   7
ATOM      7  C   UNL     1       3.441   0.805  -0.853  1.00  0.00     0.083 C 
BRANCH   7   8
ATOM      8  N   UNL     1       3.711   1.760   0.212  1.00  0.00    -0.330 NA
ATOM      9  H   UNL     1       4.367   1.352   0.882  1.00  0.00     0.118 HD
ATOM     10  H   UNL     1       4.214   2.555  -0.185  1.00  0.00     0.118 HD
ENDBRANCH   7   8
ENDBRANCH   1   7
BRANCH   6  11
ATOM     11  C   UNL     1       4.010  -1.847   0.757  1.00  0.00     0.156 C 
BRANCH  11  12
ATOM     12  N   UNL     1       4.298  -2.769  -0.307  1.00  0.00    -0.193 N 
ATOM     13  N   UNL     1       3.491  -3.732  -0.784  1.00  0.00    -0.057 NA
ATOM     14  C   UNL     1       4.779  -2.580  -1.526  1.00  0.00     0.385 C 
ATOM     15  N   UNL     1       4.077  -3.680  -1.915  1.00  0.00    -0.070 NA
ATOM     16  O   UNL     1       5.463  -1.762  -2.097  1.00  0.00    -0.242 OA
ENDBRANCH  11  12
ENDBRANCH   6  11
BRANCH   3  17
ATOM     17  C   UNL     1      -0.991   0.763   0.779  1.00  0.00     0.140 A 
ATOM     18  N   UNL     1      -1.810   0.250  -0.197  1.00  0.00    -0.230 NA
ATOM     19  C   UNL     1      -1.573   1.721   1.651  1.00  0.00     0.062 A 
ATOM     20  C   UNL     1      -3.114   0.600  -0.328  1.00  0.00     0.075 A 
ATOM     21  C   UNL     1      -1.155   2.540   2.727  1.00  0.00     0.147 A 
ATOM     22  C   UNL     1      -2.914   2.067   1.497  1.00  0.00     0.071 A 
ATOM     23  C   UNL     1      -3.729   1.519   0.512  1.00  0.00     0.057 A 
ATOM     24  N   UNL     1      -2.130   3.300   3.232  1.00  0.00    -0.183 NA
ATOM     25  N   UNL     1      -3.187   2.984   2.477  1.00  0.00    -0.278 N 
ATOM     26  H   UNL     1      -4.072   3.440   2.675  1.00  0.00     0.190 HD
BRANCH  20  27
ATOM     27  C   UNL     1      -3.845  -0.098  -1.404  1.00  0.00     0.000 A 
ATOM     28  C   UNL     1      -3.569  -1.451  -1.688  1.00  0.00     0.013 A 
ATOM     29  C   UNL     1      -4.840   0.540  -2.170  1.00  0.00     0.013 A 
ATOM     30  C   UNL     1      -4.272  -2.145  -2.674  1.00  0.00     0.040 A 
ATOM     31  C   UNL     1      -5.543  -0.152  -3.158  1.00  0.00     0.040 A 
ATOM     32  C   UNL     1      -5.254  -1.489  -3.401  1.00  0.00     0.123 A 
ATOM     33  F   UNL     1      -5.940  -2.155  -4.338  1.00  0.00    -0.207 F 
ENDBRANCH  20  27
ENDBRANCH   3  17
TORSDOF 6
