MODEL        1USER    Run = 1USERUSER    Estimated Free Energy of Binding    =  -9.23 kcal/mol  [=(1)+(2)+(3)-(4)]USERUSER    (1) Final Intermolecular Energy     = -12.22 kcal/molUSER        vdW + Hbond + desolv Energy     = -12.01 kcal/molUSER        Electrostatic Energy            =  -0.20 kcal/molUSER        Moving Ligand-Fixed Receptor    = -12.22 kcal/molUSER        Moving Ligand-Moving Receptor   =  +0.00 kcal/molUSER    (2) Final Total Internal Energy     =  -2.71 kcal/molUSER    (3) Torsional Free Energy           =  +2.98 kcal/molUSER    (4) Unbound System's Energy         =  -2.71 kcal/molUSERUSERREMARK SMILES CNS(=O)(=O)c1c(OC)ccc(O)c1C(=O)c1ccc(CN2CC[C@H](n3c(O)nc4ncccc43)C[C@H]2C)cc1REMARK SMILES IDX 17 1 18 2 19 3 20 4 39 5 40 6 15 7 16 8 14 9 6 10 7 11 10 12REMARK SMILES IDX 12 13 11 14 3 15 4 16 5 17 2 18 1 19 8 21 9 22 13 23 21 25REMARK SMILES IDX 22 26 23 27 37 28 24 29 36 30 25 31 38 32 26 33 27 34 35 35REMARK SMILES IDX 29 36 34 37 30 38 33 39 31 40 32 41 28 42REMARK H PARENT 2 20 13 24 28 43USER                              x       y       z     vdW  Elec       q    TypeUSER                           _______ _______ _______ _____ _____    ______ ____ROOTATOM      1  C   UNL     1      37.661  42.959  24.043 -0.34 +0.00    +0.023 A  ATOM      2  C   UNL     1      37.821  44.241  23.506 -0.32 +0.00    +0.012 A  ATOM      3  C   UNL     1      37.274  44.554  22.261 -0.29 +0.00    +0.006 A  ATOM      4  C   UNL     1      36.557  43.592  21.531 -0.36 -0.00    -0.034 A  ATOM      5  C   UNL     1      36.396  42.310  22.077 -0.46 +0.00    +0.006 A  ATOM      6  C   UNL     1      36.940  41.994  23.328 -0.46 +0.00    +0.012 A  ENDROOTBRANCH   1   7ATOM      7  C   UNL     1      38.224  42.696  25.394 -0.21 -0.00    +0.198 C  ATOM      8  O   UNL     1      38.026  41.614  25.950 -0.23 +0.02    -0.288 OA BRANCH   7   9ATOM      9  C   UNL     1      39.187  43.605  26.049 -0.14 -0.00    +0.088 A  ATOM     10  C   UNL     1      38.901  44.905  26.493 -0.14 -0.00    +0.139 A  ATOM     11  C   UNL     1      39.941  45.738  26.955 -0.06 +0.01    +0.139 A  ATOM     12  C   UNL     1      41.243  45.226  27.042 -0.07 +0.00    +0.052 A  ATOM     13  C   UNL     1      40.491  43.106  26.192 -0.12 -0.00    +0.128 A  ATOM     14  C   UNL     1      41.515  43.910  26.674 -0.09 +0.00    +0.051 A  BRANCH  10  15ATOM     15  S   UNL     1      37.228  45.489  26.551 -0.35 -0.03    +0.244 S  ATOM     16  O   UNL     1      37.045  46.373  25.419 -0.90 -0.02    -0.207 OA ATOM     17  O   UNL     1      36.331  44.380  26.791 -0.31 +0.04    -0.207 OA BRANCH  15  18ATOM     18  N   UNL     1      37.160  46.429  27.933 -0.19 +0.05    -0.214 NA ATOM     19  C   UNL     1      35.884  46.871  28.462 -0.34 -0.03    +0.120 C  ATOM     20  H   UNL     1      38.024  46.909  28.179 -0.17 -0.04    +0.141 HD ENDBRANCH  15  18ENDBRANCH  10  15BRANCH  11  21ATOM     21  O   UNL     1      39.624  47.024  27.311 -0.29 -0.02    -0.495 OA ATOM     22  C   UNL     1      39.674  48.026  26.303 -0.16 +0.02    +0.278 C  ENDBRANCH  11  21BRANCH  13  23ATOM     23  O   UNL     1      40.834  41.818  25.876 +0.10 +0.06    -0.507 OA ATOM     24  H   UNL     1      40.133  41.223  26.224 -0.02 -0.03    +0.293 HD ENDBRANCH  13  23ENDBRANCH   7   9ENDBRANCH   1   7BRANCH   4  25ATOM     25  C   UNL     1      35.933  43.958  20.198 -0.39 -0.01    +0.120 C  BRANCH  25  26ATOM     26  N   UNL     1      36.663  43.387  19.056 -0.11 +0.04    -0.296 NA ATOM     27  C   UNL     1      35.753  42.898  18.001 -0.30 -0.02    +0.087 C  ATOM     28  C   UNL     1      37.748  44.219  18.515 -0.31 -0.01    +0.056 C  ATOM     29  C   UNL     1      35.855  43.645  16.664 -0.41 -0.01    +0.041 C  ATOM     30  C   UNL     1      37.218  45.472  17.803 -0.38 -0.01    +0.044 C  ATOM     31  C   UNL     1      36.007  45.152  16.907 -0.32 -0.05    +0.095 C  ATOM     32  C   UNL     1      38.821  44.585  19.548 -0.41 -0.00    +0.024 C  BRANCH  31  33ATOM     33  N   UNL     1      36.007  45.936  15.679 -0.16 +0.20    -0.289 N  ATOM     34  C   UNL     1      34.956  46.111  14.822 -0.10 -0.28    +0.296 A  ATOM     35  C   UNL     1      37.074  46.620  15.142 -0.33 -0.05    +0.091 A  ATOM     36  N   UNL     1      35.246  46.849  13.786 -0.35 +0.14    -0.175 NA ATOM     37  C   UNL     1      38.403  46.821  15.520 -0.40 -0.01    +0.032 A  ATOM     38  C   UNL     1      36.560  47.175  13.969 -0.36 -0.11    +0.181 A  ATOM     39  C   UNL     1      39.161  47.605  14.652 -0.48 -0.01    +0.022 A  ATOM     40  N   UNL     1      37.290  47.936  13.123 -0.85 +0.07    -0.235 NA ATOM     41  C   UNL     1      38.573  48.122  13.504 -0.15 -0.03    +0.114 A  BRANCH  34  42ATOM     42  O   UNL     1      33.759  45.590  14.989 -0.10 +0.45    -0.480 OA ATOM     43  H   UNL     1      33.250  46.371  15.282 -0.21 -0.52    +0.296 HD ENDBRANCH  34  42ENDBRANCH  31  33ENDBRANCH  25  26ENDBRANCH   4  25TORSDOF 10TERENDMDL