REMARK SMILES CNS(=O)(=O)c1c(OC)ccc(O)c1C(=O)c1ccc(CN2CC[C@H](n3c(O)nc4ncccc43)C[C@H]2C)cc1
REMARK SMILES IDX 17 1 18 2 19 3 20 4 39 5 40 6 15 7 16 8 14 9 6 10 7 11 10 12
REMARK SMILES IDX 12 13 11 14 3 15 4 16 5 17 2 18 1 19 8 21 9 22 13 23 21 25
REMARK SMILES IDX 22 26 23 27 37 28 24 29 36 30 25 31 38 32 26 33 27 34 35 35
REMARK SMILES IDX 29 36 34 37 30 38 33 39 31 40 32 41 28 42
REMARK H PARENT 2 20 13 24 28 43
ROOT
ATOM      1  C   UNL     1      -2.607  -1.593   1.196  1.00  0.00     0.023 A 
ATOM      2  C   UNL     1      -1.849  -2.735   0.917  1.00  0.00     0.012 A 
ATOM      3  C   UNL     1      -0.456  -2.663   0.885  1.00  0.00     0.006 A 
ATOM      4  C   UNL     1       0.204  -1.449   1.133  1.00  0.00    -0.034 A 
ATOM      5  C   UNL     1      -0.561  -0.308   1.417  1.00  0.00     0.006 A 
ATOM      6  C   UNL     1      -1.959  -0.378   1.453  1.00  0.00     0.012 A 
ENDROOT
BRANCH   1   7
ATOM      7  C   UNL     1      -4.086  -1.739   1.264  1.00  0.00     0.198 C 
ATOM      8  O   UNL     1      -4.591  -2.833   1.523  1.00  0.00    -0.288 OA
BRANCH   7   9
ATOM      9  C   UNL     1      -5.005  -0.583   1.224  1.00  0.00     0.088 A 
ATOM     10  C   UNL     1      -5.081   0.356   0.184  1.00  0.00     0.139 A 
ATOM     11  C   UNL     1      -5.881   1.509   0.331  1.00  0.00     0.139 A 
ATOM     12  C   UNL     1      -6.659   1.661   1.487  1.00  0.00     0.052 A 
ATOM     13  C   UNL     1      -5.831  -0.425   2.348  1.00  0.00     0.128 A 
ATOM     14  C   UNL     1      -6.644   0.691   2.486  1.00  0.00     0.051 A 
BRANCH  10  15
ATOM     15  S   UNL     1      -4.237   0.073  -1.349  1.00  0.00     0.244 S 
ATOM     16  O   UNL     1      -3.225   1.100  -1.475  1.00  0.00    -0.207 OA
ATOM     17  O   UNL     1      -3.904  -1.329  -1.471  1.00  0.00    -0.207 OA
BRANCH  15  18
ATOM     18  N   UNL     1      -5.392   0.364  -2.523  1.00  0.00    -0.214 NA
ATOM     19  C   UNL     1      -6.410  -0.626  -2.818  1.00  0.00     0.120 C 
ATOM     20  H   UNL     1      -5.158   1.091  -3.197  1.00  0.00     0.141 HD
ENDBRANCH  15  18
ENDBRANCH  10  15
BRANCH  11  21
ATOM     21  O   UNL     1      -5.868   2.433  -0.682  1.00  0.00    -0.495 OA
ATOM     22  C   UNL     1      -6.422   3.716  -0.420  1.00  0.00     0.278 C 
ENDBRANCH  11  21
BRANCH  13  23
ATOM     23  O   UNL     1      -5.892  -1.345   3.362  1.00  0.00    -0.507 OA
ATOM     24  H   UNL     1      -5.529  -2.194   3.024  1.00  0.00     0.293 HD
ENDBRANCH  13  23
ENDBRANCH   7   9
ENDBRANCH   1   7
BRANCH   4  25
ATOM     25  C   UNL     1       1.720  -1.394   1.136  1.00  0.00     0.120 C 
BRANCH  25  26
ATOM     26  N   UNL     1       2.306  -1.877  -0.124  1.00  0.00    -0.296 NA
ATOM     27  C   UNL     1       2.087  -0.934  -1.238  1.00  0.00     0.087 C 
ATOM     28  C   UNL     1       3.703  -2.330  -0.042  1.00  0.00     0.056 C 
ATOM     29  C   UNL     1       3.365  -0.309  -1.815  1.00  0.00     0.041 C 
ATOM     30  C   UNL     1       4.677  -1.166   0.194  1.00  0.00     0.044 C 
ATOM     31  C   UNL     1       4.338   0.052  -0.686  1.00  0.00     0.095 C 
ATOM     32  C   UNL     1       3.931  -3.454   0.975  1.00  0.00     0.024 C 
BRANCH  31  33
ATOM     33  N   UNL     1       5.532   0.743  -1.153  1.00  0.00    -0.289 N 
ATOM     34  C   UNL     1       6.451   0.270  -2.049  1.00  0.00     0.296 A 
ATOM     35  C   UNL     1       5.970   1.986  -0.756  1.00  0.00     0.091 A 
ATOM     36  N   UNL     1       7.436   1.096  -2.269  1.00  0.00    -0.175 NA
ATOM     37  C   UNL     1       5.496   2.959   0.127  1.00  0.00     0.032 A 
ATOM     38  C   UNL     1       7.153   2.170  -1.473  1.00  0.00     0.181 A 
ATOM     39  C   UNL     1       6.281   4.106   0.232  1.00  0.00     0.022 A 
ATOM     40  N   UNL     1       7.919   3.280  -1.375  1.00  0.00    -0.235 NA
ATOM     41  C   UNL     1       7.446   4.211  -0.519  1.00  0.00     0.114 A 
BRANCH  34  42
ATOM     42  O   UNL     1       6.385  -0.904  -2.640  1.00  0.00    -0.480 OA
ATOM     43  H   UNL     1       7.205  -0.896  -3.172  1.00  0.00     0.296 HD
ENDBRANCH  34  42
ENDBRANCH  31  33
ENDBRANCH  25  26
ENDBRANCH   4  25
TORSDOF 10
