MODEL        6USER    Run = 6USERUSER    Estimated Free Energy of Binding    =  -9.46 kcal/mol  [=(1)+(2)+(3)-(4)]USERUSER    (1) Final Intermolecular Energy     = -10.65 kcal/molUSER        vdW + Hbond + desolv Energy     = -10.53 kcal/molUSER        Electrostatic Energy            =  -0.12 kcal/molUSER        Moving Ligand-Fixed Receptor    = -10.65 kcal/molUSER        Moving Ligand-Moving Receptor   =  +0.00 kcal/molUSER    (2) Final Total Internal Energy     =  -0.71 kcal/molUSER    (3) Torsional Free Energy           =  +1.19 kcal/molUSER    (4) Unbound System's Energy         =  -0.71 kcal/molUSERUSERREMARK SMILES Cc1cc(-c2n[nH]c3cnc(-c4cccnc4)cc23)ccc1C(=O)OREMARK SMILES IDX 1 1 2 2 3 3 4 4 20 5 21 6 22 7 23 8 24 9 25 10 5 12 6 13REMARK SMILES IDX 19 14 7 15 18 16 8 17 11 18 9 19 10 20 12 22 13 23 17 24REMARK SMILES IDX 14 25 16 26 15 27REMARK H PARENT 25 11 7 21USER                              x       y       z     vdW  Elec       q    TypeUSER                           _______ _______ _______ _____ _____    ______ ____ROOTATOM      1  C   UNL     1      36.817  46.486  15.813 -0.41 -0.03    +0.045 C  ATOM      2  C   UNL     1      38.161  47.158  15.730 -0.40 +0.02    -0.036 A  ATOM      3  C   UNL     1      39.045  47.016  16.818 -0.43 -0.00    +0.014 A  ATOM      4  C   UNL     1      40.314  47.614  16.820 -0.53 -0.00    +0.003 A  ATOM      5  C   UNL     1      40.712  48.351  15.703 -0.57 -0.00    +0.011 A  ATOM      6  C   UNL     1      39.848  48.502  14.612 -0.53 -0.01    +0.016 A  ATOM      7  C   UNL     1      38.569  47.915  14.612 -0.47 -0.03    +0.062 A  ENDROOTBRANCH   7   8ATOM      8  C   UNL     1      37.676  48.099  13.427 -0.24 -0.11    +0.335 C  ATOM      9  O   UNL     1      37.629  47.416  12.422 -1.04 +0.04    -0.246 OA BRANCH   8  10ATOM     10  O   UNL     1      36.854  49.158  13.560 -0.28 +0.25    -0.478 OA ATOM     11  H   UNL     1      37.435  49.851  13.940 -0.29 -0.23    +0.297 HD ENDBRANCH   8  10ENDBRANCH   7   8BRANCH   4  12ATOM     12  C   UNL     1      41.203  47.449  17.970 -0.45 -0.01    +0.100 A  ATOM     13  N   UNL     1      42.384  48.089  18.021 -0.44 -0.00    -0.174 NA ATOM     14  C   UNL     1      41.011  46.640  19.134 -0.39 +0.00    +0.031 A  ATOM     15  N   UNL     1      42.908  47.731  19.202 -0.39 -0.02    -0.276 N  ATOM     16  C   UNL     1      40.036  45.748  19.610 -0.37 -0.00    +0.041 A  ATOM     17  C   UNL     1      42.136  46.862  19.914 -0.35 +0.01    +0.084 A  ATOM     18  C   UNL     1      40.256  45.149  20.853 -0.30 +0.00    +0.073 A  ATOM     19  C   UNL     1      42.316  46.259  21.145 -0.26 +0.03    +0.140 A  ATOM     20  N   UNL     1      41.362  45.413  21.599 -0.15 -0.03    -0.254 NA ATOM     21  H   UNL     1      43.808  48.118  19.462 -0.49 -0.00    +0.190 HD BRANCH  18  22ATOM     22  C   UNL     1      39.305  44.197  21.455 -0.29 +0.00    +0.018 A  ATOM     23  C   UNL     1      38.013  43.974  20.953 -0.35 +0.00    +0.013 A  ATOM     24  C   UNL     1      39.650  43.443  22.580 -0.20 +0.01    +0.121 A  ATOM     25  C   UNL     1      37.154  43.064  21.570 -0.41 +0.00    +0.021 A  ATOM     26  N   UNL     1      38.838  42.553  23.209 -0.15 -0.03    -0.264 NA ATOM     27  C   UNL     1      37.607  42.385  22.686 -0.35 +0.01    +0.111 A  ENDBRANCH  18  22ENDBRANCH   4  12TORSDOF 4TERENDMDL