REMARK SMILES Cc1cc(-c2n[nH]c3cnc(-c4ccc(F)nc4)cc23)ccc1C(=O)O
REMARK SMILES IDX 1 1 2 2 3 3 4 4 21 5 22 6 23 7 24 8 25 9 26 10 5 12 6 13
REMARK SMILES IDX 20 14 7 15 19 16 8 17 11 18 9 19 10 20 12 22 13 23 18 24
REMARK SMILES IDX 14 25 17 26 15 27 16 28
REMARK H PARENT 26 11 7 21
ROOT
ATOM      1  C   UNL     1      -5.183  -0.610   1.217  1.00  0.00     0.045 C 
ATOM      2  C   UNL     1      -3.966  -0.192   0.436  1.00  0.00    -0.036 A 
ATOM      3  C   UNL     1      -2.894  -1.103   0.334  1.00  0.00     0.014 A 
ATOM      4  C   UNL     1      -1.724  -0.787  -0.372  1.00  0.00     0.003 A 
ATOM      5  C   UNL     1      -1.635   0.454  -1.006  1.00  0.00     0.011 A 
ATOM      6  C   UNL     1      -2.689   1.369  -0.918  1.00  0.00     0.016 A 
ATOM      7  C   UNL     1      -3.858   1.063  -0.198  1.00  0.00     0.062 A 
ENDROOT
BRANCH   7   8
ATOM      8  C   UNL     1      -4.964   2.068  -0.130  1.00  0.00     0.335 C 
ATOM      9  O   UNL     1      -6.055   1.934   0.390  1.00  0.00    -0.246 OA
BRANCH   8  10
ATOM     10  O   UNL     1      -4.641   3.232  -0.726  1.00  0.00    -0.478 OA
ATOM     11  H   UNL     1      -5.444   3.781  -0.605  1.00  0.00     0.297 HD
ENDBRANCH   8  10
ENDBRANCH   7   8
BRANCH   4  12
ATOM     12  C   UNL     1      -0.631  -1.755  -0.451  1.00  0.00     0.100 A 
ATOM     13  N   UNL     1      -0.883  -3.061  -0.645  1.00  0.00    -0.174 NA
ATOM     14  C   UNL     1       0.775  -1.520  -0.331  1.00  0.00     0.031 A 
ATOM     15  N   UNL     1       0.329  -3.633  -0.689  1.00  0.00    -0.276 N 
ATOM     16  C   UNL     1       1.612  -0.417  -0.088  1.00  0.00     0.041 A 
ATOM     17  C   UNL     1       1.363  -2.764  -0.503  1.00  0.00     0.084 A 
ATOM     18  C   UNL     1       2.989  -0.644  -0.050  1.00  0.00     0.073 A 
ATOM     19  C   UNL     1       2.732  -2.950  -0.468  1.00  0.00     0.140 A 
ATOM     20  N   UNL     1       3.527  -1.877  -0.248  1.00  0.00    -0.254 NA
ATOM     21  H   UNL     1       0.379  -4.634  -0.846  1.00  0.00     0.190 HD
BRANCH  18  22
ATOM     22  C   UNL     1       3.967   0.432   0.198  1.00  0.00     0.019 A 
ATOM     23  C   UNL     1       3.680   1.573   0.964  1.00  0.00     0.016 A 
ATOM     24  C   UNL     1       5.265   0.364  -0.321  1.00  0.00     0.124 A 
ATOM     25  C   UNL     1       4.650   2.558   1.158  1.00  0.00     0.061 A 
ATOM     26  N   UNL     1       6.229   1.307  -0.156  1.00  0.00    -0.228 NA
ATOM     27  C   UNL     1       5.893   2.380   0.582  1.00  0.00     0.212 A 
ATOM     28  F   UNL     1       6.825   3.326   0.765  1.00  0.00    -0.185 F 
ENDBRANCH  18  22
ENDBRANCH   4  12
TORSDOF 4
