REMARK SMILES c1ccc(-c2n[nH]c3cnc(-c4cccnc4)cc23)cc1
REMARK SMILES IDX 5 1 6 2 7 3 8 4 9 5 10 6 11 7 18 8 19 9 4 11 1 12 2 13 21 14
REMARK SMILES IDX 3 15 20 16 12 17 13 18 17 19 14 20 16 21 15 22
REMARK H PARENT 7 10
ROOT
ATOM      1  C   UNL     1       1.877  -1.262   0.334  1.00  0.00     0.100 A 
ATOM      2  N   UNL     1       2.290  -2.525   0.543  1.00  0.00    -0.174 NA
ATOM      3  N   UNL     1       1.174  -3.261   0.451  1.00  0.00    -0.276 N 
ATOM      4  C   UNL     1       0.043  -2.535   0.222  1.00  0.00     0.084 A 
ATOM      5  C   UNL     1      -1.282  -2.906   0.087  1.00  0.00     0.140 A 
ATOM      6  N   UNL     1      -2.207  -1.941  -0.123  1.00  0.00    -0.254 NA
ATOM      7  C   UNL     1      -1.841  -0.633  -0.201  1.00  0.00     0.073 A 
ATOM      8  C   UNL     1      -0.513  -0.222  -0.062  1.00  0.00     0.041 A 
ATOM      9  C   UNL     1       0.459  -1.215   0.145  1.00  0.00     0.031 A 
ATOM     10  H   UNL     1       1.255  -4.265   0.565  1.00  0.00     0.190 HD
ENDROOT
BRANCH   1  11
ATOM     11  C   UNL     1       2.831  -0.152   0.334  1.00  0.00     0.003 A 
ATOM     12  C   UNL     1       4.666   1.971   0.361  1.00  0.00     0.000 A 
ATOM     13  C   UNL     1       3.653   1.937  -0.596  1.00  0.00     0.001 A 
ATOM     14  C   UNL     1       4.774   0.945   1.298  1.00  0.00     0.001 A 
ATOM     15  C   UNL     1       2.741   0.878  -0.612  1.00  0.00     0.010 A 
ATOM     16  C   UNL     1       3.863  -0.113   1.282  1.00  0.00     0.010 A 
ENDBRANCH   1  11
BRANCH   7  17
ATOM     17  C   UNL     1      -2.949   0.316  -0.428  1.00  0.00     0.018 A 
ATOM     18  C   UNL     1      -4.254   0.044   0.012  1.00  0.00     0.013 A 
ATOM     19  C   UNL     1      -2.783   1.530  -1.096  1.00  0.00     0.121 A 
ATOM     20  C   UNL     1      -5.287   0.954  -0.207  1.00  0.00     0.021 A 
ATOM     21  N   UNL     1      -3.763   2.443  -1.323  1.00  0.00    -0.264 NA
ATOM     22  C   UNL     1      -4.994   2.130  -0.872  1.00  0.00     0.111 A 
ENDBRANCH   7  17
TORSDOF 2
