MODEL        3USER    Run = 3USERUSER    Estimated Free Energy of Binding    =  -6.22 kcal/mol  [=(1)+(2)+(3)-(4)]USERUSER    (1) Final Intermolecular Energy     = -10.70 kcal/molUSER        vdW + Hbond + desolv Energy     = -10.74 kcal/molUSER        Electrostatic Energy            =  -0.53 kcal/molUSER        Moving Ligand-Fixed Receptor    = -11.27 kcal/molUSER        Moving Ligand-Moving Receptor   =  +0.57 kcal/molUSER    (2) Final Total Internal Energy     =  -2.20 kcal/molUSER    (3) Torsional Free Energy           =  +4.47 kcal/molUSER    (4) Unbound System's Energy         =  -2.20 kcal/molUSERUSERREMARK SMILES COc1ccc(O)c(C(=O)c2ccc(C(=O)O[C@@H]3CCCNC[C@H]3NC(=O)c3ccncc3)cc2)c1FREMARK SMILES IDX 17 1 15 2 16 3 14 4 11 5 12 6 35 7 13 8 34 9 9 10 10 11 8 12REMARK SMILES IDX 3 13 4 14 36 15 5 16 6 17 37 18 2 19 1 20 7 21 18 23 24 25REMARK SMILES IDX 23 26 22 27 21 29 20 30 19 31 25 33 26 34 27 36 28 37 29 38REMARK SMILES IDX 33 39 30 40 32 41 31 42REMARK H PARENT 7 22 22 28 25 35REMARK Flexibility Score:   99.900USER                              x       y       z     vdW  Elec       q    TypeUSER                           _______ _______ _______ _____ _____    ______ ____ROOTATOM      1  O   UNL     1      33.369  43.443  16.304 -0.09 +0.21    -0.457 OA ENDROOTBRANCH   1   2ATOM      2  C   UNL     1      32.566  44.460  16.706 -0.14 -0.15    +0.338 C  ATOM      3  O   UNL     1      32.913  45.593  17.007 -0.33 +0.18    -0.246 OA BRANCH   2   4ATOM      4  C   UNL     1      31.150  44.015  16.686 -0.26 -0.02    +0.060 A  ATOM      5  C   UNL     1      28.451  43.247  16.630 -0.23 -0.01    +0.023 A  ATOM      6  C   UNL     1      29.416  42.388  17.172 -0.22 -0.00    +0.013 A  ATOM      7  C   UNL     1      28.843  44.493  16.121 -0.29 -0.00    +0.013 A  ATOM      8  C   UNL     1      30.761  42.771  17.200 -0.27 -0.00    +0.016 A  ATOM      9  C   UNL     1      30.186  44.881  16.158 -0.31 -0.00    +0.016 A  BRANCH   5  10ATOM     10  C   UNL     1      27.011  42.877  16.551 -0.17 -0.05    +0.199 C  ATOM     11  O   UNL     1      26.515  42.096  17.356 -0.11 +0.04    -0.288 OA BRANCH  10  12ATOM     12  C   UNL     1      26.151  43.438  15.503 -0.23 -0.04    +0.104 A  ATOM     13  C   UNL     1      24.878  45.321  14.657 -0.24 +0.01    +0.155 A  ATOM     14  C   UNL     1      24.468  44.537  13.571 -0.27 +0.00    +0.053 A  ATOM     15  C   UNL     1      25.717  44.756  15.624 -0.23 -0.00    +0.179 A  ATOM     16  C   UNL     1      24.917  43.216  13.441 -0.30 -0.01    +0.051 A  ATOM     17  C   UNL     1      25.765  42.672  14.404 -0.20 -0.08    +0.130 A  ATOM     18  F   UNL     1      26.143  45.508  16.652 -0.05 -0.05    -0.202 F  BRANCH  13  19ATOM     19  O   UNL     1      24.545  46.635  14.858 -0.76 -0.22    -0.494 OA ATOM     20  C   UNL     1      23.502  47.175  14.058 -0.23 +0.03    +0.278 C  ENDBRANCH  13  19BRANCH  17  21ATOM     21  O   UNL     1      26.223  41.393  14.271 -0.08 +0.38    -0.507 OA ATOM     22  H   UNL     1      26.808  41.326  13.500 +0.01 -0.62    +0.293 HD ENDBRANCH  17  21ENDBRANCH  10  12ENDBRANCH   5  10ENDBRANCH   2   4ENDBRANCH   1   2BRANCH   1  23ATOM     23  C   UNL     1      34.418  43.040  17.224 -0.29 -0.07    +0.200 CG0ATOM     24  G   UNL     1      33.731  42.509  18.482 +0.00 +0.00    +0.000 G0 BRANCH  23  25ATOM     25  C   UNL     1      35.312  44.274  17.461 -0.27 -0.05    +0.137 C  BRANCH  25  26ATOM     26  C   UNL     1      36.700  43.955  18.053 -0.28 -0.02    +0.109 C  BRANCH  26  27ATOM     27  N   UNL     1      36.716  43.816  19.511 -0.15 +0.03    -0.315 NA ATOM     28  H   UNL     1      37.130  44.660  19.907 +0.07 -0.01    +0.122 HD BRANCH  27  29ATOM     29  C   UNL     1      35.415  43.591  20.149 -0.42 -0.00    +0.081 C  BRANCH  29  30ATOM     30  C   UNL     1      34.606  42.359  19.726 -0.45 -0.00    +0.019 C  BRANCH  30  31ATOM     31  C   UNL     1      33.730  42.510  18.476 -0.41 -0.01    +0.049 CG0ATOM     32  G   UNL     1      34.423  43.040  17.222 +0.00 +0.00    +0.000 G0 ENDBRANCH  30  31ENDBRANCH  29  30ENDBRANCH  27  29ENDBRANCH  26  27ENDBRANCH  25  26BRANCH  25  33ATOM     33  N   UNL     1      35.458  45.012  16.199 -0.09 +0.19    -0.344 N  ATOM     34  C   UNL     1      36.490  45.890  15.978 -0.24 -0.15    +0.251 C  ATOM     35  H   UNL     1      34.967  44.626  15.404 +0.11 -0.09    +0.164 HD ATOM     36  O   UNL     1      37.340  46.171  16.813 -0.24 +0.12    -0.269 OA BRANCH  34  37ATOM     37  C   UNL     1      36.542  46.500  14.628 -0.39 -0.03    +0.042 A  ATOM     38  C   UNL     1      36.545  45.660  13.516 -0.45 -0.01    +0.034 A  ATOM     39  C   UNL     1      36.628  47.881  14.459 -0.40 -0.03    +0.034 A  ATOM     40  C   UNL     1      36.608  46.246  12.265 -0.55 -0.04    +0.112 A  ATOM     41  C   UNL     1      36.693  48.365  13.166 -0.42 -0.05    +0.112 A  ATOM     42  N   UNL     1      36.678  47.579  12.067 -0.88 +0.10    -0.265 NA ENDBRANCH  34  37ENDBRANCH  25  33ENDBRANCH  23  25ENDBRANCH   1  23TORSDOF 9TERENDMDL