MODEL        3USER    Run = 3USERUSER    Estimated Free Energy of Binding    = -13.00 kcal/mol  [=(1)+(2)+(3)-(4)]USERUSER    (1) Final Intermolecular Energy     = -14.79 kcal/molUSER        vdW + Hbond + desolv Energy     = -14.73 kcal/molUSER        Electrostatic Energy            =  -0.06 kcal/molUSER        Moving Ligand-Fixed Receptor    = -14.79 kcal/molUSER        Moving Ligand-Moving Receptor   =  +0.00 kcal/molUSER    (2) Final Total Internal Energy     =  -0.54 kcal/molUSER    (3) Torsional Free Energy           =  +1.79 kcal/molUSER    (4) Unbound System's Energy         =  -0.54 kcal/molUSERUSERREMARK SMILES Cn1ccc2ccc3c4[nH]c5c(CCCN[C@H]6CC[C@H](O)CC6)cccc5c4c4c(c3c21)C(=O)NC4=OREMARK SMILES IDX 15 1 14 2 13 3 12 4 2 5 3 6 32 7 4 8 31 9 5 10 30 11 8 12REMARK SMILES IDX 6 13 29 14 33 15 7 16 9 17 28 18 36 19 35 20 10 21 27 22REMARK SMILES IDX 11 23 26 24 25 25 24 26 1 27 34 28 37 29 16 32 17 34 23 35REMARK SMILES IDX 18 36 22 37 19 38 20 39 21 40REMARK H PARENT 35 30 10 31 16 33 21 41USER                              x       y       z     vdW  Elec       q    TypeUSER                           _______ _______ _______ _____ _____    ______ ____ROOTATOM      1  C   UNL     1      36.764  42.107  24.603 -0.42 -0.00    +0.081 C  ENDROOTBRANCH   1   2ATOM      2  C   UNL     1      37.278  43.431  24.030 -0.40 +0.00    +0.020 C  BRANCH   2   3ATOM      3  C   UNL     1      38.098  43.252  22.748 -0.37 +0.00    +0.039 C  BRANCH   3   4ATOM      4  C   UNL     1      37.265  43.083  21.501 -0.39 -0.00    -0.024 A  ATOM      5  N   UNL     1      39.438  48.294  14.918 -0.25 +0.13    -0.350 N  ATOM      6  C   UNL     1      40.571  49.038  14.684 -0.50 -0.02    +0.086 A  ATOM      7  C   UNL     1      39.613  47.474  16.027 -0.46 -0.02    +0.057 A  ATOM      8  C   UNL     1      41.407  48.876  15.756 -0.47 -0.00    +0.028 A  ATOM      9  C   UNL     1      38.843  46.404  16.618 -0.40 -0.01    +0.022 A  ATOM     10  C   UNL     1      40.783  47.959  16.642 -0.54 -0.00    +0.000 A  ATOM     11  C   UNL     1      37.803  45.654  16.046 -0.32 -0.02    +0.063 A  ATOM     12  C   UNL     1      39.199  46.056  17.958 -0.42 -0.00    +0.009 A  ATOM     13  C   UNL     1      41.145  47.504  17.920 -0.51 -0.00    +0.011 A  ATOM     14  C   UNL     1      37.048  44.730  16.779 -0.30 -0.02    +0.063 A  ATOM     15  C   UNL     1      37.358  45.496  14.651 -0.27 -0.10    +0.259 C  ATOM     16  C   UNL     1      40.328  46.600  18.590 -0.42 -0.00    +0.012 A  ATOM     17  C   UNL     1      38.403  45.112  18.681 -0.36 -0.01    +0.055 A  ATOM     18  C   UNL     1      37.303  44.448  18.123 -0.33 -0.00    +0.022 A  ATOM     19  C   UNL     1      36.072  44.126  15.874 -0.26 -0.10    +0.259 C  ATOM     20  N   UNL     1      36.242  44.724  14.670 -0.19 +0.12    -0.288 N  ATOM     21  N   UNL     1      38.507  44.658  19.977 -0.15 +0.01    -0.354 N  ATOM     22  C   UNL     1      36.742  43.602  19.139 -0.30 -0.00    +0.008 A  ATOM     23  C   UNL     1      37.517  43.758  20.290 -0.32 -0.00    +0.050 A  ATOM     24  C   UNL     1      35.647  42.716  19.198 -0.39 -0.00    +0.011 A  ATOM     25  C   UNL     1      35.369  42.027  20.382 -0.37 +0.00    +0.001 A  ATOM     26  C   UNL     1      36.164  42.209  21.509 -0.49 +0.00    +0.006 A  ATOM     27  C   UNL     1      38.206  48.597  14.221 -0.39 -0.08    +0.149 C  ATOM     28  O   UNL     1      37.929  45.873  13.648 -0.29 +0.08    -0.269 OA ATOM     29  O   UNL     1      35.297  43.223  16.112 -0.31 +0.11    -0.269 OA ATOM     30  H   UNL     1      35.826  44.355  13.829 +0.13 -0.07    +0.173 HD ATOM     31  H   UNL     1      39.208  44.963  20.634 +0.10 +0.00    +0.167 HD ENDBRANCH   3   4ENDBRANCH   2   3ENDBRANCH   1   2BRANCH   1  32ATOM     32  N   UNL     1      37.630  41.692  25.708 -0.15 +0.03    -0.314 NA ATOM     33  H   UNL     1      37.908  40.719  25.588 -0.28 -0.01    +0.122 HD BRANCH  32  34ATOM     34  C   UNL     1      37.002  41.875  27.024 -0.48 -0.01    +0.053 C  ATOM     35  C   UNL     1      37.232  43.283  27.612 -0.41 -0.00    +0.021 C  ATOM     36  C   UNL     1      35.503  41.557  26.856 -0.65 -0.01    +0.021 C  ATOM     37  C   UNL     1      36.088  44.243  27.290 -0.47 -0.01    +0.033 C  ATOM     38  C   UNL     1      34.673  42.214  27.951 -0.47 -0.01    +0.033 C  ATOM     39  C   UNL     1      34.761  43.741  27.873 -0.58 -0.03    +0.114 C  BRANCH  39  40ATOM     40  O   UNL     1      34.590  44.254  29.193 -0.41 +0.11    -0.393 OA ATOM     41  H   UNL     1      35.133  43.712  29.792 -0.45 -0.12    +0.210 HD ENDBRANCH  39  40ENDBRANCH  32  34ENDBRANCH   1  32TORSDOF 6TERENDMDL