MODEL        6USER    Run = 6USERUSER    Estimated Free Energy of Binding    =  -7.73 kcal/mol  [=(1)+(2)+(3)-(4)]USERUSER    (1) Final Intermolecular Energy     = -12.20 kcal/molUSER        vdW + Hbond + desolv Energy     = -12.12 kcal/molUSER        Electrostatic Energy            =  -0.28 kcal/molUSER        Moving Ligand-Fixed Receptor    = -12.40 kcal/molUSER        Moving Ligand-Moving Receptor   =  +0.20 kcal/molUSER    (2) Final Total Internal Energy     =  -2.03 kcal/molUSER    (3) Torsional Free Energy           =  +4.47 kcal/molUSER    (4) Unbound System's Energy         =  -2.03 kcal/molUSERUSERREMARK SMILES COc1ccc(O)c(C(=O)c2ccc(/C=C/[C@@H]3CCCNC[C@H]3NC(=O)c3ccncc3)cc2)c1FREMARK SMILES IDX 16 1 15 2 14 3 11 4 12 5 34 6 13 7 33 8 9 9 10 10 8 11 3 12REMARK SMILES IDX 4 13 35 14 5 15 6 16 36 17 2 18 1 19 7 20 17 22 18 23 23 25REMARK SMILES IDX 22 26 21 27 20 29 19 30 24 32 25 33 26 35 27 36 28 37 32 38REMARK SMILES IDX 29 39 31 40 30 41REMARK H PARENT 7 21 21 28 24 34REMARK Flexibility Score:   99.900USER                              x       y       z     vdW  Elec       q    TypeUSER                           _______ _______ _______ _____ _____    ______ ____ROOTATOM      1  C   UNL     1      39.372  44.325  18.335 -0.37 +0.00    -0.021 C  ENDROOTBRANCH   1   2ATOM      2  C   UNL     1      40.176  45.379  18.124 -0.50 -0.00    +0.004 C  BRANCH   2   3ATOM      3  C   UNL     1      41.160  45.855  19.105 -0.45 -0.00    -0.026 A  ATOM      4  C   UNL     1      43.054  46.687  21.002 -0.35 +0.01    +0.023 A  ATOM      5  C   UNL     1      42.248  45.575  21.263 -0.29 +0.00    +0.013 A  ATOM      6  C   UNL     1      42.944  47.360  19.782 -0.46 +0.00    +0.013 A  ATOM      7  C   UNL     1      41.309  45.160  20.312 -0.37 +0.00    +0.009 A  ATOM      8  C   UNL     1      41.995  46.950  18.843 -0.53 +0.00    +0.009 A  BRANCH   4   9ATOM      9  C   UNL     1      44.079  47.136  21.969 -0.26 +0.09    +0.199 C  ATOM     10  O   UNL     1      45.264  46.894  21.733 -0.76 -0.36    -0.288 OA BRANCH   9  11ATOM     11  C   UNL     1      43.743  47.820  23.238 -0.26 +0.02    +0.104 A  ATOM     12  C   UNL     1      42.113  48.716  24.816 -0.28 +0.03    +0.155 A  ATOM     13  C   UNL     1      43.153  49.120  25.654 -0.25 +0.01    +0.053 A  ATOM     14  C   UNL     1      42.420  48.069  23.609 -0.25 +0.03    +0.179 A  ATOM     15  C   UNL     1      44.481  48.901  25.278 -0.23 +0.01    +0.051 A  ATOM     16  C   UNL     1      44.772  48.269  24.074 -0.18 +0.03    +0.130 A  ATOM     17  F   UNL     1      41.413  47.720  22.792 -0.05 -0.03    -0.202 F  BRANCH  12  18ATOM     18  O   UNL     1      40.779  48.892  25.066 -0.14 -0.08    -0.494 OA ATOM     19  C   UNL     1      40.009  47.731  25.348 -0.16 +0.03    +0.278 C  ENDBRANCH  12  18BRANCH  16  20ATOM     20  O   UNL     1      46.099  48.121  23.770 -0.05 -0.15    -0.507 OA ATOM     21  H   UNL     1      46.162  47.553  22.967 +0.08 +0.15    +0.293 HD ENDBRANCH  16  20ENDBRANCH   9  11ENDBRANCH   4   9ENDBRANCH   2   3ENDBRANCH   1   2BRANCH   1  22ATOM     22  C   UNL     1      37.861  44.378  18.554 -0.38 -0.00    +0.035 C  BRANCH  22  23ATOM     23  C   UNL     1      37.570  43.585  19.844 -0.33 -0.00    +0.011 CG0ATOM     24  G   UNL     1      36.458  44.080  20.763 +0.00 +0.00    +0.000 G0 ENDBRANCH  22  23BRANCH  22  25ATOM     25  C   UNL     1      36.967  43.977  17.342 -0.28 -0.03    +0.103 C  BRANCH  25  26ATOM     26  C   UNL     1      35.489  43.760  17.780 -0.30 -0.03    +0.106 C  BRANCH  26  27ATOM     27  N   UNL     1      34.964  44.587  18.860 -0.16 +0.09    -0.315 NA ATOM     28  H   UNL     1      34.000  44.847  18.648 +0.08 -0.04    +0.122 HD BRANCH  27  29ATOM     29  C   UNL     1      35.052  44.001  20.189 -0.34 -0.01    +0.081 C  BRANCH  29  30ATOM     30  C   UNL     1      36.459  44.079  20.762 -0.44 -0.00    +0.016 CG0ATOM     31  G   UNL     1      37.572  43.587  19.843 +0.00 +0.00    +0.000 G0 ENDBRANCH  29  30ENDBRANCH  27  29ENDBRANCH  26  27ENDBRANCH  25  26BRANCH  25  32ATOM     32  N   UNL     1      36.995  45.008  16.294 -0.11 +0.13    -0.347 N  ATOM     33  C   UNL     1      36.765  44.705  14.970 -0.26 -0.10    +0.251 C  ATOM     34  H   UNL     1      36.997  45.976  16.587 +0.11 -0.08    +0.164 HD ATOM     35  O   UNL     1      36.528  43.574  14.565 -0.23 +0.09    -0.269 OA BRANCH  33  36ATOM     36  C   UNL     1      36.785  45.849  14.025 -0.40 -0.02    +0.042 A  ATOM     37  C   UNL     1      36.605  45.671  12.653 -0.54 -0.01    +0.034 A  ATOM     38  C   UNL     1      36.955  47.132  14.541 -0.42 -0.02    +0.034 A  ATOM     39  C   UNL     1      36.631  46.796  11.850 -0.57 -0.05    +0.112 A  ATOM     40  C   UNL     1      36.969  48.191  13.653 -0.48 -0.06    +0.112 A  ATOM     41  N   UNL     1      36.820  48.049  12.318 -0.97 +0.07    -0.265 NA ENDBRANCH  33  36ENDBRANCH  25  32ENDBRANCH  22  25ENDBRANCH   1  22TORSDOF 9TERENDMDL