MODEL        6USER    Run = 6USERUSER    Estimated Free Energy of Binding    =  -7.21 kcal/mol  [=(1)+(2)+(3)-(4)]USERUSER    (1) Final Intermolecular Energy     = -11.69 kcal/molUSER        vdW + Hbond + desolv Energy     = -11.65 kcal/molUSER        Electrostatic Energy            =  -0.22 kcal/molUSER        Moving Ligand-Fixed Receptor    = -11.87 kcal/molUSER        Moving Ligand-Moving Receptor   =  +0.19 kcal/molUSER    (2) Final Total Internal Energy     =  -1.58 kcal/molUSER    (3) Torsional Free Energy           =  +4.47 kcal/molUSER    (4) Unbound System's Energy         =  -1.58 kcal/molUSERUSERREMARK SMILES COc1ccc(O)c(C(=O)c2ccc(CN[C@@H]3CCCNC[C@H]3NC(=O)c3ccncc3)cc2)c1FREMARK SMILES IDX 16 1 15 3 14 4 11 5 12 6 34 7 13 8 33 9 9 10 10 11 8 12 3 13REMARK SMILES IDX 4 14 35 15 5 16 6 17 36 18 2 19 1 20 7 21 17 23 18 24 23 26REMARK SMILES IDX 22 27 21 28 20 30 19 31 24 33 25 34 26 36 27 37 28 38 32 39REMARK SMILES IDX 29 40 31 41 30 42REMARK H PARENT 16 2 7 22 21 29 24 35REMARK Flexibility Score:   99.900USER                              x       y       z     vdW  Elec       q    TypeUSER                           _______ _______ _______ _____ _____    ______ ____ROOTATOM      1  N   UNL     1      38.741  45.589  23.991 -0.15 -0.03    -0.308 NA ATOM      2  H   UNL     1      38.202  45.352  23.155 +0.05 +0.01    +0.123 HD ENDROOTBRANCH   1   3ATOM      3  C   UNL     1      40.093  45.978  23.583 -0.21 +0.01    +0.117 C  BRANCH   3   4ATOM      4  C   UNL     1      40.297  45.977  22.087 -0.23 -0.00    -0.034 A  ATOM      5  C   UNL     1      40.654  45.975  19.297 -0.42 +0.00    +0.023 A  ATOM      6  C   UNL     1      39.434  45.570  19.847 -0.37 -0.00    +0.012 A  ATOM      7  C   UNL     1      41.702  46.356  20.143 -0.38 +0.00    +0.012 A  ATOM      8  C   UNL     1      39.256  45.580  21.233 -0.31 +0.00    +0.006 A  ATOM      9  C   UNL     1      41.522  46.363  21.528 -0.26 +0.00    +0.006 A  BRANCH   5  10ATOM     10  C   UNL     1      40.905  45.943  17.836 -0.40 -0.01    +0.199 C  ATOM     11  O   UNL     1      41.753  45.167  17.393 -0.23 -0.01    -0.288 OA BRANCH  10  12ATOM     12  C   UNL     1      40.144  46.756  16.864 -0.41 -0.02    +0.104 A  ATOM     13  C   UNL     1      38.207  47.120  15.429 -0.32 -0.07    +0.155 A  ATOM     14  C   UNL     1      38.749  48.337  15.010 -0.49 -0.03    +0.053 A  ATOM     15  C   UNL     1      38.910  46.342  16.360 -0.29 -0.05    +0.179 A  ATOM     16  C   UNL     1      39.967  48.779  15.534 -0.54 -0.02    +0.051 A  ATOM     17  C   UNL     1      40.649  48.000  16.466 -0.45 -0.02    +0.130 A  ATOM     18  F   UNL     1      38.360  45.192  16.785 -0.08 +0.05    -0.202 F  BRANCH  13  19ATOM     19  O   UNL     1      37.015  46.596  15.004 -0.06 +0.28    -0.494 OA ATOM     20  C   UNL     1      35.921  46.647  15.910 -0.19 -0.27    +0.278 C  ENDBRANCH  13  19BRANCH  17  21ATOM     21  O   UNL     1      41.816  48.522  16.957 -0.58 -0.04    -0.507 OA ATOM     22  H   UNL     1      42.398  47.768  17.210 -0.35 -0.04    +0.293 HD ENDBRANCH  17  21ENDBRANCH  10  12ENDBRANCH   5  10ENDBRANCH   3   4ENDBRANCH   1   3BRANCH   1  23ATOM     23  C   UNL     1      38.009  46.654  24.731 -0.24 +0.01    +0.077 C  BRANCH  23  24ATOM     24  C   UNL     1      38.705  47.985  24.418 -0.44 +0.00    +0.022 CG0ATOM     25  G   UNL     1      37.816  49.224  24.513 +0.00 +0.00    +0.000 G0 ENDBRANCH  23  24BRANCH  23  26ATOM     26  C   UNL     1      37.973  46.313  26.254 -0.28 -0.00    +0.113 C  BRANCH  26  27ATOM     27  C   UNL     1      37.426  47.492  27.095 -0.31 -0.01    +0.107 C  BRANCH  27  28ATOM     28  N   UNL     1      38.078  48.794  26.988 -0.12 -0.01    -0.315 NA ATOM     29  H   UNL     1      39.083  48.653  26.864 +0.05 +0.01    +0.122 HD BRANCH  28  30ATOM     30  C   UNL     1      37.608  49.699  25.950 -0.10 +0.01    +0.081 C  BRANCH  30  31ATOM     31  C   UNL     1      37.815  49.224  24.514 -0.36 +0.00    +0.017 CG0ATOM     32  G   UNL     1      38.705  47.986  24.420 +0.00 +0.00    +0.000 G0 ENDBRANCH  30  31ENDBRANCH  28  30ENDBRANCH  27  28ENDBRANCH  26  27BRANCH  26  33ATOM     33  N   UNL     1      37.133  45.119  26.472 -0.14 +0.04    -0.346 N  ATOM     34  C   UNL     1      37.683  43.910  26.840 -0.20 -0.02    +0.251 C  ATOM     35  H   UNL     1      36.132  45.239  26.429 -0.35 -0.05    +0.164 HD ATOM     36  O   UNL     1      38.890  43.716  26.917 -0.12 +0.01    -0.269 OA BRANCH  34  37ATOM     37  C   UNL     1      36.734  42.801  27.121 -0.38 -0.01    +0.042 A  ATOM     38  C   UNL     1      35.397  42.975  26.761 -0.47 -0.01    +0.034 A  ATOM     39  C   UNL     1      37.144  41.598  27.696 -0.46 -0.01    +0.034 A  ATOM     40  C   UNL     1      34.514  41.945  27.021 -0.38 -0.03    +0.112 A  ATOM     41  C   UNL     1      36.182  40.627  27.912 -0.37 -0.05    +0.112 A  ATOM     42  N   UNL     1      34.879  40.778  27.597 -0.34 +0.14    -0.265 NA ENDBRANCH  34  37ENDBRANCH  26  33ENDBRANCH  23  26ENDBRANCH   1  23TORSDOF 9TERENDMDL