MODEL        3USER    Run = 3USERUSER    Estimated Free Energy of Binding    =  -6.62 kcal/mol  [=(1)+(2)+(3)-(4)]USERUSER    (1) Final Intermolecular Energy     = -11.09 kcal/molUSER        vdW + Hbond + desolv Energy     = -11.02 kcal/molUSER        Electrostatic Energy            =  -0.29 kcal/molUSER        Moving Ligand-Fixed Receptor    = -11.31 kcal/molUSER        Moving Ligand-Moving Receptor   =  +0.22 kcal/molUSER    (2) Final Total Internal Energy     =  -3.71 kcal/molUSER    (3) Torsional Free Energy           =  +4.47 kcal/molUSER    (4) Unbound System's Energy         =  -3.71 kcal/molUSERUSERREMARK SMILES COc1ccc(O)c(C(=O)c2ccc(CO[C@@H]3CCCNC[C@@H]3NC(=O)c3ccncc3)cc2)c1FREMARK SMILES IDX 16 1 15 2 14 3 11 4 12 5 34 6 13 7 33 8 9 9 10 10 8 11 3 12REMARK SMILES IDX 4 13 35 14 5 15 6 16 36 17 2 18 1 19 7 20 17 22 18 23 23 25REMARK SMILES IDX 22 26 21 27 20 29 19 30 24 32 25 33 26 35 27 36 28 37 32 38REMARK SMILES IDX 29 39 31 40 30 41REMARK H PARENT 7 21 21 28 24 34REMARK Flexibility Score:   99.900USER                              x       y       z     vdW  Elec       q    TypeUSER                           _______ _______ _______ _____ _____    ______ ____ROOTATOM      1  O   UNL     1      38.793  43.601  24.423 -0.07 -0.01    -0.371 OA ENDROOTBRANCH   1   2ATOM      2  C   UNL     1      39.762  42.909  23.639 -0.18 +0.01    +0.196 C  BRANCH   2   3ATOM      3  C   UNL     1      40.139  43.786  22.473 -0.25 -0.00    -0.022 A  ATOM      4  C   UNL     1      40.811  45.415  20.285 -0.37 +0.00    +0.023 A  ATOM      5  C   UNL     1      39.655  45.680  21.026 -0.28 +0.00    +0.012 A  ATOM      6  C   UNL     1      41.647  44.357  20.658 -0.31 +0.00    +0.012 A  ATOM      7  C   UNL     1      39.321  44.865  22.108 -0.30 +0.00    +0.007 A  ATOM      8  C   UNL     1      41.310  43.543  21.742 -0.33 +0.00    +0.007 A  BRANCH   4   9ATOM      9  C   UNL     1      41.226  46.273  19.149 -0.39 +0.01    +0.199 C  ATOM     10  O   UNL     1      42.358  46.764  19.151 -0.38 -0.04    -0.288 OA BRANCH   9  11ATOM     11  C   UNL     1      40.327  46.629  18.031 -0.41 -0.01    +0.104 A  ATOM     12  C   UNL     1      38.319  46.261  16.697 -0.29 -0.05    +0.155 A  ATOM     13  C   UNL     1      38.648  47.361  15.902 -0.41 -0.02    +0.053 A  ATOM     14  C   UNL     1      39.169  45.900  17.753 -0.31 -0.03    +0.179 A  ATOM     15  C   UNL     1      39.822  48.077  16.151 -0.49 -0.02    +0.051 A  ATOM     16  C   UNL     1      40.660  47.704  17.198 -0.42 -0.02    +0.130 A  ATOM     17  F   UNL     1      38.861  44.819  18.488 -0.10 +0.02    -0.202 F  BRANCH  12  18ATOM     18  O   UNL     1      37.208  45.476  16.541 -0.05 +0.20    -0.494 OA ATOM     19  C   UNL     1      35.963  46.135  16.350 -0.23 -0.21    +0.278 C  ENDBRANCH  12  18BRANCH  16  20ATOM     20  O   UNL     1      41.804  48.439  17.353 -0.58 -0.02    -0.507 OA ATOM     21  H   UNL     1      42.570  47.821  17.294 -0.34 -0.04    +0.293 HD ENDBRANCH  16  20ENDBRANCH   9  11ENDBRANCH   4   9ENDBRANCH   2   3ENDBRANCH   1   2BRANCH   1  22ATOM     22  C   UNL     1      39.072  43.572  25.840 -0.15 -0.00    +0.142 C  BRANCH  22  23ATOM     23  C   UNL     1      38.078  42.550  26.410 -0.33 -0.00    +0.035 CG0ATOM     24  G   UNL     1      36.667  42.484  25.838 +0.00 +0.00    +0.000 G0 ENDBRANCH  22  23BRANCH  22  25ATOM     25  C   UNL     1      38.972  45.007  26.411 -0.17 -0.00    +0.125 C  BRANCH  25  26ATOM     26  C   UNL     1      37.493  45.422  26.612 -0.31 -0.01    +0.108 C  BRANCH  26  27ATOM     27  N   UNL     1      36.535  44.948  25.615 -0.27 +0.01    -0.315 NA ATOM     28  H   UNL     1      37.029  44.815  24.732 +0.05 +0.02    +0.122 HD BRANCH  27  29ATOM     29  C   UNL     1      35.820  43.737  25.992 -0.32 -0.01    +0.081 C  BRANCH  29  30ATOM     30  C   UNL     1      36.666  42.483  25.836 -0.46 -0.00    +0.018 CG0ATOM     31  G   UNL     1      38.078  42.550  26.408 +0.00 +0.00    +0.000 G0 ENDBRANCH  29  30ENDBRANCH  27  29ENDBRANCH  26  27ENDBRANCH  25  26BRANCH  25  32ATOM     32  N   UNL     1      39.761  45.954  25.609 -0.03 -0.01    -0.345 N  ATOM     33  C   UNL     1      40.791  46.681  26.169 -0.08 +0.02    +0.251 C  ATOM     34  H   UNL     1      39.888  45.682  24.642 +0.07 +0.01    +0.164 HD ATOM     35  O   UNL     1      41.055  46.679  27.363 -0.61 -0.04    -0.269 OA BRANCH  33  36ATOM     36  C   UNL     1      41.628  47.468  25.223 -0.16 +0.00    +0.042 A  ATOM     37  C   UNL     1      41.455  47.260  23.855 -0.21 +0.00    +0.034 A  ATOM     38  C   UNL     1      42.595  48.371  25.666 -0.22 +0.00    +0.034 A  ATOM     39  C   UNL     1      42.248  47.982  22.982 -0.23 +0.02    +0.112 A  ATOM     40  C   UNL     1      43.339  49.042  24.711 -0.29 +0.02    +0.112 A  ATOM     41  N   UNL     1      43.183  48.870  23.381 -0.82 -0.09    -0.265 NA ENDBRANCH  33  36ENDBRANCH  25  32ENDBRANCH  22  25ENDBRANCH   1  22TORSDOF 9TERENDMDL