MODEL        2USER    Run = 2USERUSER    Estimated Free Energy of Binding    =  -7.82 kcal/mol  [=(1)+(2)+(3)-(4)]USERUSER    (1) Final Intermolecular Energy     = -12.29 kcal/molUSER        vdW + Hbond + desolv Energy     = -12.70 kcal/molUSER        Electrostatic Energy            =  -0.20 kcal/molUSER        Moving Ligand-Fixed Receptor    = -12.90 kcal/molUSER        Moving Ligand-Moving Receptor   =  +0.60 kcal/molUSER    (2) Final Total Internal Energy     =  -2.89 kcal/molUSER    (3) Torsional Free Energy           =  +4.47 kcal/molUSER    (4) Unbound System's Energy         =  -2.89 kcal/molUSERUSERREMARK SMILES COc1ccc(O)c(C(=O)c2ccc(NC[C@@H]3CCCNC[C@@H]3NC(=O)c3ccncc3)cc2)c1FREMARK SMILES IDX 16 1 15 2 14 4 11 5 12 6 34 7 13 8 33 9 9 10 10 11 8 12 3 13REMARK SMILES IDX 4 14 35 15 5 16 6 17 36 18 2 19 1 20 7 21 17 23 18 24 23 26REMARK SMILES IDX 22 27 21 28 20 30 19 31 24 33 25 34 26 36 27 37 28 38 32 39REMARK SMILES IDX 29 40 31 41 30 42REMARK H PARENT 15 3 7 22 21 29 24 35REMARK Flexibility Score:   99.900USER                              x       y       z     vdW  Elec       q    TypeUSER                           _______ _______ _______ _____ _____    ______ ____ROOTATOM      1  C   UNL     1      40.617  46.614  15.652 -0.39 -0.01    +0.118 C  ENDROOTBRANCH   1   2ATOM      2  N   UNL     1      41.050  47.212  16.918 -0.19 +0.05    -0.385 N  ATOM      3  H   UNL     1      41.813  47.874  16.809 -0.29 -0.01    +0.160 HD BRANCH   2   4ATOM      4  C   UNL     1      41.099  46.493  18.109 -0.49 -0.00    +0.034 A  ATOM      5  C   UNL     1      41.226  45.186  20.616 -0.34 +0.00    +0.023 A  ATOM      6  C   UNL     1      40.259  44.822  19.676 -0.40 +0.00    +0.014 A  ATOM      7  C   UNL     1      42.094  46.240  20.331 -0.38 +0.00    +0.014 A  ATOM      8  C   UNL     1      40.195  45.477  18.440 -0.44 -0.00    +0.026 A  ATOM      9  C   UNL     1      42.021  46.885  19.090 -0.50 +0.00    +0.026 A  BRANCH   5  10ATOM     10  C   UNL     1      41.236  44.489  21.925 -0.21 +0.02    +0.199 C  ATOM     11  O   UNL     1      42.281  43.968  22.318 -0.17 -0.03    -0.288 OA BRANCH  10  12ATOM     12  C   UNL     1      40.034  44.337  22.773 -0.17 +0.00    +0.104 A  ATOM     13  C   UNL     1      38.253  45.270  24.155 -0.21 +0.02    +0.155 A  ATOM     14  C   UNL     1      37.745  43.986  24.361 -0.27 +0.00    +0.053 A  ATOM     15  C   UNL     1      39.402  45.432  23.365 -0.17 +0.01    +0.179 A  ATOM     16  C   UNL     1      38.388  42.880  23.801 -0.27 +0.00    +0.051 A  ATOM     17  C   UNL     1      39.531  43.055  23.026 -0.20 +0.01    +0.130 A  ATOM     18  F   UNL     1      39.906  46.667  23.209 -0.07 -0.02    -0.202 F  BRANCH  13  19ATOM     19  O   UNL     1      37.722  46.424  24.665 -0.57 -0.11    -0.494 OA ATOM     20  C   UNL     1      36.910  46.310  25.828 -0.14 -0.01    +0.278 C  ENDBRANCH  13  19BRANCH  17  21ATOM     21  O   UNL     1      40.119  41.916  22.542 +0.09 -0.06    -0.507 OA ATOM     22  H   UNL     1      41.062  42.122  22.348 +0.11 +0.00    +0.293 HD ENDBRANCH  17  21ENDBRANCH  10  12ENDBRANCH   5  10ENDBRANCH   2   4ENDBRANCH   1   2BRANCH   1  23ATOM     23  C   UNL     1      39.115  46.872  15.372 -0.50 -0.01    +0.032 C  BRANCH  23  24ATOM     24  C   UNL     1      38.642  46.010  14.184 -0.44 -0.00    +0.009 CG0ATOM     25  G   UNL     1      37.185  46.119  13.733 +0.00 +0.00    +0.000 G0 ENDBRANCH  23  24BRANCH  23  26ATOM     26  C   UNL     1      38.846  48.389  15.240 -0.52 -0.05    +0.101 C  BRANCH  26  27ATOM     27  C   UNL     1      37.464  48.668  14.603 -0.51 -0.08    +0.106 C  BRANCH  27  28ATOM     28  N   UNL     1      37.409  48.516  13.143 -0.62 +0.08    -0.315 NA ATOM     29  H   UNL     1      36.790  49.246  12.783 +0.06 -0.03    +0.122 HD BRANCH  28  30ATOM     30  C   UNL     1      36.867  47.222  12.724 -0.66 -0.03    +0.081 C  BRANCH  30  31ATOM     31  C   UNL     1      37.189  46.120  13.726 -0.52 -0.01    +0.016 CG0ATOM     32  G   UNL     1      38.645  46.010  14.181 +0.00 +0.00    +0.000 G0 ENDBRANCH  30  31ENDBRANCH  28  30ENDBRANCH  27  28ENDBRANCH  26  27BRANCH  26  33ATOM     33  N   UNL     1      39.882  49.092  14.488 -0.14 +0.15    -0.348 N  ATOM     34  C   UNL     1      40.991  49.653  15.074 -0.50 -0.07    +0.251 C  ATOM     35  H   UNL     1      39.667  49.244  13.510 -0.08 -0.07    +0.164 HD ATOM     36  O   UNL     1      41.200  49.614  16.280 -0.95 +0.03    -0.269 OA BRANCH  34  37ATOM     37  C   UNL     1      41.946  50.350  14.172 -0.63 -0.01    +0.042 A  ATOM     38  C   UNL     1      41.881  50.073  12.806 -0.22 -0.01    +0.034 A  ATOM     39  C   UNL     1      42.873  51.283  14.639 -0.15 -0.01    +0.034 A  ATOM     40  C   UNL     1      42.764  50.723  11.965 -0.42 -0.06    +0.112 A  ATOM     41  C   UNL     1      43.712  51.880  13.715 +0.06 -0.04    +0.112 A  ATOM     42  N   UNL     1      43.682  51.617  12.392 -0.31 +0.13    -0.265 NA ENDBRANCH  34  37ENDBRANCH  26  33ENDBRANCH  23  26ENDBRANCH   1  23TORSDOF 9TERENDMDL