MODEL        9USER    Run = 9USERUSER    Estimated Free Energy of Binding    = -11.62 kcal/mol  [=(1)+(2)+(3)-(4)]USERUSER    (1) Final Intermolecular Energy     = -13.41 kcal/molUSER        vdW + Hbond + desolv Energy     = -13.32 kcal/molUSER        Electrostatic Energy            =  -0.09 kcal/molUSER        Moving Ligand-Fixed Receptor    = -13.41 kcal/molUSER        Moving Ligand-Moving Receptor   =  +0.00 kcal/molUSER    (2) Final Total Internal Energy     =  -1.87 kcal/molUSER    (3) Torsional Free Energy           =  +1.79 kcal/molUSER    (4) Unbound System's Energy         =  -1.87 kcal/molUSERUSERREMARK SMILES Oc1nc2ccccc2n1C1CCN(Cc2ccc(-c3cc4ccccc4nc3-c3ccccc3)cc2)CC1REMARK SMILES IDX 11 1 12 2 13 3 14 4 38 5 39 6 10 7 2 8 3 9 4 10 9 11 5 12REMARK SMILES IDX 8 13 6 14 7 15 1 16 15 18 16 19 17 20 37 21 18 22 36 23REMARK SMILES IDX 19 24 20 25 21 26 29 27 22 28 28 29 23 30 27 31 24 32 26 33REMARK SMILES IDX 25 34 30 35 31 36 35 37 32 38 34 39 33 40REMARK H PARENT 1 17USER                              x       y       z     vdW  Elec       q    TypeUSER                           _______ _______ _______ _____ _____    ______ ____ROOTATOM      1  C   UNL     1      39.272  44.406  25.022 -0.15 +0.00    +0.095 C  ATOM      2  C   UNL     1      39.418  43.805  23.617 -0.24 +0.00    +0.041 C  ATOM      3  C   UNL     1      40.365  42.612  23.531 -0.13 +0.00    +0.087 C  ATOM      4  N   UNL     1      41.634  42.801  24.237 -0.09 +0.01    -0.299 NA ATOM      5  C   UNL     1      41.400  43.089  25.655 -0.14 -0.00    +0.087 C  ATOM      6  C   UNL     1      40.519  44.308  25.915 -0.12 +0.00    +0.041 C  ENDROOTBRANCH   1   7ATOM      7  N   UNL     1      38.021  44.061  25.694 -0.08 +0.00    -0.291 N  ATOM      8  C   UNL     1      36.955  44.924  25.794 -0.17 -0.01    +0.295 A  ATOM      9  N   UNL     1      35.945  44.435  26.455 -0.20 +0.04    -0.195 NA ATOM     10  C   UNL     1      36.353  43.178  26.810 -0.36 -0.02    +0.092 A  ATOM     11  C   UNL     1      37.647  42.902  26.343 -0.26 -0.01    +0.072 A  ATOM     12  C   UNL     1      35.649  42.209  27.544 -0.52 -0.01    +0.031 A  ATOM     13  C   UNL     1      38.253  41.663  26.585 -0.34 -0.00    +0.029 A  ATOM     14  C   UNL     1      36.253  40.974  27.793 -0.58 -0.00    +0.002 A  ATOM     15  C   UNL     1      37.534  40.709  27.317 -0.28 -0.00    +0.002 A  BRANCH   8  16ATOM     16  O   UNL     1      36.915  46.138  25.285 -0.73 -0.07    -0.480 OA ATOM     17  H   UNL     1      36.125  46.499  25.726 -0.40 -0.07    +0.296 HD ENDBRANCH   8  16ENDBRANCH   1   7BRANCH   4  18ATOM     18  C   UNL     1      42.504  43.781  23.566 -0.17 +0.01    +0.120 C  BRANCH  18  19ATOM     19  C   UNL     1      41.878  44.385  22.327 -0.23 -0.00    -0.034 A  ATOM     20  C   UNL     1      41.372  45.690  22.338 -0.23 +0.00    +0.006 A  ATOM     21  C   UNL     1      41.795  43.639  21.143 -0.32 +0.00    +0.006 A  ATOM     22  C   UNL     1      40.794  46.237  21.189 -0.14 +0.00    +0.009 A  ATOM     23  C   UNL     1      41.208  44.185  19.999 -0.28 +0.00    +0.009 A  ATOM     24  C   UNL     1      40.695  45.489  20.006 -0.39 -0.00    -0.016 A  BRANCH  24  25ATOM     25  C   UNL     1      40.087  46.065  18.797 -0.44 -0.00    +0.009 A  ATOM     26  C   UNL     1      40.834  46.957  18.014 -0.50 -0.00    +0.021 A  ATOM     27  C   UNL     1      38.795  45.749  18.345 -0.35 -0.01    +0.079 A  ATOM     28  C   UNL     1      40.309  47.491  16.832 -0.52 -0.00    +0.001 A  ATOM     29  N   UNL     1      38.276  46.252  17.188 -0.24 +0.08    -0.247 NA ATOM     30  C   UNL     1      41.042  48.385  16.031 -0.55 -0.00    +0.010 A  ATOM     31  C   UNL     1      39.012  47.102  16.454 -0.39 -0.02    +0.071 A  ATOM     32  C   UNL     1      40.491  48.894  14.856 -0.60 -0.00    +0.001 A  ATOM     33  C   UNL     1      38.486  47.621  15.278 -0.46 -0.01    +0.029 A  ATOM     34  C   UNL     1      39.209  48.510  14.478 -0.50 -0.00    +0.002 A  BRANCH  27  35ATOM     35  C   UNL     1      37.866  44.854  19.060 -0.35 -0.00    +0.001 A  ATOM     36  C   UNL     1      36.881  44.140  18.356 -0.31 -0.00    +0.010 A  ATOM     37  C   UNL     1      37.917  44.700  20.457 -0.32 -0.00    +0.010 A  ATOM     38  C   UNL     1      35.996  43.285  19.019 -0.36 -0.00    +0.001 A  ATOM     39  C   UNL     1      37.032  43.846  21.122 -0.41 +0.00    +0.001 A  ATOM     40  C   UNL     1      36.074  43.136  20.401 -0.45 -0.00    +0.000 A  ENDBRANCH  27  35ENDBRANCH  24  25ENDBRANCH  18  19ENDBRANCH   4  18TORSDOF 6TERENDMDL