MODEL        10USER    Run = 10USERUSER    Estimated Free Energy of Binding    =  -7.24 kcal/mol  [=(1)+(2)+(3)-(4)]USERUSER    (1) Final Intermolecular Energy     = -11.41 kcal/molUSER        vdW + Hbond + desolv Energy     = -11.61 kcal/molUSER        Electrostatic Energy            =  -0.19 kcal/molUSER        Moving Ligand-Fixed Receptor    = -11.80 kcal/molUSER        Moving Ligand-Moving Receptor   =  +0.39 kcal/molUSER    (2) Final Total Internal Energy     =  -2.92 kcal/molUSER    (3) Torsional Free Energy           =  +4.18 kcal/molUSER    (4) Unbound System's Energy         =  -2.92 kcal/molUSERUSERREMARK SMILES COc1ccc(O)c(C(=O)c2ccc(C(=O)N[C@@H]3CCCNC[C@H]3NC(=O)c3ccncc3)cc2)c1FREMARK SMILES IDX 15 1 16 2 17 3 14 5 11 6 12 7 35 8 13 9 34 10 9 11 10 12REMARK SMILES IDX 8 13 3 14 4 15 36 16 5 17 6 18 37 19 2 20 1 21 7 22 18 24REMARK SMILES IDX 19 25 24 27 23 28 22 29 21 31 20 32 25 34 26 35 27 37 28 38REMARK SMILES IDX 29 39 33 40 30 41 32 42 31 43REMARK H PARENT 17 4 7 23 22 30 25 36REMARK Flexibility Score:   88.900USER                              x       y       z     vdW  Elec       q    TypeUSER                           _______ _______ _______ _____ _____    ______ ____ROOTATOM      1  C   UNL     1      38.613  45.660  17.166 -0.28 -0.06    +0.251 C  ATOM      2  O   UNL     1      38.138  44.556  16.922 -0.22 +0.06    -0.269 OA ATOM      3  N   UNL     1      38.283  46.799  16.459 -0.17 +0.14    -0.347 N  ATOM      4  H   UNL     1      38.864  47.617  16.582 +0.11 -0.07    +0.164 HD ENDROOTBRANCH   1   5ATOM      5  C   UNL     1      39.654  45.814  18.220 -0.42 -0.00    +0.039 A  ATOM      6  C   UNL     1      41.615  46.244  20.177 -0.38 +0.00    +0.023 A  ATOM      7  C   UNL     1      41.632  46.988  18.993 -0.47 +0.00    +0.013 A  ATOM      8  C   UNL     1      40.617  45.284  20.383 -0.37 +0.00    +0.013 A  ATOM      9  C   UNL     1      40.662  46.765  18.012 -0.50 -0.00    +0.014 A  ATOM     10  C   UNL     1      39.643  45.061  19.400 -0.40 -0.00    +0.014 A  BRANCH   6  11ATOM     11  C   UNL     1      42.614  46.572  21.218 -0.29 +0.05    +0.199 C  ATOM     12  O   UNL     1      43.786  46.723  20.868 -0.37 -0.18    -0.288 OA BRANCH  11  13ATOM     13  C   UNL     1      42.287  46.777  22.648 -0.20 +0.02    +0.104 A  ATOM     14  C   UNL     1      41.487  45.968  24.807 -0.05 +0.01    +0.155 A  ATOM     15  C   UNL     1      41.697  47.233  25.361 -0.13 +0.00    +0.053 A  ATOM     16  C   UNL     1      41.788  45.751  23.452 -0.08 +0.02    +0.179 A  ATOM     17  C   UNL     1      42.221  48.262  24.574 -0.28 +0.01    +0.051 A  ATOM     18  C   UNL     1      42.526  48.029  23.235 -0.28 +0.02    +0.130 A  ATOM     19  F   UNL     1      41.615  44.519  22.945 -0.02 -0.01    -0.202 F  BRANCH  14  20ATOM     20  O   UNL     1      40.994  44.881  25.480 +0.02 -0.01    -0.494 OA ATOM     21  C   UNL     1      39.629  44.543  25.257 -0.07 +0.00    +0.278 C  ENDBRANCH  14  20BRANCH  18  22ATOM     22  O   UNL     1      43.065  49.086  22.550 -0.54 -0.15    -0.507 OA ATOM     23  H   UNL     1      43.501  48.722  21.743 -0.42 -0.03    +0.293 HD ENDBRANCH  18  22ENDBRANCH  11  13ENDBRANCH   6  11ENDBRANCH   1   5BRANCH   3  24ATOM     24  C   UNL     1      37.488  46.717  15.228 -0.39 -0.05    +0.106 C  BRANCH  24  25ATOM     25  C   UNL     1      37.796  47.923  14.330 -0.58 -0.01    +0.028 CG0ATOM     26  G   UNL     1      37.578  47.705  12.824 +0.00 +0.00    +0.000 G0 ENDBRANCH  24  25BRANCH  24  27ATOM     27  C   UNL     1      35.979  46.554  15.568 -0.33 -0.11    +0.118 C  BRANCH  27  28ATOM     28  C   UNL     1      35.075  46.187  14.367 -0.38 -0.09    +0.108 C  BRANCH  28  29ATOM     29  N   UNL     1      35.733  45.986  13.072 -0.25 +0.17    -0.315 NA ATOM     30  H   UNL     1      36.500  45.325  13.171 +0.08 -0.05    +0.122 HD BRANCH  29  31ATOM     31  C   UNL     1      36.204  47.189  12.395 -0.69 -0.04    +0.081 C  BRANCH  31  32ATOM     32  C   UNL     1      37.576  47.703  12.826 -0.36 -0.00    +0.017 CG0ATOM     33  G   UNL     1      37.794  47.926  14.331 +0.00 +0.00    +0.000 G0 ENDBRANCH  31  32ENDBRANCH  29  31ENDBRANCH  28  29ENDBRANCH  27  28BRANCH  27  34ATOM     34  N   UNL     1      35.810  45.594  16.667 -0.11 +0.21    -0.346 N  ATOM     35  C   UNL     1      35.111  45.920  17.807 -0.28 -0.16    +0.251 C  ATOM     36  H   UNL     1      35.970  44.622  16.456 +0.12 -0.07    +0.164 HD ATOM     37  O   UNL     1      34.664  47.037  18.033 -0.63 +0.28    -0.269 OA BRANCH  35  38ATOM     38  C   UNL     1      34.885  44.821  18.777 -0.36 -0.01    +0.042 A  ATOM     39  C   UNL     1      33.607  44.267  18.862 -0.38 -0.01    +0.034 A  ATOM     40  C   UNL     1      35.898  44.355  19.616 -0.36 -0.00    +0.034 A  ATOM     41  C   UNL     1      33.402  43.247  19.770 -0.29 +0.00    +0.112 A  ATOM     42  C   UNL     1      35.589  43.330  20.493 -0.31 +0.00    +0.112 A  ATOM     43  N   UNL     1      34.365  42.763  20.584 -0.29 -0.06    -0.265 NA ENDBRANCH  35  38ENDBRANCH  27  34ENDBRANCH  24  27ENDBRANCH   3  24TORSDOF 8TERENDMDL