MODEL        5USER    Run = 5USERUSER    Estimated Free Energy of Binding    = -12.91 kcal/mol  [=(1)+(2)+(3)-(4)]USERUSER    (1) Final Intermolecular Energy     = -14.70 kcal/molUSER        vdW + Hbond + desolv Energy     = -14.59 kcal/molUSER        Electrostatic Energy            =  -0.12 kcal/molUSER        Moving Ligand-Fixed Receptor    = -14.70 kcal/molUSER        Moving Ligand-Moving Receptor   =  +0.00 kcal/molUSER    (2) Final Total Internal Energy     =  -2.62 kcal/molUSER    (3) Torsional Free Energy           =  +1.79 kcal/molUSER    (4) Unbound System's Energy         =  -2.62 kcal/molUSERUSERREMARK SMILES Oc1nc2ccccc2n1C1CCN(Cc2ccc(-c3nc4ccccc4nc3-c3ccccc3)cc2)CC1REMARK SMILES IDX 11 1 12 2 13 3 14 4 38 5 39 6 10 7 2 8 3 9 4 10 9 11 5 12REMARK SMILES IDX 8 13 6 14 7 15 1 16 15 18 16 19 17 20 37 21 18 22 36 23REMARK SMILES IDX 19 24 20 25 21 26 29 27 22 28 28 29 23 30 27 31 24 32 26 33REMARK SMILES IDX 25 34 30 35 31 36 35 37 32 38 34 39 33 40REMARK H PARENT 1 17USER                              x       y       z     vdW  Elec       q    TypeUSER                           _______ _______ _______ _____ _____    ______ ____ROOTATOM      1  C   UNL     1      38.714  47.274  15.319 -0.46 -0.04    +0.095 C  ATOM      2  C   UNL     1      37.483  48.171  15.528 -0.47 -0.03    +0.041 C  ATOM      3  C   UNL     1      36.794  48.509  14.206 -0.43 -0.06    +0.087 C  ATOM      4  N   UNL     1      36.656  47.365  13.300 -0.38 +0.15    -0.299 NA ATOM      5  C   UNL     1      37.944  46.721  12.993 -0.34 -0.02    +0.087 C  ATOM      6  C   UNL     1      39.125  47.200  13.844 -0.28 -0.01    +0.041 C  ENDROOTBRANCH   1   7ATOM      7  N   UNL     1      39.818  47.626  16.199 -0.28 +0.08    -0.291 N  ATOM      8  C   UNL     1      40.538  48.788  16.176 -0.30 -0.07    +0.295 A  ATOM      9  N   UNL     1      41.468  48.840  17.088 -0.87 -0.00    -0.195 NA ATOM     10  C   UNL     1      41.350  47.649  17.762 -0.44 -0.01    +0.092 A  ATOM     11  C   UNL     1      40.321  46.864  17.234 -0.45 -0.01    +0.072 A  ATOM     12  C   UNL     1      42.094  47.169  18.851 -0.51 +0.00    +0.031 A  ATOM     13  C   UNL     1      39.993  45.605  17.756 -0.41 -0.00    +0.029 A  ATOM     14  C   UNL     1      41.781  45.912  19.384 -0.42 +0.00    +0.002 A  ATOM     15  C   UNL     1      40.748  45.146  18.843 -0.45 +0.00    +0.002 A  BRANCH   8  16ATOM     16  O   UNL     1      40.332  49.782  15.336 -0.24 +0.22    -0.480 OA ATOM     17  H   UNL     1      39.429  50.055  15.579 -0.16 -0.22    +0.296 HD ENDBRANCH   8  16ENDBRANCH   1   7BRANCH   4  18ATOM     18  C   UNL     1      35.646  46.381  13.726 -0.45 -0.08    +0.120 C  BRANCH  18  19ATOM     19  C   UNL     1      35.875  45.830  15.116 -0.35 +0.02    -0.034 A  ATOM     20  C   UNL     1      36.833  44.836  15.343 -0.36 -0.00    +0.006 A  ATOM     21  C   UNL     1      35.119  46.296  16.199 -0.18 -0.01    +0.006 A  ATOM     22  C   UNL     1      37.043  44.334  16.632 -0.33 -0.00    +0.011 A  ATOM     23  C   UNL     1      35.331  45.794  17.486 -0.37 -0.01    +0.011 A  ATOM     24  C   UNL     1      36.309  44.816  17.729 -0.33 -0.00    +0.002 A  BRANCH  24  25ATOM     25  C   UNL     1      36.558  44.288  19.081 -0.30 -0.02    +0.097 A  ATOM     26  N   UNL     1      37.710  44.751  19.647 -0.22 +0.02    -0.244 NA ATOM     27  C   UNL     1      35.730  43.378  19.757 -0.35 -0.01    +0.097 A  ATOM     28  C   UNL     1      38.039  44.274  20.861 -0.31 +0.00    +0.089 A  ATOM     29  N   UNL     1      36.078  42.891  20.983 -0.29 -0.01    -0.244 NA ATOM     30  C   UNL     1      39.209  44.708  21.472 -0.31 +0.00    +0.030 A  ATOM     31  C   UNL     1      37.221  43.338  21.530 -0.35 +0.00    +0.089 A  ATOM     32  C   UNL     1      39.590  44.236  22.729 -0.24 +0.00    +0.002 A  ATOM     33  C   UNL     1      37.608  42.874  22.781 -0.37 +0.00    +0.030 A  ATOM     34  C   UNL     1      38.785  43.315  23.386 -0.27 +0.00    +0.002 A  BRANCH  27  35ATOM     35  C   UNL     1      34.435  42.875  19.261 -0.41 -0.00    +0.002 A  ATOM     36  C   UNL     1      33.235  43.486  19.665 -0.41 -0.00    +0.010 A  ATOM     37  C   UNL     1      34.349  41.802  18.356 -0.37 -0.00    +0.010 A  ATOM     38  C   UNL     1      31.996  43.028  19.205 -0.34 -0.00    +0.001 A  ATOM     39  C   UNL     1      33.112  41.339  17.898 -0.41 -0.00    +0.001 A  ATOM     40  C   UNL     1      31.936  41.951  18.324 -0.34 -0.00    +0.000 A  ENDBRANCH  27  35ENDBRANCH  24  25ENDBRANCH  18  19ENDBRANCH   4  18TORSDOF 6TERENDMDL