REMARK SMILES CC(=O)N1CCN(CCOc2cccc(CCCCc3cncnc3N)c2C)CC1
REMARK SMILES IDX 16 1 15 2 11 3 12 4 27 5 13 6 14 7 28 8 10 9 9 10 8 11 7 12
REMARK SMILES IDX 2 13 4 14 5 15 30 16 6 17 29 18 1 19 3 20 17 21 18 22 19 23
REMARK SMILES IDX 20 24 21 25 25 26 22 27 24 28 23 29 26 30
REMARK H PARENT 26 31 26 32
ROOT
ATOM      1  C   UNL     1       3.177   1.317  -0.609  1.00  0.00     0.036 C 
ENDROOT
BRANCH   1   2
ATOM      2  C   UNL     1       1.714   1.373  -0.223  1.00  0.00    -0.041 A 
ATOM      3  C   UNL     1      -0.463   0.356   0.221  1.00  0.00     0.122 A 
ATOM      4  C   UNL     1      -0.994   1.624   0.476  1.00  0.00     0.047 A 
ATOM      5  C   UNL     1       0.908   0.217  -0.100  1.00  0.00    -0.006 A 
ATOM      6  C   UNL     1      -0.189   2.756   0.388  1.00  0.00     0.004 A 
ATOM      7  C   UNL     1       1.152   2.633   0.038  1.00  0.00     0.004 A 
ATOM      8  C   UNL     1       1.460  -1.161  -0.376  1.00  0.00     0.049 C 
BRANCH   3   9
ATOM      9  O   UNL     1      -1.183  -0.810   0.262  1.00  0.00    -0.492 OA
BRANCH   9  10
ATOM     10  C   UNL     1      -2.610  -0.759   0.331  1.00  0.00     0.245 C 
BRANCH  10  11
ATOM     11  C   UNL     1      -3.224  -0.458  -1.051  1.00  0.00     0.126 C 
BRANCH  11  12
ATOM     12  N   UNL     1      -4.688  -0.489  -1.158  1.00  0.00    -0.296 NA
ATOM     13  C   UNL     1      -8.454  -1.070   0.936  1.00  0.00     0.219 C 
ATOM     14  N   UNL     1      -7.231  -0.823   0.334  1.00  0.00    -0.340 N 
ATOM     15  C   UNL     1      -6.205  -1.867   0.352  1.00  0.00     0.135 C 
ATOM     16  C   UNL     1      -6.877   0.424  -0.351  1.00  0.00     0.135 C 
ATOM     17  C   UNL     1      -5.289  -1.807  -0.886  1.00  0.00     0.106 C 
ATOM     18  C   UNL     1      -5.352   0.616  -0.453  1.00  0.00     0.106 C 
ATOM     19  C   UNL     1      -9.504   0.004   0.814  1.00  0.00     0.114 C 
ATOM     20  O   UNL     1      -8.692  -2.108   1.554  1.00  0.00    -0.275 OA
ENDBRANCH  11  12
ENDBRANCH  10  11
ENDBRANCH   9  10
ENDBRANCH   3   9
ENDBRANCH   1   2
BRANCH   1  21
ATOM     21  C   UNL     1       4.081   1.166   0.619  1.00  0.00     0.005 C 
BRANCH  21  22
ATOM     22  C   UNL     1       5.570   1.098   0.269  1.00  0.00     0.005 C 
BRANCH  22  23
ATOM     23  C   UNL     1       5.951  -0.180  -0.485  1.00  0.00     0.041 C 
BRANCH  23  24
ATOM     24  C   UNL     1       7.437  -0.292  -0.678  1.00  0.00     0.013 A 
ATOM     25  C   UNL     1       8.044   0.281  -1.783  1.00  0.00     0.120 A 
ATOM     26  C   UNL     1       8.297  -0.923   0.211  1.00  0.00     0.129 A 
ATOM     27  N   UNL     1       9.365   0.241  -2.023  1.00  0.00    -0.244 NA
ATOM     28  N   UNL     1       9.619  -0.988   0.006  1.00  0.00    -0.220 NA
ATOM     29  C   UNL     1      10.091  -0.403  -1.102  1.00  0.00     0.224 A 
BRANCH  26  30
ATOM     30  N   UNL     1       7.825  -1.541   1.374  1.00  0.00    -0.383 N 
ATOM     31  H   UNL     1       7.187  -2.293   1.133  1.00  0.00     0.158 HD
ATOM     32  H   UNL     1       7.331  -0.869   1.951  1.00  0.00     0.158 HD
ENDBRANCH  26  30
ENDBRANCH  23  24
ENDBRANCH  22  23
ENDBRANCH  21  22
ENDBRANCH   1  21
TORSDOF 10
