MODEL        6USER    Run = 6USERUSER    Estimated Free Energy of Binding    =  -8.10 kcal/mol  [=(1)+(2)+(3)-(4)]USERUSER    (1) Final Intermolecular Energy     = -11.08 kcal/molUSER        vdW + Hbond + desolv Energy     = -11.07 kcal/molUSER        Electrostatic Energy            =  -0.01 kcal/molUSER        Moving Ligand-Fixed Receptor    = -11.08 kcal/molUSER        Moving Ligand-Moving Receptor   =  +0.00 kcal/molUSER    (2) Final Total Internal Energy     =  -0.90 kcal/molUSER    (3) Torsional Free Energy           =  +2.98 kcal/molUSER    (4) Unbound System's Energy         =  -0.90 kcal/molUSERUSERREMARK SMILES Cc1c(CCCCc2cncnc2N)cccc1OCCN1CCOC[C@@H]1FREMARK SMILES IDX 4 1 3 2 2 3 18 4 15 5 17 6 16 7 1 8 19 9 20 10 21 11 22 12REMARK SMILES IDX 23 13 27 14 24 15 26 16 25 17 28 18 5 19 6 20 7 21 8 22 9 23REMARK SMILES IDX 13 24 10 25 12 26 11 27 14 28REMARK H PARENT 14 29 14 30USER                              x       y       z     vdW  Elec       q    TypeUSER                           _______ _______ _______ _____ _____    ______ ____ROOTATOM      1  C   UNL     1      37.177  45.014  16.917 -0.38 -0.01    +0.036 C  ENDROOTBRANCH   1   2ATOM      2  C   UNL     1      35.766  44.707  17.373 -0.29 +0.02    -0.041 A  ATOM      3  C   UNL     1      35.071  43.538  16.979 -0.35 +0.00    -0.006 A  ATOM      4  C   UNL     1      33.765  43.309  17.471 -0.24 -0.04    +0.122 A  ATOM      5  C   UNL     1      35.127  45.640  18.206 -0.39 -0.00    +0.004 A  ATOM      6  C   UNL     1      33.157  44.252  18.304 -0.32 -0.01    +0.047 A  ATOM      7  C   UNL     1      33.833  45.415  18.665 -0.46 -0.00    +0.004 A  ATOM      8  C   UNL     1      35.733  42.505  16.099 -0.45 -0.02    +0.049 C  BRANCH   4   9ATOM      9  O   UNL     1      33.175  42.133  17.081 -0.09 +0.22    -0.492 OA BRANCH   9  10ATOM     10  C   UNL     1      32.674  41.264  18.101 -0.30 -0.05    +0.245 C  BRANCH  10  11ATOM     11  C   UNL     1      31.315  40.720  17.632 -0.33 -0.03    +0.129 C  BRANCH  11  12ATOM     12  N   UNL     1      31.113  39.287  17.915 -0.22 -0.01    -0.266 NA ATOM     13  C   UNL     1      32.365  38.616  18.323 -0.40 +0.00    +0.116 C  ATOM     14  C   UNL     1      30.125  39.128  18.998 -0.24 +0.04    +0.263 C  ATOM     15  C   UNL     1      32.120  37.144  18.705 -0.46 +0.04    +0.176 C  ATOM     16  C   UNL     1      29.933  37.652  19.382 -0.29 +0.07    +0.214 C  ATOM     17  O   UNL     1      31.169  37.036  19.771 -0.53 -0.12    -0.376 OA ATOM     18  F   UNL     1      28.931  39.616  18.567 -0.04 -0.03    -0.227 F  ENDBRANCH  11  12ENDBRANCH  10  11ENDBRANCH   9  10ENDBRANCH   4   9ENDBRANCH   1   2BRANCH   1  19ATOM     19  C   UNL     1      38.211  44.629  17.979 -0.41 -0.00    +0.005 C  BRANCH  19  20ATOM     20  C   UNL     1      38.922  45.864  18.533 -0.45 -0.00    +0.005 C  BRANCH  20  21ATOM     21  C   UNL     1      40.349  45.974  17.988 -0.51 -0.00    +0.041 C  BRANCH  21  22ATOM     22  C   UNL     1      40.546  47.228  17.187 -0.51 -0.00    +0.013 A  ATOM     23  C   UNL     1      39.636  47.581  16.204 -0.41 -0.04    +0.120 A  ATOM     24  C   UNL     1      41.590  48.124  17.376 -0.29 -0.01    +0.129 A  ATOM     25  N   UNL     1      39.726  48.693  15.456 -0.34 +0.10    -0.244 NA ATOM     26  N   UNL     1      41.717  49.242  16.651 -0.90 -0.04    -0.220 NA ATOM     27  C   UNL     1      40.779  49.474  15.724 -0.44 -0.06    +0.224 A  BRANCH  24  28ATOM     28  N   UNL     1      42.582  47.899  18.337 -0.27 -0.00    -0.383 N  ATOM     29  H   UNL     1      43.344  47.364  17.935 -0.51 -0.01    +0.158 HD ATOM     30  H   UNL     1      42.948  48.785  18.671 -0.25 -0.00    +0.158 HD ENDBRANCH  24  28ENDBRANCH  21  22ENDBRANCH  20  21ENDBRANCH  19  20ENDBRANCH   1  19TORSDOF 10TERENDMDL