MODEL        10USER    Run = 10USERUSER    Estimated Free Energy of Binding    =  -8.80 kcal/mol  [=(1)+(2)+(3)-(4)]USERUSER    (1) Final Intermolecular Energy     = -11.78 kcal/molUSER        vdW + Hbond + desolv Energy     = -11.71 kcal/molUSER        Electrostatic Energy            =  -0.06 kcal/molUSER        Moving Ligand-Fixed Receptor    = -11.78 kcal/molUSER        Moving Ligand-Moving Receptor   =  +0.00 kcal/molUSER    (2) Final Total Internal Energy     =  -0.96 kcal/molUSER    (3) Torsional Free Energy           =  +2.98 kcal/molUSER    (4) Unbound System's Energy         =  -0.96 kcal/molUSERUSERREMARK SMILES Cc1c(CCCCc2cncnc2N)cccc1OCCN1CCN(C)CC1REMARK SMILES IDX 4 1 3 2 2 3 18 4 15 5 17 6 16 7 1 8 19 9 20 10 21 11 22 12REMARK SMILES IDX 23 13 28 14 24 15 27 16 25 17 26 18 5 19 6 20 7 21 8 22 9 23REMARK SMILES IDX 13 24 10 25 12 26 11 27 14 28REMARK H PARENT 14 29 14 30USER                              x       y       z     vdW  Elec       q    TypeUSER                           _______ _______ _______ _____ _____    ______ ____ROOTATOM      1  C   UNL     1      37.972  44.660  18.499 -0.40 -0.01    +0.036 C  ENDROOTBRANCH   1   2ATOM      2  C   UNL     1      38.139  44.657  20.004 -0.33 +0.00    -0.041 A  ATOM      3  C   UNL     1      37.244  44.012  20.889 -0.40 -0.00    -0.006 A  ATOM      4  C   UNL     1      37.483  44.070  22.283 -0.30 +0.01    +0.122 A  ATOM      5  C   UNL     1      39.267  45.312  20.529 -0.36 +0.00    +0.004 A  ATOM      6  C   UNL     1      38.607  44.738  22.775 -0.29 +0.00    +0.047 A  ATOM      7  C   UNL     1      39.497  45.354  21.900 -0.32 +0.00    +0.004 A  ATOM      8  C   UNL     1      36.028  43.261  20.405 -0.47 -0.00    +0.049 C  BRANCH   4   9ATOM      9  O   UNL     1      36.549  43.441  23.071 -0.09 -0.08    -0.492 OA BRANCH   9  10ATOM     10  C   UNL     1      36.864  42.130  23.552 -0.34 +0.01    +0.245 C  BRANCH  10  11ATOM     11  C   UNL     1      37.833  42.278  24.737 -0.26 +0.00    +0.126 C  BRANCH  11  12ATOM     12  N   UNL     1      37.164  42.576  26.017 -0.16 +0.03    -0.297 NA ATOM     13  C   UNL     1      36.938  44.032  26.143 -0.34 -0.01    +0.100 C  ATOM     14  C   UNL     1      35.862  41.881  26.132 -0.46 -0.02    +0.100 C  ATOM     15  C   UNL     1      36.186  44.404  27.440 -0.43 -0.02    +0.099 C  ATOM     16  C   UNL     1      35.102  42.258  27.427 -0.59 -0.03    +0.099 C  ATOM     17  N   UNL     1      34.887  43.714  27.542 -0.34 +0.07    -0.304 NA ATOM     18  C   UNL     1      34.221  44.041  28.800 -0.60 -0.02    +0.105 C  ENDBRANCH  11  12ENDBRANCH  10  11ENDBRANCH   9  10ENDBRANCH   4   9ENDBRANCH   1   2BRANCH   1  19ATOM     19  C   UNL     1      38.831  45.741  17.837 -0.46 -0.00    +0.005 C  BRANCH  19  20ATOM     20  C   UNL     1      38.100  46.496  16.722 -0.44 -0.00    +0.005 C  BRANCH  20  21ATOM     21  C   UNL     1      38.834  46.548  15.374 -0.46 -0.01    +0.041 C  BRANCH  21  22ATOM     22  C   UNL     1      37.931  46.759  14.193 -0.44 -0.00    +0.013 A  ATOM     23  C   UNL     1      37.574  45.696  13.380 -0.33 -0.04    +0.120 A  ATOM     24  C   UNL     1      37.408  47.983  13.813 -0.45 -0.06    +0.129 A  ATOM     25  N   UNL     1      36.794  45.805  12.291 -0.39 +0.09    -0.244 NA ATOM     26  N   UNL     1      36.639  48.145  12.728 -0.91 +0.08    -0.220 NA ATOM     27  C   UNL     1      36.371  47.042  12.015 -0.48 -0.10    +0.224 A  BRANCH  24  28ATOM     28  N   UNL     1      37.667  49.153  14.523 -0.12 +0.29    -0.383 N  ATOM     29  H   UNL     1      37.226  49.956  14.092 -0.42 -0.13    +0.158 HD ATOM     30  H   UNL     1      38.676  49.259  14.547 -0.35 -0.11    +0.158 HD ENDBRANCH  24  28ENDBRANCH  21  22ENDBRANCH  20  21ENDBRANCH  19  20ENDBRANCH   1  19TORSDOF 10TERENDMDL