REMARK SMILES Cc1c(CCCCc2cncnc2N)cccc1OCCN1CCN(C)CC1
REMARK SMILES IDX 4 1 3 2 2 3 18 4 15 5 17 6 16 7 1 8 19 9 20 10 21 11 22 12
REMARK SMILES IDX 23 13 28 14 24 15 27 16 25 17 26 18 5 19 6 20 7 21 8 22 9 23
REMARK SMILES IDX 13 24 10 25 12 26 11 27 14 28
REMARK H PARENT 14 29 14 30
ROOT
ATOM      1  C   UNL     1       3.450  -1.022  -0.976  1.00  0.00     0.036 C 
ENDROOT
BRANCH   1   2
ATOM      2  C   UNL     1       2.151  -0.245  -1.013  1.00  0.00    -0.041 A 
ATOM      3  C   UNL     1       0.887  -0.822  -0.751  1.00  0.00    -0.006 A 
ATOM      4  C   UNL     1      -0.273  -0.013  -0.815  1.00  0.00     0.122 A 
ATOM      5  C   UNL     1       2.230   1.130  -1.296  1.00  0.00     0.004 A 
ATOM      6  C   UNL     1      -0.163   1.349  -1.109  1.00  0.00     0.047 A 
ATOM      7  C   UNL     1       1.085   1.918  -1.345  1.00  0.00     0.004 A 
ATOM      8  C   UNL     1       0.719  -2.282  -0.409  1.00  0.00     0.049 C 
BRANCH   4   9
ATOM      9  O   UNL     1      -1.461  -0.660  -0.575  1.00  0.00    -0.492 OA
BRANCH   9  10
ATOM     10  C   UNL     1      -2.660   0.121  -0.613  1.00  0.00     0.245 C 
BRANCH  10  11
ATOM     11  C   UNL     1      -3.849  -0.820  -0.356  1.00  0.00     0.126 C 
BRANCH  11  12
ATOM     12  N   UNL     1      -5.162  -0.152  -0.429  1.00  0.00    -0.297 NA
ATOM     13  C   UNL     1      -6.241  -1.162  -0.486  1.00  0.00     0.100 C 
ATOM     14  C   UNL     1      -5.396   0.728   0.738  1.00  0.00     0.100 C 
ATOM     15  C   UNL     1      -7.648  -0.524  -0.504  1.00  0.00     0.099 C 
ATOM     16  C   UNL     1      -6.808   1.362   0.727  1.00  0.00     0.099 C 
ATOM     17  N   UNL     1      -7.875   0.344   0.666  1.00  0.00    -0.304 NA
ATOM     18  C   UNL     1      -9.190   0.976   0.597  1.00  0.00     0.105 C 
ENDBRANCH  11  12
ENDBRANCH  10  11
ENDBRANCH   9  10
ENDBRANCH   4   9
ENDBRANCH   1   2
BRANCH   1  19
ATOM     19  C   UNL     1       4.035  -1.078   0.438  1.00  0.00     0.005 C 
BRANCH  19  20
ATOM     20  C   UNL     1       5.342  -1.874   0.521  1.00  0.00     0.005 C 
BRANCH  20  21
ATOM     21  C   UNL     1       6.532  -1.262  -0.234  1.00  0.00     0.041 C 
BRANCH  21  22
ATOM     22  C   UNL     1       6.967   0.076   0.291  1.00  0.00     0.013 A 
ATOM     23  C   UNL     1       7.532   0.190   1.550  1.00  0.00     0.120 A 
ATOM     24  C   UNL     1       6.835   1.271  -0.397  1.00  0.00     0.129 A 
ATOM     25  N   UNL     1       7.922   1.351   2.103  1.00  0.00    -0.244 NA
ATOM     26  N   UNL     1       7.194   2.454   0.117  1.00  0.00    -0.220 NA
ATOM     27  C   UNL     1       7.720   2.436   1.350  1.00  0.00     0.224 A 
BRANCH  24  28
ATOM     28  N   UNL     1       6.288   1.333  -1.677  1.00  0.00    -0.383 N 
ATOM     29  H   UNL     1       6.789   0.737  -2.325  1.00  0.00     0.158 HD
ATOM     30  H   UNL     1       6.333   2.305  -1.964  1.00  0.00     0.158 HD
ENDBRANCH  24  28
ENDBRANCH  21  22
ENDBRANCH  20  21
ENDBRANCH  19  20
ENDBRANCH   1  19
TORSDOF 10
