MODEL        2USER    Run = 2USERUSER    Estimated Free Energy of Binding    =  -9.24 kcal/mol  [=(1)+(2)+(3)-(4)]USERUSER    (1) Final Intermolecular Energy     = -12.22 kcal/molUSER        vdW + Hbond + desolv Energy     = -11.91 kcal/molUSER        Electrostatic Energy            =  -0.32 kcal/molUSER        Moving Ligand-Fixed Receptor    = -12.22 kcal/molUSER        Moving Ligand-Moving Receptor   =  +0.00 kcal/molUSER    (2) Final Total Internal Energy     =  -1.19 kcal/molUSER    (3) Torsional Free Energy           =  +2.98 kcal/molUSER    (4) Unbound System's Energy         =  -1.19 kcal/molUSERUSERREMARK SMILES CC(=O)N1CCN(CCOc2cccc(CCCCc3cncnc3N)c2C)CC1REMARK SMILES IDX 16 1 15 2 11 3 12 4 27 5 13 6 14 7 28 8 10 9 9 10 8 11 7 12REMARK SMILES IDX 2 13 4 14 5 15 30 16 6 17 29 18 1 19 3 20 17 21 18 22 19 23REMARK SMILES IDX 20 24 21 25 25 26 22 27 24 28 23 29 26 30REMARK H PARENT 26 31 26 32USER                              x       y       z     vdW  Elec       q    TypeUSER                           _______ _______ _______ _____ _____    ______ ____ROOTATOM      1  C   UNL     1      35.274  45.952  17.129 -0.40 -0.03    +0.036 C  ENDROOTBRANCH   1   2ATOM      2  C   UNL     1      34.129  45.171  17.739 -0.34 +0.02    -0.041 A  ATOM      3  C   UNL     1      31.949  44.071  17.649 -0.20 -0.03    +0.122 A  ATOM      4  C   UNL     1      32.064  43.750  19.005 -0.33 -0.00    +0.047 A  ATOM      5  C   UNL     1      32.999  44.758  16.995 -0.31 +0.00    -0.006 A  ATOM      6  C   UNL     1      33.193  44.128  19.725 -0.43 -0.00    +0.004 A  ATOM      7  C   UNL     1      34.215  44.835  19.100 -0.40 -0.00    +0.004 A  ATOM      8  C   UNL     1      32.852  45.099  15.532 -0.38 -0.04    +0.049 C  BRANCH   3   9ATOM      9  O   UNL     1      30.867  43.760  16.866 -0.06 +0.13    -0.492 OA BRANCH   9  10ATOM     10  C   UNL     1      30.923  42.626  15.999 -0.24 -0.12    +0.245 C  BRANCH  10  11ATOM     11  C   UNL     1      29.736  41.674  16.250 -0.32 -0.04    +0.126 C  BRANCH  11  12ATOM     12  N   UNL     1      30.025  40.400  16.920 -0.20 +0.02    -0.296 NA ATOM     13  C   UNL     1      31.160  38.445  20.634 -0.37 +0.03    +0.219 C  ATOM     14  N   UNL     1      30.730  39.111  19.497 -0.16 -0.04    -0.340 N  ATOM     15  C   UNL     1      31.579  40.155  18.921 -0.36 +0.01    +0.135 C  ATOM     16  C   UNL     1      29.472  38.836  18.798 -0.32 +0.03    +0.135 C  ATOM     17  C   UNL     1      31.414  40.264  17.393 -0.30 -0.02    +0.106 C  ATOM     18  C   UNL     1      29.022  40.025  17.927 -0.27 +0.01    +0.106 C  ATOM     19  C   UNL     1      30.290  37.321  21.136 -0.40 +0.01    +0.114 C  ATOM     20  O   UNL     1      32.196  38.746  21.228 -1.11 -0.11    -0.275 OA ENDBRANCH  11  12ENDBRANCH  10  11ENDBRANCH   9  10ENDBRANCH   3   9ENDBRANCH   1   2BRANCH   1  21ATOM     21  C   UNL     1      36.403  45.028  16.662 -0.39 -0.00    +0.005 C  BRANCH  21  22ATOM     22  C   UNL     1      37.777  45.704  16.662 -0.42 -0.00    +0.005 C  BRANCH  22  23ATOM     23  C   UNL     1      37.750  47.116  16.068 -0.44 -0.02    +0.041 C  BRANCH  23  24ATOM     24  C   UNL     1      37.415  47.100  14.604 -0.44 -0.01    +0.013 A  ATOM     25  C   UNL     1      37.455  45.914  13.890 -0.35 -0.04    +0.120 A  ATOM     26  C   UNL     1      37.022  48.216  13.877 -0.45 -0.07    +0.129 A  ATOM     27  N   UNL     1      37.157  45.808  12.585 -0.34 +0.08    -0.244 NA ATOM     28  N   UNL     1      36.720  48.154  12.574 -0.96 +0.07    -0.220 NA ATOM     29  C   UNL     1      36.802  46.952  11.989 -0.49 -0.08    +0.224 A  BRANCH  26  30ATOM     30  N   UNL     1      36.931  49.481  14.469 -0.16 +0.35    -0.383 N  ATOM     31  H   UNL     1      37.860  49.850  14.643 -0.47 -0.16    +0.158 HD ATOM     32  H   UNL     1      36.436  49.419  15.352 -0.12 -0.27    +0.158 HD ENDBRANCH  26  30ENDBRANCH  23  24ENDBRANCH  22  23ENDBRANCH  21  22ENDBRANCH   1  21TORSDOF 10TERENDMDL