REMARK SMILES Cc1c(CCCCc2cncnc2N)cccc1OCCN1CCOC[C@@H]1F
REMARK SMILES IDX 4 1 3 2 2 3 18 4 15 5 17 6 16 7 1 8 19 9 20 10 21 11 22 12
REMARK SMILES IDX 23 13 27 14 24 15 26 16 25 17 28 18 5 19 6 20 7 21 8 22 9 23
REMARK SMILES IDX 13 24 10 25 12 26 11 27 14 28
REMARK H PARENT 14 29 14 30
ROOT
ATOM      1  C   UNL     1       2.476  -0.503  -1.485  1.00  0.00     0.036 C 
ENDROOT
BRANCH   1   2
ATOM      2  C   UNL     1       1.047  -0.997  -1.403  1.00  0.00    -0.041 A 
ATOM      3  C   UNL     1      -0.026  -0.173  -0.985  1.00  0.00    -0.006 A 
ATOM      4  C   UNL     1      -1.338  -0.700  -0.962  1.00  0.00     0.122 A 
ATOM      5  C   UNL     1       0.794  -2.336  -1.741  1.00  0.00     0.004 A 
ATOM      6  C   UNL     1      -1.560  -2.035  -1.311  1.00  0.00     0.047 A 
ATOM      7  C   UNL     1      -0.498  -2.851  -1.693  1.00  0.00     0.004 A 
ATOM      8  C   UNL     1       0.206   1.277  -0.631  1.00  0.00     0.049 C 
BRANCH   4   9
ATOM      9  O   UNL     1      -2.329   0.173  -0.590  1.00  0.00    -0.492 OA
BRANCH   9  10
ATOM     10  C   UNL     1      -3.676  -0.308  -0.576  1.00  0.00     0.245 C 
BRANCH  10  11
ATOM     11  C   UNL     1      -4.590   0.858  -0.166  1.00  0.00     0.129 C 
BRANCH  11  12
ATOM     12  N   UNL     1      -6.025   0.521  -0.162  1.00  0.00    -0.266 NA
ATOM     13  C   UNL     1      -6.382  -0.395   0.941  1.00  0.00     0.116 C 
ATOM     14  C   UNL     1      -6.825   1.753  -0.022  1.00  0.00     0.263 C 
ATOM     15  C   UNL     1      -7.898  -0.662   0.988  1.00  0.00     0.176 C 
ATOM     16  C   UNL     1      -8.329   1.449   0.061  1.00  0.00     0.214 C 
ATOM     17  O   UNL     1      -8.635   0.557   1.143  1.00  0.00    -0.376 OA
ATOM     18  F   UNL     1      -6.606   2.534  -1.113  1.00  0.00    -0.227 F 
ENDBRANCH  11  12
ENDBRANCH  10  11
ENDBRANCH   9  10
ENDBRANCH   4   9
ENDBRANCH   1   2
BRANCH   1  19
ATOM     19  C   UNL     1       3.237  -0.754  -0.180  1.00  0.00     0.005 C 
BRANCH  19  20
ATOM     20  C   UNL     1       4.671  -0.229  -0.265  1.00  0.00     0.005 C 
BRANCH  20  21
ATOM     21  C   UNL     1       5.432  -0.483   1.039  1.00  0.00     0.041 C 
BRANCH  21  22
ATOM     22  C   UNL     1       6.843   0.025   0.971  1.00  0.00     0.013 A 
ATOM     23  C   UNL     1       7.861  -0.797   0.516  1.00  0.00     0.120 A 
ATOM     24  C   UNL     1       7.230   1.315   1.308  1.00  0.00     0.129 A 
ATOM     25  N   UNL     1       9.145  -0.418   0.405  1.00  0.00    -0.244 NA
ATOM     26  N   UNL     1       8.499   1.732   1.214  1.00  0.00    -0.220 NA
ATOM     27  C   UNL     1       9.397   0.845   0.767  1.00  0.00     0.224 A 
BRANCH  24  28
ATOM     28  N   UNL     1       6.308   2.256   1.780  1.00  0.00    -0.383 N 
ATOM     29  H   UNL     1       5.572   2.399   1.097  1.00  0.00     0.158 HD
ATOM     30  H   UNL     1       5.890   1.928   2.645  1.00  0.00     0.158 HD
ENDBRANCH  24  28
ENDBRANCH  21  22
ENDBRANCH  20  21
ENDBRANCH  19  20
ENDBRANCH   1  19
TORSDOF 10
