MODEL        4USER    Run = 4USERUSER    Estimated Free Energy of Binding    = -12.44 kcal/mol  [=(1)+(2)+(3)-(4)]USERUSER    (1) Final Intermolecular Energy     = -15.42 kcal/molUSER        vdW + Hbond + desolv Energy     = -15.10 kcal/molUSER        Electrostatic Energy            =  -0.33 kcal/molUSER        Moving Ligand-Fixed Receptor    = -15.42 kcal/molUSER        Moving Ligand-Moving Receptor   =  +0.00 kcal/molUSER    (2) Final Total Internal Energy     =  -3.22 kcal/molUSER    (3) Torsional Free Energy           =  +2.98 kcal/molUSER    (4) Unbound System's Energy         =  -3.22 kcal/molUSERUSERREMARK SMILES CN1CCN(CCOc2ccc3nc(-c4ccccn4)c(-c4ccc(CN5CCC(n6c(O)nc7ccccc76)CC5)cc4)nc3c2)CC1REMARK SMILES IDX 9 1 10 2 11 3 12 4 13 5 14 6 21 7 45 8 46 9 47 10 8 11 7 12REMARK SMILES IDX 6 13 5 14 2 15 3 16 49 17 4 18 48 19 1 20 22 21 23 22 44 23REMARK SMILES IDX 24 24 43 25 25 26 26 27 27 28 28 29 42 30 29 31 41 32 30 33REMARK SMILES IDX 31 34 32 35 40 36 34 37 39 38 35 39 38 40 36 41 37 42 33 43REMARK SMILES IDX 15 45 16 46 20 47 17 48 19 49 18 50REMARK H PARENT 33 44USER                              x       y       z     vdW  Elec       q    TypeUSER                           _______ _______ _______ _____ _____    ______ ____ROOTATOM      1  C   UNL     1      36.323  43.427  18.813 -0.20 -0.02    +0.121 A  ATOM      2  C   UNL     1      35.399  42.482  19.250 -0.39 -0.01    +0.049 A  ATOM      3  C   UNL     1      35.366  42.100  20.592 -0.38 +0.00    +0.034 A  ATOM      4  C   UNL     1      36.243  42.649  21.513 -0.36 +0.01    +0.090 A  ATOM      5  N   UNL     1      36.202  42.231  22.789 -0.26 -0.02    -0.242 NA ATOM      6  C   UNL     1      37.103  42.774  23.665 -0.32 +0.01    +0.116 A  ATOM      7  C   UNL     1      37.985  43.784  23.255 -0.27 +0.01    +0.099 A  ATOM      8  N   UNL     1      38.016  44.200  21.951 -0.21 -0.01    -0.244 NA ATOM      9  C   UNL     1      37.164  43.626  21.084 -0.34 +0.00    +0.093 A  ATOM     10  C   UNL     1      37.190  44.000  19.741 -0.32 -0.01    +0.077 A  ENDROOTBRANCH   1  11ATOM     11  O   UNL     1      36.265  43.696  17.476 -0.04 +0.14    -0.492 OA BRANCH  11  12ATOM     12  C   UNL     1      37.340  44.411  16.858 -0.23 -0.07    +0.245 C  BRANCH  12  13ATOM     13  C   UNL     1      37.062  45.926  16.838 -0.33 -0.06    +0.126 C  BRANCH  13  14ATOM     14  N   UNL     1      37.935  46.675  15.914 -0.18 +0.13    -0.297 NA ATOM     15  N   UNL     1      37.446  47.522  13.019 -0.71 +0.09    -0.304 NA ATOM     16  C   UNL     1      37.381  46.126  13.501 -0.46 -0.04    +0.099 C  ATOM     17  C   UNL     1      37.756  48.460  14.116 -0.53 -0.05    +0.099 C  ATOM     18  C   UNL     1      38.289  45.869  14.723 -0.39 -0.03    +0.100 C  ATOM     19  C   UNL     1      37.320  47.966  15.514 -0.43 -0.08    +0.100 C  ATOM     20  C   UNL     1      36.217  47.882  12.315 -0.60 -0.05    +0.105 C  ENDBRANCH  13  14ENDBRANCH  12  13ENDBRANCH  11  12ENDBRANCH   1  11BRANCH   7  21ATOM     21  C   UNL     1      38.903  44.530  24.137 -0.22 +0.00    +0.002 A  ATOM     22  C   UNL     1      40.134  43.992  24.554 -0.15 +0.00    +0.011 A  ATOM     23  C   UNL     1      38.556  45.803  24.619 -0.26 +0.00    +0.011 A  ATOM     24  C   UNL     1      41.007  44.717  25.371 -0.09 +0.00    +0.006 A  ATOM     25  C   UNL     1      39.420  46.526  25.448 -0.19 +0.00    +0.006 A  ATOM     26  C   UNL     1      40.663  45.999  25.818 -0.11 -0.00    -0.034 A  BRANCH  26  27ATOM     27  C   UNL     1      41.617  46.799  26.678 -0.10 +0.01    +0.120 C  BRANCH  27  28ATOM     28  N   UNL     1      42.371  47.831  25.948 -0.06 -0.03    -0.299 NA ATOM     29  C   UNL     1      43.604  47.343  25.324 -0.10 +0.01    +0.087 C  ATOM     30  C   UNL     1      41.509  48.569  25.012 -0.32 +0.01    +0.087 C  ATOM     31  C   UNL     1      43.362  46.449  24.105 -0.13 +0.01    +0.041 C  ATOM     32  C   UNL     1      41.917  48.465  23.538 -0.38 +0.01    +0.041 C  ATOM     33  C   UNL     1      42.264  47.014  23.188 -0.23 +0.01    +0.095 C  BRANCH  33  34ATOM     34  N   UNL     1      42.537  46.826  21.770 -0.17 -0.06    -0.291 N  ATOM     35  C   UNL     1      43.715  47.127  21.122 -0.14 +0.13    +0.295 A  ATOM     36  C   UNL     1      41.657  46.359  20.811 -0.27 +0.01    +0.072 A  ATOM     37  N   UNL     1      43.635  46.938  19.831 -0.23 -0.11    -0.195 NA ATOM     38  C   UNL     1      40.335  45.892  20.851 -0.24 +0.00    +0.029 A  ATOM     39  C   UNL     1      42.374  46.449  19.617 -0.34 +0.02    +0.092 A  ATOM     40  C   UNL     1      39.752  45.502  19.639 -0.40 -0.00    +0.002 A  ATOM     41  C   UNL     1      41.770  46.058  18.411 -0.43 +0.00    +0.031 A  ATOM     42  C   UNL     1      40.454  45.583  18.437 -0.47 -0.00    +0.002 A  BRANCH  35  43ATOM     43  O   UNL     1      44.823  47.569  21.697 -0.51 -0.30    -0.480 OA ATOM     44  H   UNL     1      44.780  48.535  21.727 -0.42 +0.03    +0.296 HD ENDBRANCH  35  43ENDBRANCH  33  34ENDBRANCH  27  28ENDBRANCH  26  27ENDBRANCH   7  21BRANCH   6  45ATOM     45  C   UNL     1      37.068  42.183  25.017 -0.33 -0.00    +0.091 A  ATOM     46  C   UNL     1      35.861  41.946  25.678 -0.32 -0.00    +0.031 A  ATOM     47  N   UNL     1      38.259  41.845  25.577 -0.12 -0.00    -0.255 NA ATOM     48  C   UNL     1      35.877  41.370  26.948 -0.59 -0.00    +0.004 A  ATOM     49  C   UNL     1      38.248  41.284  26.807 -0.31 -0.01    +0.112 A  ATOM     50  C   UNL     1      37.093  41.034  27.526 -0.49 -0.01    +0.020 A  ENDBRANCH   6  45TORSDOF 10TERENDMDL