REMARK SMILES CN1CCN(CCOc2ccc3nc(-c4ccccn4)c(-c4ccc(CN5CCC(n6c(O)nc7ccccc76)CC5)cc4)nc3c2)CC1
REMARK SMILES IDX 9 1 10 2 11 3 12 4 13 5 14 6 21 7 45 8 46 9 47 10 8 11 7 12
REMARK SMILES IDX 6 13 5 14 2 15 3 16 49 17 4 18 48 19 1 20 22 21 23 22 44 23
REMARK SMILES IDX 24 24 43 25 25 26 26 27 27 28 28 29 42 30 29 31 41 32 30 33
REMARK SMILES IDX 31 34 32 35 40 36 34 37 39 38 35 39 38 40 36 41 37 42 33 43
REMARK SMILES IDX 15 45 16 46 20 47 17 48 19 49 18 50
REMARK H PARENT 33 44
ROOT
ATOM      1  C   UNL     1      -5.212   0.463   2.700  1.00  0.00     0.121 A 
ATOM      2  C   UNL     1      -5.472  -0.433   3.733  1.00  0.00     0.049 A 
ATOM      3  C   UNL     1      -4.572  -1.461   4.015  1.00  0.00     0.034 A 
ATOM      4  C   UNL     1      -3.407  -1.612   3.281  1.00  0.00     0.090 A 
ATOM      5  N   UNL     1      -2.582  -2.635   3.561  1.00  0.00    -0.242 NA
ATOM      6  C   UNL     1      -1.455  -2.770   2.797  1.00  0.00     0.116 A 
ATOM      7  C   UNL     1      -1.141  -1.828   1.806  1.00  0.00     0.099 A 
ATOM      8  N   UNL     1      -1.991  -0.791   1.531  1.00  0.00    -0.244 NA
ATOM      9  C   UNL     1      -3.122  -0.693   2.251  1.00  0.00     0.093 A 
ATOM     10  C   UNL     1      -4.029   0.330   1.976  1.00  0.00     0.077 A 
ENDROOT
BRANCH   1  11
ATOM     11  O   UNL     1      -6.180   1.407   2.515  1.00  0.00    -0.492 OA
BRANCH  11  12
ATOM     12  C   UNL     1      -6.130   2.244   1.354  1.00  0.00     0.245 C 
BRANCH  12  13
ATOM     13  C   UNL     1      -6.659   1.503   0.111  1.00  0.00     0.126 C 
BRANCH  13  14
ATOM     14  N   UNL     1      -6.810   2.369  -1.073  1.00  0.00    -0.297 NA
ATOM     15  N   UNL     1      -9.187   2.693  -2.966  1.00  0.00    -0.304 NA
ATOM     16  C   UNL     1      -8.515   1.407  -2.686  1.00  0.00     0.099 C 
ATOM     17  C   UNL     1      -8.581   3.800  -2.200  1.00  0.00     0.099 C 
ATOM     18  C   UNL     1      -7.028   1.576  -2.305  1.00  0.00     0.100 C 
ATOM     19  C   UNL     1      -7.899   3.360  -0.884  1.00  0.00     0.100 C 
ATOM     20  C   UNL     1     -10.626   2.583  -2.733  1.00  0.00     0.105 C 
ENDBRANCH  13  14
ENDBRANCH  12  13
ENDBRANCH  11  12
ENDBRANCH   1  11
BRANCH   7  21
ATOM     21  C   UNL     1       0.105  -1.799   1.015  1.00  0.00     0.002 A 
ATOM     22  C   UNL     1       1.371  -1.891   1.621  1.00  0.00     0.011 A 
ATOM     23  C   UNL     1       0.063  -1.645  -0.380  1.00  0.00     0.011 A 
ATOM     24  C   UNL     1       2.545  -1.886   0.860  1.00  0.00     0.006 A 
ATOM     25  C   UNL     1       1.235  -1.626  -1.144  1.00  0.00     0.006 A 
ATOM     26  C   UNL     1       2.488  -1.765  -0.534  1.00  0.00    -0.034 A 
BRANCH  26  27
ATOM     27  C   UNL     1       3.753  -1.789  -1.364  1.00  0.00     0.120 C 
BRANCH  27  28
ATOM     28  N   UNL     1       4.125  -0.487  -1.940  1.00  0.00    -0.299 NA
ATOM     29  C   UNL     1       4.429   0.544  -0.944  1.00  0.00     0.087 C 
ATOM     30  C   UNL     1       5.179  -0.628  -2.957  1.00  0.00     0.087 C 
ATOM     31  C   UNL     1       5.757   0.321  -0.216  1.00  0.00     0.041 C 
ATOM     32  C   UNL     1       6.482   0.117  -2.646  1.00  0.00     0.041 C 
ATOM     33  C   UNL     1       6.877  -0.100  -1.182  1.00  0.00     0.095 C 
BRANCH  33  34
ATOM     34  N   UNL     1       8.174   0.477  -0.856  1.00  0.00    -0.291 N 
ATOM     35  C   UNL     1       9.303  -0.220  -0.485  1.00  0.00     0.295 A 
ATOM     36  C   UNL     1       8.496   1.821  -0.812  1.00  0.00     0.072 A 
ATOM     37  N   UNL     1      10.292   0.572  -0.162  1.00  0.00    -0.195 NA
ATOM     38  C   UNL     1       7.788   2.999  -1.089  1.00  0.00     0.029 A 
ATOM     39  C   UNL     1       9.820   1.840  -0.371  1.00  0.00     0.092 A 
ATOM     40  C   UNL     1       8.464   4.214  -0.917  1.00  0.00     0.002 A 
ATOM     41  C   UNL     1      10.479   3.068  -0.200  1.00  0.00     0.031 A 
ATOM     42  C   UNL     1       9.787   4.252  -0.479  1.00  0.00     0.002 A 
BRANCH  35  43
ATOM     43  O   UNL     1       9.417  -1.538  -0.436  1.00  0.00    -0.480 OA
ATOM     44  H   UNL     1       8.926  -1.909  -1.183  1.00  0.00     0.296 HD
ENDBRANCH  35  43
ENDBRANCH  33  34
ENDBRANCH  27  28
ENDBRANCH  26  27
ENDBRANCH   7  21
BRANCH   6  45
ATOM     45  C   UNL     1      -0.660  -3.978   3.093  1.00  0.00     0.091 A 
ATOM     46  C   UNL     1      -0.455  -4.412   4.404  1.00  0.00     0.031 A 
ATOM     47  N   UNL     1      -0.168  -4.672   2.033  1.00  0.00    -0.255 NA
ATOM     48  C   UNL     1       0.289  -5.569   4.634  1.00  0.00     0.004 A 
ATOM     49  C   UNL     1       0.546  -5.792   2.282  1.00  0.00     0.112 A 
ATOM     50  C   UNL     1       0.801  -6.273   3.554  1.00  0.00     0.020 A 
ENDBRANCH   6  45
TORSDOF 10
