MODEL        4USER    Run = 4USERUSER    Estimated Free Energy of Binding    = -10.31 kcal/mol  [=(1)+(2)+(3)-(4)]USERUSER    (1) Final Intermolecular Energy     = -12.69 kcal/molUSER        vdW + Hbond + desolv Energy     = -12.70 kcal/molUSER        Electrostatic Energy            =  +0.00 kcal/molUSER        Moving Ligand-Fixed Receptor    = -12.69 kcal/molUSER        Moving Ligand-Moving Receptor   =  +0.00 kcal/molUSER    (2) Final Total Internal Energy     =  -2.04 kcal/molUSER    (3) Torsional Free Energy           =  +2.39 kcal/molUSER    (4) Unbound System's Energy         =  -2.04 kcal/molUSERUSERREMARK SMILES Cc1ccc(F)cc1C(=O)C=C1NC=C(c2ccc(C[C@@H]3CC[C@H](O)CN3)cc2)C1=NREMARK SMILES IDX 16 1 17 2 18 3 19 4 28 5 29 6 15 7 12 8 13 9 30 10 14 11REMARK SMILES IDX 11 13 9 14 10 15 8 16 2 17 3 18 4 19 7 20 5 21 1 22 6 23REMARK SMILES IDX 31 24 20 26 21 27 22 28 27 29 23 30 26 31 24 32 25 34REMARK H PARENT 13 12 31 25 27 33 25 35USER                              x       y       z     vdW  Elec       q    TypeUSER                           _______ _______ _______ _____ _____    ______ ____ROOTATOM      1  C   UNL     1      28.478  35.140  21.704 -0.35 +0.00    -0.015 A  ATOM      2  C   UNL     1      27.618  34.089  21.363 -0.38 -0.00    +0.009 A  ATOM      3  C   UNL     1      27.601  32.900  22.102 -0.43 -0.00    +0.004 A  ATOM      4  C   UNL     1      28.452  32.732  23.199 -0.41 -0.02    -0.046 A  ATOM      5  C   UNL     1      29.311  33.777  23.549 -0.09 +0.00    +0.004 A  ATOM      6  C   UNL     1      29.326  34.964  22.808 -0.24 +0.00    +0.009 A  ENDROOTBRANCH   1   7ATOM      7  C   UNL     1      28.498  36.385  20.931 -0.33 -0.01    +0.025 C  ATOM      8  C   UNL     1      27.955  38.274  19.534 -0.29 +0.00    +0.068 C  ATOM      9  N   UNL     1      29.172  38.419  20.140 -0.10 -0.02    -0.359 N  ATOM     10  C   UNL     1      27.469  36.896  19.955 -0.30 -0.02    +0.087 C  ATOM     11  C   UNL     1      29.421  37.363  20.971 -0.33 +0.00    +0.093 C  ATOM     12  H   UNL     1      29.593  39.324  20.307 +0.09 +0.01    +0.166 HD BRANCH   8  13ATOM     13  C   UNL     1      27.210  39.088  18.782 -0.24 +0.01    +0.081 C  BRANCH  13  14ATOM     14  C   UNL     1      25.770  39.391  18.969 -0.23 -0.03    +0.188 C  ATOM     15  O   UNL     1      24.925  38.712  18.397 -0.37 +0.10    -0.289 OA BRANCH  14  16ATOM     16  C   UNL     1      25.350  40.520  19.823 -0.29 -0.01    +0.028 A  ATOM     17  C   UNL     1      24.566  40.299  20.972 -0.38 +0.01    -0.040 A  ATOM     18  C   UNL     1      24.158  41.407  21.731 -0.57 -0.00    +0.007 A  ATOM     19  C   UNL     1      24.532  42.698  21.358 -0.53 -0.01    +0.039 A  ATOM     20  C   UNL     1      25.721  41.816  19.447 -0.31 -0.01    +0.051 A  ATOM     21  C   UNL     1      25.308  42.890  20.222 -0.37 -0.04    +0.123 A  ATOM     22  C   UNL     1      24.131  38.920  21.382 -0.39 -0.03    +0.045 C  ATOM     23  F   UNL     1      25.659  44.130  19.867 -0.14 +0.09    -0.207 F  ENDBRANCH  14  16ENDBRANCH  13  14ENDBRANCH   8  13BRANCH  10  24ATOM     24  N   UNL     1      26.416  36.262  19.575 -0.20 +0.24    -0.298 NA ATOM     25  H   UNL     1      25.616  36.883  19.448 -0.45 -0.27    +0.188 HD ENDBRANCH  10  24ENDBRANCH   1   7BRANCH   4  26ATOM     26  C   UNL     1      28.438  31.445  23.993 -0.51 +0.03    +0.054 C  BRANCH  26  27ATOM     27  C   UNL     1      29.524  30.436  23.563 -0.58 +0.01    +0.058 C  ATOM     28  C   UNL     1      30.873  30.809  24.207 -0.66 +0.01    +0.022 C  ATOM     29  N   UNL     1      29.581  30.334  22.092 -0.21 +0.11    -0.311 NA ATOM     30  C   UNL     1      31.999  29.915  23.690 -0.61 +0.01    +0.035 C  ATOM     31  C   UNL     1      30.886  30.670  21.525 -0.53 -0.02    +0.113 C  ATOM     32  C   UNL     1      32.053  29.894  22.159 -0.34 +0.00    +0.128 C  ATOM     33  H   UNL     1      29.315  29.388  21.815 -0.36 -0.11    +0.123 HD BRANCH  32  34ATOM     34  O   UNL     1      33.286  30.469  21.714 -0.80 +0.04    -0.392 OA ATOM     35  H   UNL     1      33.594  29.945  20.954 -0.47 -0.06    +0.211 HD ENDBRANCH  32  34ENDBRANCH  26  27ENDBRANCH   4  26TORSDOF 8TERENDMDL