REMARK SMILES CCCN(Cc1ccnc(NCC(C)C)n1)C(=O)c1cc(C(=O)O)cc2cc(F)ccc12
REMARK SMILES IDX 4 1 3 2 2 3 1 4 5 5 6 6 7 7 16 8 8 9 10 10 9 11 11 12 12 14
REMARK SMILES IDX 13 15 14 16 15 17 17 18 18 19 19 20 20 21 32 22 21 23 31 24
REMARK SMILES IDX 26 25 25 26 30 27 27 28 28 29 29 30 22 31 23 32 24 33
REMARK H PARENT 11 13 24 34
ROOT
ATOM      1  N   UNL     1      -0.935  -0.667   0.672  1.00  0.00    -0.333 N 
ENDROOT
BRANCH   1   2
ATOM      2  C   UNL     1       0.097  -1.609   1.123  1.00  0.00     0.120 C 
BRANCH   2   3
ATOM      3  C   UNL     1       0.386  -2.703   0.093  1.00  0.00     0.018 C 
ATOM      4  C   UNL     1       1.413  -3.695   0.614  1.00  0.00     0.006 C 
ENDBRANCH   2   3
ENDBRANCH   1   2
BRANCH   1   5
ATOM      5  C   UNL     1      -0.545   0.332  -0.340  1.00  0.00     0.176 C 
BRANCH   5   6
ATOM      6  C   UNL     1       0.588   1.230   0.096  1.00  0.00     0.065 A 
ATOM      7  C   UNL     1       0.375   2.244   1.007  1.00  0.00     0.046 A 
ATOM      8  N   UNL     1       1.811   0.972  -0.421  1.00  0.00    -0.216 NA
ATOM      9  C   UNL     1       1.483   2.979   1.349  1.00  0.00     0.117 A 
ATOM     10  C   UNL     1       2.830   1.748  -0.029  1.00  0.00     0.222 A 
ATOM     11  N   UNL     1       2.711   2.750   0.849  1.00  0.00    -0.222 NA
BRANCH  10  12
ATOM     12  N   UNL     1       4.111   1.533  -0.521  1.00  0.00    -0.354 N 
ATOM     13  H   UNL     1       4.720   2.036   0.116  1.00  0.00     0.163 HD
BRANCH  12  14
ATOM     14  C   UNL     1       4.439   0.132  -0.735  1.00  0.00     0.119 C 
BRANCH  14  15
ATOM     15  C   UNL     1       5.902  -0.014  -1.190  1.00  0.00     0.002 C 
ATOM     16  C   UNL     1       6.149  -1.432  -1.709  1.00  0.00     0.009 C 
ATOM     17  C   UNL     1       6.886   0.297  -0.059  1.00  0.00     0.009 C 
ENDBRANCH  14  15
ENDBRANCH  12  14
ENDBRANCH  10  12
ENDBRANCH   5   6
ENDBRANCH   1   5
BRANCH   1  18
ATOM     18  C   UNL     1      -2.262  -1.007   0.944  1.00  0.00     0.254 C 
ATOM     19  O   UNL     1      -2.606  -2.011   1.561  1.00  0.00    -0.269 OA
BRANCH  18  20
ATOM     20  C   UNL     1      -3.331  -0.093   0.497  1.00  0.00     0.048 A 
ATOM     21  C   UNL     1      -3.476   1.105   1.208  1.00  0.00     0.030 A 
ATOM     22  C   UNL     1      -4.178  -0.425  -0.587  1.00  0.00    -0.005 A 
ATOM     23  C   UNL     1      -4.454   2.020   0.825  1.00  0.00     0.061 A 
ATOM     24  C   UNL     1      -4.085  -1.633  -1.320  1.00  0.00     0.012 A 
ATOM     25  C   UNL     1      -5.173   0.515  -0.960  1.00  0.00    -0.014 A 
ATOM     26  C   UNL     1      -5.297   1.725  -0.253  1.00  0.00     0.024 A 
ATOM     27  C   UNL     1      -4.944  -1.898  -2.387  1.00  0.00     0.040 A 
ATOM     28  C   UNL     1      -6.027   0.232  -2.037  1.00  0.00     0.048 A 
ATOM     29  C   UNL     1      -5.905  -0.963  -2.735  1.00  0.00     0.123 A 
ATOM     30  F   UNL     1      -6.731  -1.214  -3.759  1.00  0.00    -0.207 F 
BRANCH  23  31
ATOM     31  C   UNL     1      -4.543   3.295   1.573  1.00  0.00     0.335 C 
ATOM     32  O   UNL     1      -3.743   3.677   2.407  1.00  0.00    -0.246 OA
BRANCH  31  33
ATOM     33  O   UNL     1      -5.620   4.024   1.238  1.00  0.00    -0.478 OA
ATOM     34  H   UNL     1      -5.564   4.820   1.808  1.00  0.00     0.297 HD
ENDBRANCH  31  33
ENDBRANCH  23  31
ENDBRANCH  18  20
ENDBRANCH   1  18
TORSDOF 11
