REMARK SMILES CCCCCCC1=NNC=C(c2cc3c([nH]2)CCNC3=O)C=C1
REMARK SMILES IDX 7 1 6 3 5 4 4 5 3 6 2 7 1 8 8 9 9 10 10 12 11 13 12 14 13 15
REMARK SMILES IDX 16 16 14 17 15 18 20 19 17 20 19 21 18 22 21 24 22 26 23 27
REMARK H PARENT 9 11 16 23 19 25
REMARK Flexibility Score:  199.900
ROOT
ATOM      1  C   UNL     1      -1.482  -0.046   1.041  1.00  0.00     0.061 CG0
ATOM      2  G   UNL     1      -0.827  -0.348  -0.266  1.00  0.00     0.000 G0
ENDROOT
BRANCH   1   3
ATOM      3  C   UNL     1      -2.674   0.904   0.965  1.00  0.00     0.058 C 
BRANCH   3   4
ATOM      4  C   UNL     1      -4.002   0.211   1.279  1.00  0.00     0.006 C 
BRANCH   4   5
ATOM      5  C   UNL     1      -4.415  -0.885   0.289  1.00  0.00     0.000 C 
BRANCH   5   6
ATOM      6  C   UNL     1      -4.728  -0.405  -1.133  1.00  0.00    -0.000 C 
BRANCH   6   7
ATOM      7  C   UNL     1      -6.209  -0.122  -1.402  1.00  0.00    -0.003 C 
ATOM      8  C   UNL     1      -6.785   1.030  -0.598  1.00  0.00     0.004 C 
ENDBRANCH   6   7
ENDBRANCH   5   6
ENDBRANCH   4   5
ENDBRANCH   3   4
ENDBRANCH   1   3
BRANCH   1   9
ATOM      9  N   UNL     1      -1.187  -0.499   2.218  1.00  0.00    -0.181 NA
BRANCH   9  10
ATOM     10  N   UNL     1      -0.135  -1.348   2.386  1.00  0.00    -0.285 N 
ATOM     11  H   UNL     1      -0.076  -1.687   3.349  1.00  0.00     0.189 HD
BRANCH  10  12
ATOM     12  C   UNL     1       1.125  -1.121   1.864  1.00  0.00     0.113 C 
BRANCH  12  13
ATOM     13  C   UNL     1       1.480  -0.730   0.626  1.00  0.00     0.016 C 
BRANCH  13  14
ATOM     14  C   UNL     1       2.876  -0.568   0.369  1.00  0.00     0.048 A 
ATOM     15  C   UNL     1       4.016  -1.270   0.732  1.00  0.00     0.042 A 
ATOM     16  N   UNL     1       3.281   0.509  -0.393  1.00  0.00    -0.358 N 
ATOM     17  C   UNL     1       5.135  -0.604   0.173  1.00  0.00     0.061 A 
ATOM     18  C   UNL     1       4.641   0.489  -0.513  1.00  0.00     0.030 A 
ATOM     19  C   UNL     1       6.559  -0.903   0.225  1.00  0.00     0.253 C 
ATOM     20  C   UNL     1       5.483   1.456  -1.263  1.00  0.00     0.076 C 
ATOM     21  N   UNL     1       7.369   0.038  -0.392  1.00  0.00    -0.352 N 
ATOM     22  C   UNL     1       6.910   1.397  -0.677  1.00  0.00     0.122 C 
ATOM     23  H   UNL     1       2.661   1.207  -0.784  1.00  0.00     0.166 HD
ATOM     24  O   UNL     1       7.029  -1.901   0.757  1.00  0.00    -0.269 OA
ATOM     25  H   UNL     1       8.354  -0.128  -0.235  1.00  0.00     0.163 HD
ENDBRANCH  13  14
BRANCH  13  26
ATOM     26  C   UNL     1       0.475  -0.616  -0.420  1.00  0.00     0.014 C 
BRANCH  26  27
ATOM     27  C   UNL     1      -0.827  -0.348  -0.266  1.00  0.00     0.026 CG0
ATOM     28  G   UNL     1      -1.482  -0.046   1.041  1.00  0.00     0.000 G0
ENDBRANCH  26  27
ENDBRANCH  13  26
ENDBRANCH  12  13
ENDBRANCH  10  12
ENDBRANCH   9  10
ENDBRANCH   1   9
TORSDOF 6
