MODEL        10USER    Run = 10USERUSER    Estimated Free Energy of Binding    =  -9.81 kcal/mol  [=(1)+(2)+(3)-(4)]USERUSER    (1) Final Intermolecular Energy     = -13.98 kcal/molUSER        vdW + Hbond + desolv Energy     = -13.61 kcal/molUSER        Electrostatic Energy            =  -0.37 kcal/molUSER        Moving Ligand-Fixed Receptor    = -13.98 kcal/molUSER        Moving Ligand-Moving Receptor   =  +0.00 kcal/molUSER    (2) Final Total Internal Energy     =  -1.87 kcal/molUSER    (3) Torsional Free Energy           =  +4.18 kcal/molUSER    (4) Unbound System's Energy         =  -1.87 kcal/molUSERUSERREMARK SMILES CC=Cc1c(N)ncc(C)c1N=C(N)C=Cc1ccc(/C=C/CN(C)CS(C)(=O)=O)cc1CREMARK SMILES IDX 17 1 18 2 19 3 20 4 31 5 32 6 33 7 16 8 15 9 13 10 14 11REMARK SMILES IDX 12 14 11 15 4 16 5 17 7 18 9 19 8 20 10 21 3 22 2 23 1 24REMARK SMILES IDX 6 25 21 28 22 29 23 30 24 31 25 32 26 33 27 34 28 35 29 36REMARK SMILES IDX 30 37REMARK H PARENT 14 12 14 13 6 26 6 27USER                              x       y       z     vdW  Elec       q    TypeUSER                           _______ _______ _______ _____ _____    ______ ____ROOTATOM      1  C   UNL     1      32.619  42.932  16.539 -0.30 +0.01    -0.023 A  ATOM      2  C   UNL     1      31.483  43.150  15.746 -0.35 -0.00    +0.009 A  ATOM      3  C   UNL     1      30.255  42.574  16.080 -0.31 -0.00    +0.009 A  ATOM      4  C   UNL     1      30.139  41.757  17.208 -0.26 +0.01    -0.026 A  ATOM      5  C   UNL     1      31.272  41.542  18.005 -0.30 -0.00    +0.012 A  ATOM      6  C   UNL     1      32.517  42.114  17.681 -0.33 +0.01    -0.043 A  ATOM      7  C   UNL     1      33.698  41.849  18.574 -0.42 -0.01    +0.045 C  ENDROOTBRANCH   1   8ATOM      8  C   UNL     1      33.895  43.548  16.149 -0.39 -0.01    +0.012 C  BRANCH   8   9ATOM      9  C   UNL     1      34.015  44.872  15.977 -0.35 -0.03    +0.047 C  BRANCH   9  10ATOM     10  C   UNL     1      35.198  45.659  16.441 -0.31 -0.10    +0.124 C  ATOM     11  N   UNL     1      35.051  46.717  17.308 -0.12 +0.44    -0.384 N  ATOM     12  H   UNL     1      34.184  47.231  17.228 -0.37 -0.36    +0.158 HD ATOM     13  H   UNL     1      35.855  47.330  17.369 +0.08 -0.17    +0.158 HD BRANCH  10  14ATOM     14  N   UNL     1      36.334  45.256  15.939 -0.18 +0.12    -0.231 NA BRANCH  14  15ATOM     15  C   UNL     1      37.473  46.090  15.984 -0.32 -0.04    +0.081 A  ATOM     16  C   UNL     1      37.690  47.107  15.027 -0.41 -0.02    +0.042 A  ATOM     17  C   UNL     1      38.877  47.849  15.135 -0.41 -0.05    +0.132 A  ATOM     18  N   UNL     1      39.781  47.665  16.117 -0.31 +0.07    -0.239 NA ATOM     19  C   UNL     1      38.389  45.913  17.032 -0.39 +0.00    -0.006 A  ATOM     20  C   UNL     1      39.514  46.722  17.042 -0.38 -0.03    +0.119 A  ATOM     21  C   UNL     1      38.178  44.885  18.101 -0.40 -0.01    +0.048 C  BRANCH  16  22ATOM     22  C   UNL     1      36.745  47.373  13.919 -0.58 -0.01    +0.009 C  BRANCH  22  23ATOM     23  C   UNL     1      36.923  46.921  12.668 -0.69 +0.01    -0.030 C  ATOM     24  C   UNL     1      36.519  45.561  12.207 -0.64 -0.01    +0.035 C  ENDBRANCH  22  23ENDBRANCH  16  22BRANCH  17  25ATOM     25  N   UNL     1      39.201  48.880  14.250 -0.10 +0.18    -0.383 N  ATOM     26  H   UNL     1      38.329  49.336  13.993 -0.40 -0.11    +0.158 HD ATOM     27  H   UNL     1      39.874  49.524  14.645 -0.12 -0.09    +0.158 HD ENDBRANCH  17  25ENDBRANCH  14  15ENDBRANCH  10  14ENDBRANCH   9  10ENDBRANCH   8   9ENDBRANCH   1   8BRANCH   4  28ATOM     28  C   UNL     1      28.823  41.203  17.552 -0.27 -0.00    +0.005 C  BRANCH  28  29ATOM     29  C   UNL     1      28.504  39.900  17.464 -0.32 -0.00    -0.011 C  BRANCH  29  30ATOM     30  C   UNL     1      27.632  39.185  18.458 -0.21 +0.02    +0.112 C  BRANCH  30  31ATOM     31  N   UNL     1      28.399  38.203  19.241 -0.13 -0.06    -0.289 NA ATOM     32  C   UNL     1      27.521  37.454  20.152 -0.30 -0.02    +0.106 C  BRANCH  31  33ATOM     33  C   UNL     1      29.458  38.911  20.016 -0.18 +0.02    +0.222 C  BRANCH  33  34ATOM     34  S   UNL     1      31.083  38.127  20.224 -0.55 +0.03    +0.160 S  ATOM     35  C   UNL     1      30.868  37.097  21.655 -0.42 +0.01    +0.159 C  ATOM     36  O   UNL     1      32.066  39.146  20.547 -1.24 -0.09    -0.228 OA ATOM     37  O   UNL     1      31.300  37.248  19.087 -0.94 -0.08    -0.228 OA ENDBRANCH  33  34ENDBRANCH  31  33ENDBRANCH  30  31ENDBRANCH  29  30ENDBRANCH  28  29ENDBRANCH   4  28TORSDOF 14TERENDMDL