REMARK SMILES COc1ccc2c(c1)-c1[nH]c3cnccc3c1C[C@@H](C)N[C@H]2C
REMARK SMILES IDX 22 1 23 2 6 3 3 4 4 5 8 6 5 7 7 8 2 9 1 10 9 11 10 12 17 13
REMARK SMILES IDX 11 14 16 15 12 16 15 17 13 18 14 19 18 21 21 23 19 25 20 26
REMARK H PARENT 10 20 21 24
REMARK Flexibility Score:   45.900
ROOT
ATOM      1  C   UNL     1       0.113  -2.063  -1.072  1.00  0.00     0.081 C 
ATOM      2  C   UNL     1       0.065  -1.948  -2.599  1.00  0.00     0.029 C 
ENDROOT
BRANCH   1   3
ATOM      3  C   UNL     1       1.180  -1.121  -0.514  1.00  0.00    -0.022 A 
ATOM      4  C   UNL     1       3.352   0.422   0.472  1.00  0.00     0.119 A 
ATOM      5  C   UNL     1       3.524  -0.930   0.212  1.00  0.00     0.047 A 
ATOM      6  C   UNL     1       2.104   1.001   0.236  1.00  0.00     0.057 A 
ATOM      7  C   UNL     1       2.454  -1.688  -0.274  1.00  0.00     0.010 A 
ATOM      8  C   UNL     1       1.015   0.254  -0.259  1.00  0.00     0.007 A 
BRANCH   4   9
ATOM      9  O   UNL     1       4.303   1.281   0.948  1.00  0.00    -0.497 OA
ATOM     10  C   UNL     1       5.580   0.728   1.241  1.00  0.00     0.278 C 
ENDBRANCH   4   9
BRANCH   8  11
ATOM     11  C   UNL     1      -0.240   0.974  -0.470  1.00  0.00     0.050 A 
ATOM     12  N   UNL     1      -0.313   2.036  -1.342  1.00  0.00    -0.353 N 
ATOM     13  C   UNL     1      -1.502   0.811   0.089  1.00  0.00    -0.013 A 
ATOM     14  C   UNL     1      -1.572   2.580  -1.352  1.00  0.00     0.065 A 
ATOM     15  C   UNL     1      -2.344   1.836  -0.465  1.00  0.00     0.006 A 
ATOM     16  C   UNL     1      -2.085   3.655  -2.066  1.00  0.00     0.137 A 
ATOM     17  C   UNL     1      -3.689   2.200  -0.299  1.00  0.00     0.031 A 
ATOM     18  N   UNL     1      -3.382   4.000  -1.899  1.00  0.00    -0.263 NA
ATOM     19  C   UNL     1      -4.139   3.283  -1.041  1.00  0.00     0.112 A 
ATOM     20  H   UNL     1       0.461   2.367  -1.899  1.00  0.00     0.167 HD
BRANCH  13  21
ATOM     21  C   UNL     1      -1.940  -0.232   1.086  1.00  0.00     0.057 CG0
ATOM     22  G   UNL     1      -1.371  -1.656   0.870  1.00  0.00     0.000 G0
ENDBRANCH  13  21
ENDBRANCH   8  11
ENDBRANCH   1   3
BRANCH   1  23
ATOM     23  N   UNL     1      -1.258  -1.949  -0.561  1.00  0.00    -0.307 NA
ATOM     24  H   UNL     1      -1.794  -2.772  -0.826  1.00  0.00     0.123 HD
BRANCH  23  25
ATOM     25  C   UNL     1      -1.371  -1.656   0.870  1.00  0.00     0.055 CG0
ATOM     26  C   UNL     1      -2.285  -2.688   1.540  1.00  0.00     0.024 C 
ATOM     27  G   UNL     1      -1.940  -0.232   1.086  1.00  0.00     0.000 G0
ENDBRANCH  23  25
ENDBRANCH   1  23
TORSDOF 1
