MODEL        2USER    Run = 2USERUSER    Estimated Free Energy of Binding    =  -5.21 kcal/mol  [=(1)+(2)+(3)-(4)]USERUSER    (1) Final Intermolecular Energy     =  -8.79 kcal/molUSER        vdW + Hbond + desolv Energy     =  -9.20 kcal/molUSER        Electrostatic Energy            =  -0.12 kcal/molUSER        Moving Ligand-Fixed Receptor    =  -9.32 kcal/molUSER        Moving Ligand-Moving Receptor   =  +0.53 kcal/molUSER    (2) Final Total Internal Energy     =  -0.63 kcal/molUSER    (3) Torsional Free Energy           =  +3.58 kcal/molUSER    (4) Unbound System's Energy         =  -0.63 kcal/molUSERUSERREMARK SMILES CCCCCCC1=NNC=C(c2cc3c([nH]2)CCNC3=O)C=C1REMARK SMILES IDX 7 1 6 3 5 4 4 5 3 6 2 7 1 8 8 9 9 10 10 12 11 13 12 14 13 15REMARK SMILES IDX 16 16 14 17 15 18 20 19 17 20 19 21 18 22 21 24 22 26 23 27REMARK H PARENT 9 11 16 23 19 25REMARK Flexibility Score:  199.900USER                              x       y       z     vdW  Elec       q    TypeUSER                           _______ _______ _______ _____ _____    ______ ____ROOTATOM      1  C   UNL     1      37.615  47.822  14.109 -0.55 -0.03    +0.061 CG0ATOM      2  G   UNL     1      37.230  47.969  15.544 +0.00 +0.00    +0.000 G0 ENDROOTBRANCH   1   3ATOM      3  C   UNL     1      39.113  47.894  13.828 -0.28 -0.01    +0.058 C  BRANCH   3   4ATOM      4  C   UNL     1      39.951  47.224  14.920 -0.55 -0.00    +0.006 C  BRANCH   4   5ATOM      5  C   UNL     1      40.629  48.186  15.904 -0.65 -0.00    +0.000 C  BRANCH   5   6ATOM      6  C   UNL     1      40.755  47.676  17.344 -0.59 +0.00    -0.000 C  BRANCH   6   7ATOM      7  C   UNL     1      40.533  46.169  17.511 -0.54 +0.00    -0.003 C  ATOM      8  C   UNL     1      39.198  45.795  18.129 -0.48 -0.00    +0.004 C  ENDBRANCH   6   7ENDBRANCH   5   6ENDBRANCH   4   5ENDBRANCH   3   4ENDBRANCH   1   3BRANCH   1   9ATOM      9  N   UNL     1      36.851  47.620  13.082 -0.67 +0.08    -0.181 NA BRANCH   9  10ATOM     10  N   UNL     1      35.696  46.909  13.212 -0.34 +0.18    -0.285 N  ATOM     11  H   UNL     1      34.874  47.493  13.038 -0.04 -0.15    +0.189 HD BRANCH  10  12ATOM     12  C   UNL     1      35.458  46.013  14.238 -0.40 -0.08    +0.113 C  BRANCH  12  13ATOM     13  C   UNL     1      35.435  46.222  15.567 -0.39 -0.02    +0.016 C  BRANCH  13  14ATOM     14  C   UNL     1      34.639  45.333  16.353 -0.29 -0.04    +0.048 A  ATOM     15  C   UNL     1      34.604  44.995  17.698 -0.32 -0.02    +0.042 A  ATOM     16  N   UNL     1      33.667  44.588  15.716 -0.10 +0.22    -0.358 N  ATOM     17  C   UNL     1      33.585  44.028  17.879 -0.27 -0.02    +0.061 A  ATOM     18  C   UNL     1      33.031  43.802  16.633 -0.30 -0.01    +0.030 A  ATOM     19  C   UNL     1      33.111  43.339  19.071 -0.28 -0.03    +0.253 C  ATOM     20  C   UNL     1      31.912  42.860  16.375 -0.32 -0.03    +0.076 C  ATOM     21  N   UNL     1      32.129  42.389  18.836 -0.13 +0.03    -0.352 N  ATOM     22  C   UNL     1      31.899  41.814  17.511 -0.30 -0.04    +0.122 C  ATOM     23  H   UNL     1      33.475  44.616  14.723 +0.12 -0.10    +0.166 HD ATOM     24  O   UNL     1      33.524  43.566  20.201 -0.88 -0.02    -0.269 OA ATOM     25  H   UNL     1      31.908  41.841  19.657 +0.09 +0.01    +0.163 HD ENDBRANCH  13  14BRANCH  13  26ATOM     26  C   UNL     1      36.299  47.230  16.163 -0.27 -0.01    +0.014 C  BRANCH  26  27ATOM     27  C   UNL     1      37.225  47.971  15.543 -0.47 -0.02    +0.026 CG0ATOM     28  G   UNL     1      37.609  47.823  14.108 +0.00 +0.00    +0.000 G0 ENDBRANCH  26  27ENDBRANCH  13  26ENDBRANCH  12  13ENDBRANCH  10  12ENDBRANCH   9  10ENDBRANCH   1   9TORSDOF 6TERENDMDL