REMARK SMILES CC=Cc1c(N)ncc(C)c1N=C(N)C=Cc1ccc(/C=C/CN(C)CS(C)(=O)=O)cc1C
REMARK SMILES IDX 17 1 18 2 19 3 20 4 31 5 32 6 33 7 16 8 15 9 13 10 14 11
REMARK SMILES IDX 12 14 11 15 4 16 5 17 7 18 9 19 8 20 10 21 3 22 2 23 1 24
REMARK SMILES IDX 6 25 21 28 22 29 23 30 24 31 25 32 26 33 27 34 28 35 29 36
REMARK SMILES IDX 30 37
REMARK H PARENT 14 12 14 13 6 26 6 27
ROOT
ATOM      1  C   UNL     1      -0.129  -0.202  -0.647  1.00  0.00    -0.023 A 
ATOM      2  C   UNL     1       0.089  -1.371   0.096  1.00  0.00     0.009 A 
ATOM      3  C   UNL     1       1.383  -1.764   0.449  1.00  0.00     0.009 A 
ATOM      4  C   UNL     1       2.487  -1.004   0.054  1.00  0.00    -0.026 A 
ATOM      5  C   UNL     1       2.270   0.168  -0.684  1.00  0.00     0.012 A 
ATOM      6  C   UNL     1       0.973   0.577  -1.049  1.00  0.00    -0.043 A 
ATOM      7  C   UNL     1       0.801   1.844  -1.841  1.00  0.00     0.045 C 
ENDROOT
BRANCH   1   8
ATOM      8  C   UNL     1      -1.504   0.173  -1.006  1.00  0.00     0.012 C 
BRANCH   8   9
ATOM      9  C   UNL     1      -2.443   0.385  -0.073  1.00  0.00     0.047 C 
BRANCH   9  10
ATOM     10  C   UNL     1      -3.859   0.740  -0.395  1.00  0.00     0.124 C 
ATOM     11  N   UNL     1      -4.233   1.069  -1.677  1.00  0.00    -0.384 N 
ATOM     12  H   UNL     1      -3.526   1.528  -2.236  1.00  0.00     0.158 HD
ATOM     13  H   UNL     1      -5.135   1.524  -1.752  1.00  0.00     0.158 HD
BRANCH  10  14
ATOM     14  N   UNL     1      -4.660   0.718   0.635  1.00  0.00    -0.231 NA
BRANCH  14  15
ATOM     15  C   UNL     1      -6.037   0.989   0.478  1.00  0.00     0.081 A 
ATOM     16  C   UNL     1      -6.949  -0.008   0.062  1.00  0.00     0.042 A 
ATOM     17  C   UNL     1      -8.289   0.377  -0.107  1.00  0.00     0.132 A 
ATOM     18  N   UNL     1      -8.742   1.621   0.144  1.00  0.00    -0.239 NA
ATOM     19  C   UNL     1      -6.503   2.278   0.778  1.00  0.00    -0.006 A 
ATOM     20  C   UNL     1      -7.853   2.530   0.591  1.00  0.00     0.119 A 
ATOM     21  C   UNL     1      -5.586   3.354   1.273  1.00  0.00     0.048 C 
BRANCH  16  22
ATOM     22  C   UNL     1      -6.532  -1.397  -0.234  1.00  0.00     0.009 C 
BRANCH  22  23
ATOM     23  C   UNL     1      -5.836  -2.161   0.622  1.00  0.00    -0.030 C 
ATOM     24  C   UNL     1      -5.418  -3.565   0.337  1.00  0.00     0.035 C 
ENDBRANCH  22  23
ENDBRANCH  16  22
BRANCH  17  25
ATOM     25  N   UNL     1      -9.282  -0.518  -0.513  1.00  0.00    -0.383 N 
ATOM     26  H   UNL     1     -10.144   0.015  -0.599  1.00  0.00     0.158 HD
ATOM     27  H   UNL     1      -9.035  -0.999  -1.368  1.00  0.00     0.158 HD
ENDBRANCH  17  25
ENDBRANCH  14  15
ENDBRANCH  10  14
ENDBRANCH   9  10
ENDBRANCH   8   9
ENDBRANCH   1   8
BRANCH   4  28
ATOM     28  C   UNL     1       3.828  -1.425   0.479  1.00  0.00     0.005 C 
BRANCH  28  29
ATOM     29  C   UNL     1       4.931  -1.317  -0.282  1.00  0.00    -0.011 C 
BRANCH  29  30
ATOM     30  C   UNL     1       6.298  -1.758   0.162  1.00  0.00     0.112 C 
BRANCH  30  31
ATOM     31  N   UNL     1       7.226  -0.620   0.265  1.00  0.00    -0.289 NA
ATOM     32  C   UNL     1       7.719  -0.220  -1.061  1.00  0.00     0.106 C 
BRANCH  31  33
ATOM     33  C   UNL     1       8.369  -0.996   1.145  1.00  0.00     0.222 C 
BRANCH  33  34
ATOM     34  S   UNL     1       9.558   0.280   1.653  1.00  0.00     0.160 S 
ATOM     35  C   UNL     1       8.525   1.648   2.119  1.00  0.00     0.159 C 
ATOM     36  O   UNL     1      10.345   0.683   0.501  1.00  0.00    -0.228 OA
ATOM     37  O   UNL     1      10.224  -0.189   2.856  1.00  0.00    -0.228 OA
ENDBRANCH  33  34
ENDBRANCH  31  33
ENDBRANCH  30  31
ENDBRANCH  29  30
ENDBRANCH  28  29
ENDBRANCH   4  28
TORSDOF 14
