REMARK SMILES Nc1ncnc2c1ncn2[CH]CO[C@H](Cl)[C@H](O)c1ccccc1
REMARK SMILES IDX 12 1 11 2 10 3 2 4 3 5 7 6 4 7 6 8 8 9 5 10 9 11 1 12 13 15
REMARK SMILES IDX 14 16 15 17 16 18 17 19 18 21 19 22 23 23 20 24 22 25 21 26
REMARK H PARENT 1 13 1 14 17 20
ROOT
ATOM      1  C   UNL     1       0.520  -0.105   0.430  1.00  0.00     0.190 C 
ENDROOT
BRANCH   1   2
ATOM      2  C   UNL     1       1.695   0.061  -0.458  1.00  0.00     0.141 C 
BRANCH   2   3
ATOM      3  N   UNL     1       3.006  -0.007  -0.003  1.00  0.00    -0.307 N 
ATOM      4  C   UNL     1       6.500   0.147  -0.442  1.00  0.00     0.155 A 
ATOM      5  N   UNL     1       6.621   0.379  -1.767  1.00  0.00    -0.217 NA
ATOM      6  C   UNL     1       5.212   0.017   0.104  1.00  0.00     0.150 A 
ATOM      7  C   UNL     1       5.495   0.501  -2.502  1.00  0.00     0.226 A 
ATOM      8  C   UNL     1       4.146   0.160  -0.770  1.00  0.00     0.165 A 
ATOM      9  N   UNL     1       4.772  -0.245   1.381  1.00  0.00    -0.231 NA
ATOM     10  N   UNL     1       4.216   0.409  -2.093  1.00  0.00    -0.217 NA
ATOM     11  C   UNL     1       3.460  -0.247   1.282  1.00  0.00     0.202 A 
BRANCH   4  12
ATOM     12  N   UNL     1       7.660   0.029   0.312  1.00  0.00    -0.382 N 
ATOM     13  H   UNL     1       7.530  -0.474   1.182  1.00  0.00     0.158 HD
ATOM     14  H   UNL     1       8.461  -0.213  -0.257  1.00  0.00     0.158 HD
ENDBRANCH   4  12
ENDBRANCH   2   3
ENDBRANCH   1   2
BRANCH   1  15
ATOM     15  O   UNL     1      -0.608  -0.339  -0.407  1.00  0.00    -0.357 OA
BRANCH  15  16
ATOM     16  C   UNL     1      -1.831  -0.478   0.342  1.00  0.00     0.242 C 
ATOM     17  Cl  UNL     1      -1.926  -2.141   0.985  1.00  0.00    -0.088 Cl
BRANCH  16  18
ATOM     18  C   UNL     1      -3.006  -0.179  -0.626  1.00  0.00     0.188 C 
BRANCH  18  19
ATOM     19  O   UNL     1      -2.734   1.043  -1.341  1.00  0.00    -0.384 OA
ATOM     20  H   UNL     1      -1.835   0.929  -1.706  1.00  0.00     0.211 HD
ENDBRANCH  18  19
BRANCH  18  21
ATOM     21  C   UNL     1      -4.337  -0.036   0.080  1.00  0.00    -0.016 A 
ATOM     22  C   UNL     1      -4.694   1.159   0.726  1.00  0.00     0.006 A 
ATOM     23  C   UNL     1      -5.231  -1.116   0.127  1.00  0.00     0.006 A 
ATOM     24  C   UNL     1      -5.911   1.269   1.400  1.00  0.00     0.000 A 
ATOM     25  C   UNL     1      -6.448  -1.004   0.803  1.00  0.00     0.000 A 
ATOM     26  C   UNL     1      -6.787   0.187   1.440  1.00  0.00     0.000 A 
ENDBRANCH  18  21
ENDBRANCH  16  18
ENDBRANCH  15  16
ENDBRANCH   1  15
TORSDOF 8
