MODEL        3USER    Run = 3USERUSER    Estimated Free Energy of Binding    =  -9.46 kcal/mol  [=(1)+(2)+(3)-(4)]USERUSER    (1) Final Intermolecular Energy     = -11.54 kcal/molUSER        vdW + Hbond + desolv Energy     = -11.44 kcal/molUSER        Electrostatic Energy            =  -0.10 kcal/molUSER        Moving Ligand-Fixed Receptor    = -11.54 kcal/molUSER        Moving Ligand-Moving Receptor   =  +0.00 kcal/molUSER    (2) Final Total Internal Energy     =  -1.69 kcal/molUSER    (3) Torsional Free Energy           =  +2.09 kcal/molUSER    (4) Unbound System's Energy         =  -1.69 kcal/molUSERUSERREMARK SMILES Cc1cc(Nc2nc(NCc3cccnc3)cn3ccnc23)ccc1S(N)(=O)=OREMARK SMILES IDX 5 1 4 3 2 4 3 5 25 6 24 7 23 8 1 9 26 10 28 11 29 12 27 13REMARK SMILES IDX 6 16 7 17 22 18 8 19 21 20 18 21 17 22 20 23 19 24 9 25REMARK SMILES IDX 10 27 11 28 12 29 16 30 13 31 15 32 14 33REMARK H PARENT 5 2 27 14 27 15 9 26USER                              x       y       z     vdW  Elec       q    TypeUSER                           _______ _______ _______ _____ _____    ______ ____ROOTATOM      1  N   UNL     1      36.145  44.270  17.915 -0.10 +0.10    -0.337 N  ATOM      2  H   UNL     1      35.168  44.254  18.185 +0.12 -0.05    +0.168 HD ENDROOTBRANCH   1   3ATOM      3  C   UNL     1      36.352  45.029  16.747 -0.31 -0.02    +0.040 A  ATOM      4  C   UNL     1      36.776  45.284  14.335 -0.39 +0.01    -0.029 A  ATOM      5  C   UNL     1      36.599  44.481  15.484 -0.35 -0.01    +0.031 A  ATOM      6  C   UNL     1      36.685  46.678  14.475 -0.37 -0.05    +0.085 A  ATOM      7  C   UNL     1      36.425  47.243  15.730 -0.31 -0.02    +0.024 A  ATOM      8  C   UNL     1      36.263  46.423  16.848 -0.32 -0.02    +0.027 A  ATOM      9  C   UNL     1      37.011  44.595  13.020 -0.40 -0.01    +0.046 C  BRANCH   6  10ATOM     10  S   UNL     1      36.852  47.785  13.093 -0.65 -0.10    +0.238 S  ATOM     11  O   UNL     1      37.961  47.377  12.265 -0.97 +0.01    -0.207 OA ATOM     12  O   UNL     1      35.546  48.059  12.538 -0.49 +0.13    -0.207 OA BRANCH  10  13ATOM     13  N   UNL     1      37.315  49.219  13.836 -0.34 +0.13    -0.225 NA ATOM     14  H   UNL     1      38.029  49.680  13.270 -0.35 -0.06    +0.137 HD ATOM     15  H   UNL     1      37.608  49.031  14.795 -0.03 -0.11    +0.137 HD ENDBRANCH  10  13ENDBRANCH   6  10ENDBRANCH   1   3BRANCH   1  16ATOM     16  C   UNL     1      36.968  44.129  19.013 -0.23 -0.03    +0.176 A  ATOM     17  N   UNL     1      37.986  44.972  19.052 -0.25 +0.02    -0.208 NA ATOM     18  C   UNL     1      36.782  43.210  20.124 -0.26 -0.01    +0.180 A  ATOM     19  C   UNL     1      38.894  44.955  20.098 -0.28 -0.00    +0.145 A  ATOM     20  N   UNL     1      35.816  42.340  20.341 -0.30 +0.00    -0.234 NA ATOM     21  N   UNL     1      37.692  43.225  21.145 -0.16 -0.00    -0.300 N  ATOM     22  C   UNL     1      38.757  44.097  21.130 -0.22 +0.00    +0.139 A  ATOM     23  C   UNL     1      36.138  41.750  21.538 -0.44 +0.00    +0.132 A  ATOM     24  C   UNL     1      37.301  42.279  22.053 -0.39 +0.01    +0.113 A  BRANCH  19  25ATOM     25  N   UNL     1      39.946  45.846  20.027 -0.15 -0.00    -0.365 N  ATOM     26  H   UNL     1      40.181  46.142  20.973 +0.08 +0.01    +0.162 HD BRANCH  25  27ATOM     27  C   UNL     1      41.091  45.743  19.145 -0.41 +0.01    +0.152 C  BRANCH  27  28ATOM     28  C   UNL     1      40.906  46.649  17.963 -0.51 +0.00    -0.010 A  ATOM     29  C   UNL     1      40.082  46.302  16.889 -0.46 -0.00    +0.009 A  ATOM     30  C   UNL     1      41.579  47.864  17.887 -0.38 -0.01    +0.116 A  ATOM     31  C   UNL     1      39.949  47.173  15.811 -0.48 -0.00    +0.020 A  ATOM     32  N   UNL     1      41.463  48.733  16.855 -0.85 -0.00    -0.264 NA ATOM     33  C   UNL     1      40.652  48.367  15.842 -0.49 -0.02    +0.111 A  ENDBRANCH  27  28ENDBRANCH  25  27ENDBRANCH  19  25ENDBRANCH   1  16TORSDOF 7TERENDMDL