REMARK SMILES Cc1cc(Nc2nc(NCc3cccnc3)cn3ccnc23)ccc1S(N)(=O)=O
REMARK SMILES IDX 5 1 4 3 2 4 3 5 25 6 24 7 23 8 1 9 26 10 28 11 29 12 27 13
REMARK SMILES IDX 6 16 7 17 22 18 8 19 21 20 18 21 17 22 20 23 19 24 9 25
REMARK SMILES IDX 10 27 11 28 12 29 16 30 13 31 15 32 14 33
REMARK H PARENT 5 2 27 14 27 15 9 26
ROOT
ATOM      1  N   UNL     1      -0.888   0.290   1.284  1.00  0.00    -0.337 N 
ATOM      2  H   UNL     1      -0.482   1.169   1.584  1.00  0.00     0.168 HD
ENDROOT
BRANCH   1   3
ATOM      3  C   UNL     1      -2.270   0.410   1.041  1.00  0.00     0.040 A 
ATOM      4  C   UNL     1      -4.324  -0.029  -0.244  1.00  0.00    -0.029 A 
ATOM      5  C   UNL     1      -2.930  -0.157  -0.055  1.00  0.00     0.031 A 
ATOM      6  C   UNL     1      -5.066   0.680   0.715  1.00  0.00     0.085 A 
ATOM      7  C   UNL     1      -4.423   1.242   1.825  1.00  0.00     0.024 A 
ATOM      8  C   UNL     1      -3.042   1.106   1.980  1.00  0.00     0.027 A 
ATOM      9  C   UNL     1      -4.940  -0.698  -1.441  1.00  0.00     0.046 C 
BRANCH   6  10
ATOM     10  S   UNL     1      -6.830   0.871   0.602  1.00  0.00     0.238 S 
ATOM     11  O   UNL     1      -7.430  -0.354   0.130  1.00  0.00    -0.207 OA
ATOM     12  O   UNL     1      -7.315   1.553   1.780  1.00  0.00    -0.207 OA
BRANCH  10  13
ATOM     13  N   UNL     1      -6.991   1.989  -0.642  1.00  0.00    -0.225 NA
ATOM     14  H   UNL     1      -7.413   2.844  -0.278  1.00  0.00     0.137 HD
ATOM     15  H   UNL     1      -7.508   1.571  -1.415  1.00  0.00     0.137 HD
ENDBRANCH  10  13
ENDBRANCH   6  10
ENDBRANCH   1   3
BRANCH   1  16
ATOM     16  C   UNL     1       0.041  -0.491   0.630  1.00  0.00     0.176 A 
ATOM     17  N   UNL     1       1.213   0.090   0.436  1.00  0.00    -0.208 NA
ATOM     18  C   UNL     1      -0.130  -1.872   0.207  1.00  0.00     0.180 A 
ATOM     19  C   UNL     1       2.248  -0.574  -0.202  1.00  0.00     0.145 A 
ATOM     20  N   UNL     1      -1.166  -2.673   0.356  1.00  0.00    -0.234 NA
ATOM     21  N   UNL     1       0.915  -2.500  -0.412  1.00  0.00    -0.300 N 
ATOM     22  C   UNL     1       2.108  -1.848  -0.624  1.00  0.00     0.139 A 
ATOM     23  C   UNL     1      -0.779  -3.857  -0.221  1.00  0.00     0.132 A 
ATOM     24  C   UNL     1       0.506  -3.772  -0.710  1.00  0.00     0.113 A 
BRANCH  19  25
ATOM     25  N   UNL     1       3.419   0.132  -0.393  1.00  0.00    -0.365 N 
ATOM     26  H   UNL     1       3.357   1.005   0.129  1.00  0.00     0.162 HD
BRANCH  25  27
ATOM     27  C   UNL     1       4.754  -0.430  -0.435  1.00  0.00     0.152 C 
BRANCH  27  28
ATOM     28  C   UNL     1       5.766   0.673  -0.549  1.00  0.00    -0.010 A 
ATOM     29  C   UNL     1       6.473   1.143   0.561  1.00  0.00     0.009 A 
ATOM     30  C   UNL     1       6.013   1.288  -1.772  1.00  0.00     0.116 A 
ATOM     31  C   UNL     1       7.396   2.174   0.406  1.00  0.00     0.020 A 
ATOM     32  N   UNL     1       6.908   2.287  -1.953  1.00  0.00    -0.264 NA
ATOM     33  C   UNL     1       7.578   2.706  -0.860  1.00  0.00     0.111 A 
ENDBRANCH  27  28
ENDBRANCH  25  27
ENDBRANCH  19  25
ENDBRANCH   1  16
TORSDOF 7
