MODEL        6USER    Run = 6USERUSER    Estimated Free Energy of Binding    =  -6.53 kcal/mol  [=(1)+(2)+(3)-(4)]USERUSER    (1) Final Intermolecular Energy     =  -8.32 kcal/molUSER        vdW + Hbond + desolv Energy     =  -8.46 kcal/molUSER        Electrostatic Energy            =  -0.11 kcal/molUSER        Moving Ligand-Fixed Receptor    =  -8.57 kcal/molUSER        Moving Ligand-Moving Receptor   =  +0.25 kcal/molUSER    (2) Final Total Internal Energy     =  -0.96 kcal/molUSER    (3) Torsional Free Energy           =  +1.79 kcal/molUSER    (4) Unbound System's Energy         =  -0.96 kcal/molUSERUSERREMARK SMILES COc1ccc2c(c1)-c1[nH]c3cnccc3c1C[C@@H](C)N[C@H]2CREMARK SMILES IDX 22 1 23 2 6 3 3 4 4 5 8 6 5 7 7 8 2 9 1 10 9 11 10 12 17 13REMARK SMILES IDX 11 14 16 15 12 16 15 17 13 18 14 19 18 21 21 23 19 25 20 26REMARK H PARENT 10 20 21 24REMARK Flexibility Score:   45.900USER                              x       y       z     vdW  Elec       q    TypeUSER                           _______ _______ _______ _____ _____    ______ ____ROOTATOM      1  C   UNL     1      36.575  44.635  18.768 -0.35 -0.02    +0.081 C  ATOM      2  C   UNL     1      36.018  44.569  20.193 -0.23 -0.00    +0.029 C  ENDROOTBRANCH   1   3ATOM      3  C   UNL     1      38.052  45.029  18.806 -0.36 +0.00    -0.022 A  ATOM      4  C   UNL     1      40.814  45.613  19.119 -0.37 +0.00    +0.119 A  ATOM      5  C   UNL     1      40.106  45.033  20.162 -0.36 +0.00    +0.047 A  ATOM      6  C   UNL     1      40.148  45.894  17.925 -0.43 -0.01    +0.057 A  ATOM      7  C   UNL     1      38.746  44.746  20.006 -0.37 -0.00    +0.010 A  ATOM      8  C   UNL     1      38.779  45.606  17.747 -0.40 -0.00    +0.007 A  BRANCH   4   9ATOM      9  O   UNL     1      42.139  45.948  19.130 -0.14 -0.08    -0.497 OA ATOM     10  C   UNL     1      42.469  47.279  18.752 -0.40 +0.02    +0.278 C  ENDBRANCH   4   9BRANCH   8  11ATOM     11  C   UNL     1      38.195  45.943  16.450 -0.35 -0.02    +0.050 A  ATOM     12  N   UNL     1      38.384  47.183  15.885 -0.17 +0.16    -0.353 N  ATOM     13  C   UNL     1      37.395  45.210  15.580 -0.35 +0.00    -0.013 A  ATOM     14  C   UNL     1      37.717  47.288  14.691 -0.42 -0.03    +0.065 A  ATOM     15  C   UNL     1      37.086  46.068  14.469 -0.41 -0.00    +0.006 A  ATOM     16  C   UNL     1      37.624  48.348  13.799 -0.41 -0.06    +0.137 A  ATOM     17  C   UNL     1      36.331  45.922  13.295 -0.49 -0.01    +0.031 A  ATOM     18  N   UNL     1      36.894  48.199  12.670 -0.92 +0.07    -0.263 NA ATOM     19  C   UNL     1      36.278  47.019  12.446 -0.58 -0.05    +0.112 A  ATOM     20  H   UNL     1      38.940  47.916  16.299 +0.11 -0.08    +0.167 HD BRANCH  13  21ATOM     21  C   UNL     1      36.926  43.786  15.740 -0.35 -0.02    +0.057 CG0ATOM     22  G   UNL     1      35.726  43.572  16.695 +0.00 +0.00    +0.000 G0 ENDBRANCH  13  21ENDBRANCH   8  11ENDBRANCH   1   3BRANCH   1  23ATOM     23  N   UNL     1      36.198  43.399  18.072 -0.10 +0.07    -0.307 NA ATOM     24  H   UNL     1      35.537  42.873  18.638 +0.09 -0.02    +0.123 HD BRANCH  23  25ATOM     25  C   UNL     1      35.727  43.574  16.695 -0.40 -0.02    +0.055 CG0ATOM     26  C   UNL     1      34.927  42.341  16.260 -0.33 -0.01    +0.024 C  ATOM     27  G   UNL     1      36.925  43.788  15.738 +0.00 +0.00    +0.000 G0 ENDBRANCH  23  25ENDBRANCH   1  23TORSDOF 1TERENDMDL