REMARK SMILES C[C@@H]1N(C)C=Nc2c(-c3ccccc3)nc(N[C@H](CO)c3ccccc3)n21
REMARK SMILES IDX 18 1 17 2 16 4 2 5 3 6 27 7 5 8 7 9 6 10 15 11 8 12 1 13
REMARK SMILES IDX 4 14 9 15 10 16 14 17 11 18 13 19 12 20 19 21 20 22 21 24
REMARK SMILES IDX 22 25 26 26 23 27 25 28 24 29
REMARK H PARENT 17 3 20 23
ROOT
ATOM      1  C   UNL     1       2.008   0.849   0.250  1.00  0.00     0.138 C 
ENDROOT
BRANCH   1   2
ATOM      2  N   UNL     1       0.965   0.944  -0.798  1.00  0.00    -0.346 N 
ATOM      3  H   UNL     1       0.997   1.895  -1.167  1.00  0.00     0.164 HD
BRANCH   2   4
ATOM      4  C   UNL     1      -0.290   0.655  -0.382  1.00  0.00     0.207 A 
ATOM      5  C   UNL     1      -0.153  -1.847  -0.806  1.00  0.00     0.186 C 
ATOM      6  N   UNL     1      -0.837  -3.022  -0.247  1.00  0.00    -0.345 N 
ATOM      7  N   UNL     1      -0.783  -0.615  -0.355  1.00  0.00    -0.274 N 
ATOM      8  C   UNL     1      -2.131  -2.852   0.182  1.00  0.00     0.199 C 
ATOM      9  C   UNL     1      -2.061  -0.592   0.164  1.00  0.00     0.165 A 
ATOM     10  N   UNL     1      -2.767  -1.740   0.373  1.00  0.00    -0.219 NA
ATOM     11  N   UNL     1      -1.190   1.517   0.011  1.00  0.00    -0.211 NA
ATOM     12  C   UNL     1      -2.302   0.764   0.363  1.00  0.00     0.117 A 
ATOM     13  C   UNL     1      -0.153  -1.920  -2.336  1.00  0.00     0.056 C 
ATOM     14  C   UNL     1      -0.251  -4.330  -0.441  1.00  0.00     0.147 C 
BRANCH  12  15
ATOM     15  C   UNL     1      -3.513   1.383   0.894  1.00  0.00     0.004 A 
ATOM     16  C   UNL     1      -4.729   0.696   1.003  1.00  0.00     0.010 A 
ATOM     17  C   UNL     1      -3.471   2.726   1.304  1.00  0.00     0.010 A 
ATOM     18  C   UNL     1      -5.867   1.329   1.515  1.00  0.00     0.001 A 
ATOM     19  C   UNL     1      -4.607   3.359   1.817  1.00  0.00     0.001 A 
ATOM     20  C   UNL     1      -5.805   2.659   1.923  1.00  0.00     0.000 A 
ENDBRANCH  12  15
ENDBRANCH   2   4
ENDBRANCH   1   2
BRANCH   1  21
ATOM     21  C   UNL     1       2.068   2.158   1.089  1.00  0.00     0.185 C 
BRANCH  21  22
ATOM     22  O   UNL     1       2.264   1.872   2.478  1.00  0.00    -0.394 OA
ATOM     23  H   UNL     1       1.389   1.630   2.834  1.00  0.00     0.210 HD
ENDBRANCH  21  22
ENDBRANCH   1  21
BRANCH   1  24
ATOM     24  C   UNL     1       3.365   0.500  -0.360  1.00  0.00    -0.023 A 
ATOM     25  C   UNL     1       4.458   0.269   0.495  1.00  0.00     0.006 A 
ATOM     26  C   UNL     1       3.573   0.375  -1.743  1.00  0.00     0.006 A 
ATOM     27  C   UNL     1       5.716  -0.060  -0.015  1.00  0.00     0.000 A 
ATOM     28  C   UNL     1       4.832   0.044  -2.253  1.00  0.00     0.000 A 
ATOM     29  C   UNL     1       5.902  -0.172  -1.389  1.00  0.00     0.000 A 
ENDBRANCH   1  24
TORSDOF 6
