MODEL        1USER    Run = 1USERUSER    Estimated Free Energy of Binding    =  -9.57 kcal/mol  [=(1)+(2)+(3)-(4)]USERUSER    (1) Final Intermolecular Energy     = -12.85 kcal/molUSER        vdW + Hbond + desolv Energy     = -12.59 kcal/molUSER        Electrostatic Energy            =  -0.26 kcal/molUSER        Moving Ligand-Fixed Receptor    = -12.85 kcal/molUSER        Moving Ligand-Moving Receptor   =  +0.00 kcal/molUSER    (2) Final Total Internal Energy     =  -2.18 kcal/molUSER    (3) Torsional Free Energy           =  +3.28 kcal/molUSER    (4) Unbound System's Energy         =  -2.18 kcal/molUSERUSERREMARK SMILES CCCN(Cc1ccnc(NCC(C)C)n1)C(=O)c1cc(C(=O)O)cc2cc(F)ccc12REMARK SMILES IDX 4 1 3 2 2 3 1 4 5 5 6 6 7 7 16 8 8 9 10 10 9 11 11 12 12 14REMARK SMILES IDX 13 15 14 16 15 17 17 18 18 19 19 20 20 21 32 22 21 23 31 24REMARK SMILES IDX 26 25 25 26 30 27 27 28 28 29 29 30 22 31 23 32 24 33REMARK H PARENT 11 13 24 34USER                              x       y       z     vdW  Elec       q    TypeUSER                           _______ _______ _______ _____ _____    ______ ____ROOTATOM      1  N   UNL     1      36.157  45.951  16.472 -0.14 +0.22    -0.333 N  ENDROOTBRANCH   1   2ATOM      2  C   UNL     1      35.513  45.870  15.155 -0.34 -0.09    +0.120 C  BRANCH   2   3ATOM      3  C   UNL     1      36.511  46.000  14.003 -0.50 -0.01    +0.018 C  ATOM      4  C   UNL     1      36.555  47.422  13.468 -0.65 -0.00    +0.006 C  ENDBRANCH   2   3ENDBRANCH   1   2BRANCH   1   5ATOM      5  C   UNL     1      35.337  46.432  17.599 -0.27 -0.14    +0.176 C  BRANCH   5   6ATOM      6  C   UNL     1      34.687  45.326  18.396 -0.37 -0.03    +0.065 A  ATOM      7  C   UNL     1      33.320  45.147  18.370 -0.36 -0.02    +0.046 A  ATOM      8  N   UNL     1      35.507  44.512  19.099 -0.23 +0.05    -0.216 NA ATOM      9  C   UNL     1      32.843  44.094  19.111 -0.34 -0.02    +0.117 A  ATOM     10  C   UNL     1      34.947  43.514  19.795 -0.26 -0.02    +0.222 A  ATOM     11  N   UNL     1      33.632  43.270  19.825 -0.75 -0.01    -0.222 NA BRANCH  10  12ATOM     12  N   UNL     1      35.734  42.641  20.536 -0.22 -0.00    -0.354 N  ATOM     13  H   UNL     1      36.111  41.992  19.854 +0.10 -0.01    +0.163 HD BRANCH  12  14ATOM     14  C   UNL     1      36.711  43.300  21.389 -0.40 +0.01    +0.119 C  BRANCH  14  15ATOM     15  C   UNL     1      37.410  42.272  22.297 -0.52 +0.00    +0.002 C  ATOM     16  C   UNL     1      37.285  40.872  21.694 -0.53 +0.00    +0.009 C  ATOM     17  C   UNL     1      36.831  42.275  23.714 -0.49 +0.00    +0.009 C  ENDBRANCH  14  15ENDBRANCH  12  14ENDBRANCH  10  12ENDBRANCH   5   6ENDBRANCH   1   5BRANCH   1  18ATOM     18  C   UNL     1      37.348  45.240  16.637 -0.24 -0.09    +0.254 C  ATOM     19  O   UNL     1      37.461  44.030  16.461 -0.24 +0.07    -0.269 OA BRANCH  18  20ATOM     20  C   UNL     1      38.566  45.981  17.015 -0.37 -0.01    +0.048 A  ATOM     21  C   UNL     1      38.987  46.993  16.143 -0.42 -0.01    +0.030 A  ATOM     22  C   UNL     1      39.282  45.668  18.195 -0.43 +0.00    -0.005 A  ATOM     23  C   UNL     1      40.119  47.743  16.451 -0.48 -0.01    +0.061 A  ATOM     24  C   UNL     1      38.910  44.640  19.095 -0.37 -0.00    +0.012 A  ATOM     25  C   UNL     1      40.437  46.437  18.491 -0.46 +0.00    -0.014 A  ATOM     26  C   UNL     1      40.839  47.465  17.619 -0.50 -0.00    +0.024 A  ATOM     27  C   UNL     1      39.652  44.387  20.249 -0.30 +0.00    +0.040 A  ATOM     28  C   UNL     1      41.171  46.169  19.657 -0.39 +0.00    +0.048 A  ATOM     29  C   UNL     1      40.774  45.154  20.518 -0.29 +0.01    +0.123 A  ATOM     30  F   UNL     1      41.488  44.913  21.625 -0.05 -0.02    -0.207 F  BRANCH  23  31ATOM     31  C   UNL     1      40.503  48.834  15.526 -0.39 -0.09    +0.335 C  ATOM     32  O   UNL     1      41.418  49.616  15.704 -1.03 +0.02    -0.246 OA BRANCH  31  33ATOM     33  O   UNL     1      39.728  48.887  14.430 -0.20 +0.19    -0.478 OA ATOM     34  H   UNL     1      39.095  49.613  14.613 -0.18 -0.25    +0.297 HD ENDBRANCH  31  33ENDBRANCH  23  31ENDBRANCH  18  20ENDBRANCH   1  18TORSDOF 11TERENDMDL