REMARK SMILES Cc1ccc(F)cc1C(=O)C=C1NC=C(c2ccc(C[C@@H]3CC[C@H](O)CN3)cc2)C1=N
REMARK SMILES IDX 16 1 17 2 18 3 19 4 28 5 29 6 15 7 12 8 13 9 30 10 14 11
REMARK SMILES IDX 11 13 9 14 10 15 8 16 2 17 3 18 4 19 7 20 5 21 1 22 6 23
REMARK SMILES IDX 31 24 20 26 21 27 22 28 27 29 23 30 26 31 24 32 25 34
REMARK H PARENT 13 12 31 25 27 33 25 35
ROOT
ATOM      1  C   UNL     1      -0.107  -0.343  -0.772  1.00  0.00    -0.015 A 
ATOM      2  C   UNL     1      -1.005   0.598  -1.289  1.00  0.00     0.009 A 
ATOM      3  C   UNL     1      -2.377   0.328  -1.356  1.00  0.00     0.004 A 
ATOM      4  C   UNL     1      -2.883  -0.897  -0.911  1.00  0.00    -0.046 A 
ATOM      5  C   UNL     1      -1.995  -1.842  -0.389  1.00  0.00     0.004 A 
ATOM      6  C   UNL     1      -0.624  -1.569  -0.325  1.00  0.00     0.009 A 
ENDROOT
BRANCH   1   7
ATOM      7  C   UNL     1       1.330  -0.063  -0.702  1.00  0.00     0.025 C 
ATOM      8  C   UNL     1       3.550   0.832  -0.992  1.00  0.00     0.068 C 
ATOM      9  N   UNL     1       3.496  -0.084   0.022  1.00  0.00    -0.359 N 
ATOM     10  C   UNL     1       2.149   0.848  -1.581  1.00  0.00     0.087 C 
ATOM     11  C   UNL     1       2.215  -0.524   0.200  1.00  0.00     0.093 C 
ATOM     12  H   UNL     1       4.161  -0.091   0.785  1.00  0.00     0.166 HD
BRANCH   8  13
ATOM     13  C   UNL     1       4.512   1.647  -1.432  1.00  0.00     0.081 C 
BRANCH  13  14
ATOM     14  C   UNL     1       5.895   1.745  -0.905  1.00  0.00     0.188 C 
ATOM     15  O   UNL     1       6.531   2.783  -1.052  1.00  0.00    -0.289 OA
BRANCH  14  16
ATOM     16  C   UNL     1       6.518   0.592  -0.225  1.00  0.00     0.028 A 
ATOM     17  C   UNL     1       7.002   0.711   1.092  1.00  0.00    -0.040 A 
ATOM     18  C   UNL     1       7.622  -0.401   1.684  1.00  0.00     0.007 A 
ATOM     19  C   UNL     1       7.745  -1.600   0.982  1.00  0.00     0.039 A 
ATOM     20  C   UNL     1       6.646  -0.610  -0.930  1.00  0.00     0.051 A 
ATOM     21  C   UNL     1       7.257  -1.693  -0.315  1.00  0.00     0.123 A 
ATOM     22  C   UNL     1       6.902   1.999   1.861  1.00  0.00     0.045 C 
ATOM     23  F   UNL     1       7.383  -2.844  -0.984  1.00  0.00    -0.207 F 
ENDBRANCH  14  16
ENDBRANCH  13  14
ENDBRANCH   8  13
BRANCH  10  24
ATOM     24  N   UNL     1       1.715   1.482  -2.613  1.00  0.00    -0.298 NA
ATOM     25  H   UNL     1       2.449   2.026  -3.068  1.00  0.00     0.188 HD
ENDBRANCH  10  24
ENDBRANCH   1   7
BRANCH   4  26
ATOM     26  C   UNL     1      -4.364  -1.191  -0.989  1.00  0.00     0.054 C 
BRANCH  26  27
ATOM     27  C   UNL     1      -5.158  -0.726   0.251  1.00  0.00     0.058 C 
ATOM     28  C   UNL     1      -6.512  -1.459   0.313  1.00  0.00     0.022 C 
ATOM     29  N   UNL     1      -5.282   0.744   0.263  1.00  0.00    -0.311 NA
ATOM     30  C   UNL     1      -7.381  -0.919   1.448  1.00  0.00     0.035 C 
ATOM     31  C   UNL     1      -6.664   1.222   0.265  1.00  0.00     0.113 C 
ATOM     32  C   UNL     1      -7.529   0.605   1.377  1.00  0.00     0.128 C 
ATOM     33  H   UNL     1      -4.786   1.112   1.076  1.00  0.00     0.123 HD
BRANCH  32  34
ATOM     34  O   UNL     1      -8.899   0.944   1.139  1.00  0.00    -0.392 OA
ATOM     35  H   UNL     1      -9.419   0.589   1.881  1.00  0.00     0.211 HD
ENDBRANCH  32  34
ENDBRANCH  26  27
ENDBRANCH   4  26
TORSDOF 8
