MODEL        1USER    Run = 1USERUSER    Estimated Free Energy of Binding    =  -9.11 kcal/mol  [=(1)+(2)+(3)-(4)]USERUSER    (1) Final Intermolecular Energy     = -10.90 kcal/molUSER        vdW + Hbond + desolv Energy     = -10.62 kcal/molUSER        Electrostatic Energy            =  -0.28 kcal/molUSER        Moving Ligand-Fixed Receptor    = -10.90 kcal/molUSER        Moving Ligand-Moving Receptor   =  +0.00 kcal/molUSER    (2) Final Total Internal Energy     =  -1.14 kcal/molUSER    (3) Torsional Free Energy           =  +1.79 kcal/molUSER    (4) Unbound System's Energy         =  -1.14 kcal/molUSERUSERREMARK SMILES C[C@@H]1N(C)C=Nc2c(-c3ccccc3)nc(N[C@H](CO)c3ccccc3)n21REMARK SMILES IDX 18 1 17 2 16 4 2 5 3 6 27 7 5 8 7 9 6 10 15 11 8 12 1 13REMARK SMILES IDX 4 14 9 15 10 16 14 17 11 18 13 19 12 20 19 21 20 22 21 24REMARK SMILES IDX 22 25 26 26 23 27 25 28 24 29REMARK H PARENT 17 3 20 23USER                              x       y       z     vdW  Elec       q    TypeUSER                           _______ _______ _______ _____ _____    ______ ____ROOTATOM      1  C   UNL     1      34.382  45.585  16.692 -0.28 -0.12    +0.138 C  ENDROOTBRANCH   1   2ATOM      2  N   UNL     1      35.578  44.716  16.586 -0.08 +0.16    -0.346 N  ATOM      3  H   UNL     1      35.572  44.098  17.398 +0.12 -0.06    +0.164 HD BRANCH   2   4ATOM      4  C   UNL     1      36.758  45.375  16.519 -0.21 -0.09    +0.207 A  ATOM      5  C   UNL     1      36.386  46.376  14.213 -0.36 -0.11    +0.186 C  ATOM      6  N   UNL     1      36.894  47.567  13.517 -0.27 +0.17    -0.345 N  ATOM      7  N   UNL     1      37.108  46.154  15.457 -0.17 +0.14    -0.274 N  ATOM      8  C   UNL     1      38.161  47.990  13.836 -0.42 -0.07    +0.199 C  ATOM      9  C   UNL     1      38.336  46.730  15.705 -0.29 -0.06    +0.165 A  ATOM     10  N   UNL     1      38.896  47.619  14.836 -0.31 +0.08    -0.219 NA ATOM     11  N   UNL     1      37.712  45.341  17.411 -0.23 +0.06    -0.211 NA ATOM     12  C   UNL     1      38.706  46.182  16.930 -0.33 -0.03    +0.117 A  ATOM     13  C   UNL     1      36.498  45.149  13.302 -0.45 -0.02    +0.056 C  ATOM     14  C   UNL     1      36.187  48.049  12.350 -0.55 -0.07    +0.147 C  BRANCH  12  15ATOM     15  C   UNL     1      39.931  46.434  17.683 -0.47 -0.00    +0.004 A  ATOM     16  C   UNL     1      40.327  45.644  18.770 -0.45 -0.00    +0.010 A  ATOM     17  C   UNL     1      40.747  47.518  17.318 -0.52 -0.00    +0.010 A  ATOM     18  C   UNL     1      41.509  45.923  19.466 -0.44 +0.00    +0.001 A  ATOM     19  C   UNL     1      41.929  47.796  18.012 -0.46 -0.00    +0.001 A  ATOM     20  C   UNL     1      42.309  46.997  19.086 -0.54 +0.00    +0.000 A  ENDBRANCH  12  15ENDBRANCH   2   4ENDBRANCH   1   2BRANCH   1  21ATOM     21  C   UNL     1      34.120  45.985  18.172 -0.41 -0.13    +0.185 C  BRANCH  21  22ATOM     22  O   UNL     1      34.278  47.396  18.361 -1.00 +0.40    -0.394 OA ATOM     23  H   UNL     1      33.850  47.824  17.596 -0.40 -0.53    +0.210 HD ENDBRANCH  21  22ENDBRANCH   1  21BRANCH   1  24ATOM     24  C   UNL     1      33.163  44.916  16.057 -0.32 +0.02    -0.023 A  ATOM     25  C   UNL     1      32.778  43.639  16.502 -0.32 -0.00    +0.006 A  ATOM     26  C   UNL     1      32.388  45.528  15.059 -0.38 -0.00    +0.006 A  ATOM     27  C   UNL     1      31.667  42.990  15.958 -0.33 -0.00    +0.000 A  ATOM     28  C   UNL     1      31.275  44.879  14.516 -0.41 -0.00    +0.000 A  ATOM     29  C   UNL     1      30.916  43.611  14.965 -0.32 -0.00    +0.000 A  ENDBRANCH   1  24TORSDOF 6TERENDMDL