MODEL        1USER    Run = 1USERUSER    Estimated Free Energy of Binding    =  -7.57 kcal/mol  [=(1)+(2)+(3)-(4)]USERUSER    (1) Final Intermolecular Energy     =  -9.96 kcal/molUSER        vdW + Hbond + desolv Energy     =  -9.91 kcal/molUSER        Electrostatic Energy            =  -0.05 kcal/molUSER        Moving Ligand-Fixed Receptor    =  -9.96 kcal/molUSER        Moving Ligand-Moving Receptor   =  +0.00 kcal/molUSER    (2) Final Total Internal Energy     =  -2.33 kcal/molUSER    (3) Torsional Free Energy           =  +2.39 kcal/molUSER    (4) Unbound System's Energy         =  -2.33 kcal/molUSERUSERREMARK SMILES Nc1ncnc2c1ncn2[CH]CO[C@H](Cl)[C@H](O)c1ccccc1REMARK SMILES IDX 12 1 11 2 10 3 2 4 3 5 7 6 4 7 6 8 8 9 5 10 9 11 1 12 13 15REMARK SMILES IDX 14 16 15 17 16 18 17 19 18 21 19 22 23 23 20 24 22 25 21 26REMARK H PARENT 1 13 1 14 17 20USER                              x       y       z     vdW  Elec       q    TypeUSER                           _______ _______ _______ _____ _____    ______ ____ROOTATOM      1  C   UNL     1      37.502  48.575  14.900 -0.44 -0.15    +0.190 C  ENDROOTBRANCH   1   2ATOM      2  C   UNL     1      38.937  48.496  14.540 -0.47 -0.06    +0.141 C  BRANCH   2   3ATOM      3  N   UNL     1      39.962  48.654  15.465 -0.31 +0.11    -0.307 N  ATOM      4  C   UNL     1      41.807  47.691  18.310 -0.38 -0.01    +0.155 A  ATOM      5  N   UNL     1      41.149  46.589  18.729 -0.34 +0.00    -0.217 NA ATOM      6  C   UNL     1      41.335  48.364  17.170 -0.33 -0.01    +0.150 A  ATOM      7  C   UNL     1      40.082  46.170  18.017 -0.31 -0.02    +0.226 A  ATOM      8  C   UNL     1      40.225  47.824  16.541 -0.39 -0.04    +0.165 A  ATOM      9  N   UNL     1      41.761  49.505  16.529 -0.90 -0.04    -0.231 NA ATOM     10  N   UNL     1      39.547  46.719  16.911 -0.30 +0.05    -0.217 NA ATOM     11  C   UNL     1      40.928  49.644  15.520 -0.48 -0.05    +0.202 A  BRANCH   4  12ATOM     12  N   UNL     1      42.909  48.116  19.041 -0.23 +0.00    -0.382 N  ATOM     13  H   UNL     1      43.299  48.993  18.716 -0.49 -0.01    +0.158 HD ATOM     14  H   UNL     1      42.772  48.001  20.037 -0.24 -0.00    +0.158 HD ENDBRANCH   4  12ENDBRANCH   2   3ENDBRANCH   1   2BRANCH   1  15ATOM     15  O   UNL     1      36.761  48.127  13.769 -0.40 +0.21    -0.357 OA BRANCH  15  16ATOM     16  C   UNL     1      37.098  46.780  13.387 -0.41 -0.10    +0.242 C  ATOM     17  Cl  UNL     1      37.146  46.682  11.605 -0.80 +0.03    -0.088 Cl BRANCH  16  18ATOM     18  C   UNL     1      36.010  45.843  13.975 -0.36 -0.10    +0.188 C  BRANCH  18  19ATOM     19  O   UNL     1      34.714  46.447  13.791 -0.27 +0.33    -0.384 OA ATOM     20  H   UNL     1      34.872  47.220  13.216 +0.02 -0.17    +0.211 HD ENDBRANCH  18  19BRANCH  18  21ATOM     21  C   UNL     1      36.203  45.559  15.449 -0.35 +0.01    -0.016 A  ATOM     22  C   UNL     1      37.155  44.627  15.892 -0.35 -0.00    +0.006 A  ATOM     23  C   UNL     1      35.403  46.206  16.403 -0.34 -0.01    +0.006 A  ATOM     24  C   UNL     1      37.303  44.350  17.252 -0.33 -0.00    +0.000 A  ATOM     25  C   UNL     1      35.552  45.926  17.763 -0.36 -0.00    +0.000 A  ATOM     26  C   UNL     1      36.500  44.999  18.187 -0.33 -0.00    +0.000 A  ENDBRANCH  18  21ENDBRANCH  16  18ENDBRANCH  15  16ENDBRANCH   1  15TORSDOF 8TERENDMDL