MODEL        5USER    Run = 5USERUSER    Estimated Free Energy of Binding    = -12.98 kcal/mol  [=(1)+(2)+(3)-(4)]USERUSER    (1) Final Intermolecular Energy     = -14.77 kcal/molUSER        vdW + Hbond + desolv Energy     = -14.69 kcal/molUSER        Electrostatic Energy            =  -0.08 kcal/molUSER        Moving Ligand-Fixed Receptor    = -14.77 kcal/molUSER        Moving Ligand-Moving Receptor   =  +0.00 kcal/molUSER    (2) Final Total Internal Energy     =  -1.82 kcal/molUSER    (3) Torsional Free Energy           =  +1.79 kcal/molUSER    (4) Unbound System's Energy         =  -1.82 kcal/molUSERUSERREMARK SMILES Oc1nc2ccccc2n1C1CCN(Cc2ccc(-c3nc4ccccc4nc3-c3ccccc3)cc2)CC1REMARK SMILES IDX 11 1 12 2 13 3 14 4 38 5 39 6 10 7 2 8 3 9 4 10 9 11 5 12REMARK SMILES IDX 8 13 6 14 7 15 1 16 15 18 16 19 17 20 37 21 18 22 36 23REMARK SMILES IDX 19 24 20 25 21 26 29 27 22 28 28 29 23 30 27 31 24 32 26 33REMARK SMILES IDX 25 34 30 35 31 36 35 37 32 38 34 39 33 40REMARK H PARENT 1 17USER                              x       y       z     vdW  Elec       q    TypeUSER                           _______ _______ _______ _____ _____    ______ ____ROOTATOM      1  C   UNL     1      38.904  47.429  15.469 -0.47 -0.04    +0.095 C  ATOM      2  C   UNL     1      37.778  46.887  16.365 -0.41 -0.02    +0.041 C  ATOM      3  C   UNL     1      36.397  47.295  15.852 -0.29 -0.09    +0.087 C  ATOM      4  N   UNL     1      36.238  47.154  14.401 -0.21 +0.23    -0.299 NA ATOM      5  C   UNL     1      37.249  47.908  13.641 -0.57 -0.04    +0.087 C  ATOM      6  C   UNL     1      38.392  48.485  14.482 -0.56 -0.02    +0.041 C  ENDROOTBRANCH   1   7ATOM      7  N   UNL     1      40.059  47.876  16.231 -0.30 +0.07    -0.291 N  ATOM      8  C   UNL     1      40.773  49.024  16.027 -0.34 -0.06    +0.295 A  ATOM      9  N   UNL     1      41.758  49.179  16.868 -0.88 -0.04    -0.195 NA ATOM     10  C   UNL     1      41.685  48.075  17.682 -0.36 -0.00    +0.092 A  ATOM     11  C   UNL     1      40.628  47.238  17.315 -0.47 -0.01    +0.072 A  ATOM     12  C   UNL     1      42.496  47.722  18.773 -0.50 +0.00    +0.031 A  ATOM     13  C   UNL     1      40.337  46.050  18.000 -0.46 -0.00    +0.029 A  ATOM     14  C   UNL     1      42.221  46.538  19.467 -0.46 +0.00    +0.002 A  ATOM     15  C   UNL     1      41.159  45.719  19.085 -0.46 +0.00    +0.002 A  BRANCH   8  16ATOM     16  O   UNL     1      40.513  49.914  15.091 -0.19 +0.22    -0.480 OA ATOM     17  H   UNL     1      39.762  50.394  15.486 -0.21 -0.23    +0.296 HD ENDBRANCH   8  16ENDBRANCH   1   7BRANCH   4  18ATOM     18  C   UNL     1      36.143  45.758  13.940 -0.41 -0.06    +0.120 C  BRANCH  18  19ATOM     19  C   UNL     1      35.456  44.834  14.922 -0.23 +0.02    -0.034 A  ATOM     20  C   UNL     1      34.167  45.116  15.387 -0.31 -0.00    +0.006 A  ATOM     21  C   UNL     1      36.108  43.689  15.395 -0.38 -0.00    +0.006 A  ATOM     22  C   UNL     1      33.536  44.255  16.292 -0.32 -0.01    +0.011 A  ATOM     23  C   UNL     1      35.475  42.830  16.298 -0.44 -0.00    +0.011 A  ATOM     24  C   UNL     1      34.171  43.089  16.750 -0.38 -0.00    +0.002 A  BRANCH  24  25ATOM     25  C   UNL     1      33.483  42.186  17.688 -0.32 -0.03    +0.097 A  ATOM     26  N   UNL     1      32.387  41.571  17.155 -0.09 +0.11    -0.244 NA ATOM     27  C   UNL     1      33.866  41.961  19.020 -0.29 -0.01    +0.097 A  ATOM     28  C   UNL     1      31.670  40.772  17.964 -0.32 -0.02    +0.089 A  ATOM     29  N   UNL     1      33.126  41.157  19.836 -0.03 -0.07    -0.244 NA ATOM     30  C   UNL     1      30.539  40.134  17.468 -0.34 -0.00    +0.030 A  ATOM     31  C   UNL     1      32.039  40.566  19.311 -0.28 +0.01    +0.089 A  ATOM     32  C   UNL     1      29.764  39.298  18.273 -0.34 +0.00    +0.002 A  ATOM     33  C   UNL     1      31.262  39.733  20.105 -0.30 +0.00    +0.030 A  ATOM     34  C   UNL     1      30.128  39.097  19.598 -0.33 +0.00    +0.002 A  BRANCH  27  35ATOM     35  C   UNL     1      35.068  42.520  19.666 -0.44 -0.00    +0.002 A  ATOM     36  C   UNL     1      35.477  43.837  19.386 -0.38 -0.00    +0.010 A  ATOM     37  C   UNL     1      35.826  41.785  20.595 -0.42 -0.00    +0.010 A  ATOM     38  C   UNL     1      36.611  44.389  19.989 -0.36 -0.00    +0.001 A  ATOM     39  C   UNL     1      36.963  42.333  21.196 -0.45 +0.00    +0.001 A  ATOM     40  C   UNL     1      37.356  43.633  20.892 -0.39 +0.00    +0.000 A  ENDBRANCH  27  35ENDBRANCH  24  25ENDBRANCH  18  19ENDBRANCH   4  18TORSDOF 6TERENDMDL