MODEL        8USER    Run = 8USERUSER    Estimated Free Energy of Binding    = -13.21 kcal/mol  [=(1)+(2)+(3)-(4)]USERUSER    (1) Final Intermolecular Energy     = -15.00 kcal/molUSER        vdW + Hbond + desolv Energy     = -14.88 kcal/molUSER        Electrostatic Energy            =  -0.12 kcal/molUSER        Moving Ligand-Fixed Receptor    = -15.00 kcal/molUSER        Moving Ligand-Moving Receptor   =  +0.00 kcal/molUSER    (2) Final Total Internal Energy     =  -0.70 kcal/molUSER    (3) Torsional Free Energy           =  +1.79 kcal/molUSER    (4) Unbound System's Energy         =  -0.70 kcal/molUSERUSERREMARK SMILES Cn1ccc2ccc3c4[nH]c5c(CCCN[C@H]6CC[C@H](O)CC6)cccc5c4c4c(c3c21)C(=O)NC4=OREMARK SMILES IDX 15 1 14 2 13 3 12 4 2 5 3 6 32 7 4 8 31 9 5 10 30 11 8 12REMARK SMILES IDX 6 13 29 14 33 15 7 16 9 17 28 18 36 19 35 20 10 21 27 22REMARK SMILES IDX 11 23 26 24 25 25 24 26 1 27 34 28 37 29 16 32 17 34 23 35REMARK SMILES IDX 18 36 22 37 19 38 20 39 21 40REMARK H PARENT 35 30 10 31 16 33 21 41USER                              x       y       z     vdW  Elec       q    TypeUSER                           _______ _______ _______ _____ _____    ______ ____ROOTATOM      1  C   UNL     1      37.284  44.359  24.240 -0.33 +0.01    +0.081 C  ENDROOTBRANCH   1   2ATOM      2  C   UNL     1      36.786  43.257  23.300 -0.32 +0.00    +0.020 C  BRANCH   2   3ATOM      3  C   UNL     1      37.922  42.415  22.708 -0.42 +0.00    +0.039 C  BRANCH   3   4ATOM      4  C   UNL     1      39.210  43.175  22.503 -0.26 -0.00    -0.024 A  ATOM      5  N   UNL     1      39.610  47.783  15.167 -0.23 +0.10    -0.350 N  ATOM      6  C   UNL     1      38.627  48.191  14.295 -0.45 -0.03    +0.086 A  ATOM      7  C   UNL     1      39.048  47.212  16.303 -0.41 -0.02    +0.057 A  ATOM      8  C   UNL     1      37.434  47.695  14.748 -0.47 -0.02    +0.028 A  ATOM      9  C   UNL     1      39.578  46.770  17.573 -0.43 -0.00    +0.022 A  ATOM     10  C   UNL     1      37.697  47.013  15.964 -0.41 -0.00    +0.000 A  ATOM     11  C   UNL     1      40.814  47.079  18.162 -0.44 -0.01    +0.063 A  ATOM     12  C   UNL     1      38.721  45.914  18.333 -0.37 -0.00    +0.009 A  ATOM     13  C   UNL     1      36.868  46.249  16.803 -0.36 -0.01    +0.011 A  ATOM     14  C   UNL     1      41.259  46.473  19.343 -0.39 +0.00    +0.063 A  ATOM     15  C   UNL     1      41.811  48.122  17.863 -0.28 -0.01    +0.259 C  ATOM     16  C   UNL     1      37.395  45.663  17.949 -0.32 -0.00    +0.012 A  ATOM     17  C   UNL     1      39.209  45.307  19.532 -0.36 -0.00    +0.055 A  ATOM     18  C   UNL     1      40.487  45.550  20.052 -0.38 +0.00    +0.022 A  ATOM     19  C   UNL     1      42.566  47.038  19.676 -0.37 +0.04    +0.259 C  ATOM     20  N   UNL     1      42.870  47.911  18.684 -0.37 -0.01    -0.288 N  ATOM     21  N   UNL     1      38.607  44.420  20.398 -0.14 +0.00    -0.354 N  ATOM     22  C   UNL     1      40.633  44.759  21.242 -0.31 +0.00    +0.008 A  ATOM     23  C   UNL     1      39.439  44.061  21.430 -0.25 +0.00    +0.050 A  ATOM     24  C   UNL     1      41.665  44.565  22.182 -0.24 +0.00    +0.011 A  ATOM     25  C   UNL     1      41.473  43.695  23.260 -0.22 +0.00    +0.001 A  ATOM     26  C   UNL     1      40.269  43.016  23.415 -0.24 +0.00    +0.006 A  ATOM     27  C   UNL     1      40.995  47.750  14.746 -0.28 -0.01    +0.149 C  ATOM     28  O   UNL     1      41.685  49.068  17.114 -0.92 -0.03    -0.269 OA ATOM     29  O   UNL     1      43.234  46.832  20.667 -0.32 -0.10    -0.269 OA ATOM     30  H   UNL     1      43.626  48.573  18.772 -0.44 -0.01    +0.173 HD ATOM     31  H   UNL     1      37.675  44.053  20.282 +0.10 -0.01    +0.167 HD ENDBRANCH   3   4ENDBRANCH   2   3ENDBRANCH   1   2BRANCH   1  32ATOM     32  N   UNL     1      36.333  44.516  25.343 -0.13 -0.01    -0.314 NA ATOM     33  H   UNL     1      36.217  45.504  25.566 -0.41 -0.01    +0.122 HD BRANCH  32  34ATOM     34  C   UNL     1      36.729  43.772  26.547 -0.39 -0.01    +0.053 C  ATOM     35  C   UNL     1      35.534  43.418  27.457 -0.58 -0.01    +0.021 C  ATOM     36  C   UNL     1      37.486  42.516  26.071 -0.38 -0.00    +0.021 C  ATOM     37  C   UNL     1      34.977  42.024  27.170 -0.64 -0.01    +0.033 C  ATOM     38  C   UNL     1      37.466  41.425  27.133 -0.51 -0.01    +0.033 C  ATOM     39  C   UNL     1      36.038  40.942  27.406 -0.57 -0.04    +0.114 C  BRANCH  39  40ATOM     40  O   UNL     1      35.981  40.497  28.761 -0.20 +0.22    -0.393 OA ATOM     41  H   UNL     1      36.662  40.983  29.258 -0.45 -0.14    +0.210 HD ENDBRANCH  39  40ENDBRANCH  32  34ENDBRANCH   1  32TORSDOF 6TERENDMDL