MODEL        10USER    Run = 10USERUSER    Estimated Free Energy of Binding    = -12.17 kcal/mol  [=(1)+(2)+(3)-(4)]USERUSER    (1) Final Intermolecular Energy     = -14.56 kcal/molUSER        vdW + Hbond + desolv Energy     = -14.53 kcal/molUSER        Electrostatic Energy            =  -0.03 kcal/molUSER        Moving Ligand-Fixed Receptor    = -14.56 kcal/molUSER        Moving Ligand-Moving Receptor   =  +0.00 kcal/molUSER    (2) Final Total Internal Energy     =  -2.20 kcal/molUSER    (3) Torsional Free Energy           =  +2.39 kcal/molUSER    (4) Unbound System's Energy         =  -2.20 kcal/molUSERUSERREMARK SMILES N#Cc1cnc(-c2ccc(CNCc3ccc(-c4csnn4)cc3)cc2)c(-c2ccccc2)c1REMARK SMILES IDX 11 1 10 2 7 3 8 4 26 5 9 6 25 7 6 8 3 9 4 10 34 11 5 12REMARK SMILES IDX 27 13 2 14 1 15 28 16 29 17 33 18 30 19 32 20 31 21 12 22REMARK SMILES IDX 13 24 14 25 15 26 24 27 16 28 23 29 17 30 18 31 19 32 22 33REMARK SMILES IDX 20 34 21 35REMARK H PARENT 12 23USER                              x       y       z     vdW  Elec       q    TypeUSER                           _______ _______ _______ _____ _____    ______ ____ROOTATOM      1  C   UNL     1      35.437  43.834  19.066 -0.35 -0.02    +0.117 C  ENDROOTBRANCH   1   2ATOM      2  C   UNL     1      36.381  44.743  18.315 -0.32 +0.01    -0.034 A  ATOM      3  C   UNL     1      38.174  46.462  16.938 -0.38 -0.00    +0.001 A  ATOM      4  C   UNL     1      36.781  46.620  16.826 -0.30 -0.01    +0.011 A  ATOM      5  C   UNL     1      38.648  45.412  17.741 -0.39 -0.00    +0.011 A  ATOM      6  C   UNL     1      35.895  45.779  17.509 -0.36 -0.00    +0.006 A  ATOM      7  C   UNL     1      37.765  44.570  18.427 -0.35 -0.00    +0.006 A  BRANCH   3   8ATOM      8  C   UNL     1      39.087  47.365  16.208 -0.41 -0.03    +0.078 A  ATOM      9  C   UNL     1      40.929  49.110  15.107 -0.57 -0.01    +0.071 A  ATOM     10  C   UNL     1      41.013  48.668  16.412 -0.46 -0.02    +0.131 A  ATOM     11  C   UNL     1      39.875  48.640  14.325 -0.39 -0.01    +0.032 A  ATOM     12  N   UNL     1      40.128  47.811  16.971 -0.31 +0.06    -0.254 NA ATOM     13  C   UNL     1      38.925  47.747  14.860 -0.50 -0.00    +0.009 A  BRANCH   9  14ATOM     14  C   UNL     1      41.901  50.013  14.581 -0.67 -0.02    +0.101 C  ATOM     15  N   UNL     1      42.691  50.748  14.155 -0.50 +0.04    -0.192 NA ENDBRANCH   9  14BRANCH  13  16ATOM     16  C   UNL     1      37.855  47.243  13.981 -0.49 +0.01    -0.016 A  ATOM     17  C   UNL     1      37.732  45.867  13.717 -0.42 -0.00    +0.009 A  ATOM     18  C   UNL     1      36.922  48.115  13.399 -0.60 -0.00    +0.009 A  ATOM     19  C   UNL     1      36.716  45.383  12.889 -0.52 -0.00    +0.001 A  ATOM     20  C   UNL     1      35.907  47.632  12.570 -0.60 -0.00    +0.001 A  ATOM     21  C   UNL     1      35.805  46.266  12.315 -0.61 -0.00    +0.000 A  ENDBRANCH  13  16ENDBRANCH   3   8ENDBRANCH   1   2BRANCH   1  22ATOM     22  N   UNL     1      34.996  42.733  18.210 -0.16 +0.08    -0.309 NA ATOM     23  H   UNL     1      35.442  41.878  18.538 +0.04 -0.02    +0.123 HD BRANCH  22  24ATOM     24  C   UNL     1      33.545  42.554  18.243 -0.35 -0.03    +0.117 C  BRANCH  24  25ATOM     25  C   UNL     1      32.817  43.355  17.188 -0.29 +0.01    -0.034 A  ATOM     26  C   UNL     1      31.422  43.295  17.078 -0.29 -0.00    +0.006 A  ATOM     27  C   UNL     1      33.527  44.157  16.287 -0.32 -0.00    +0.006 A  ATOM     28  C   UNL     1      30.752  44.030  16.094 -0.31 -0.00    +0.011 A  ATOM     29  C   UNL     1      32.858  44.891  15.303 -0.30 -0.01    +0.011 A  ATOM     30  C   UNL     1      31.461  44.843  15.197 -0.40 -0.00    +0.003 A  BRANCH  30  31ATOM     31  C   UNL     1      30.792  45.623  14.160 -0.44 -0.07    +0.105 A  ATOM     32  C   UNL     1      29.431  45.873  14.117 -0.11 -0.10    +0.118 A  ATOM     33  N   UNL     1      31.515  46.206  13.121 -0.65 +0.09    -0.138 NA ATOM     34  S   UNL     1      29.127  46.837  12.729 -0.64 +0.01    -0.020 S  ATOM     35  N   UNL     1      30.738  46.875  12.287 -0.80 +0.04    -0.091 NA ENDBRANCH  30  31ENDBRANCH  24  25ENDBRANCH  22  24ENDBRANCH   1  22TORSDOF 8TERENDMDL