MODEL        6USER    Run = 6USERUSER    Estimated Free Energy of Binding    = -12.17 kcal/mol  [=(1)+(2)+(3)-(4)]USERUSER    (1) Final Intermolecular Energy     = -13.96 kcal/molUSER        vdW + Hbond + desolv Energy     = -13.56 kcal/molUSER        Electrostatic Energy            =  -0.40 kcal/molUSER        Moving Ligand-Fixed Receptor    = -13.96 kcal/molUSER        Moving Ligand-Moving Receptor   =  +0.00 kcal/molUSER    (2) Final Total Internal Energy     =  -1.94 kcal/molUSER    (3) Torsional Free Energy           =  +1.79 kcal/molUSER    (4) Unbound System's Energy         =  -1.94 kcal/molUSERUSERREMARK SMILES Oc1nc2ccccc2n1C1CCN(Cc2ccc(-c3cc4ccccc4nc3-c3ccccc3)cc2)CC1REMARK SMILES IDX 11 1 12 2 13 3 14 4 38 5 39 6 10 7 2 8 3 9 4 10 9 11 5 12REMARK SMILES IDX 8 13 6 14 7 15 1 16 15 18 16 19 17 20 37 21 18 22 36 23REMARK SMILES IDX 19 24 20 25 21 26 29 27 22 28 28 29 23 30 27 31 24 32 26 33REMARK SMILES IDX 25 34 30 35 31 36 35 37 32 38 34 39 33 40REMARK H PARENT 1 17USER                              x       y       z     vdW  Elec       q    TypeUSER                           _______ _______ _______ _____ _____    ______ ____ROOTATOM      1  C   UNL     1      29.716  41.612  15.868 -0.35 -0.04    +0.095 C  ATOM      2  C   UNL     1      30.296  41.000  17.151 -0.36 -0.01    +0.041 C  ATOM      3  C   UNL     1      30.998  41.996  18.068 -0.24 -0.01    +0.087 C  ATOM      4  N   UNL     1      31.908  42.910  17.375 -0.10 +0.09    -0.299 NA ATOM      5  C   UNL     1      31.193  43.672  16.348 -0.31 -0.03    +0.087 C  ATOM      6  C   UNL     1      30.487  42.813  15.302 -0.23 -0.03    +0.041 C  ENDROOTBRANCH   1   7ATOM      7  N   UNL     1      28.264  41.782  15.888 -0.13 +0.12    -0.291 N  ATOM      8  C   UNL     1      27.408  41.067  15.085 -0.11 -0.14    +0.295 A  ATOM      9  N   UNL     1      26.155  41.388  15.236 -0.25 +0.07    -0.195 NA ATOM     10  C   UNL     1      26.173  42.364  16.196 -0.22 -0.02    +0.092 A  ATOM     11  C   UNL     1      27.477  42.633  16.637 -0.18 -0.02    +0.072 A  ATOM     12  C   UNL     1      25.087  43.069  16.741 -0.29 -0.00    +0.031 A  ATOM     13  C   UNL     1      27.720  43.591  17.629 -0.19 -0.00    +0.029 A  ATOM     14  C   UNL     1      25.326  44.030  17.726 -0.41 -0.00    +0.002 A  ATOM     15  C   UNL     1      26.624  44.282  18.162 -0.38 -0.00    +0.002 A  BRANCH   8  16ATOM     16  O   UNL     1      27.776  40.137  14.228 -0.23 +0.19    -0.480 OA ATOM     17  H   UNL     1      27.591  40.580  13.380 -0.09 -0.52    +0.296 HD ENDBRANCH   8  16ENDBRANCH   1   7BRANCH   4  18ATOM     18  C   UNL     1      33.114  42.226  16.880 -0.18 -0.06    +0.120 C  BRANCH  18  19ATOM     19  C   UNL     1      34.356  43.090  16.937 -0.35 +0.01    -0.034 A  ATOM     20  C   UNL     1      34.425  44.196  17.793 -0.31 -0.00    +0.006 A  ATOM     21  C   UNL     1      35.461  42.792  16.129 -0.44 -0.00    +0.006 A  ATOM     22  C   UNL     1      35.575  44.989  17.837 -0.33 -0.00    +0.009 A  ATOM     23  C   UNL     1      36.607  43.591  16.168 -0.39 -0.00    +0.009 A  ATOM     24  C   UNL     1      36.679  44.703  17.018 -0.32 +0.01    -0.016 A  BRANCH  24  25ATOM     25  C   UNL     1      37.889  45.537  17.065 -0.37 -0.00    +0.009 A  ATOM     26  C   UNL     1      38.697  45.506  18.211 -0.39 -0.00    +0.021 A  ATOM     27  C   UNL     1      38.319  46.353  16.005 -0.34 -0.03    +0.079 A  ATOM     28  C   UNL     1      39.882  46.250  18.277 -0.46 -0.00    +0.001 A  ATOM     29  N   UNL     1      39.478  47.071  16.051 -0.27 +0.07    -0.247 NA ATOM     30  C   UNL     1      40.708  46.230  19.414 -0.40 +0.00    +0.010 A  ATOM     31  C   UNL     1      40.235  47.023  17.158 -0.45 -0.01    +0.071 A  ATOM     32  C   UNL     1      41.884  46.977  19.445 -0.43 +0.00    +0.001 A  ATOM     33  C   UNL     1      41.413  47.758  17.212 -0.40 -0.00    +0.029 A  ATOM     34  C   UNL     1      42.238  47.743  18.340 -0.51 -0.00    +0.002 A  BRANCH  27  35ATOM     35  C   UNL     1      37.576  46.524  14.742 -0.41 -0.00    +0.001 A  ATOM     36  C   UNL     1      37.485  45.466  13.821 -0.43 -0.00    +0.010 A  ATOM     37  C   UNL     1      36.958  47.742  14.407 -0.50 -0.01    +0.010 A  ATOM     38  C   UNL     1      36.781  45.612  12.621 -0.56 -0.00    +0.001 A  ATOM     39  C   UNL     1      36.256  47.890  13.208 -0.54 -0.00    +0.001 A  ATOM     40  C   UNL     1      36.164  46.822  12.317 -0.69 -0.00    +0.000 A  ENDBRANCH  27  35ENDBRANCH  24  25ENDBRANCH  18  19ENDBRANCH   4  18TORSDOF 6TERENDMDL