MODEL        6USER    Run = 6USERUSER    Estimated Free Energy of Binding    =  -7.53 kcal/mol  [=(1)+(2)+(3)-(4)]USERUSER    (1) Final Intermolecular Energy     = -12.01 kcal/molUSER        vdW + Hbond + desolv Energy     = -11.94 kcal/molUSER        Electrostatic Energy            =  -0.22 kcal/molUSER        Moving Ligand-Fixed Receptor    = -12.16 kcal/molUSER        Moving Ligand-Moving Receptor   =  +0.15 kcal/molUSER    (2) Final Total Internal Energy     =  -2.28 kcal/molUSER    (3) Torsional Free Energy           =  +4.47 kcal/molUSER    (4) Unbound System's Energy         =  -2.28 kcal/molUSERUSERREMARK SMILES COc1ccc(O)c(C(=O)c2ccc(/C=C/[C@@H]3CCCNC[C@H]3NC(=O)c3ccncc3)cc2)c1FREMARK SMILES IDX 16 1 15 2 14 3 11 4 12 5 34 6 13 7 33 8 9 9 10 10 8 11 3 12REMARK SMILES IDX 4 13 35 14 5 15 6 16 36 17 2 18 1 19 7 20 17 22 18 23 23 25REMARK SMILES IDX 22 26 21 27 20 29 19 30 24 32 25 33 26 35 27 36 28 37 32 38REMARK SMILES IDX 29 39 31 40 30 41REMARK H PARENT 7 21 21 28 24 34REMARK Flexibility Score:   99.900USER                              x       y       z     vdW  Elec       q    TypeUSER                           _______ _______ _______ _____ _____    ______ ____ROOTATOM      1  C   UNL     1      37.341  43.617  18.705 -0.01 +0.00    -0.021 C  ENDROOTBRANCH   1   2ATOM      2  C   UNL     1      38.074  44.336  19.568 -0.41 -0.00    +0.004 C  BRANCH   2   3ATOM      3  C   UNL     1      37.836  44.350  21.017 -0.36 -0.00    -0.026 A  ATOM      4  C   UNL     1      37.380  44.458  23.785 -0.30 +0.00    +0.023 A  ATOM      5  C   UNL     1      38.176  45.429  23.170 -0.28 +0.00    +0.013 A  ATOM      6  C   UNL     1      36.779  43.458  23.016 -0.23 +0.00    +0.013 A  ATOM      7  C   UNL     1      38.397  45.374  21.789 -0.26 +0.00    +0.009 A  ATOM      8  C   UNL     1      37.014  43.400  21.640 -0.41 +0.00    +0.009 A  BRANCH   4   9ATOM      9  C   UNL     1      37.098  44.502  25.235 -0.26 +0.01    +0.199 C  ATOM     10  O   UNL     1      36.954  45.597  25.780 -0.47 +0.01    -0.288 OA BRANCH   9  11ATOM     11  C   UNL     1      37.032  43.287  26.078 -0.27 -0.01    +0.104 A  ATOM     12  C   UNL     1      38.018  41.231  26.944 -0.32 -0.02    +0.155 A  ATOM     13  C   UNL     1      36.863  40.995  27.690 -0.49 -0.02    +0.053 A  ATOM     14  C   UNL     1      38.090  42.378  26.139 -0.20 -0.01    +0.179 A  ATOM     15  C   UNL     1      35.786  41.884  27.614 -0.51 -0.02    +0.051 A  ATOM     16  C   UNL     1      35.867  43.011  26.804 -0.38 -0.02    +0.130 A  ATOM     17  F   UNL     1      39.191  42.573  25.396 -0.04 -0.00    -0.202 F  BRANCH  12  18ATOM     18  O   UNL     1      39.125  40.426  26.921 -0.14 +0.01    -0.494 OA ATOM     19  C   UNL     1      40.150  40.700  27.868 -0.17 -0.02    +0.278 C  ENDBRANCH  12  18BRANCH  16  20ATOM     20  O   UNL     1      34.756  43.812  26.764 -0.15 +0.08    -0.507 OA ATOM     21  H   UNL     1      35.046  44.715  26.497 -0.19 -0.13    +0.293 HD ENDBRANCH  16  20ENDBRANCH   9  11ENDBRANCH   4   9ENDBRANCH   2   3ENDBRANCH   1   2BRANCH   1  22ATOM     22  C   UNL     1      35.896  43.899  18.300 -0.36 -0.01    +0.035 C  BRANCH  22  23ATOM     23  C   UNL     1      35.001  43.346  19.428 -0.46 -0.00    +0.011 CG0ATOM     24  G   UNL     1      33.668  44.034  19.697 +0.00 +0.00    +0.000 G0 ENDBRANCH  22  23BRANCH  22  25ATOM     25  C   UNL     1      35.471  43.448  16.869 -0.36 -0.04    +0.103 C  BRANCH  25  26ATOM     26  C   UNL     1      33.982  42.999  16.838 -0.35 -0.04    +0.106 C  BRANCH  26  27ATOM     27  N   UNL     1      32.973  43.931  17.328 -0.09 +0.11    -0.315 NA ATOM     28  H   UNL     1      32.164  43.911  16.704 +0.09 -0.05    +0.122 HD BRANCH  27  29ATOM     29  C   UNL     1      32.556  43.725  18.707 -0.38 -0.01    +0.081 C  BRANCH  29  30ATOM     30  C   UNL     1      33.667  44.035  19.698 -0.46 -0.00    +0.016 CG0ATOM     31  G   UNL     1      35.000  43.346  19.428 +0.00 +0.00    +0.000 G0 ENDBRANCH  29  30ENDBRANCH  27  29ENDBRANCH  26  27ENDBRANCH  25  26BRANCH  25  32ATOM     32  N   UNL     1      35.650  44.533  15.893 -0.11 +0.16    -0.347 N  ATOM     33  C   UNL     1      36.893  44.880  15.411 -0.25 -0.10    +0.251 C  ATOM     34  H   UNL     1      34.823  44.895  15.437 +0.11 -0.10    +0.164 HD ATOM     35  O   UNL     1      37.931  44.327  15.752 -0.14 +0.07    -0.269 OA BRANCH  33  36ATOM     36  C   UNL     1      36.921  45.967  14.401 -0.38 -0.02    +0.042 A  ATOM     37  C   UNL     1      36.584  45.739  13.067 -0.50 -0.01    +0.034 A  ATOM     38  C   UNL     1      37.263  47.252  14.819 -0.42 -0.02    +0.034 A  ATOM     39  C   UNL     1      36.631  46.813  12.198 -0.59 -0.05    +0.112 A  ATOM     40  C   UNL     1      37.284  48.257  13.872 -0.47 -0.06    +0.112 A  ATOM     41  N   UNL     1      36.984  48.063  12.569 -0.95 +0.07    -0.265 NA ENDBRANCH  33  36ENDBRANCH  25  32ENDBRANCH  22  25ENDBRANCH   1  22TORSDOF 9TERENDMDL