MODEL        6USER    Run = 6USERUSER    Estimated Free Energy of Binding    =  -6.28 kcal/mol  [=(1)+(2)+(3)-(4)]USERUSER    (1) Final Intermolecular Energy     = -10.76 kcal/molUSER        vdW + Hbond + desolv Energy     = -11.00 kcal/molUSER        Electrostatic Energy            =  -0.28 kcal/molUSER        Moving Ligand-Fixed Receptor    = -11.28 kcal/molUSER        Moving Ligand-Moving Receptor   =  +0.53 kcal/molUSER    (2) Final Total Internal Energy     =  -3.59 kcal/molUSER    (3) Torsional Free Energy           =  +4.47 kcal/molUSER    (4) Unbound System's Energy         =  -3.59 kcal/molUSERUSERREMARK SMILES COc1ccc(O)c(C(=O)c2ccc(CO[C@@H]3CCCNC[C@@H]3NC(=O)c3ccncc3)cc2)c1FREMARK SMILES IDX 16 1 15 2 14 3 11 4 12 5 34 6 13 7 33 8 9 9 10 10 8 11 3 12REMARK SMILES IDX 4 13 35 14 5 15 6 16 36 17 2 18 1 19 7 20 17 22 18 23 23 25REMARK SMILES IDX 22 26 21 27 20 29 19 30 24 32 25 33 26 35 27 36 28 37 32 38REMARK SMILES IDX 29 39 31 40 30 41REMARK H PARENT 7 21 21 28 24 34REMARK Flexibility Score:   99.900USER                              x       y       z     vdW  Elec       q    TypeUSER                           _______ _______ _______ _____ _____    ______ ____ROOTATOM      1  O   UNL     1      38.255  44.264  17.390 -0.15 +0.07    -0.371 OA ENDROOTBRANCH   1   2ATOM      2  C   UNL     1      39.138  45.296  16.955 -0.08 -0.03    +0.196 C  BRANCH   2   3ATOM      3  C   UNL     1      40.056  45.644  18.098 -0.44 +0.00    -0.022 A  ATOM      4  C   UNL     1      41.792  46.296  20.209 -0.39 +0.00    +0.023 A  ATOM      5  C   UNL     1      41.701  47.135  19.094 -0.40 +0.00    +0.012 A  ATOM      6  C   UNL     1      40.993  45.151  20.283 -0.37 +0.00    +0.012 A  ATOM      7  C   UNL     1      40.842  46.805  18.044 -0.51 -0.00    +0.007 A  ATOM      8  C   UNL     1      40.134  44.824  19.232 -0.42 -0.00    +0.007 A  BRANCH   4   9ATOM      9  C   UNL     1      42.664  46.622  21.363 -0.28 +0.05    +0.199 C  ATOM     10  O   UNL     1      43.854  46.297  21.326 -0.34 -0.19    -0.288 OA BRANCH   9  11ATOM     11  C   UNL     1      42.169  47.269  22.596 -0.21 +0.02    +0.104 A  ATOM     12  C   UNL     1      40.461  47.595  24.306 -0.20 +0.02    +0.155 A  ATOM     13  C   UNL     1      41.287  48.518  24.952 -0.30 +0.01    +0.053 A  ATOM     14  C   UNL     1      40.910  46.984  23.126 -0.13 +0.02    +0.179 A  ATOM     15  C   UNL     1      42.536  48.836  24.412 -0.36 +0.01    +0.051 A  ATOM     16  C   UNL     1      42.965  48.226  23.236 -0.30 +0.03    +0.130 A  ATOM     17  F   UNL     1      40.092  46.125  22.495 -0.07 -0.02    -0.202 F  BRANCH  12  18ATOM     18  O   UNL     1      39.215  47.216  24.729 -0.07 -0.05    -0.494 OA ATOM     19  C   UNL     1      39.144  46.247  25.767 -0.12 +0.01    +0.278 C  ENDBRANCH  12  18BRANCH  16  20ATOM     20  O   UNL     1      44.188  48.618  22.759 -0.31 -0.13    -0.507 OA ATOM     21  H   UNL     1      44.237  48.361  21.809 -0.43 +0.02    +0.293 HD ENDBRANCH  16  20ENDBRANCH   9  11ENDBRANCH   4   9ENDBRANCH   2   3ENDBRANCH   1   2BRANCH   1  22ATOM     22  C   UNL     1      36.887  44.465  16.973 -0.30 -0.04    +0.142 C  BRANCH  22  23ATOM     23  C   UNL     1      36.711  45.990  16.944 -0.39 -0.02    +0.035 CG0ATOM     24  G   UNL     1      35.305  46.577  16.878 +0.00 +0.00    +0.000 G0 ENDBRANCH  22  23BRANCH  22  25ATOM     25  C   UNL     1      35.943  43.691  17.924 -0.29 -0.03    +0.125 C  BRANCH  25  26ATOM     26  C   UNL     1      34.497  44.241  17.838 -0.29 -0.04    +0.108 C  BRANCH  26  27ATOM     27  N   UNL     1      34.168  45.366  18.711 -0.24 +0.14    -0.315 NA ATOM     28  H   UNL     1      34.601  45.204  19.622 -0.08 -0.04    +0.122 HD BRANCH  27  29ATOM     29  C   UNL     1      34.546  46.670  18.187 -0.42 -0.07    +0.081 C  BRANCH  29  30ATOM     30  C   UNL     1      35.303  46.576  16.870 -0.31 -0.02    +0.018 CG0ATOM     31  G   UNL     1      36.708  45.989  16.944 +0.00 +0.00    +0.000 G0 ENDBRANCH  29  30ENDBRANCH  27  29ENDBRANCH  26  27ENDBRANCH  25  26BRANCH  25  32ATOM     32  N   UNL     1      36.488  43.639  19.288 -0.13 +0.04    -0.345 N  ATOM     33  C   UNL     1      35.708  43.250  20.357 -0.31 -0.00    +0.251 C  ATOM     34  H   UNL     1      37.466  43.382  19.339 +0.11 -0.01    +0.164 HD ATOM     35  O   UNL     1      34.508  43.028  20.278 -0.60 -0.02    -0.269 OA BRANCH  33  36ATOM     36  C   UNL     1      36.415  43.064  21.653 -0.34 +0.00    +0.042 A  ATOM     37  C   UNL     1      36.977  44.183  22.267 -0.28 +0.00    +0.034 A  ATOM     38  C   UNL     1      36.560  41.809  22.244 -0.52 +0.00    +0.034 A  ATOM     39  C   UNL     1      37.648  44.001  23.462 -0.27 +0.01    +0.112 A  ATOM     40  C   UNL     1      37.252  41.733  23.440 -0.29 +0.01    +0.112 A  ATOM     41  N   UNL     1      37.793  42.801  24.063 -0.18 -0.02    -0.265 NA ENDBRANCH  33  36ENDBRANCH  25  32ENDBRANCH  22  25ENDBRANCH   1  22TORSDOF 9TERENDMDL