MODEL        5USER    Run = 5USERUSER    Estimated Free Energy of Binding    =  -7.20 kcal/mol  [=(1)+(2)+(3)-(4)]USERUSER    (1) Final Intermolecular Energy     = -11.68 kcal/molUSER        vdW + Hbond + desolv Energy     = -11.91 kcal/molUSER        Electrostatic Energy            =  +0.05 kcal/molUSER        Moving Ligand-Fixed Receptor    = -11.86 kcal/molUSER        Moving Ligand-Moving Receptor   =  +0.18 kcal/molUSER    (2) Final Total Internal Energy     =  -3.07 kcal/molUSER    (3) Torsional Free Energy           =  +4.47 kcal/molUSER    (4) Unbound System's Energy         =  -3.07 kcal/molUSERUSERREMARK SMILES COc1ccc(O)c(C(=O)c2ccc(C(=O)O[C@@H]3CCCNC[C@H]3NC(=O)c3ccncc3)cc2)c1FREMARK SMILES IDX 17 1 15 2 16 3 14 4 11 5 12 6 35 7 13 8 34 9 9 10 10 11 8 12REMARK SMILES IDX 3 13 4 14 36 15 5 16 6 17 37 18 2 19 1 20 7 21 18 23 24 25REMARK SMILES IDX 23 26 22 27 21 29 20 30 19 31 25 33 26 34 27 36 28 37 29 38REMARK SMILES IDX 33 39 30 40 32 41 31 42REMARK H PARENT 7 22 22 28 25 35REMARK Flexibility Score:   99.900USER                              x       y       z     vdW  Elec       q    TypeUSER                           _______ _______ _______ _____ _____    ______ ____ROOTATOM      1  O   UNL     1      36.026  45.387  18.373 -0.10 +0.15    -0.457 OA ENDROOTBRANCH   1   2ATOM      2  C   UNL     1      37.024  44.469  18.323 -0.17 -0.07    +0.338 C  ATOM      3  O   UNL     1      37.549  44.011  17.318 -0.23 +0.06    -0.246 OA BRANCH   2   4ATOM      4  C   UNL     1      37.443  44.114  19.701 -0.32 -0.00    +0.060 A  ATOM      5  C   UNL     1      38.301  43.489  22.300 -0.32 +0.00    +0.023 A  ATOM      6  C   UNL     1      37.278  42.743  21.698 -0.42 +0.00    +0.013 A  ATOM      7  C   UNL     1      38.894  44.544  21.593 -0.32 +0.00    +0.013 A  ATOM      8  C   UNL     1      36.851  43.055  20.403 -0.39 -0.00    +0.016 A  ATOM      9  C   UNL     1      38.475  44.850  20.295 -0.34 -0.00    +0.016 A  BRANCH   5  10ATOM     10  C   UNL     1      38.773  43.216  23.685 -0.20 +0.01    +0.199 C  ATOM     11  O   UNL     1      39.766  42.525  23.889 -0.15 -0.02    -0.288 OA BRANCH  10  12ATOM     12  C   UNL     1      38.058  43.768  24.842 -0.21 +0.00    +0.104 A  ATOM     13  C   UNL     1      37.079  45.693  25.946 -0.23 -0.01    +0.155 A  ATOM     14  C   UNL     1      36.751  44.881  27.039 -0.34 -0.01    +0.053 A  ATOM     15  C   UNL     1      37.742  45.124  24.852 -0.21 +0.02    +0.179 A  ATOM     16  C   UNL     1      37.056  43.513  27.023 -0.33 -0.01    +0.051 A  ATOM     17  C   UNL     1      37.701  42.957  25.920 -0.22 -0.01    +0.130 A  ATOM     18  F   UNL     1      38.032  45.886  23.784 -0.10 -0.04    -0.202 F  BRANCH  13  19ATOM     19  O   UNL     1      36.786  47.026  25.830 -0.60 +0.02    -0.494 OA ATOM     20  C   UNL     1      37.860  47.947  25.968 -0.25 +0.01    +0.278 C  ENDBRANCH  13  19BRANCH  17  21ATOM     21  O   UNL     1      37.981  41.622  25.888 -0.08 +0.03    -0.507 OA ATOM     22  H   UNL     1      38.880  41.477  25.553 +0.16 +0.03    +0.293 HD ENDBRANCH  17  21ENDBRANCH  10  12ENDBRANCH   5  10ENDBRANCH   2   4ENDBRANCH   1   2BRANCH   1  23ATOM     23  C   UNL     1      34.677  44.895  18.153 -0.28 -0.08    +0.200 CG0ATOM     24  G   UNL     1      34.255  44.159  19.424 +0.00 +0.00    +0.000 G0 BRANCH  23  25ATOM     25  C   UNL     1      34.718  44.010  16.890 -0.28 -0.06    +0.137 C  BRANCH  25  26ATOM     26  C   UNL     1      33.333  43.586  16.361 -0.32 -0.05    +0.109 C  BRANCH  26  27ATOM     27  N   UNL     1      32.839  42.321  16.910 -0.12 +0.15    -0.315 NA ATOM     28  H   UNL     1      33.224  41.559  16.351 -0.48 -0.10    +0.122 HD BRANCH  27  29ATOM     29  C   UNL     1      33.150  42.069  18.320 -0.40 -0.02    +0.081 C  BRANCH  29  30ATOM     30  C   UNL     1      33.034  43.238  19.307 -0.46 -0.00    +0.019 C  BRANCH  30  31ATOM     31  C   UNL     1      34.255  44.159  19.426 -0.44 -0.01    +0.049 CG0ATOM     32  G   UNL     1      34.677  44.893  18.154 +0.00 +0.00    +0.000 G0 ENDBRANCH  30  31ENDBRANCH  29  30ENDBRANCH  27  29ENDBRANCH  26  27ENDBRANCH  25  26BRANCH  25  33ATOM     33  N   UNL     1      35.470  44.707  15.838 -0.10 +0.18    -0.344 N  ATOM     34  C   UNL     1      34.875  45.595  14.975 -0.22 -0.20    +0.251 C  ATOM     35  H   UNL     1      36.471  44.751  15.969 +0.11 -0.07    +0.164 HD ATOM     36  O   UNL     1      33.677  45.845  14.971 -0.27 +0.29    -0.269 OA BRANCH  34  37ATOM     37  C   UNL     1      35.780  46.273  14.019 -0.43 -0.03    +0.042 A  ATOM     38  C   UNL     1      36.556  47.338  14.474 -0.43 -0.02    +0.034 A  ATOM     39  C   UNL     1      35.837  45.891  12.680 -0.45 -0.02    +0.034 A  ATOM     40  C   UNL     1      37.385  47.967  13.564 -0.46 -0.05    +0.112 A  ATOM     41  C   UNL     1      36.694  46.590  11.850 -0.57 -0.04    +0.112 A  ATOM     42  N   UNL     1      37.473  47.614  12.264 -0.95 +0.03    -0.265 NA ENDBRANCH  34  37ENDBRANCH  25  33ENDBRANCH  23  25ENDBRANCH   1  23TORSDOF 9TERENDMDL