MODEL        4USER    Run = 4USERUSER    Estimated Free Energy of Binding    =  -6.36 kcal/mol  [=(1)+(2)+(3)-(4)]USERUSER    (1) Final Intermolecular Energy     = -10.83 kcal/molUSER        vdW + Hbond + desolv Energy     = -11.05 kcal/molUSER        Electrostatic Energy            =  -0.17 kcal/molUSER        Moving Ligand-Fixed Receptor    = -11.22 kcal/molUSER        Moving Ligand-Moving Receptor   =  +0.39 kcal/molUSER    (2) Final Total Internal Energy     =  -2.51 kcal/molUSER    (3) Torsional Free Energy           =  +4.47 kcal/molUSER    (4) Unbound System's Energy         =  -2.51 kcal/molUSERUSERREMARK SMILES COc1ccc(O)c(C(=O)c2ccc(CN[C@@H]3CCCNC[C@H]3NC(=O)c3ccncc3)cc2)c1FREMARK SMILES IDX 16 1 15 3 14 4 11 5 12 6 34 7 13 8 33 9 9 10 10 11 8 12 3 13REMARK SMILES IDX 4 14 35 15 5 16 6 17 36 18 2 19 1 20 7 21 17 23 18 24 23 26REMARK SMILES IDX 22 27 21 28 20 30 19 31 24 33 25 34 26 36 27 37 28 38 32 39REMARK SMILES IDX 29 40 31 41 30 42REMARK H PARENT 16 2 7 22 21 29 24 35REMARK Flexibility Score:   99.900USER                              x       y       z     vdW  Elec       q    TypeUSER                           _______ _______ _______ _____ _____    ______ ____ROOTATOM      1  N   UNL     1      25.788  40.998  16.329 -0.15 +0.02    -0.308 NA ATOM      2  H   UNL     1      25.009  40.376  16.103 +0.06 -0.00    +0.123 HD ENDROOTBRANCH   1   3ATOM      3  C   UNL     1      26.950  40.604  15.529 -0.33 -0.01    +0.117 C  BRANCH   3   4ATOM      4  C   UNL     1      28.272  40.915  16.188 -0.30 +0.00    -0.034 A  ATOM      5  C   UNL     1      30.740  41.471  17.416 -0.29 -0.01    +0.023 A  ATOM      6  C   UNL     1      30.213  40.177  17.461 -0.35 -0.00    +0.012 A  ATOM      7  C   UNL     1      30.022  42.491  16.781 -0.27 -0.00    +0.012 A  ATOM      8  C   UNL     1      28.990  39.902  16.842 -0.32 +0.00    +0.006 A  ATOM      9  C   UNL     1      28.799  42.213  16.166 -0.26 -0.00    +0.006 A  BRANCH   5  10ATOM     10  C   UNL     1      32.013  41.823  18.092 -0.27 -0.04    +0.199 C  ATOM     11  O   UNL     1      32.535  41.001  18.848 -0.41 +0.00    -0.288 OA BRANCH  10  12ATOM     12  C   UNL     1      32.731  43.095  17.860 -0.25 -0.03    +0.104 A  ATOM     13  C   UNL     1      33.723  44.753  16.374 -0.21 -0.09    +0.155 A  ATOM     14  C   UNL     1      34.106  45.512  17.481 -0.34 -0.04    +0.053 A  ATOM     15  C   UNL     1      33.030  43.550  16.575 -0.20 -0.08    +0.179 A  ATOM     16  C   UNL     1      33.780  45.084  18.771 -0.40 -0.02    +0.051 A  ATOM     17  C   UNL     1      33.083  43.892  18.955 -0.31 -0.02    +0.130 A  ATOM     18  F   UNL     1      32.633  42.848  15.501 -0.06 +0.12    -0.202 F  BRANCH  13  19ATOM     19  O   UNL     1      33.966  45.081  15.066 -0.04 +0.35    -0.494 OA ATOM     20  C   UNL     1      35.084  45.918  14.802 -0.23 -0.23    +0.278 C  ENDBRANCH  13  19BRANCH  17  21ATOM     21  O   UNL     1      32.772  43.563  20.248 -0.73 -0.05    -0.507 OA ATOM     22  H   UNL     1      32.413  42.645  20.245 +0.18 +0.08    +0.293 HD ENDBRANCH  17  21ENDBRANCH  10  12ENDBRANCH   5  10ENDBRANCH   3   4ENDBRANCH   1   3BRANCH   1  23ATOM     23  C   UNL     1      25.348  42.401  16.098 -0.31 -0.01    +0.077 C  BRANCH  23  24ATOM     24  C   UNL     1      25.966  42.857  14.770 -0.32 -0.01    +0.022 CG0ATOM     25  G   UNL     1      25.107  43.817  13.947 +0.00 +0.00    +0.000 G0 ENDBRANCH  23  24BRANCH  23  26ATOM     26  C   UNL     1      25.756  43.292  17.313 -0.33 -0.01    +0.113 C  BRANCH  26  27ATOM     27  C   UNL     1      25.312  44.764  17.123 -0.21 +0.02    +0.107 C  BRANCH  27  28ATOM     28  N   UNL     1      25.570  45.416  15.843 -0.46 -0.08    -0.315 NA ATOM     29  H   UNL     1      26.541  45.242  15.572 +0.06 -0.00    +0.122 HD BRANCH  28  30ATOM     30  C   UNL     1      24.710  45.067  14.723 -0.31 +0.01    +0.081 C  BRANCH  30  31ATOM     31  C   UNL     1      25.108  43.814  13.948 -0.36 -0.00    +0.017 CG0ATOM     32  G   UNL     1      25.966  42.853  14.770 +0.00 +0.00    +0.000 G0 ENDBRANCH  30  31ENDBRANCH  28  30ENDBRANCH  27  28ENDBRANCH  26  27BRANCH  26  33ATOM     33  N   UNL     1      25.154  42.750  18.547 -0.17 +0.05    -0.346 N  ATOM     34  C   UNL     1      25.836  41.861  19.349 -0.22 -0.04    +0.251 C  ATOM     35  H   UNL     1      24.259  43.121  18.831 -0.08 -0.04    +0.164 HD ATOM     36  O   UNL     1      26.928  41.390  19.055 -0.13 +0.03    -0.269 OA BRANCH  34  37ATOM     37  C   UNL     1      25.168  41.452  20.613 -0.42 -0.01    +0.042 A  ATOM     38  C   UNL     1      24.705  42.456  21.464 -0.57 -0.01    +0.034 A  ATOM     39  C   UNL     1      24.967  40.113  20.950 -0.37 -0.01    +0.034 A  ATOM     40  C   UNL     1      24.083  42.077  22.638 -0.57 -0.02    +0.112 A  ATOM     41  C   UNL     1      24.330  39.839  22.148 -0.31 -0.04    +0.112 A  ATOM     42  N   UNL     1      23.895  40.789  23.001 -0.48 +0.06    -0.265 NA ENDBRANCH  34  37ENDBRANCH  26  33ENDBRANCH  23  26ENDBRANCH   1  23TORSDOF 9TERENDMDL