MODEL        8USER    Run = 8USERUSER    Estimated Free Energy of Binding    =  -7.58 kcal/mol  [=(1)+(2)+(3)-(4)]USERUSER    (1) Final Intermolecular Energy     = -12.06 kcal/molUSER        vdW + Hbond + desolv Energy     = -12.22 kcal/molUSER        Electrostatic Energy            =  -0.09 kcal/molUSER        Moving Ligand-Fixed Receptor    = -12.30 kcal/molUSER        Moving Ligand-Moving Receptor   =  +0.25 kcal/molUSER    (2) Final Total Internal Energy     =  -2.30 kcal/molUSER    (3) Torsional Free Energy           =  +4.47 kcal/molUSER    (4) Unbound System's Energy         =  -2.30 kcal/molUSERUSERREMARK SMILES COc1ccc(O)c(C(=O)c2ccc(NC[C@@H]3CCCNC[C@@H]3NC(=O)c3ccncc3)cc2)c1FREMARK SMILES IDX 16 1 15 2 14 4 11 5 12 6 34 7 13 8 33 9 9 10 10 11 8 12 3 13REMARK SMILES IDX 4 14 35 15 5 16 6 17 36 18 2 19 1 20 7 21 17 23 18 24 23 26REMARK SMILES IDX 22 27 21 28 20 30 19 31 24 33 25 34 26 36 27 37 28 38 32 39REMARK SMILES IDX 29 40 31 41 30 42REMARK H PARENT 15 3 7 22 21 29 24 35REMARK Flexibility Score:   99.900USER                              x       y       z     vdW  Elec       q    TypeUSER                           _______ _______ _______ _____ _____    ______ ____ROOTATOM      1  C   UNL     1      36.228  45.472  15.868 -0.33 -0.06    +0.118 C  ENDROOTBRANCH   1   2ATOM      2  N   UNL     1      35.405  45.442  17.080 -0.08 +0.23    -0.385 N  ATOM      3  H   UNL     1      34.943  46.326  17.274 +0.06 -0.16    +0.160 HD BRANCH   2   4ATOM      4  C   UNL     1      35.779  44.744  18.224 -0.32 -0.01    +0.034 A  ATOM      5  C   UNL     1      36.686  43.422  20.558 -0.40 -0.00    +0.023 A  ATOM      6  C   UNL     1      35.344  43.783  20.425 -0.29 -0.00    +0.014 A  ATOM      7  C   UNL     1      37.590  43.770  19.553 -0.27 -0.00    +0.014 A  ATOM      8  C   UNL     1      34.900  44.444  19.273 -0.37 -0.01    +0.026 A  ATOM      9  C   UNL     1      37.133  44.429  18.404 -0.33 -0.01    +0.026 A  BRANCH   5  10ATOM     10  C   UNL     1      37.119  42.755  21.809 -0.36 +0.01    +0.199 C  ATOM     11  O   UNL     1      37.525  41.593  21.758 -0.35 -0.02    -0.288 OA BRANCH  10  12ATOM     12  C   UNL     1      37.039  43.396  23.140 -0.29 +0.01    +0.104 A  ATOM     13  C   UNL     1      37.395  45.294  24.630 -0.11 +0.02    +0.155 A  ATOM     14  C   UNL     1      36.848  44.563  25.686 -0.31 -0.00    +0.053 A  ATOM     15  C   UNL     1      37.493  44.696  23.363 -0.17 +0.02    +0.179 A  ATOM     16  C   UNL     1      36.421  43.249  25.482 -0.33 -0.00    +0.051 A  ATOM     17  C   UNL     1      36.531  42.667  24.222 -0.25 +0.01    +0.130 A  ATOM     18  F   UNL     1      38.060  45.394  22.366 -0.12 -0.02    -0.202 F  BRANCH  13  19ATOM     19  O   UNL     1      37.862  46.578  24.713 -0.56 -0.09    -0.494 OA ATOM     20  C   UNL     1      37.358  47.389  25.767 -0.26 +0.01    +0.278 C  ENDBRANCH  13  19BRANCH  17  21ATOM     21  O   UNL     1      36.120  41.365  24.116 -0.16 +0.05    -0.507 OA ATOM     22  H   UNL     1      36.584  40.964  23.345 +0.18 -0.01    +0.293 HD ENDBRANCH  17  21ENDBRANCH  10  12ENDBRANCH   5  10ENDBRANCH   2   4ENDBRANCH   1   2BRANCH   1  23ATOM     23  C   UNL     1      36.315  46.895  15.261 -0.41 -0.03    +0.032 C  BRANCH  23  24ATOM     24  C   UNL     1      35.435  46.987  13.999 -0.41 -0.01    +0.009 CG0ATOM     25  G   UNL     1      35.803  46.135  12.784 +0.00 +0.00    +0.000 G0 ENDBRANCH  23  24BRANCH  23  26ATOM     26  C   UNL     1      37.793  47.309  15.071 -0.44 -0.05    +0.101 C  BRANCH  26  27ATOM     27  C   UNL     1      38.364  46.784  13.733 -0.40 -0.03    +0.106 C  BRANCH  27  28ATOM     28  N   UNL     1      37.870  47.470  12.532 -0.78 +0.03    -0.315 NA ATOM     29  H   UNL     1      37.459  48.357  12.835 +0.07 -0.01    +0.122 HD BRANCH  28  30ATOM     30  C   UNL     1      36.835  46.713  11.826 -0.68 -0.03    +0.081 C  BRANCH  30  31ATOM     31  C   UNL     1      35.803  46.132  12.785 -0.60 -0.01    +0.016 CG0ATOM     32  G   UNL     1      35.437  46.987  13.999 +0.00 +0.00    +0.000 G0 ENDBRANCH  30  31ENDBRANCH  28  30ENDBRANCH  27  28ENDBRANCH  26  27BRANCH  26  33ATOM     33  N   UNL     1      38.655  46.882  16.171 -0.17 +0.13    -0.348 N  ATOM     34  C   UNL     1      39.637  47.677  16.712 -0.33 -0.08    +0.251 C  ATOM     35  H   UNL     1      38.559  45.909  16.432 +0.11 -0.05    +0.164 HD ATOM     36  O   UNL     1      39.876  48.810  16.311 -0.37 +0.10    -0.269 OA BRANCH  34  37ATOM     37  C   UNL     1      40.441  47.091  17.817 -0.45 -0.01    +0.042 A  ATOM     38  C   UNL     1      41.671  47.680  18.116 -0.47 -0.00    +0.034 A  ATOM     39  C   UNL     1      39.999  46.005  18.572 -0.43 -0.00    +0.034 A  ATOM     40  C   UNL     1      42.419  47.141  19.146 -0.45 +0.01    +0.112 A  ATOM     41  C   UNL     1      40.822  45.542  19.584 -0.35 +0.00    +0.112 A  ATOM     42  N   UNL     1      42.022  46.081  19.883 -0.24 -0.05    -0.265 NA ENDBRANCH  34  37ENDBRANCH  26  33ENDBRANCH  23  26ENDBRANCH   1  23TORSDOF 9TERENDMDL