
     RDKit          3D

 60 63  0  0  0  0  0  0  0  0999 V2000
   -5.9250    0.5157   -1.4931 C   0  0  0  0  0  0  0  0  0  0  0  0
   -5.9229   -0.9438   -1.9680 C   0  0  0  0  0  0  0  0  0  0  0  0
   -7.3436   -1.5192   -1.8965 C   0  0  0  0  0  0  0  0  0  0  0  0
   -4.9525   -1.8128   -1.2849 N   0  0  0  0  0  0  0  0  0  0  0  0
   -5.2354   -2.1011    0.1322 C   0  0  0  0  0  0  0  0  0  0  0  0
   -4.0266   -2.6754    0.8902 C   0  0  0  0  0  0  0  0  0  0  0  0
   -2.8838   -1.7630    0.8594 N   0  0  0  0  0  0  0  0  0  0  0  0
   -1.9218   -1.8746    1.8554 C   0  0  0  0  0  0  0  0  0  0  0  0
   -1.9562   -2.7183    2.7459 O   0  0  0  0  0  0  0  0  0  0  0  0
   -0.8188   -0.9003    1.8761 C   0  0  0  0  0  0  0  0  0  0  0  0
   -1.0747    0.4526    2.1131 C   0  0  0  0  0  0  0  0  0  0  0  0
   -0.0113    1.3628    2.1517 C   0  0  0  0  0  0  0  0  0  0  0  0
    1.3214    0.9345    1.9872 C   0  0  0  0  0  0  0  0  0  0  0  0
    2.4628    1.8726    2.0166 C   0  0  0  0  0  0  0  0  0  0  0  0
    3.3058    1.7274    0.9537 N   0  0  0  0  0  0  0  0  0  0  0  0
    4.3808    2.5405    0.8668 C   0  0  0  0  0  0  0  0  0  0  0  0
    5.2169    2.4147   -0.2431 N   0  0  0  0  0  0  0  0  0  0  0  0
    5.3046    1.2559   -0.8067 C   0  0  0  0  0  0  0  0  0  0  0  0
    6.1589    1.0697   -1.9480 C   0  0  0  0  0  0  0  0  0  0  0  0
    6.8867    2.0048   -2.6582 C   0  0  0  0  0  0  0  0  0  0  0  0
    7.5982    1.4220   -3.6755 N   0  0  0  0  0  0  0  0  0  0  0  0
    7.3132    0.1436   -3.6032 C   0  0  0  0  0  0  0  0  0  0  0  0
    6.4442   -0.1189   -2.5828 N   0  0  0  0  0  0  0  0  0  0  0  0
    5.9448   -1.4246   -2.2319 C   0  0  0  0  0  0  0  0  0  0  0  0
    4.6612    3.5126    1.8126 C   0  0  0  0  0  0  0  0  0  0  0  0
    3.8147    3.6475    2.9090 C   0  0  0  0  0  0  0  0  0  0  0  0
    2.6965    2.8163    3.0235 C   0  0  0  0  0  0  0  0  0  0  0  0
    1.8519    2.9461    4.1718 C   0  0  0  0  0  0  0  0  0  0  0  0
    1.1652    3.0740    5.0985 N   0  0  0  0  0  0  0  0  0  0  0  0
    1.5464   -0.4358    1.7534 C   0  0  0  0  0  0  0  0  0  0  0  0
    0.4875   -1.3403    1.7022 C   0  0  0  0  0  0  0  0  0  0  0  0
    0.7567   -2.6292    1.4507 F   0  0  0  0  0  0  0  0  0  0  0  0
   -2.7738   -0.9062   -0.3258 C   0  0  0  0  0  0  0  0  0  0  0  0
   -3.5432   -1.4672   -1.5373 C   0  0  0  0  0  0  0  0  0  0  0  0
   -6.6354    1.1043   -2.0843 H   0  0  0  0  0  0  0  0  0  0  0  0
   -6.2197    0.6112   -0.4438 H   0  0  0  0  0  0  0  0  0  0  0  0
   -4.9422    0.9798   -1.6150 H   0  0  0  0  0  0  0  0  0  0  0  0
   -5.6585   -0.9380   -3.0343 H   0  0  0  0  0  0  0  0  0  0  0  0
   -8.0182   -0.9433   -2.5392 H   0  0  0  0  0  0  0  0  0  0  0  0
   -7.7505   -1.4876   -0.8797 H   0  0  0  0  0  0  0  0  0  0  0  0
   -7.3658   -2.5582   -2.2442 H   0  0  0  0  0  0  0  0  0  0  0  0
   -6.0578   -2.8209    0.1985 H   0  0  0  0  0  0  0  0  0  0  0  0
   -5.5496   -1.1927    0.6569 H   0  0  0  0  0  0  0  0  0  0  0  0
   -4.3032   -2.8828    1.9294 H   0  0  0  0  0  0  0  0  0  0  0  0
   -3.7038   -3.6207    0.4409 H   0  0  0  0  0  0  0  0  0  0  0  0
   -2.0932    0.7991    2.2753 H   0  0  0  0  0  0  0  0  0  0  0  0
   -0.2435    2.4167    2.3092 H   0  0  0  0  0  0  0  0  0  0  0  0
    4.7582    0.3743   -0.4373 H   0  0  0  0  0  0  0  0  0  0  0  0
    6.9318    3.0708   -2.4815 H   0  0  0  0  0  0  0  0  0  0  0  0
    7.7116   -0.6227   -4.2551 H   0  0  0  0  0  0  0  0  0  0  0  0
    6.2580   -1.6512   -1.2130 H   0  0  0  0  0  0  0  0  0  0  0  0
    6.3518   -2.1682   -2.9184 H   0  0  0  0  0  0  0  0  0  0  0  0
    4.8531   -1.4078   -2.3047 H   0  0  0  0  0  0  0  0  0  0  0  0
    5.5319    4.1498    1.6947 H   0  0  0  0  0  0  0  0  0  0  0  0
    4.0333    4.3981    3.6670 H   0  0  0  0  0  0  0  0  0  0  0  0
    2.5559   -0.8129    1.6043 H   0  0  0  0  0  0  0  0  0  0  0  0
   -3.1735    0.0758   -0.0512 H   0  0  0  0  0  0  0  0  0  0  0  0
   -1.7196   -0.7780   -0.5946 H   0  0  0  0  0  0  0  0  0  0  0  0
   -3.0438   -2.3945   -1.8455 H   0  0  0  0  0  0  0  0  0  0  0  0
   -3.4360   -0.7830   -2.3870 H   0  0  0  0  0  0  0  0  0  0  0  0
  1  2  1  0
  2  3  1  0
  2  4  1  0
  4  5  1  0
  5  6  1  0
  6  7  1  0
  7  8  1  0
  8  9  2  0
  8 10  1  0
 10 11  2  0
 11 12  1  0
 12 13  2  0
 13 14  1  0
 14 15  2  0
 15 16  1  0
 16 17  1  0
 17 18  2  3
 18 19  1  0
 19 20  2  0
 20 21  1  0
 21 22  2  0
 22 23  1  0
 23 24  1  0
 16 25  2  0
 25 26  1  0
 26 27  2  0
 27 28  1  0
 28 29  3  0
 13 30  1  0
 30 31  2  0
 31 32  1  0
  7 33  1  0
 33 34  1  0
 34  4  1  0
 31 10  1  0
 27 14  1  0
 23 19  1  0
  1 35  1  0
  1 36  1  0
  1 37  1  0
  2 38  1  0
  3 39  1  0
  3 40  1  0
  3 41  1  0
  5 42  1  0
  5 43  1  0
  6 44  1  0
  6 45  1  0
 11 46  1  0
 12 47  1  0
 18 48  1  0
 20 49  1  0
 22 50  1  0
 24 51  1  0
 24 52  1  0
 24 53  1  0
 25 54  1  0
 26 55  1  0
 30 56  1  0
 33 57  1  0
 33 58  1  0
 34 59  1  0
 34 60  1  0
M  END
$$$$
