
     RDKit          3D

 57 60  0  0  0  0  0  0  0  0999 V2000
    7.1746   -1.3652   -1.6398 C   0  0  0  0  0  0  0  0  0  0  0  0
    6.0517   -2.2507   -1.8288 N   0  0  0  0  0  0  0  0  0  0  0  0
    6.1132   -3.4628   -2.4568 C   0  0  0  0  0  0  0  0  0  0  0  0
    4.9406   -4.0508   -2.4889 N   0  0  0  0  0  0  0  0  0  0  0  0
    4.0913   -3.1834   -1.8567 C   0  0  0  0  0  0  0  0  0  0  0  0
    4.7505   -2.0459   -1.4276 C   0  0  0  0  0  0  0  0  0  0  0  0
    4.1906   -0.9208   -0.7271 C   0  0  0  0  0  0  0  0  0  0  0  0
    4.9297    0.0751   -0.3673 N   0  0  0  0  0  0  0  0  0  0  0  0
    4.3350    1.1436    0.3095 C   0  0  0  0  0  0  0  0  0  0  0  0
    5.1513    2.1220    0.8525 C   0  0  0  0  0  0  0  0  0  0  0  0
    4.5669    3.1912    1.5254 C   0  0  0  0  0  0  0  0  0  0  0  0
    3.1755    3.2612    1.6315 C   0  0  0  0  0  0  0  0  0  0  0  0
    2.5854    4.3452    2.3543 C   0  0  0  0  0  0  0  0  0  0  0  0
    2.1241    5.2375    2.9347 N   0  0  0  0  0  0  0  0  0  0  0  0
    2.4146    2.2463    1.0451 C   0  0  0  0  0  0  0  0  0  0  0  0
    0.9407    2.1821    1.0691 C   0  0  0  0  0  0  0  0  0  0  0  0
    0.1379    3.2398    0.6025 C   0  0  0  0  0  0  0  0  0  0  0  0
   -1.2591    3.1510    0.6252 C   0  0  0  0  0  0  0  0  0  0  0  0
   -1.8757    1.9867    1.0904 C   0  0  0  0  0  0  0  0  0  0  0  0
   -3.3481    1.9296    1.1331 C   0  0  0  0  0  0  0  0  0  0  0  0
   -3.9292    2.8304    1.7341 O   0  0  0  0  0  0  0  0  0  0  0  0
   -4.0149    0.8985    0.4815 N   0  0  0  0  0  0  0  0  0  0  0  0
   -3.3974   -0.0411   -0.4628 C   0  0  0  0  0  0  0  0  0  0  0  0
   -4.3838   -0.5698   -1.5138 C   0  0  0  0  0  0  0  0  0  0  0  0
   -5.5951   -1.1659   -0.8917 N   0  0  0  0  0  0  0  0  0  0  0  0
   -5.9521   -2.7819   -1.1947 S   0  0  0  0  0  0  0  0  0  0  0  0
   -4.7046   -3.6386   -0.2525 C   0  0  0  0  0  0  0  0  0  0  0  0
   -5.6957   -3.0360   -2.5958 O   0  0  0  0  0  0  0  0  0  0  0  0
   -7.2370   -3.0739   -0.5981 O   0  0  0  0  0  0  0  0  0  0  0  0
   -5.9982   -0.6015    0.4252 C   0  0  0  0  0  0  0  0  0  0  0  0
   -5.4732    0.8264    0.6104 C   0  0  0  0  0  0  0  0  0  0  0  0
   -1.0955    0.9377    1.5635 C   0  0  0  0  0  0  0  0  0  0  0  0
   -1.6591   -0.1776    2.0504 F   0  0  0  0  0  0  0  0  0  0  0  0
    0.2955    1.0258    1.5445 C   0  0  0  0  0  0  0  0  0  0  0  0
    2.9897    1.1926    0.3984 N   0  0  0  0  0  0  0  0  0  0  0  0
    7.3325   -1.2231   -0.5678 H   0  0  0  0  0  0  0  0  0  0  0  0
    8.0698   -1.8119   -2.0810 H   0  0  0  0  0  0  0  0  0  0  0  0
    6.9611   -0.4166   -2.1383 H   0  0  0  0  0  0  0  0  0  0  0  0
    7.0285   -3.8670   -2.8694 H   0  0  0  0  0  0  0  0  0  0  0  0
    3.0418   -3.4230   -1.7404 H   0  0  0  0  0  0  0  0  0  0  0  0
    3.1058   -0.9747   -0.5192 H   0  0  0  0  0  0  0  0  0  0  0  0
    6.2295    2.0464    0.7560 H   0  0  0  0  0  0  0  0  0  0  0  0
    5.2003    3.9585    1.9664 H   0  0  0  0  0  0  0  0  0  0  0  0
    0.5891    4.1504    0.2102 H   0  0  0  0  0  0  0  0  0  0  0  0
   -1.8636    3.9891    0.2831 H   0  0  0  0  0  0  0  0  0  0  0  0
   -3.0157   -0.8803    0.1291 H   0  0  0  0  0  0  0  0  0  0  0  0
   -2.5502    0.4376   -0.9630 H   0  0  0  0  0  0  0  0  0  0  0  0
   -3.8674   -1.2916   -2.1543 H   0  0  0  0  0  0  0  0  0  0  0  0
   -4.7161    0.2503   -2.1613 H   0  0  0  0  0  0  0  0  0  0  0  0
   -4.8172   -3.3963    0.8050 H   0  0  0  0  0  0  0  0  0  0  0  0
   -4.8550   -4.7107   -0.3999 H   0  0  0  0  0  0  0  0  0  0  0  0
   -3.7173   -3.3544   -0.6196 H   0  0  0  0  0  0  0  0  0  0  0  0
   -5.6059   -1.2333    1.2293 H   0  0  0  0  0  0  0  0  0  0  0  0
   -7.0913   -0.5901    0.4904 H   0  0  0  0  0  0  0  0  0  0  0  0
   -5.8952    1.4905   -0.1542 H   0  0  0  0  0  0  0  0  0  0  0  0
   -5.7797    1.2113    1.5891 H   0  0  0  0  0  0  0  0  0  0  0  0
    0.8761    0.1820    1.9118 H   0  0  0  0  0  0  0  0  0  0  0  0
  1  2  1  0
  2  3  1  0
  3  4  2  0
  4  5  1  0
  5  6  2  0
  6  7  1  0
  7  8  2  3
  8  9  1  0
  9 10  2  0
 10 11  1  0
 11 12  2  0
 12 13  1  0
 13 14  3  0
 12 15  1  0
 15 16  1  0
 16 17  2  0
 17 18  1  0
 18 19  2  0
 19 20  1  0
 20 21  2  0
 20 22  1  0
 22 23  1  0
 23 24  1  0
 24 25  1  0
 25 26  1  0
 26 27  1  0
 26 28  2  0
 26 29  2  0
 25 30  1  0
 30 31  1  0
 19 32  1  0
 32 33  1  0
 32 34  2  0
 15 35  2  0
  6  2  1  0
 35  9  1  0
 34 16  1  0
 31 22  1  0
  1 36  1  0
  1 37  1  0
  1 38  1  0
  3 39  1  0
  5 40  1  0
  7 41  1  0
 10 42  1  0
 11 43  1  0
 17 44  1  0
 18 45  1  0
 23 46  1  0
 23 47  1  0
 24 48  1  0
 24 49  1  0
 27 50  1  0
 27 51  1  0
 27 52  1  0
 30 53  1  0
 30 54  1  0
 31 55  1  0
 31 56  1  0
 34 57  1  0
M  END
$$$$
