
     RDKit          3D

 52 55  0  0  0  0  0  0  0  0999 V2000
    7.3985    1.5596    1.1871 C   0  0  0  0  0  0  0  0  0  0  0  0
    6.4331    0.5065    0.9792 N   0  0  0  0  0  0  0  0  0  0  0  0
    6.5186   -0.7422    1.5237 C   0  0  0  0  0  0  0  0  0  0  0  0
    5.5136   -1.4946    1.1513 N   0  0  0  0  0  0  0  0  0  0  0  0
    4.7580   -0.6986    0.3313 C   0  0  0  0  0  0  0  0  0  0  0  0
    5.3050    0.5637    0.1830 C   0  0  0  0  0  0  0  0  0  0  0  0
    4.8830    1.7244   -0.5650 C   0  0  0  0  0  0  0  0  0  0  0  0
    4.0369    1.8405   -1.5421 N   0  0  0  0  0  0  0  0  0  0  0  0
    3.3386    0.7495   -2.0375 C   0  0  0  0  0  0  0  0  0  0  0  0
    3.7948    0.0538   -3.1453 C   0  0  0  0  0  0  0  0  0  0  0  0
    3.0237   -0.9963   -3.6341 C   0  0  0  0  0  0  0  0  0  0  0  0
    1.8084   -1.3062   -3.0152 C   0  0  0  0  0  0  0  0  0  0  0  0
    1.0329   -2.4015   -3.5118 C   0  0  0  0  0  0  0  0  0  0  0  0
    0.4107   -3.2818   -3.9399 N   0  0  0  0  0  0  0  0  0  0  0  0
    1.4055   -0.5387   -1.9168 C   0  0  0  0  0  0  0  0  0  0  0  0
    0.1523   -0.7464   -1.1687 C   0  0  0  0  0  0  0  0  0  0  0  0
    0.1874   -0.9772    0.2203 C   0  0  0  0  0  0  0  0  0  0  0  0
   -0.9882   -1.1669    0.9546 C   0  0  0  0  0  0  0  0  0  0  0  0
   -2.2255   -1.1014    0.3105 C   0  0  0  0  0  0  0  0  0  0  0  0
   -3.4514   -1.3326    1.0966 C   0  0  0  0  0  0  0  0  0  0  0  0
   -3.5080   -2.3694    1.7554 O   0  0  0  0  0  0  0  0  0  0  0  0
   -4.4672   -0.3765    1.0870 N   0  0  0  0  0  0  0  0  0  0  0  0
   -5.7102   -0.6941    1.7909 C   0  0  0  0  0  0  0  0  0  0  0  0
   -6.8885    0.0662    1.2009 C   0  0  0  0  0  0  0  0  0  0  0  0
   -6.6598    1.5712    1.2652 C   0  0  0  0  0  0  0  0  0  0  0  0
   -7.2640    2.0559    2.3871 F   0  0  0  0  0  0  0  0  0  0  0  0
   -5.1911    1.9722    1.3229 C   0  0  0  0  0  0  0  0  0  0  0  0
   -4.3185    0.9853    0.5646 C   0  0  0  0  0  0  0  0  0  0  0  0
   -2.2746   -0.8848   -1.0630 C   0  0  0  0  0  0  0  0  0  0  0  0
   -3.4462   -0.8503   -1.7144 F   0  0  0  0  0  0  0  0  0  0  0  0
   -1.1032   -0.6972   -1.7974 C   0  0  0  0  0  0  0  0  0  0  0  0
    2.1678    0.4778   -1.4266 N   0  0  0  0  0  0  0  0  0  0  0  0
    7.7789    1.8795    0.2138 H   0  0  0  0  0  0  0  0  0  0  0  0
    6.9085    2.3859    1.7097 H   0  0  0  0  0  0  0  0  0  0  0  0
    8.2274    1.1810    1.7935 H   0  0  0  0  0  0  0  0  0  0  0  0
    7.3266   -1.0523    2.1744 H   0  0  0  0  0  0  0  0  0  0  0  0
    3.8471   -1.0914   -0.0977 H   0  0  0  0  0  0  0  0  0  0  0  0
    5.3754    2.6714   -0.2824 H   0  0  0  0  0  0  0  0  0  0  0  0
    4.7326    0.3271   -3.6167 H   0  0  0  0  0  0  0  0  0  0  0  0
    3.3725   -1.5644   -4.4944 H   0  0  0  0  0  0  0  0  0  0  0  0
    1.1443   -1.0124    0.7412 H   0  0  0  0  0  0  0  0  0  0  0  0
   -0.9368   -1.3650    2.0231 H   0  0  0  0  0  0  0  0  0  0  0  0
   -5.5677   -0.4373    2.8471 H   0  0  0  0  0  0  0  0  0  0  0  0
   -5.8990   -1.7720    1.7381 H   0  0  0  0  0  0  0  0  0  0  0  0
   -7.0053   -0.2326    0.1514 H   0  0  0  0  0  0  0  0  0  0  0  0
   -7.8131   -0.2001    1.7251 H   0  0  0  0  0  0  0  0  0  0  0  0
   -7.1551    2.0497    0.4152 H   0  0  0  0  0  0  0  0  0  0  0  0
   -5.0684    2.9827    0.9176 H   0  0  0  0  0  0  0  0  0  0  0  0
   -4.8691    2.0231    2.3704 H   0  0  0  0  0  0  0  0  0  0  0  0
   -4.6057    0.9670   -0.4923 H   0  0  0  0  0  0  0  0  0  0  0  0
   -3.2719    1.2975    0.6267 H   0  0  0  0  0  0  0  0  0  0  0  0
   -1.1932   -0.5072   -2.8640 H   0  0  0  0  0  0  0  0  0  0  0  0
  1  2  1  0
  2  3  1  0
  3  4  2  0
  4  5  1  0
  5  6  2  0
  6  7  1  0
  7  8  2  3
  8  9  1  0
  9 10  2  0
 10 11  1  0
 11 12  2  0
 12 13  1  0
 13 14  3  0
 12 15  1  0
 15 16  1  0
 16 17  2  0
 17 18  1  0
 18 19  2  0
 19 20  1  0
 20 21  2  0
 20 22  1  0
 22 23  1  0
 23 24  1  0
 24 25  1  0
 25 26  1  0
 25 27  1  0
 27 28  1  0
 19 29  1  0
 29 30  1  0
 29 31  2  0
 15 32  2  0
  6  2  1  0
 32  9  1  0
 31 16  1  0
 28 22  1  0
  1 33  1  0
  1 34  1  0
  1 35  1  0
  3 36  1  0
  5 37  1  0
  7 38  1  0
 10 39  1  0
 11 40  1  0
 17 41  1  0
 18 42  1  0
 23 43  1  0
 23 44  1  0
 24 45  1  0
 24 46  1  0
 25 47  1  0
 27 48  1  0
 27 49  1  0
 28 50  1  0
 28 51  1  0
 31 52  1  0
M  END
$$$$
