
     RDKit          3D

 57 59  0  0  0  0  0  0  0  0999 V2000
    7.9716   -1.7678   -2.4508 C   0  0  0  0  0  0  0  0  0  0  0  0
    6.7214   -1.4746   -1.8405 O   0  0  0  0  0  0  0  0  0  0  0  0
    6.7165   -0.5485   -0.8313 C   0  0  0  0  0  0  0  0  0  0  0  0
    7.8427    0.1078   -0.3280 C   0  0  0  0  0  0  0  0  0  0  0  0
    7.7084    1.0191    0.7226 C   0  0  0  0  0  0  0  0  0  0  0  0
    6.4516    1.2850    1.2621 C   0  0  0  0  0  0  0  0  0  0  0  0
    6.4204    2.1709    2.3071 O   0  0  0  0  0  0  0  0  0  0  0  0
    5.3043    0.6645    0.7487 C   0  0  0  0  0  0  0  0  0  0  0  0
    3.9813    0.9807    1.3359 C   0  0  0  0  0  0  0  0  0  0  0  0
    3.9402    1.4040    2.4940 O   0  0  0  0  0  0  0  0  0  0  0  0
    2.7086    0.8411    0.5932 C   0  0  0  0  0  0  0  0  0  0  0  0
    2.5774    1.2818   -0.7282 C   0  0  0  0  0  0  0  0  0  0  0  0
    1.3556    1.1285   -1.3906 C   0  0  0  0  0  0  0  0  0  0  0  0
    0.2568    0.5610   -0.7303 C   0  0  0  0  0  0  0  0  0  0  0  0
   -1.0105    0.3845   -1.4897 C   0  0  0  0  0  0  0  0  0  0  0  0
   -0.9708    0.1710   -2.6962 O   0  0  0  0  0  0  0  0  0  0  0  0
   -2.1792    0.4872   -0.7633 N   0  0  0  0  0  0  0  0  0  0  0  0
   -3.4898    0.2326   -1.3648 C   0  0  0  0  0  0  0  0  0  0  0  0
   -3.7940   -1.2698   -1.3971 C   0  0  0  0  0  0  0  0  0  0  0  0
   -4.2253   -1.8864   -0.0704 C   0  0  0  0  0  0  0  0  0  0  0  0
   -5.6106   -1.5524    0.2281 N   0  0  0  0  0  0  0  0  0  0  0  0
   -5.8384   -0.3493    1.0353 C   0  0  0  0  0  0  0  0  0  0  0  0
   -5.7469   -0.7145    2.5311 C   0  0  0  0  0  0  0  0  0  0  0  0
   -7.2883    0.0882    0.7432 C   0  0  0  0  0  0  0  0  0  0  0  0
   -4.8675    0.8227    0.7528 C   0  0  0  0  0  0  0  0  0  0  0  0
   -4.5773    1.1106   -0.7247 C   0  0  0  0  0  0  0  0  0  0  0  0
    0.3870    0.1372    0.5981 C   0  0  0  0  0  0  0  0  0  0  0  0
    1.6085    0.2884    1.2613 C   0  0  0  0  0  0  0  0  0  0  0  0
    5.4573   -0.2700   -0.2784 C   0  0  0  0  0  0  0  0  0  0  0  0
    4.3927   -0.9436   -0.7437 F   0  0  0  0  0  0  0  0  0  0  0  0
    8.6726   -2.2038   -1.7304 H   0  0  0  0  0  0  0  0  0  0  0  0
    8.3958   -0.8776   -2.9301 H   0  0  0  0  0  0  0  0  0  0  0  0
    7.7920   -2.5125   -3.2324 H   0  0  0  0  0  0  0  0  0  0  0  0
    8.8388   -0.0751   -0.7185 H   0  0  0  0  0  0  0  0  0  0  0  0
    8.5874    1.5168    1.1299 H   0  0  0  0  0  0  0  0  0  0  0  0
    5.5178    2.1476    2.7012 H   0  0  0  0  0  0  0  0  0  0  0  0
    3.4113    1.7369   -1.2575 H   0  0  0  0  0  0  0  0  0  0  0  0
    1.2598    1.4508   -2.4271 H   0  0  0  0  0  0  0  0  0  0  0  0
   -2.1325    0.7065    0.2190 H   0  0  0  0  0  0  0  0  0  0  0  0
   -3.4098    0.5545   -2.4114 H   0  0  0  0  0  0  0  0  0  0  0  0
   -2.9077   -1.8107   -1.7520 H   0  0  0  0  0  0  0  0  0  0  0  0
   -4.5740   -1.4565   -2.1479 H   0  0  0  0  0  0  0  0  0  0  0  0
   -3.5370   -1.6450    0.7472 H   0  0  0  0  0  0  0  0  0  0  0  0
   -4.1745   -2.9757   -0.1873 H   0  0  0  0  0  0  0  0  0  0  0  0
   -6.0765   -2.3509    0.6596 H   0  0  0  0  0  0  0  0  0  0  0  0
   -5.9766    0.1537    3.1605 H   0  0  0  0  0  0  0  0  0  0  0  0
   -6.4548   -1.5085    2.7968 H   0  0  0  0  0  0  0  0  0  0  0  0
   -4.7432   -1.0646    2.7993 H   0  0  0  0  0  0  0  0  0  0  0  0
   -7.5636    0.9684    1.3373 H   0  0  0  0  0  0  0  0  0  0  0  0
   -7.4334    0.3428   -0.3134 H   0  0  0  0  0  0  0  0  0  0  0  0
   -8.0048   -0.7059    0.9902 H   0  0  0  0  0  0  0  0  0  0  0  0
   -3.9243    0.6684    1.2941 H   0  0  0  0  0  0  0  0  0  0  0  0
   -5.2957    1.7347    1.1894 H   0  0  0  0  0  0  0  0  0  0  0  0
   -5.4973    1.0464   -1.3175 H   0  0  0  0  0  0  0  0  0  0  0  0
   -4.2450    2.1560   -0.7971 H   0  0  0  0  0  0  0  0  0  0  0  0
   -0.4360   -0.3424    1.1188 H   0  0  0  0  0  0  0  0  0  0  0  0
    1.7071   -0.0444    2.2934 H   0  0  0  0  0  0  0  0  0  0  0  0
  1  2  1  0
  2  3  1  0
  3  4  2  0
  4  5  1  0
  5  6  2  0
  6  7  1  0
  6  8  1  0
  8  9  1  0
  9 10  2  0
  9 11  1  0
 11 12  2  0
 12 13  1  0
 13 14  2  0
 14 15  1  0
 15 16  2  0
 15 17  1  0
 17 18  1  0
 18 19  1  0
 19 20  1  0
 20 21  1  0
 21 22  1  0
 22 23  1  0
 22 24  1  0
 22 25  1  0
 25 26  1  0
 14 27  1  0
 27 28  2  0
  8 29  2  0
 29 30  1  0
 29  3  1  0
 28 11  1  0
 26 18  1  0
  1 31  1  0
  1 32  1  0
  1 33  1  0
  4 34  1  0
  5 35  1  0
  7 36  1  0
 12 37  1  0
 13 38  1  0
 17 39  1  0
 18 40  1  0
 19 41  1  0
 19 42  1  0
 20 43  1  0
 20 44  1  0
 21 45  1  0
 23 46  1  0
 23 47  1  0
 23 48  1  0
 24 49  1  0
 24 50  1  0
 24 51  1  0
 25 52  1  0
 25 53  1  0
 26 54  1  0
 26 55  1  0
 27 56  1  0
 28 57  1  0
M  END
$$$$
