
     RDKit          3D

 53 55  0  0  0  0  0  0  0  0999 V2000
    7.1991    2.6420   -1.0804 C   0  0  0  0  0  0  0  0  0  0  0  0
    5.8702    2.1362   -1.0556 O   0  0  0  0  0  0  0  0  0  0  0  0
    5.6415    0.9406   -1.6824 C   0  0  0  0  0  0  0  0  0  0  0  0
    6.6167    0.1467   -2.2904 C   0  0  0  0  0  0  0  0  0  0  0  0
    6.2557   -1.0489   -2.9168 C   0  0  0  0  0  0  0  0  0  0  0  0
    4.9251   -1.4583   -2.9262 C   0  0  0  0  0  0  0  0  0  0  0  0
    4.6522   -2.6245   -3.5901 O   0  0  0  0  0  0  0  0  0  0  0  0
    3.9391   -0.6981   -2.2855 C   0  0  0  0  0  0  0  0  0  0  0  0
    2.5386   -1.1733   -2.2919 C   0  0  0  0  0  0  0  0  0  0  0  0
    2.1674   -1.8595   -3.2459 O   0  0  0  0  0  0  0  0  0  0  0  0
    1.5859   -0.9176   -1.1854 C   0  0  0  0  0  0  0  0  0  0  0  0
    1.9919   -0.9286    0.1539 C   0  0  0  0  0  0  0  0  0  0  0  0
    1.0506   -0.7238    1.1671 C   0  0  0  0  0  0  0  0  0  0  0  0
   -0.3009   -0.5351    0.8502 C   0  0  0  0  0  0  0  0  0  0  0  0
   -1.2614   -0.3283    1.9657 C   0  0  0  0  0  0  0  0  0  0  0  0
   -0.9104    0.2621    2.9809 O   0  0  0  0  0  0  0  0  0  0  0  0
   -2.5282   -0.8437    1.7888 N   0  0  0  0  0  0  0  0  0  0  0  0
   -3.6105   -0.5226    2.7222 C   0  0  2  0  0  0  0  0  0  0  0  0
   -4.7449   -1.5552    2.6046 C   0  0  0  0  0  0  0  0  0  0  0  0
   -5.9399   -1.0567    1.7845 C   0  0  0  0  0  0  0  0  0  0  0  0
   -5.5206   -0.1286    0.6517 C   0  0  0  0  0  0  0  0  0  0  0  0
   -4.7279    1.0063    1.1183 N   0  0  0  0  0  0  0  0  0  0  0  0
   -4.4520    2.0160    0.2086 C   0  0  0  0  0  0  0  0  0  0  0  0
   -3.6675    3.2036    0.7027 C   0  0  0  0  0  0  0  0  0  0  0  0
   -4.8219    1.9577   -0.9647 O   0  0  0  0  0  0  0  0  0  0  0  0
   -4.1320    0.9042    2.4613 C   0  0  0  0  0  0  0  0  0  0  0  0
   -0.7069   -0.5238   -0.4902 C   0  0  0  0  0  0  0  0  0  0  0  0
    0.2349   -0.7265   -1.5038 C   0  0  0  0  0  0  0  0  0  0  0  0
    4.3062    0.5105   -1.6919 C   0  0  0  0  0  0  0  0  0  0  0  0
    3.3715    1.2999   -1.1385 F   0  0  0  0  0  0  0  0  0  0  0  0
    7.8824    1.9785   -0.5400 H   0  0  0  0  0  0  0  0  0  0  0  0
    7.1988    3.6092   -0.5685 H   0  0  0  0  0  0  0  0  0  0  0  0
    7.5391    2.8089   -2.1078 H   0  0  0  0  0  0  0  0  0  0  0  0
    7.6632    0.4324   -2.3071 H   0  0  0  0  0  0  0  0  0  0  0  0
    7.0110   -1.6582   -3.4084 H   0  0  0  0  0  0  0  0  0  0  0  0
    3.6765   -2.6780   -3.7149 H   0  0  0  0  0  0  0  0  0  0  0  0
    3.0291   -1.0999    0.4292 H   0  0  0  0  0  0  0  0  0  0  0  0
    1.3705   -0.7205    2.2079 H   0  0  0  0  0  0  0  0  0  0  0  0
   -2.7776   -1.2457    0.8958 H   0  0  0  0  0  0  0  0  0  0  0  0
   -3.1906   -0.5710    3.7341 H   0  0  0  0  0  0  0  0  0  0  0  0
   -4.3690   -2.4930    2.1764 H   0  0  0  0  0  0  0  0  0  0  0  0
   -5.1100   -1.8054    3.6086 H   0  0  0  0  0  0  0  0  0  0  0  0
   -6.5002   -1.9111    1.3886 H   0  0  0  0  0  0  0  0  0  0  0  0
   -6.6257   -0.5172    2.4508 H   0  0  0  0  0  0  0  0  0  0  0  0
   -6.4050    0.2507    0.1265 H   0  0  0  0  0  0  0  0  0  0  0  0
   -4.9160   -0.6749   -0.0826 H   0  0  0  0  0  0  0  0  0  0  0  0
   -3.7245    4.0071   -0.0379 H   0  0  0  0  0  0  0  0  0  0  0  0
   -2.6184    2.9272    0.8355 H   0  0  0  0  0  0  0  0  0  0  0  0
   -4.0901    3.5814    1.6372 H   0  0  0  0  0  0  0  0  0  0  0  0
   -3.3234    1.6281    2.5854 H   0  0  0  0  0  0  0  0  0  0  0  0
   -4.9154    1.1627    3.1837 H   0  0  0  0  0  0  0  0  0  0  0  0
   -1.7402   -0.3338   -0.7682 H   0  0  0  0  0  0  0  0  0  0  0  0
   -0.0858   -0.7250   -2.5448 H   0  0  0  0  0  0  0  0  0  0  0  0
  1  2  1  0
  2  3  1  0
  3  4  2  0
  4  5  1  0
  5  6  2  0
  6  7  1  0
  6  8  1  0
  8  9  1  0
  9 10  2  0
  9 11  1  0
 11 12  2  0
 12 13  1  0
 13 14  2  0
 14 15  1  0
 15 16  2  0
 15 17  1  0
 17 18  1  0
 18 19  1  0
 19 20  1  0
 20 21  1  0
 21 22  1  0
 22 23  1  0
 23 24  1  0
 23 25  2  0
 22 26  1  0
 14 27  1  0
 27 28  2  0
  8 29  2  0
 29 30  1  0
 29  3  1  0
 28 11  1  0
 26 18  1  0
  1 31  1  0
  1 32  1  0
  1 33  1  0
  4 34  1  0
  5 35  1  0
  7 36  1  0
 12 37  1  0
 13 38  1  0
 17 39  1  0
 18 40  1  1
 19 41  1  0
 19 42  1  0
 20 43  1  0
 20 44  1  0
 21 45  1  0
 21 46  1  0
 24 47  1  0
 24 48  1  0
 24 49  1  0
 26 50  1  0
 26 51  1  0
 27 52  1  0
 28 53  1  0
M  END
$$$$
