
     RDKit          3D

 41 43  0  0  0  0  0  0  0  0999 V2000
   -0.9086    1.8920    1.9811 C   0  0  0  0  0  0  0  0  0  0  0  0
   -2.3380    1.4391    1.7223 C   0  0  0  0  0  0  0  0  0  0  0  0
   -2.4516    0.3948    0.6091 C   0  0  0  0  0  0  0  0  0  0  0  0
   -2.1647    0.9678   -0.7839 C   0  0  0  0  0  0  0  0  0  0  0  0
   -2.2143   -0.0843   -1.8685 C   0  0  0  0  0  0  0  0  0  0  0  0
   -1.0517   -0.6379   -2.4325 C   0  0  0  0  0  0  0  0  0  0  0  0
    0.3027   -0.2501   -1.9844 C   0  0  0  0  0  0  0  0  0  0  0  0
    0.9899    0.4042   -2.7544 O   0  0  0  0  0  0  0  0  0  0  0  0
    0.6145   -0.7266   -0.7371 N   0  0  0  0  0  0  0  0  0  0  0  0
    1.7588   -0.4869   -0.0221 C   0  0  0  0  0  0  0  0  0  0  0  0
    1.9259   -1.0181    1.1645 N   0  0  0  0  0  0  0  0  0  0  0  0
    3.1429   -0.6115    1.6871 C   0  0  0  0  0  0  0  0  0  0  0  0
    3.6700   -0.9782    2.9420 C   0  0  0  0  0  0  0  0  0  0  0  0
    4.9177   -0.4881    3.3420 C   0  0  0  0  0  0  0  0  0  0  0  0
    5.6424    0.3591    2.5093 C   0  0  0  0  0  0  0  0  0  0  0  0
    5.1416    0.7380    1.2598 C   0  0  0  0  0  0  0  0  0  0  0  0
    3.8880    0.2400    0.8690 C   0  0  0  0  0  0  0  0  0  0  0  0
    3.0094    0.5164   -0.5839 S   0  0  0  0  0  0  0  0  0  0  0  0
   -1.1205   -1.5765   -3.4594 C   0  0  0  0  0  0  0  0  0  0  0  0
   -2.3722   -1.9693   -3.8729 C   0  0  0  0  0  0  0  0  0  0  0  0
   -3.5148   -1.4879   -3.3427 N   0  0  0  0  0  0  0  0  0  0  0  0
   -3.4260   -0.5547   -2.3758 C   0  0  0  0  0  0  0  0  0  0  0  0
   -4.6532   -0.1030   -1.8983 N   0  0  0  0  0  0  0  0  0  0  0  0
   -0.8806    2.5725    2.8383 H   0  0  0  0  0  0  0  0  0  0  0  0
   -0.4908    2.4248    1.1224 H   0  0  0  0  0  0  0  0  0  0  0  0
   -0.2616    1.0387    2.2072 H   0  0  0  0  0  0  0  0  0  0  0  0
   -2.7339    1.0039    2.6477 H   0  0  0  0  0  0  0  0  0  0  0  0
   -2.9632    2.3083    1.4878 H   0  0  0  0  0  0  0  0  0  0  0  0
   -1.7827   -0.4449    0.8282 H   0  0  0  0  0  0  0  0  0  0  0  0
   -3.4686   -0.0155    0.6317 H   0  0  0  0  0  0  0  0  0  0  0  0
   -1.1932    1.4718   -0.7995 H   0  0  0  0  0  0  0  0  0  0  0  0
   -2.8866    1.7614   -1.0153 H   0  0  0  0  0  0  0  0  0  0  0  0
   -0.0372   -1.3272   -0.2509 H   0  0  0  0  0  0  0  0  0  0  0  0
    3.1023   -1.6393    3.5891 H   0  0  0  0  0  0  0  0  0  0  0  0
    5.3216   -0.7731    4.3108 H   0  0  0  0  0  0  0  0  0  0  0  0
    6.6120    0.7328    2.8326 H   0  0  0  0  0  0  0  0  0  0  0  0
    5.7073    1.3991    0.6101 H   0  0  0  0  0  0  0  0  0  0  0  0
   -0.2265   -1.9856   -3.9172 H   0  0  0  0  0  0  0  0  0  0  0  0
   -2.5004   -2.7028   -4.6639 H   0  0  0  0  0  0  0  0  0  0  0  0
   -4.7389    0.9033   -1.9804 H   0  0  0  0  0  0  0  0  0  0  0  0
   -5.3673   -0.5760   -2.4487 H   0  0  0  0  0  0  0  0  0  0  0  0
  1  2  1  0
  2  3  1  0
  3  4  1  0
  4  5  1  0
  5  6  2  0
  6  7  1  0
  7  8  2  0
  7  9  1  0
  9 10  1  0
 10 11  2  0
 11 12  1  0
 12 13  2  0
 13 14  1  0
 14 15  2  0
 15 16  1  0
 16 17  2  0
 17 18  1  0
  6 19  1  0
 19 20  2  0
 20 21  1  0
 21 22  2  0
 22 23  1  0
 22  5  1  0
 18 10  1  0
 17 12  1  0
  1 24  1  0
  1 25  1  0
  1 26  1  0
  2 27  1  0
  2 28  1  0
  3 29  1  0
  3 30  1  0
  4 31  1  0
  4 32  1  0
  9 33  1  0
 13 34  1  0
 14 35  1  0
 15 36  1  0
 16 37  1  0
 19 38  1  0
 20 39  1  0
 23 40  1  0
 23 41  1  0
M  END
$$$$
