MODEL        2USER    Run = 2USERUSER    Estimated Free Energy of Binding    =  -8.85 kcal/mol  [=(1)+(2)+(3)-(4)]USERUSER    (1) Final Intermolecular Energy     =  -9.75 kcal/molUSER        vdW + Hbond + desolv Energy     =  -9.55 kcal/molUSER        Electrostatic Energy            =  -0.19 kcal/molUSER        Moving Ligand-Fixed Receptor    =  -9.75 kcal/molUSER        Moving Ligand-Moving Receptor   =  +0.00 kcal/molUSER    (2) Final Total Internal Energy     =  -0.32 kcal/molUSER    (3) Torsional Free Energy           =  +0.89 kcal/molUSER    (4) Unbound System's Energy         =  -0.32 kcal/molUSERUSERREMARK SMILES N[S@H]1C(NS(=O)(=O)c2ccccc2F)=Nc2ccccc21REMARK SMILES IDX 2 1 3 2 4 3 15 4 16 5 17 6 18 7 19 8 20 9 21 10 1 13 5 16REMARK SMILES IDX 6 17 7 18 8 19 9 20 13 21 10 22 12 23 11 24 14 25REMARK H PARENT 2 11 4 12 1 14 1 15USER                              x       y       z     vdW  Elec       q    TypeUSER                           _______ _______ _______ _____ _____    ______ ____ROOTATOM      1  S   UNL     1      33.950  46.180  17.581 -0.44 +0.11    -0.114 S  ATOM      2  C   UNL     1      35.589  45.963  17.391 -0.31 -0.11    +0.172 C  ATOM      3  N   UNL     1      36.432  46.998  16.869 -0.08 +0.22    -0.258 N  ATOM      4  N   UNL     1      36.036  44.814  17.828 -0.18 +0.08    -0.223 NA ATOM      5  C   UNL     1      34.982  44.074  18.371 -0.28 -0.02    +0.079 A  ATOM      6  C   UNL     1      35.081  42.791  18.944 -0.38 -0.00    +0.029 A  ATOM      7  C   UNL     1      33.939  42.172  19.464 -0.37 +0.00    +0.002 A  ATOM      8  C   UNL     1      32.705  42.815  19.419 -0.39 +0.00    +0.001 A  ATOM      9  C   UNL     1      32.576  44.088  18.854 -0.36 -0.00    +0.017 A  ATOM     10  C   UNL     1      33.726  44.702  18.337 -0.36 -0.01    +0.032 A  ATOM     11  H   UNL     1      33.265  46.327  16.420 -0.38 -0.19    +0.110 HD ATOM     12  H   UNL     1      35.935  47.803  16.496 +0.05 -0.30    +0.182 HD ENDROOTBRANCH   1  13ATOM     13  N   UNL     1      33.802  47.310  18.806 -0.84 +0.20    -0.287 NA ATOM     14  H   UNL     1      32.875  47.738  18.841 -0.48 -0.11    +0.131 HD ATOM     15  H   UNL     1      33.938  46.902  19.735 -0.53 -0.07    +0.131 HD ENDBRANCH   1  13BRANCH   3  16ATOM     16  S   UNL     1      37.719  46.517  15.918 -0.37 -0.12    +0.266 S  ATOM     17  O   UNL     1      38.067  45.153  16.263 -0.27 +0.06    -0.201 OA ATOM     18  O   UNL     1      38.717  47.564  16.026 -0.36 +0.09    -0.201 OA BRANCH  16  19ATOM     19  C   UNL     1      37.144  46.539  14.252 -0.34 -0.06    +0.123 A  ATOM     20  C   UNL     1      37.001  45.349  13.533 -0.45 -0.01    +0.025 A  ATOM     21  C   UNL     1      36.848  47.759  13.659 -0.45 -0.08    +0.143 A  ATOM     22  C   UNL     1      36.555  45.396  12.211 -0.58 -0.00    +0.002 A  ATOM     23  C   UNL     1      36.403  47.807  12.340 -0.62 -0.02    +0.041 A  ATOM     24  C   UNL     1      36.258  46.623  11.615 -0.61 -0.00    +0.003 A  ATOM     25  F   UNL     1      36.948  48.906  14.345 -0.18 +0.16    -0.205 F  ENDBRANCH  16  19ENDBRANCH   3  16TORSDOF 3TERENDMDL