MODEL        2USER    Run = 2USERUSER    Estimated Free Energy of Binding    =  -9.60 kcal/mol  [=(1)+(2)+(3)-(4)]USERUSER    (1) Final Intermolecular Energy     = -11.09 kcal/molUSER        vdW + Hbond + desolv Energy     = -10.84 kcal/molUSER        Electrostatic Energy            =  -0.24 kcal/molUSER        Moving Ligand-Fixed Receptor    = -11.09 kcal/molUSER        Moving Ligand-Moving Receptor   =  +0.00 kcal/molUSER    (2) Final Total Internal Energy     =  -0.87 kcal/molUSER    (3) Torsional Free Energy           =  +1.49 kcal/molUSER    (4) Unbound System's Energy         =  -0.87 kcal/molUSERUSERREMARK SMILES C[C@@H]1CNCCN1C(=O)c1ccc(/C=C/c2n[nH]c3ccccc23)cc1REMARK SMILES IDX 10 1 11 2 12 3 13 4 25 5 26 6 8 7 9 8 7 9 2 10 3 11 4 12REMARK SMILES IDX 6 13 5 14 1 15 14 17 15 18 16 19 17 20 24 21 18 22 23 23REMARK SMILES IDX 19 24 22 25 20 26 21 27REMARK H PARENT 4 16 18 28USER                              x       y       z     vdW  Elec       q    TypeUSER                           _______ _______ _______ _____ _____    ______ ____ROOTATOM      1  C   UNL     1      42.606  46.522  20.584 -0.35 +0.01    +0.040 A  ATOM      2  C   UNL     1      41.656  45.499  20.657 -0.34 +0.00    +0.014 A  ATOM      3  C   UNL     1      40.698  45.366  19.647 -0.42 +0.00    +0.009 A  ATOM      4  C   UNL     1      40.697  46.233  18.545 -0.47 +0.00    -0.026 A  ATOM      5  C   UNL     1      41.662  47.249  18.479 -0.52 -0.00    +0.009 A  ATOM      6  C   UNL     1      42.622  47.386  19.486 -0.49 +0.00    +0.014 A  ENDROOTBRANCH   1   7ATOM      7  C   UNL     1      43.647  46.671  21.628 -0.23 +0.12    +0.254 C  ATOM      8  O   UNL     1      44.781  46.279  21.363 -0.52 -0.38    -0.269 OA BRANCH   7   9ATOM      9  N   UNL     1      43.295  47.220  22.862 -0.12 -0.07    -0.333 N  ATOM     10  C   UNL     1      44.133  48.307  23.406 -0.28 +0.02    +0.096 C  ATOM     11  C   UNL     1      43.450  49.031  24.596 -0.30 +0.02    +0.105 C  ATOM     12  N   UNL     1      42.080  49.495  24.322 -0.49 -0.10    -0.313 NA ATOM     13  C   UNL     1      41.952  47.102  23.446 -0.20 +0.02    +0.135 C  ATOM     14  C   UNL     1      41.294  48.489  23.586 -0.28 +0.02    +0.102 C  ATOM     15  C   UNL     1      45.498  47.777  23.857 -0.19 +0.01    +0.032 C  ATOM     16  H   UNL     1      42.127  50.341  23.751 +0.04 +0.08    +0.122 HD ENDBRANCH   7   9ENDBRANCH   1   7BRANCH   4  17ATOM     17  C   UNL     1      39.690  46.145  17.479 -0.51 -0.00    +0.010 C  BRANCH  17  18ATOM     18  C   UNL     1      39.905  46.527  16.208 -0.50 -0.01    +0.031 C  BRANCH  18  19ATOM     19  C   UNL     1      38.996  47.251  15.370 -0.40 -0.03    +0.093 A  ATOM     20  N   UNL     1      38.835  48.574  15.514 -0.37 +0.10    -0.175 NA ATOM     21  C   UNL     1      38.146  46.732  14.342 -0.43 -0.01    +0.027 A  ATOM     22  N   UNL     1      37.940  48.901  14.570 -0.29 +0.19    -0.277 N  ATOM     23  C   UNL     1      37.844  45.467  13.793 -0.39 -0.00    +0.012 A  ATOM     24  C   UNL     1      37.482  47.844  13.836 -0.50 -0.03    +0.066 A  ATOM     25  C   UNL     1      36.913  45.377  12.750 -0.54 -0.00    +0.001 A  ATOM     26  C   UNL     1      36.550  47.778  12.794 -0.64 -0.01    +0.028 A  ATOM     27  C   UNL     1      36.281  46.516  12.257 -0.67 -0.00    +0.002 A  ATOM     28  H   UNL     1      37.671  49.874  14.483 -0.45 -0.19    +0.190 HD ENDBRANCH  18  19ENDBRANCH  17  18ENDBRANCH   4  17TORSDOF 5TERENDMDL