REMARK SMILES C[C@@H]1CNCCN1C(=O)c1ccc(/C=C/c2n[nH]c3ccccc23)cc1
REMARK SMILES IDX 10 1 11 2 12 3 13 4 25 5 26 6 8 7 9 8 7 9 2 10 3 11 4 12
REMARK SMILES IDX 6 13 5 14 1 15 14 17 15 18 16 19 17 20 24 21 18 22 23 23
REMARK SMILES IDX 19 24 22 25 20 26 21 27
REMARK H PARENT 4 16 18 28
ROOT
ATOM      1  C   UNL     1      -1.667  -0.843   0.299  1.00  0.00     0.040 A 
ATOM      2  C   UNL     1      -1.164  -0.458  -0.947  1.00  0.00     0.014 A 
ATOM      3  C   UNL     1       0.193  -0.152  -1.086  1.00  0.00     0.009 A 
ATOM      4  C   UNL     1       1.063  -0.254   0.009  1.00  0.00    -0.026 A 
ATOM      5  C   UNL     1       0.548  -0.651   1.252  1.00  0.00     0.009 A 
ATOM      6  C   UNL     1      -0.808  -0.958   1.395  1.00  0.00     0.014 A 
ENDROOT
BRANCH   1   7
ATOM      7  C   UNL     1      -3.096  -1.196   0.468  1.00  0.00     0.254 C 
ATOM      8  O   UNL     1      -3.359  -2.251   1.041  1.00  0.00    -0.269 OA
BRANCH   7   9
ATOM      9  N   UNL     1      -4.071  -0.339  -0.045  1.00  0.00    -0.333 N 
ATOM     10  C   UNL     1      -5.477  -0.787  -0.019  1.00  0.00     0.096 C 
ATOM     11  C   UNL     1      -6.465   0.374  -0.309  1.00  0.00     0.105 C 
ATOM     12  N   UNL     1      -6.266   1.567   0.530  1.00  0.00    -0.313 NA
ATOM     13  C   UNL     1      -3.869   1.107  -0.212  1.00  0.00     0.135 C 
ATOM     14  C   UNL     1      -4.839   1.901   0.685  1.00  0.00     0.102 C 
ATOM     15  C   UNL     1      -5.715  -1.913  -1.030  1.00  0.00     0.032 C 
ATOM     16  H   UNL     1      -6.652   1.385   1.458  1.00  0.00     0.122 HD
ENDBRANCH   7   9
ENDBRANCH   1   7
BRANCH   4  17
ATOM     17  C   UNL     1       2.489   0.087  -0.088  1.00  0.00     0.010 C 
BRANCH  17  18
ATOM     18  C   UNL     1       3.262  -0.206  -1.148  1.00  0.00     0.031 C 
BRANCH  18  19
ATOM     19  C   UNL     1       4.649   0.119  -1.307  1.00  0.00     0.093 A 
ATOM     20  N   UNL     1       5.160   0.373  -2.520  1.00  0.00    -0.175 NA
ATOM     21  C   UNL     1       5.655   0.191  -0.292  1.00  0.00     0.027 A 
ATOM     22  N   UNL     1       6.451   0.648  -2.282  1.00  0.00    -0.277 N 
ATOM     23  C   UNL     1       5.734  -0.020   1.101  1.00  0.00     0.012 A 
ATOM     24  C   UNL     1       6.816   0.552  -0.969  1.00  0.00     0.066 A 
ATOM     25  C   UNL     1       6.959   0.163   1.755  1.00  0.00     0.001 A 
ATOM     26  C   UNL     1       8.050   0.742  -0.337  1.00  0.00     0.028 A 
ATOM     27  C   UNL     1       8.097   0.542   1.046  1.00  0.00     0.002 A 
ATOM     28  H   UNL     1       7.042   0.888  -3.069  1.00  0.00     0.190 HD
ENDBRANCH  18  19
ENDBRANCH  17  18
ENDBRANCH   4  17
TORSDOF 5
