MODEL        8USER    Run = 8USERUSER    Estimated Free Energy of Binding    =  -6.37 kcal/mol  [=(1)+(2)+(3)-(4)]USERUSER    (1) Final Intermolecular Energy     =  -9.95 kcal/molUSER        vdW + Hbond + desolv Energy     =  -9.74 kcal/molUSER        Electrostatic Energy            =  -0.21 kcal/molUSER        Moving Ligand-Fixed Receptor    =  -9.95 kcal/molUSER        Moving Ligand-Moving Receptor   =  +0.00 kcal/molUSER    (2) Final Total Internal Energy     =  -1.34 kcal/molUSER    (3) Torsional Free Energy           =  +3.58 kcal/molUSER    (4) Unbound System's Energy         =  -1.34 kcal/molUSERUSERREMARK SMILES OCCCN(CF)CCOc1nc(Nc2ccccc2F)ncc1CFREMARK SMILES IDX 8 1 5 2 4 3 3 4 2 5 1 6 6 8 7 9 9 10 10 11 11 12 12 13 24 14REMARK SMILES IDX 13 15 23 16 22 17 25 18 26 19 14 20 15 22 16 23 20 24 17 25REMARK SMILES IDX 19 26 18 27 21 28REMARK H PARENT 1 7 14 21USER                              x       y       z     vdW  Elec       q    TypeUSER                           _______ _______ _______ _____ _____    ______ ____ROOTATOM      1  C   UNL     1      38.199  44.046  18.503 -0.16 -0.02    +0.128 C  ENDROOTBRANCH   1   2ATOM      2  N   UNL     1      37.144  44.712  17.730 -0.17 +0.07    -0.273 NA BRANCH   2   3ATOM      3  C   UNL     1      35.762  44.318  18.023 -0.31 -0.03    +0.089 C  BRANCH   3   4ATOM      4  C   UNL     1      34.836  45.251  18.816 -0.42 -0.02    +0.044 C  BRANCH   4   5ATOM      5  C   UNL     1      33.925  46.127  17.973 -0.42 -0.13    +0.157 C  BRANCH   5   6ATOM      6  O   UNL     1      34.002  47.473  18.436 -0.97 +0.40    -0.396 OA ATOM      7  H   UNL     1      33.928  48.049  17.655 -0.38 -0.55    +0.210 HD ENDBRANCH   5   6ENDBRANCH   4   5ENDBRANCH   3   4ENDBRANCH   2   3BRANCH   2   8ATOM      8  C   UNL     1      37.450  44.690  16.307 -0.19 -0.09    +0.303 C  ATOM      9  F   UNL     1      36.884  43.595  15.737 -0.09 +0.07    -0.234 F  ENDBRANCH   2   8ENDBRANCH   1   2BRANCH   1  10ATOM     10  C   UNL     1      39.568  44.745  18.487 -0.29 -0.02    +0.247 C  BRANCH  10  11ATOM     11  O   UNL     1      39.358  46.132  18.788 -0.17 +0.05    -0.476 OA BRANCH  11  12ATOM     12  C   UNL     1      39.769  46.985  17.779 -0.23 -0.04    +0.224 A  ATOM     13  N   UNL     1      38.899  47.321  16.810 -0.32 +0.07    -0.177 NA ATOM     14  C   UNL     1      41.065  47.440  17.843 -0.48 -0.01    +0.064 A  ATOM     15  C   UNL     1      39.337  48.149  15.851 -0.32 -0.09    +0.230 A  ATOM     16  C   UNL     1      41.418  48.282  16.819 -0.33 -0.01    +0.127 A  ATOM     17  N   UNL     1      40.582  48.645  15.827 -0.44 +0.05    -0.221 NA BRANCH  14  18ATOM     18  C   UNL     1      42.005  47.056  18.929 -0.39 +0.01    +0.257 C  ATOM     19  F   UNL     1      43.266  47.542  18.740 -0.20 -0.03    -0.246 F  ENDBRANCH  14  18BRANCH  15  20ATOM     20  N   UNL     1      38.403  48.468  14.874 -0.28 +0.18    -0.322 N  ATOM     21  H   UNL     1      38.409  49.463  14.697 -0.37 -0.14    +0.170 HD BRANCH  20  22ATOM     22  C   UNL     1      37.500  47.725  14.103 -0.47 -0.04    +0.077 A  ATOM     23  C   UNL     1      37.655  47.466  12.739 -0.39 -0.01    +0.029 A  ATOM     24  C   UNL     1      36.356  47.200  14.730 -0.27 -0.12    +0.146 A  ATOM     25  C   UNL     1      36.704  46.714  12.033 -0.69 -0.00    +0.002 A  ATOM     26  C   UNL     1      35.405  46.451  14.041 -0.41 -0.03    +0.041 A  ATOM     27  C   UNL     1      35.580  46.207  12.683 -0.48 -0.00    +0.003 A  ATOM     28  F   UNL     1      36.168  47.425  16.041 -0.09 +0.25    -0.205 F  ENDBRANCH  20  22ENDBRANCH  15  20ENDBRANCH  11  12ENDBRANCH  10  11ENDBRANCH   1  10TORSDOF 12TERENDMDL