MODEL        6USER    Run = 6USERUSER    Estimated Free Energy of Binding    =  -8.29 kcal/mol  [=(1)+(2)+(3)-(4)]USERUSER    (1) Final Intermolecular Energy     = -10.38 kcal/molUSER        vdW + Hbond + desolv Energy     = -10.03 kcal/molUSER        Electrostatic Energy            =  -0.35 kcal/molUSER        Moving Ligand-Fixed Receptor    = -10.38 kcal/molUSER        Moving Ligand-Moving Receptor   =  +0.00 kcal/molUSER    (2) Final Total Internal Energy     =  -1.86 kcal/molUSER    (3) Torsional Free Energy           =  +2.09 kcal/molUSER    (4) Unbound System's Energy         =  -1.86 kcal/molUSERUSERREMARK SMILES Cc1c(-c2c(CCCO)ccc(O)c2O)ccc2ccccc12REMARK SMILES IDX 6 1 5 2 4 3 14 4 10 5 12 6 11 7 3 8 2 9 23 10 16 11 22 12REMARK SMILES IDX 18 13 17 14 21 15 19 16 20 17 1 18 15 19 13 21 7 23 8 24REMARK SMILES IDX 9 25REMARK H PARENT 15 20 13 22 9 26USER                              x       y       z     vdW  Elec       q    TypeUSER                           _______ _______ _______ _____ _____    ______ ____ROOTATOM      1  C   UNL     1      36.877  45.125  18.381 -0.36 -0.01    +0.038 C  ENDROOTBRANCH   1   2ATOM      2  C   UNL     1      38.344  45.518  18.466 -0.35 +0.01    -0.036 A  ATOM      3  C   UNL     1      39.003  46.226  17.425 -0.40 -0.01    +0.031 A  ATOM      4  C   UNL     1      40.363  46.556  17.605 -0.37 -0.02    +0.165 A  ATOM      5  C   UNL     1      39.057  45.203  19.644 -0.38 -0.00    +0.008 A  ATOM      6  C   UNL     1      41.044  46.205  18.769 -0.38 +0.00    +0.158 A  ATOM      7  C   UNL     1      40.403  45.536  19.793 -0.38 +0.00    +0.050 A  BRANCH   3   8ATOM      8  C   UNL     1      38.300  46.646  16.195 -0.40 +0.00    -0.011 A  ATOM      9  C   UNL     1      37.669  45.732  15.313 -0.34 +0.01    -0.035 A  ATOM     10  C   UNL     1      37.067  46.203  14.104 -0.42 +0.01    -0.015 A  ATOM     11  C   UNL     1      38.305  48.011  15.871 -0.41 -0.01    +0.010 A  ATOM     12  C   UNL     1      36.440  45.358  13.158 -0.45 -0.00    +0.009 A  ATOM     13  C   UNL     1      37.091  47.590  13.816 -0.53 +0.01    -0.018 A  ATOM     14  C   UNL     1      37.705  48.477  14.704 -0.54 -0.01    +0.009 A  ATOM     15  C   UNL     1      35.861  45.858  11.988 -0.48 -0.00    +0.001 A  ATOM     16  C   UNL     1      36.503  48.080  12.637 -0.61 -0.00    +0.009 A  ATOM     17  C   UNL     1      35.891  47.220  11.729 -0.21 -0.00    +0.001 A  ATOM     18  C   UNL     1      37.646  44.251  15.628 -0.08 -0.01    +0.045 C  ENDBRANCH   3   8BRANCH   4  19ATOM     19  O   UNL     1      41.102  47.242  16.668 -0.11 +0.06    -0.504 OA ATOM     20  H   UNL     1      42.009  47.341  17.011 -0.31 -0.07    +0.293 HD ENDBRANCH   4  19BRANCH   6  21ATOM     21  O   UNL     1      42.363  46.536  18.913 -0.20 -0.07    -0.504 OA ATOM     22  H   UNL     1      42.696  46.592  17.995 -0.31 -0.03    +0.293 HD ENDBRANCH   6  21ENDBRANCH   1   2BRANCH   1  23ATOM     23  C   UNL     1      35.926  46.237  17.913 -0.17 -0.02    +0.033 C  BRANCH  23  24ATOM     24  C   UNL     1      34.484  46.037  18.361 -0.42 -0.09    +0.156 C  BRANCH  24  25ATOM     25  O   UNL     1      33.904  47.290  18.691 -0.99 +0.31    -0.396 OA ATOM     26  H   UNL     1      33.607  47.697  17.860 -0.42 -0.41    +0.210 HD ENDBRANCH  24  25ENDBRANCH  23  24ENDBRANCH   1  23TORSDOF 7TERENDMDL