REMARK SMILES Cc1cccc(-c2nn(-c3ccccc3)c3c2CCN3c2ccccn2)c1
REMARK SMILES IDX 7 1 8 2 9 3 16 4 17 5 18 6 19 7 20 8 6 9 2 10 3 11 27 12
REMARK SMILES IDX 4 13 5 14 1 15 10 16 11 17 15 18 12 19 14 20 13 21 21 22
REMARK SMILES IDX 22 23 26 24 23 25 25 26 24 27
REMARK H PARENT
ROOT
ATOM      1  C   UNL     1       1.529  -0.085  -0.270  1.00  0.00     0.098 A 
ATOM      2  N   UNL     1       0.924   1.034  -0.726  1.00  0.00    -0.166 NA
ATOM      3  N   UNL     1      -0.308   1.077  -0.120  1.00  0.00    -0.216 N 
ATOM      4  C   UNL     1      -0.545  -0.124   0.501  1.00  0.00     0.141 A 
ATOM      5  C   UNL     1       0.628  -0.815   0.517  1.00  0.00     0.025 A 
ATOM      6  C   UNL     1       0.486  -2.067   1.276  1.00  0.00     0.064 C 
ATOM      7  C   UNL     1      -1.032  -2.014   1.702  1.00  0.00     0.131 C 
ATOM      8  N   UNL     1      -1.580  -0.740   1.125  1.00  0.00    -0.310 N 
ENDROOT
BRANCH   1   9
ATOM      9  C   UNL     1       2.910  -0.409  -0.641  1.00  0.00     0.003 A 
ATOM     10  C   UNL     1       4.997  -1.623  -0.252  1.00  0.00    -0.050 A 
ATOM     11  C   UNL     1       5.557  -1.013  -1.379  1.00  0.00     0.003 A 
ATOM     12  C   UNL     1       3.680  -1.305   0.116  1.00  0.00     0.013 A 
ATOM     13  C   UNL     1       4.808  -0.116  -2.138  1.00  0.00     0.001 A 
ATOM     14  C   UNL     1       3.494   0.183  -1.771  1.00  0.00     0.010 A 
ATOM     15  C   UNL     1       5.816  -2.555   0.592  1.00  0.00     0.044 C 
ENDBRANCH   1   9
BRANCH   3  16
ATOM     16  C   UNL     1      -1.078   2.273  -0.153  1.00  0.00     0.067 A 
ATOM     17  C   UNL     1      -2.155   2.472   0.720  1.00  0.00     0.028 A 
ATOM     18  C   UNL     1      -0.727   3.292  -1.052  1.00  0.00     0.028 A 
ATOM     19  C   UNL     1      -2.891   3.659   0.667  1.00  0.00     0.002 A 
ATOM     20  C   UNL     1      -1.466   4.476  -1.100  1.00  0.00     0.002 A 
ATOM     21  C   UNL     1      -2.551   4.657  -0.244  1.00  0.00     0.000 A 
ENDBRANCH   3  16
BRANCH   8  22
ATOM     22  C   UNL     1      -2.914  -0.879   0.694  1.00  0.00     0.134 A 
ATOM     23  C   UNL     1      -3.349  -0.418  -0.550  1.00  0.00     0.047 A 
ATOM     24  N   UNL     1      -3.781  -1.490   1.540  1.00  0.00    -0.239 NA
ATOM     25  C   UNL     1      -4.686  -0.567  -0.922  1.00  0.00     0.005 A 
ATOM     26  C   UNL     1      -5.072  -1.621   1.161  1.00  0.00     0.113 A 
ATOM     27  C   UNL     1      -5.570  -1.178  -0.048  1.00  0.00     0.020 A 
ENDBRANCH   8  22
TORSDOF 3
