MODEL        7USER    Run = 7USERUSER    Estimated Free Energy of Binding    =  -9.94 kcal/mol  [=(1)+(2)+(3)-(4)]USERUSER    (1) Final Intermolecular Energy     = -10.84 kcal/molUSER        vdW + Hbond + desolv Energy     = -10.82 kcal/molUSER        Electrostatic Energy            =  -0.02 kcal/molUSER        Moving Ligand-Fixed Receptor    = -10.84 kcal/molUSER        Moving Ligand-Moving Receptor   =  +0.00 kcal/molUSER    (2) Final Total Internal Energy     =  -1.38 kcal/molUSER    (3) Torsional Free Energy           =  +0.89 kcal/molUSER    (4) Unbound System's Energy         =  -1.38 kcal/molUSERUSERREMARK SMILES Cc1cccc(-c2nn(-c3ccccc3)c3c2CCN3c2ccccn2)c1REMARK SMILES IDX 7 1 8 2 9 3 16 4 17 5 18 6 19 7 20 8 6 9 2 10 3 11 27 12REMARK SMILES IDX 4 13 5 14 1 15 10 16 11 17 15 18 12 19 14 20 13 21 21 22REMARK SMILES IDX 22 23 26 24 23 25 25 26 24 27REMARK H PARENTUSER                              x       y       z     vdW  Elec       q    TypeUSER                           _______ _______ _______ _____ _____    ______ ____ROOTATOM      1  C   UNL     1      37.173  44.755  18.720 -0.29 -0.02    +0.098 A  ATOM      2  N   UNL     1      38.369  45.266  18.354 -0.29 +0.03    -0.166 NA ATOM      3  N   UNL     1      38.116  46.117  17.306 -0.26 +0.07    -0.216 N  ATOM      4  C   UNL     1      36.823  45.936  16.882 -0.26 -0.07    +0.141 A  ATOM      5  C   UNL     1      36.187  45.180  17.819 -0.32 -0.01    +0.025 A  ATOM      6  C   UNL     1      34.759  45.042  17.497 -0.35 -0.03    +0.064 C  ATOM      7  C   UNL     1      34.654  45.853  16.148 -0.24 -0.13    +0.131 C  ATOM      8  N   UNL     1      36.041  46.349  15.854 -0.16 +0.25    -0.310 N  ENDROOTBRANCH   1   9ATOM      9  C   UNL     1      37.048  43.865  19.879 -0.38 -0.00    +0.003 A  ATOM     10  C   UNL     1      37.684  43.213  22.149 -0.35 -0.00    -0.050 A  ATOM     11  C   UNL     1      36.784  42.144  22.089 -0.52 +0.00    +0.003 A  ATOM     12  C   UNL     1      37.818  44.058  21.036 -0.37 +0.00    +0.013 A  ATOM     13  C   UNL     1      36.016  41.935  20.946 -0.50 +0.00    +0.001 A  ATOM     14  C   UNL     1      36.147  42.790  19.849 -0.41 -0.00    +0.010 A  ATOM     15  C   UNL     1      38.545  43.413  23.362 -0.31 +0.00    +0.044 C  ENDBRANCH   1   9BRANCH   3  16ATOM     16  C   UNL     1      39.112  47.039  16.879 -0.39 -0.02    +0.067 A  ATOM     17  C   UNL     1      40.298  47.218  17.602 -0.46 -0.00    +0.028 A  ATOM     18  C   UNL     1      38.921  47.754  15.687 -0.47 -0.01    +0.028 A  ATOM     19  C   UNL     1      41.261  48.128  17.156 -0.51 -0.00    +0.002 A  ATOM     20  C   UNL     1      39.887  48.662  15.246 -0.57 -0.00    +0.002 A  ATOM     21  C   UNL     1      41.054  48.852  15.984 -0.61 -0.00    +0.000 A  ENDBRANCH   3  16BRANCH   8  22ATOM     22  C   UNL     1      36.326  46.351  14.474 -0.32 -0.08    +0.134 A  ATOM     23  C   UNL     1      36.276  47.515  13.703 -0.47 -0.03    +0.047 A  ATOM     24  N   UNL     1      36.660  45.166  13.905 -0.26 +0.10    -0.239 NA ATOM     25  C   UNL     1      36.552  47.459  12.336 -0.69 -0.00    +0.005 A  ATOM     26  C   UNL     1      36.921  45.135  12.579 -0.44 -0.04    +0.113 A  ATOM     27  C   UNL     1      36.878  46.244  11.758 -0.62 -0.01    +0.020 A  ENDBRANCH   8  22TORSDOF 3TERENDMDL