REMARK SMILES OCCCN(CF)CCOc1nc(Nc2ccccc2F)ncc1CF
REMARK SMILES IDX 8 1 5 2 4 3 3 4 2 5 1 6 6 8 7 9 9 10 10 11 11 12 12 13 24 14
REMARK SMILES IDX 13 15 23 16 22 17 25 18 26 19 14 20 15 22 16 23 20 24 17 25
REMARK SMILES IDX 19 26 18 27 21 28
REMARK H PARENT 1 7 14 21
ROOT
ATOM      1  C   UNL     1       3.082  -0.322  -0.566  1.00  0.00     0.128 C 
ENDROOT
BRANCH   1   2
ATOM      2  N   UNL     1       3.671  -1.464   0.142  1.00  0.00    -0.273 NA
BRANCH   2   3
ATOM      3  C   UNL     1       3.350  -1.594   1.567  1.00  0.00     0.089 C 
BRANCH   3   4
ATOM      4  C   UNL     1       4.091  -0.751   2.614  1.00  0.00     0.044 C 
BRANCH   4   5
ATOM      5  C   UNL     1       3.819   0.743   2.553  1.00  0.00     0.157 C 
BRANCH   5   6
ATOM      6  O   UNL     1       4.369   1.371   3.708  1.00  0.00    -0.396 OA
ATOM      7  H   UNL     1       5.335   1.264   3.659  1.00  0.00     0.210 HD
ENDBRANCH   5   6
ENDBRANCH   4   5
ENDBRANCH   3   4
ENDBRANCH   2   3
BRANCH   2   8
ATOM      8  C   UNL     1       5.098  -1.565  -0.129  1.00  0.00     0.303 C 
ATOM      9  F   UNL     1       5.717  -0.423   0.266  1.00  0.00    -0.234 F 
ENDBRANCH   2   8
ENDBRANCH   1   2
BRANCH   1  10
ATOM     10  C   UNL     1       1.547  -0.241  -0.524  1.00  0.00     0.247 C 
BRANCH  10  11
ATOM     11  O   UNL     1       1.138   0.814  -1.407  1.00  0.00    -0.476 OA
BRANCH  11  12
ATOM     12  C   UNL     1      -0.234   0.984  -1.466  1.00  0.00     0.224 A 
ATOM     13  N   UNL     1      -1.026   0.193  -0.721  1.00  0.00    -0.177 NA
ATOM     14  C   UNL     1      -0.699   1.974  -2.300  1.00  0.00     0.064 A 
ATOM     15  C   UNL     1      -2.349   0.391  -0.807  1.00  0.00     0.230 A 
ATOM     16  C   UNL     1      -2.065   2.100  -2.319  1.00  0.00     0.127 A 
ATOM     17  N   UNL     1      -2.897   1.330  -1.591  1.00  0.00    -0.221 NA
BRANCH  14  18
ATOM     18  C   UNL     1       0.199   2.838  -3.110  1.00  0.00     0.257 C 
ATOM     19  F   UNL     1      -0.478   3.742  -3.876  1.00  0.00    -0.246 F 
ENDBRANCH  14  18
BRANCH  15  20
ATOM     20  N   UNL     1      -3.124  -0.449  -0.018  1.00  0.00    -0.322 N 
ATOM     21  H   UNL     1      -2.532  -1.080   0.506  1.00  0.00     0.170 HD
BRANCH  20  22
ATOM     22  C   UNL     1      -4.499  -0.590   0.206  1.00  0.00     0.077 A 
ATOM     23  C   UNL     1      -5.483   0.180  -0.420  1.00  0.00     0.029 A 
ATOM     24  C   UNL     1      -4.933  -1.567   1.119  1.00  0.00     0.146 A 
ATOM     25  C   UNL     1      -6.843  -0.020  -0.142  1.00  0.00     0.002 A 
ATOM     26  C   UNL     1      -6.281  -1.776   1.404  1.00  0.00     0.041 A 
ATOM     27  C   UNL     1      -7.242  -0.996   0.769  1.00  0.00     0.003 A 
ATOM     28  F   UNL     1      -4.020  -2.330   1.743  1.00  0.00    -0.205 F 
ENDBRANCH  20  22
ENDBRANCH  15  20
ENDBRANCH  11  12
ENDBRANCH  10  11
ENDBRANCH   1  10
TORSDOF 12
