REMARK SMILES Cc1c(-c2cc(-c3ccco3)c[nH]c2=O)cc(Br)c(O)c1I
REMARK SMILES IDX 1 1 2 2 3 3 16 4 17 5 18 6 19 7 21 8 22 9 4 10 5 11 14 12
REMARK SMILES IDX 6 13 13 14 12 15 15 16 7 18 8 19 11 20 9 21 10 22 20 23
REMARK H PARENT 13 17 20 24
ROOT
ATOM      1  C   UNL     1       2.394  -1.095  -1.559  1.00  0.00     0.046 C 
ATOM      2  C   UNL     1       2.599  -0.032  -0.506  1.00  0.00    -0.026 A 
ATOM      3  C   UNL     1       1.601   0.221   0.468  1.00  0.00    -0.007 A 
ATOM      4  C   UNL     1       1.802   1.214   1.443  1.00  0.00     0.028 A 
ATOM      5  C   UNL     1       2.982   1.952   1.476  1.00  0.00     0.061 A 
ATOM      6  Br  UNL     1       3.178   3.275   2.822  1.00  0.00    -0.047 Br
ATOM      7  C   UNL     1       3.984   1.705   0.539  1.00  0.00     0.143 A 
ATOM      8  C   UNL     1       3.799   0.716  -0.444  1.00  0.00     0.060 A 
ATOM      9  I   UNL     1       5.387   0.382  -1.820  1.00  0.00    -0.040 I 
ENDROOT
BRANCH   3  10
ATOM     10  C   UNL     1       0.327  -0.519   0.520  1.00  0.00     0.048 A 
ATOM     11  C   UNL     1      -0.815   0.057   0.098  1.00  0.00     0.028 A 
ATOM     12  C   UNL     1       0.268  -1.924   1.039  1.00  0.00     0.255 A 
ATOM     13  C   UNL     1      -2.105  -0.627   0.130  1.00  0.00     0.034 A 
ATOM     14  N   UNL     1      -0.978  -2.505   1.042  1.00  0.00    -0.328 N 
ATOM     15  C   UNL     1      -2.124  -1.887   0.605  1.00  0.00     0.098 A 
ATOM     16  O   UNL     1       1.259  -2.528   1.434  1.00  0.00    -0.269 OA
ATOM     17  H   UNL     1      -1.012  -3.454   1.395  1.00  0.00     0.169 HD
BRANCH  13  18
ATOM     18  C   UNL     1      -3.323  -0.009  -0.320  1.00  0.00     0.135 A 
ATOM     19  C   UNL     1      -4.637  -0.473  -0.364  1.00  0.00     0.051 A 
ATOM     20  O   UNL     1      -3.344   1.280  -0.826  1.00  0.00    -0.464 OA
ATOM     21  C   UNL     1      -5.455   0.550  -0.903  1.00  0.00     0.043 A 
ATOM     22  C   UNL     1      -4.614   1.598  -1.167  1.00  0.00     0.196 A 
ENDBRANCH  13  18
ENDBRANCH   3  10
BRANCH   7  23
ATOM     23  O   UNL     1       5.138   2.444   0.604  1.00  0.00    -0.506 OA
ATOM     24  H   UNL     1       5.736   2.126  -0.096  1.00  0.00     0.293 HD
ENDBRANCH   7  23
TORSDOF 3
