REMARK SMILES O=CNC=C(C=C/C(Cl)=C\C=C/c1ccc(-c2nccs2)cc1O)CO
REMARK SMILES IDX 8 1 9 2 7 3 6 4 5 5 4 6 3 7 2 8 1 9 25 11 26 12 10 14 11 15
REMARK SMILES IDX 12 16 13 17 14 18 23 19 15 20 22 21 16 22 24 23 17 25 18 26
REMARK SMILES IDX 21 27 19 28 20 29
REMARK H PARENT 3 10 26 13 24 24
ROOT
ATOM      1  C   UNL     1      -1.546   0.100  -0.383  1.00  0.00     0.041 C 
ATOM      2  Cl  UNL     1      -1.621   0.935  -1.917  1.00  0.00    -0.084 Cl
ENDROOT
BRANCH   1   3
ATOM      3  C   UNL     1      -2.794  -0.374   0.205  1.00  0.00     0.021 C 
BRANCH   3   4
ATOM      4  C   UNL     1      -4.039   0.008  -0.136  1.00  0.00     0.009 C 
BRANCH   4   5
ATOM      5  C   UNL     1      -5.295  -0.444   0.470  1.00  0.00    -0.006 C 
BRANCH   5   6
ATOM      6  C   UNL     1      -6.521  -0.061   0.052  1.00  0.00     0.091 C 
BRANCH   6   7
ATOM      7  N   UNL     1      -6.913   0.656  -1.058  1.00  0.00    -0.335 N 
ATOM      8  C   UNL     1      -6.356   0.650  -2.319  1.00  0.00     0.341 C 
ATOM      9  O   UNL     1      -5.435  -0.028  -2.748  1.00  0.00    -0.279 OA
ATOM     10  H   UNL     1      -7.853   1.036  -1.024  1.00  0.00     0.169 HD
ENDBRANCH   6   7
ENDBRANCH   5   6
BRANCH   5  11
ATOM     11  C   UNL     1      -5.219  -1.349   1.686  1.00  0.00     0.193 C 
BRANCH  11  12
ATOM     12  O   UNL     1      -4.653  -0.649   2.786  1.00  0.00    -0.392 OA
ATOM     13  H   UNL     1      -4.681  -1.252   3.547  1.00  0.00     0.211 HD
ENDBRANCH  11  12
ENDBRANCH   5  11
ENDBRANCH   4   5
ENDBRANCH   3   4
ENDBRANCH   1   3
BRANCH   1  14
ATOM     14  C   UNL     1      -0.315  -0.086   0.135  1.00  0.00     0.020 C 
BRANCH  14  15
ATOM     15  C   UNL     1       0.034  -0.730   1.390  1.00  0.00     0.002 C 
BRANCH  15  16
ATOM     16  C   UNL     1       1.278  -0.914   1.863  1.00  0.00     0.012 C 
BRANCH  16  17
ATOM     17  C   UNL     1       2.524  -0.507   1.203  1.00  0.00     0.016 A 
ATOM     18  C   UNL     1       3.264  -1.477   0.520  1.00  0.00     0.012 A 
ATOM     19  C   UNL     1       3.010   0.805   1.234  1.00  0.00     0.123 A 
ATOM     20  C   UNL     1       4.466  -1.140  -0.117  1.00  0.00     0.012 A 
ATOM     21  C   UNL     1       4.210   1.139   0.605  1.00  0.00     0.058 A 
ATOM     22  C   UNL     1       4.961   0.174  -0.088  1.00  0.00     0.014 A 
BRANCH  19  23
ATOM     23  O   UNL     1       2.353   1.822   1.871  1.00  0.00    -0.507 OA
ATOM     24  H   UNL     1       1.487   1.492   2.167  1.00  0.00     0.293 HD
ENDBRANCH  19  23
BRANCH  22  25
ATOM     25  C   UNL     1       6.223   0.587  -0.738  1.00  0.00     0.123 A 
ATOM     26  N   UNL     1       6.776   1.778  -0.582  1.00  0.00    -0.245 NA
ATOM     27  S   UNL     1       7.101  -0.462  -1.795  1.00  0.00    -0.122 S 
ATOM     28  C   UNL     1       7.939   1.875  -1.317  1.00  0.00     0.123 A 
ATOM     29  C   UNL     1       8.277   0.755  -2.040  1.00  0.00     0.087 A 
ENDBRANCH  22  25
ENDBRANCH  16  17
ENDBRANCH  15  16
ENDBRANCH  14  15
ENDBRANCH   1  14
TORSDOF 13
