REMARK SMILES CCNC(=Nc1cnnc(-c2ccccc2Cl)c1N)Nc1ccccc1Cl
REMARK SMILES IDX 5 1 4 2 3 3 20 4 2 7 1 8 21 9 22 10 26 11 23 12 25 13 24 14
REMARK SMILES IDX 27 15 6 16 7 17 18 18 8 19 10 20 9 21 19 22 11 25 12 26
REMARK SMILES IDX 16 27 13 28 15 29 14 30 17 31
REMARK H PARENT 3 5 20 6 19 23 19 24
ROOT
ATOM      1  N   UNL     1      -1.051  -0.539   0.754  1.00  0.00    -0.211 NA
ENDROOT
BRANCH   1   2
ATOM      2  C   UNL     1      -1.901   0.373   0.410  1.00  0.00     0.201 C 
ATOM      3  N   UNL     1      -1.799   1.748   0.346  1.00  0.00    -0.356 N 
ATOM      4  N   UNL     1      -3.196   0.068   0.047  1.00  0.00    -0.325 N 
ATOM      5  H   UNL     1      -2.441   2.115  -0.350  1.00  0.00     0.163 HD
ATOM      6  H   UNL     1      -3.870   0.754   0.369  1.00  0.00     0.170 HD
BRANCH   3   7
ATOM      7  C   UNL     1      -0.570   2.521   0.357  1.00  0.00     0.112 C 
ATOM      8  C   UNL     1      -0.894   3.997   0.175  1.00  0.00     0.027 C 
ENDBRANCH   3   7
BRANCH   4   9
ATOM      9  C   UNL     1      -3.803  -1.206  -0.086  1.00  0.00     0.060 A 
ATOM     10  C   UNL     1      -3.085  -2.364  -0.408  1.00  0.00     0.028 A 
ATOM     11  C   UNL     1      -5.206  -1.323   0.018  1.00  0.00     0.064 A 
ATOM     12  C   UNL     1      -3.729  -3.596  -0.577  1.00  0.00     0.002 A 
ATOM     13  C   UNL     1      -5.854  -2.550  -0.151  1.00  0.00     0.023 A 
ATOM     14  C   UNL     1      -5.111  -3.690  -0.445  1.00  0.00     0.002 A 
ATOM     15  Cl  UNL     1      -6.179   0.068   0.372  1.00  0.00    -0.082 Cl
ENDBRANCH   4   9
ENDBRANCH   1   2
BRANCH   1  16
ATOM     16  C   UNL     1       0.244  -0.252   1.211  1.00  0.00     0.112 A 
ATOM     17  C   UNL     1       0.485  -0.009   2.553  1.00  0.00     0.166 A 
ATOM     18  C   UNL     1       1.345  -0.316   0.339  1.00  0.00     0.088 A 
ATOM     19  N   UNL     1       1.712   0.258   3.042  1.00  0.00    -0.156 NA
ATOM     20  C   UNL     1       2.605  -0.008   0.870  1.00  0.00     0.120 A 
ATOM     21  N   UNL     1       2.774   0.275   2.189  1.00  0.00    -0.148 NA
BRANCH  18  22
ATOM     22  N   UNL     1       1.103  -0.468  -1.057  1.00  0.00    -0.395 N 
ATOM     23  H   UNL     1       0.190  -0.908  -1.188  1.00  0.00     0.156 HD
ATOM     24  H   UNL     1       1.844  -0.980  -1.529  1.00  0.00     0.156 HD
ENDBRANCH  18  22
BRANCH  20  25
ATOM     25  C   UNL     1       3.834   0.092   0.069  1.00  0.00     0.023 A 
ATOM     26  C   UNL     1       4.467   1.346  -0.055  1.00  0.00     0.012 A 
ATOM     27  C   UNL     1       4.434  -1.007  -0.572  1.00  0.00     0.050 A 
ATOM     28  C   UNL     1       5.637   1.502  -0.802  1.00  0.00     0.001 A 
ATOM     29  C   UNL     1       5.607  -0.851  -1.321  1.00  0.00     0.021 A 
ATOM     30  C   UNL     1       6.206   0.403  -1.438  1.00  0.00     0.002 A 
ATOM     31  Cl  UNL     1       3.777  -2.606  -0.465  1.00  0.00    -0.084 Cl
ENDBRANCH  20  25
ENDBRANCH   1  16
TORSDOF 6
