MODEL        8USER    Run = 8USERUSER    Estimated Free Energy of Binding    =  -8.34 kcal/mol  [=(1)+(2)+(3)-(4)]USERUSER    (1) Final Intermolecular Energy     = -10.13 kcal/molUSER        vdW + Hbond + desolv Energy     = -10.06 kcal/molUSER        Electrostatic Energy            =  -0.07 kcal/molUSER        Moving Ligand-Fixed Receptor    = -10.13 kcal/molUSER        Moving Ligand-Moving Receptor   =  +0.00 kcal/molUSER    (2) Final Total Internal Energy     =  -2.02 kcal/molUSER    (3) Torsional Free Energy           =  +1.79 kcal/molUSER    (4) Unbound System's Energy         =  -2.02 kcal/molUSERUSERREMARK SMILES CCNC(=Nc1cnnc(-c2ccccc2Cl)c1N)Nc1ccccc1ClREMARK SMILES IDX 5 1 4 2 3 3 20 4 2 7 1 8 21 9 22 10 26 11 23 12 25 13 24 14REMARK SMILES IDX 27 15 6 16 7 17 18 18 8 19 10 20 9 21 19 22 11 25 12 26REMARK SMILES IDX 16 27 13 28 15 29 14 30 17 31REMARK H PARENT 3 5 20 6 19 23 19 24USER                              x       y       z     vdW  Elec       q    TypeUSER                           _______ _______ _______ _____ _____    ______ ____ROOTATOM      1  N   UNL     1      36.138  43.713  17.503 -0.19 +0.06    -0.211 NA ENDROOTBRANCH   1   2ATOM      2  C   UNL     1      36.188  44.774  16.764 -0.25 -0.08    +0.201 C  ATOM      3  N   UNL     1      35.313  45.283  15.826 -0.10 +0.23    -0.356 N  ATOM      4  N   UNL     1      37.268  45.632  16.786 -0.14 +0.13    -0.325 N  ATOM      5  H   UNL     1      35.413  46.292  15.765 +0.11 -0.16    +0.163 HD ATOM      6  H   UNL     1      37.492  46.010  15.873 +0.12 -0.07    +0.170 HD BRANCH   3   7ATOM      7  C   UNL     1      33.924  44.902  15.649 -0.29 -0.08    +0.112 C  ATOM      8  C   UNL     1      33.085  45.491  16.774 -0.34 -0.02    +0.027 C  ENDBRANCH   3   7BRANCH   4   9ATOM      9  C   UNL     1      38.424  45.581  17.605 -0.35 -0.01    +0.060 A  ATOM     10  C   UNL     1      38.466  44.895  18.825 -0.37 -0.00    +0.028 A  ATOM     11  C   UNL     1      39.569  46.322  17.239 -0.41 -0.01    +0.064 A  ATOM     12  C   UNL     1      39.614  44.909  19.627 -0.39 -0.00    +0.002 A  ATOM     13  C   UNL     1      40.716  46.340  18.037 -0.49 -0.00    +0.023 A  ATOM     14  C   UNL     1      40.739  45.627  19.233 -0.45 +0.00    +0.002 A  ATOM     15  Cl  UNL     1      39.589  47.236  15.765 -0.68 +0.02    -0.082 Cl ENDBRANCH   4   9ENDBRANCH   1   2BRANCH   1  16ATOM     16  C   UNL     1      35.008  43.346  18.248 -0.26 -0.03    +0.112 A  ATOM     17  C   UNL     1      34.738  43.944  19.468 -0.28 -0.03    +0.166 A  ATOM     18  C   UNL     1      34.062  42.447  17.725 -0.33 -0.03    +0.088 A  ATOM     19  N   UNL     1      33.660  43.636  20.215 -0.80 -0.01    -0.156 NA ATOM     20  C   UNL     1      32.964  42.126  18.535 -0.31 -0.02    +0.120 A  ATOM     21  N   UNL     1      32.778  42.707  19.750 -0.68 -0.02    -0.148 NA BRANCH  18  22ATOM     22  N   UNL     1      34.372  41.753  16.520 +0.01 +0.23    -0.395 N  ATOM     23  H   UNL     1      35.353  41.921  16.285 -0.11 -0.08    +0.156 HD ATOM     24  H   UNL     1      33.750  42.000  15.755 -0.48 -0.11    +0.156 HD ENDBRANCH  18  22BRANCH  20  25ATOM     25  C   UNL     1      31.955  41.114  18.189 -0.37 -0.00    +0.023 A  ATOM     26  C   UNL     1      31.906  39.917  18.934 -0.37 +0.00    +0.012 A  ATOM     27  C   UNL     1      31.010  41.279  17.160 -0.28 -0.01    +0.050 A  ATOM     28  C   UNL     1      30.969  38.920  18.652 -0.43 +0.00    +0.001 A  ATOM     29  C   UNL     1      30.071  40.280  16.877 -0.36 -0.00    +0.021 A  ATOM     30  C   UNL     1      30.052  39.101  17.621 -0.31 +0.00    +0.002 A  ATOM     31  Cl  UNL     1      30.941  42.718  16.198 -0.48 +0.04    -0.084 Cl ENDBRANCH  20  25ENDBRANCH   1  16TORSDOF 6TERENDMDL