MODEL        9USER    Run = 9USERUSER    Estimated Free Energy of Binding    =  -8.65 kcal/mol  [=(1)+(2)+(3)-(4)]USERUSER    (1) Final Intermolecular Energy     =  -9.55 kcal/molUSER        vdW + Hbond + desolv Energy     =  -9.41 kcal/molUSER        Electrostatic Energy            =  -0.13 kcal/molUSER        Moving Ligand-Fixed Receptor    =  -9.55 kcal/molUSER        Moving Ligand-Moving Receptor   =  +0.00 kcal/molUSER    (2) Final Total Internal Energy     =  -0.18 kcal/molUSER    (3) Torsional Free Energy           =  +0.89 kcal/molUSER    (4) Unbound System's Energy         =  -0.18 kcal/molUSERUSERREMARK SMILES Cc1c(-c2cc(-c3ccco3)c[nH]c2=O)cc(Br)c(O)c1IREMARK SMILES IDX 1 1 2 2 3 3 16 4 17 5 18 6 19 7 21 8 22 9 4 10 5 11 14 12REMARK SMILES IDX 6 13 13 14 12 15 15 16 7 18 8 19 11 20 9 21 10 22 20 23REMARK H PARENT 13 17 20 24USER                              x       y       z     vdW  Elec       q    TypeUSER                           _______ _______ _______ _____ _____    ______ ____ROOTATOM      1  C   UNL     1      37.654  44.825  16.468 -0.36 -0.01    +0.046 C  ATOM      2  C   UNL     1      38.469  46.065  16.185 -0.37 +0.01    -0.026 A  ATOM      3  C   UNL     1      39.471  46.492  17.091 -0.45 +0.00    -0.007 A  ATOM      4  C   UNL     1      40.223  47.648  16.818 -0.50 -0.01    +0.028 A  ATOM      5  C   UNL     1      40.007  48.381  15.654 -0.52 -0.02    +0.061 A  ATOM      6  Br  UNL     1      41.061  49.930  15.357 -1.20 +0.01    -0.047 Br ATOM      7  C   UNL     1      39.039  47.966  14.740 -0.41 -0.05    +0.143 A  ATOM      8  C   UNL     1      38.277  46.813  14.998 -0.39 -0.02    +0.060 A  ATOM      9  I   UNL     1      36.839  46.232  13.541 -1.37 +0.02    -0.040 I  ENDROOTBRANCH   3  10ATOM     10  C   UNL     1      39.781  45.773  18.340 -0.41 -0.00    +0.048 A  ATOM     11  C   UNL     1      38.810  45.127  19.015 -0.38 -0.00    +0.028 A  ATOM     12  C   UNL     1      41.175  45.740  18.889 -0.28 +0.01    +0.255 A  ATOM     13  C   UNL     1      39.059  44.402  20.258 -0.32 -0.00    +0.034 A  ATOM     14  N   UNL     1      41.335  45.041  20.063 -0.17 -0.04    -0.328 N  ATOM     15  C   UNL     1      40.321  44.395  20.726 -0.27 +0.00    +0.098 A  ATOM     16  O   UNL     1      42.120  46.291  18.336 -0.36 -0.01    -0.269 OA ATOM     17  H   UNL     1      42.279  45.023  20.430 +0.09 +0.04    +0.169 HD BRANCH  13  18ATOM     18  C   UNL     1      38.020  43.715  20.977 -0.24 +0.00    +0.135 A  ATOM     19  C   UNL     1      36.908  42.997  20.539 -0.37 -0.00    +0.051 A  ATOM     20  O   UNL     1      37.993  43.675  22.361 -0.10 -0.03    -0.464 OA ATOM     21  C   UNL     1      36.207  42.522  21.674 -0.40 +0.00    +0.043 A  ATOM     22  C   UNL     1      36.913  42.965  22.760 -0.27 +0.02    +0.196 A  ENDBRANCH  13  18ENDBRANCH   3  10BRANCH   7  23ATOM     23  O   UNL     1      38.856  48.706  13.599 -0.12 +0.16    -0.506 OA ATOM     24  H   UNL     1      38.412  49.536  13.850 -0.26 -0.22    +0.293 HD ENDBRANCH   7  23TORSDOF 3TERENDMDL