REMARK SMILES COc1cc(/C=C2\SC(=N)N[C@H]2NC2CCCCC2)ccc1Cl
REMARK SMILES IDX 6 1 5 2 3 3 4 4 22 5 21 6 20 7 23 8 2 9 1 10 7 11 8 12 12 13
REMARK SMILES IDX 9 14 11 15 13 17 14 19 15 20 19 21 16 22 18 23 17 24 10 25
REMARK H PARENT 11 16 13 18 10 26
ROOT
ATOM      1  C   UNL     1       1.466   0.993   0.512  1.00  0.00     0.023 C 
ENDROOT
BRANCH   1   2
ATOM      2  C   UNL     1       2.916   1.001   0.744  1.00  0.00    -0.021 A 
ATOM      3  C   UNL     1       5.071  -0.140   0.763  1.00  0.00     0.138 A 
ATOM      4  C   UNL     1       3.691  -0.148   0.522  1.00  0.00     0.056 A 
ATOM      5  C   UNL     1       5.664   1.037   1.249  1.00  0.00     0.083 A 
ATOM      6  C   UNL     1       4.895   2.180   1.482  1.00  0.00     0.025 A 
ATOM      7  C   UNL     1       3.522   2.161   1.232  1.00  0.00     0.010 A 
ATOM      8  Cl  UNL     1       7.359   1.124   1.579  1.00  0.00    -0.080 Cl
BRANCH   3   9
ATOM      9  O   UNL     1       5.898  -1.215   0.568  1.00  0.00    -0.495 OA
ATOM     10  C   UNL     1       5.344  -2.370  -0.049  1.00  0.00     0.278 C 
ENDBRANCH   3   9
ENDBRANCH   1   2
BRANCH   1  11
ATOM     11  C   UNL     1       0.837   0.816  -0.666  1.00  0.00     0.030 C 
ATOM     12  S   UNL     1       1.659   0.644  -2.205  1.00  0.00    -0.054 SA
ATOM     13  C   UNL     1      -0.692   0.850  -0.835  1.00  0.00     0.187 C 
ATOM     14  C   UNL     1       0.154   0.805  -3.065  1.00  0.00     0.159 C 
ATOM     15  N   UNL     1      -0.887   1.086  -2.247  1.00  0.00    -0.345 N 
ATOM     16  H   UNL     1      -1.783   0.831  -2.631  1.00  0.00     0.164 HD
BRANCH  13  17
ATOM     17  N   UNL     1      -1.285  -0.348  -0.247  1.00  0.00    -0.290 NA
ATOM     18  H   UNL     1      -0.898  -0.496   0.682  1.00  0.00     0.125 HD
BRANCH  17  19
ATOM     19  C   UNL     1      -2.748  -0.315  -0.165  1.00  0.00     0.055 C 
ATOM     20  C   UNL     1      -3.271   0.566   0.977  1.00  0.00     0.019 C 
ATOM     21  C   UNL     1      -3.240  -1.765   0.028  1.00  0.00     0.019 C 
ATOM     22  C   UNL     1      -4.803   0.621   0.997  1.00  0.00     0.002 C 
ATOM     23  C   UNL     1      -4.662  -1.865   0.590  1.00  0.00     0.002 C 
ATOM     24  C   UNL     1      -5.471  -0.598   0.359  1.00  0.00     0.000 C 
ENDBRANCH  17  19
ENDBRANCH  13  17
BRANCH  14  25
ATOM     25  N   UNL     1       0.090   0.644  -4.335  1.00  0.00    -0.279 NA
ATOM     26  H   UNL     1       1.042   0.439  -4.660  1.00  0.00     0.190 HD
ENDBRANCH  14  25
ENDBRANCH   1  11
TORSDOF 6
