REMARK SMILES Clc1cccc(Cl)c1C1=CSC2=NN=CN(C3=CC=CC3)N12
REMARK SMILES IDX 9 1 10 2 11 3 12 4 13 5 14 6 15 7 16 8 22 9 8 10 2 11 3 12
REMARK SMILES IDX 4 13 6 14 5 15 1 16 7 17 17 18 18 19 21 20 19 21 20 22
REMARK H PARENT
ROOT
ATOM      1  C   UNL     1      -1.149  -1.405  -0.571  1.00  0.00     0.083 C 
ATOM      2  C   UNL     1      -2.022  -2.413  -0.768  1.00  0.00     0.078 C 
ATOM      3  S   UNL     1      -1.226  -3.869  -1.314  1.00  0.00    -0.054 SA
ATOM      4  C   UNL     1       0.317  -2.997  -1.420  1.00  0.00     0.213 C 
ATOM      5  N   UNL     1       1.333  -3.501  -2.043  1.00  0.00    -0.121 NA
ATOM      6  N   UNL     1       2.458  -2.641  -2.180  1.00  0.00    -0.136 NA
ATOM      7  C   UNL     1       2.379  -1.477  -1.606  1.00  0.00     0.246 C 
ATOM      8  N   UNL     1       1.333  -0.934  -0.853  1.00  0.00    -0.238 N 
ATOM      9  N   UNL     1       0.195  -1.742  -0.821  1.00  0.00    -0.221 N 
ENDROOT
BRANCH   1  10
ATOM     10  C   UNL     1      -1.598  -0.045  -0.225  1.00  0.00     0.038 A 
ATOM     11  C   UNL     1      -1.530   1.003  -1.166  1.00  0.00     0.051 A 
ATOM     12  C   UNL     1      -1.950   2.299  -0.839  1.00  0.00     0.021 A 
ATOM     13  C   UNL     1      -2.460   2.572   0.426  1.00  0.00     0.003 A 
ATOM     14  C   UNL     1      -2.146   0.251   1.040  1.00  0.00     0.051 A 
ATOM     15  C   UNL     1      -2.565   1.548   1.362  1.00  0.00     0.021 A 
ATOM     16  Cl  UNL     1      -0.964   0.757  -2.786  1.00  0.00    -0.084 Cl
ATOM     17  Cl  UNL     1      -2.337  -0.955   2.271  1.00  0.00    -0.084 Cl
ENDBRANCH   1  10
BRANCH   8  18
ATOM     18  C   UNL     1       1.625   0.031   0.101  1.00  0.00     0.046 C 
ATOM     19  C   UNL     1       2.110   1.274  -0.067  1.00  0.00     0.024 C 
ATOM     20  C   UNL     1       1.537  -0.261   1.583  1.00  0.00     0.083 C 
ATOM     21  C   UNL     1       2.326   1.895   1.213  1.00  0.00    -0.002 C 
ATOM     22  C   UNL     1       2.008   1.031   2.186  1.00  0.00    -0.021 C 
ENDBRANCH   8  18
TORSDOF 2
