MODEL        1USER    Run = 1USERUSER    Estimated Free Energy of Binding    =  -8.24 kcal/mol  [=(1)+(2)+(3)-(4)]USERUSER    (1) Final Intermolecular Energy     =  -8.84 kcal/molUSER        vdW + Hbond + desolv Energy     =  -8.85 kcal/molUSER        Electrostatic Energy            =  +0.01 kcal/molUSER        Moving Ligand-Fixed Receptor    =  -8.84 kcal/molUSER        Moving Ligand-Moving Receptor   =  +0.00 kcal/molUSER    (2) Final Total Internal Energy     =  -1.80 kcal/molUSER    (3) Torsional Free Energy           =  +0.60 kcal/molUSER    (4) Unbound System's Energy         =  -1.80 kcal/molUSERUSERREMARK SMILES Clc1cccc(Cl)c1C1=CSC2=NN=CN(C3=CC=CC3)N12REMARK SMILES IDX 9 1 10 2 11 3 12 4 13 5 14 6 15 7 16 8 22 9 8 10 2 11 3 12REMARK SMILES IDX 4 13 6 14 5 15 1 16 7 17 17 18 18 19 21 20 19 21 20 22REMARK H PARENTUSER                              x       y       z     vdW  Elec       q    TypeUSER                           _______ _______ _______ _____ _____    ______ ____ROOTATOM      1  C   UNL     1      37.460  47.146  15.726 -0.42 -0.05    +0.083 C  ATOM      2  C   UNL     1      37.716  48.469  15.700 -0.34 -0.06    +0.078 C  ATOM      3  S   UNL     1      37.286  49.188  14.167 -0.46 +0.04    -0.054 SA ATOM      4  C   UNL     1      36.902  47.583  13.512 -0.47 -0.10    +0.213 C  ATOM      5  N   UNL     1      36.740  47.396  12.242 -0.93 +0.04    -0.121 NA ATOM      6  N   UNL     1      36.582  46.042  11.835 -0.54 +0.05    -0.136 NA ATOM      7  C   UNL     1      36.541  45.148  12.778 -0.34 -0.09    +0.246 C  ATOM      8  N   UNL     1      36.626  45.323  14.163 -0.24 +0.10    -0.238 N  ATOM      9  N   UNL     1      36.892  46.640  14.541 -0.24 +0.12    -0.221 N  ENDROOTBRANCH   1  10ATOM     10  C   UNL     1      37.850  46.302  16.869 -0.36 -0.02    +0.038 A  ATOM     11  C   UNL     1      39.195  45.930  17.072 -0.38 -0.01    +0.051 A  ATOM     12  C   UNL     1      39.568  45.123  18.154 -0.40 -0.00    +0.021 A  ATOM     13  C   UNL     1      38.611  44.682  19.063 -0.38 -0.00    +0.003 A  ATOM     14  C   UNL     1      36.904  45.867  17.820 -0.25 -0.02    +0.051 A  ATOM     15  C   UNL     1      37.282  45.060  18.901 -0.25 -0.00    +0.021 A  ATOM     16  Cl  UNL     1      40.471  46.471  16.032 -0.56 +0.01    -0.084 Cl ATOM     17  Cl  UNL     1      35.227  46.296  17.720 -0.51 +0.06    -0.084 Cl ENDBRANCH   1  10BRANCH   8  18ATOM     18  C   UNL     1      36.031  44.384  14.995 -0.35 -0.02    +0.046 C  ATOM     19  C   UNL     1      36.553  43.262  15.521 -0.37 -0.01    +0.024 C  ATOM     20  C   UNL     1      34.561  44.449  15.347 -0.14 -0.04    +0.083 C  ATOM     21  C   UNL     1      35.546  42.554  16.266 -0.49 +0.00    -0.002 C  ATOM     22  C   UNL     1      34.383  43.213  16.180 -0.42 +0.01    -0.021 C  ENDBRANCH   8  18TORSDOF 2TERENDMDL