REMARK SMILES Cc1c(-c2c(CCCO)ccc(O)c2O)ccc2ccccc12
REMARK SMILES IDX 6 1 5 2 4 3 14 4 10 5 12 6 11 7 3 8 2 9 23 10 16 11 22 12
REMARK SMILES IDX 18 13 17 14 21 15 19 16 20 17 1 18 15 19 13 21 7 23 8 24
REMARK SMILES IDX 9 25
REMARK H PARENT 15 20 13 22 9 26
ROOT
ATOM      1  C   UNL     1       2.173  -0.149   1.430  1.00  0.00     0.038 C 
ENDROOT
BRANCH   1   2
ATOM      2  C   UNL     1       1.937   1.085   0.572  1.00  0.00    -0.036 A 
ATOM      3  C   UNL     1       0.649   1.438   0.085  1.00  0.00     0.031 A 
ATOM      4  C   UNL     1       0.532   2.610  -0.691  1.00  0.00     0.165 A 
ATOM      5  C   UNL     1       3.035   1.929   0.292  1.00  0.00     0.008 A 
ATOM      6  C   UNL     1       1.642   3.405  -0.973  1.00  0.00     0.158 A 
ATOM      7  C   UNL     1       2.892   3.078  -0.484  1.00  0.00     0.050 A 
BRANCH   3   8
ATOM      8  C   UNL     1      -0.553   0.638   0.397  1.00  0.00    -0.011 A 
ATOM      9  C   UNL     1      -1.114  -0.302  -0.505  1.00  0.00    -0.035 A 
ATOM     10  C   UNL     1      -2.320  -0.990  -0.164  1.00  0.00    -0.015 A 
ATOM     11  C   UNL     1      -1.189   0.863   1.628  1.00  0.00     0.010 A 
ATOM     12  C   UNL     1      -2.960  -1.923  -1.014  1.00  0.00     0.009 A 
ATOM     13  C   UNL     1      -2.929  -0.737   1.091  1.00  0.00    -0.018 A 
ATOM     14  C   UNL     1      -2.354   0.182   1.972  1.00  0.00     0.009 A 
ATOM     15  C   UNL     1      -4.138  -2.577  -0.643  1.00  0.00     0.001 A 
ATOM     16  C   UNL     1      -4.112  -1.403   1.453  1.00  0.00     0.009 A 
ATOM     17  C   UNL     1      -4.713  -2.318   0.592  1.00  0.00     0.001 A 
ATOM     18  C   UNL     1      -0.458  -0.569  -1.843  1.00  0.00     0.045 C 
ENDBRANCH   3   8
BRANCH   4  19
ATOM     19  O   UNL     1      -0.663   3.052  -1.212  1.00  0.00    -0.504 OA
ATOM     20  H   UNL     1      -1.366   2.447  -0.912  1.00  0.00     0.293 HD
ENDBRANCH   4  19
BRANCH   6  21
ATOM     21  O   UNL     1       1.497   4.533  -1.731  1.00  0.00    -0.504 OA
ATOM     22  H   UNL     1       0.542   4.558  -1.942  1.00  0.00     0.293 HD
ENDBRANCH   6  21
ENDBRANCH   1   2
BRANCH   1  23
ATOM     23  C   UNL     1       3.301  -1.076   0.950  1.00  0.00     0.033 C 
BRANCH  23  24
ATOM     24  C   UNL     1       3.009  -1.753  -0.383  1.00  0.00     0.156 C 
BRANCH  24  25
ATOM     25  O   UNL     1       1.901  -2.630  -0.244  1.00  0.00    -0.396 OA
ATOM     26  H   UNL     1       1.759  -3.053  -1.107  1.00  0.00     0.210 HD
ENDBRANCH  24  25
ENDBRANCH  23  24
ENDBRANCH   1  23
TORSDOF 7
