MODEL        3USER    Run = 3USERUSER    Estimated Free Energy of Binding    =  -9.42 kcal/mol  [=(1)+(2)+(3)-(4)]USERUSER    (1) Final Intermolecular Energy     = -11.21 kcal/molUSER        vdW + Hbond + desolv Energy     = -10.98 kcal/molUSER        Electrostatic Energy            =  -0.22 kcal/molUSER        Moving Ligand-Fixed Receptor    = -11.21 kcal/molUSER        Moving Ligand-Moving Receptor   =  +0.00 kcal/molUSER    (2) Final Total Internal Energy     =  -1.02 kcal/molUSER    (3) Torsional Free Energy           =  +1.79 kcal/molUSER    (4) Unbound System's Energy         =  -1.02 kcal/molUSERUSERREMARK SMILES COc1cc(/C=C2\SC(=N)N[C@H]2NC2CCCCC2)ccc1ClREMARK SMILES IDX 6 1 5 2 3 3 4 4 22 5 21 6 20 7 23 8 2 9 1 10 7 11 8 12 12 13REMARK SMILES IDX 9 14 11 15 13 17 14 19 15 20 19 21 16 22 18 23 17 24 10 25REMARK H PARENT 11 16 13 18 10 26USER                              x       y       z     vdW  Elec       q    TypeUSER                           _______ _______ _______ _____ _____    ______ ____ROOTATOM      1  C   UNL     1      37.527  46.260  16.476 -0.42 -0.01    +0.023 C  ENDROOTBRANCH   1   2ATOM      2  C   UNL     1      38.843  46.621  17.019 -0.41 +0.01    -0.021 A  ATOM      3  C   UNL     1      40.822  48.046  17.023 -0.40 -0.02    +0.138 A  ATOM      4  C   UNL     1      39.559  47.718  16.514 -0.44 -0.02    +0.056 A  ATOM      5  C   UNL     1      41.369  47.245  18.039 -0.46 -0.01    +0.083 A  ATOM      6  C   UNL     1      40.665  46.145  18.538 -0.47 -0.00    +0.025 A  ATOM      7  C   UNL     1      39.404  45.833  18.026 -0.43 -0.00    +0.010 A  ATOM      8  Cl  UNL     1      42.925  47.579  18.713 -0.67 -0.01    -0.080 Cl BRANCH   3   9ATOM      9  O   UNL     1      41.582  49.100  16.590 -0.80 -0.05    -0.495 OA ATOM     10  C   UNL     1      41.059  49.902  15.538 -0.49 -0.07    +0.278 C  ENDBRANCH   3   9ENDBRANCH   1   2BRANCH   1  11ATOM     11  C   UNL     1      37.104  46.422  15.207 -0.43 -0.02    +0.030 C  ATOM     12  S   UNL     1      38.157  46.814  13.861 -0.63 +0.02    -0.054 SA ATOM     13  C   UNL     1      35.625  46.393  14.787 -0.30 -0.16    +0.187 C  ATOM     14  C   UNL     1      36.786  47.127  12.836 -0.57 -0.07    +0.159 C  ATOM     15  N   UNL     1      35.609  47.053  13.501 -0.25 +0.24    -0.345 N  ATOM     16  H   UNL     1      34.819  46.867  12.905 -0.12 -0.13    +0.164 HD BRANCH  13  17ATOM     17  N   UNL     1      35.110  45.029  14.869 -0.11 +0.17    -0.290 NA ATOM     18  H   UNL     1      35.840  44.375  14.596 +0.08 -0.05    +0.125 HD BRANCH  17  19ATOM     19  C   UNL     1      34.596  44.660  16.191 -0.34 -0.03    +0.055 C  ATOM     20  C   UNL     1      34.460  45.856  17.143 -0.41 -0.02    +0.019 C  ATOM     21  C   UNL     1      35.561  43.619  16.796 -0.41 -0.01    +0.019 C  ATOM     22  C   UNL     1      33.868  45.441  18.495 -0.52 -0.00    +0.002 C  ATOM     23  C   UNL     1      35.444  43.479  18.317 -0.39 -0.00    +0.002 C  ATOM     24  C   UNL     1      34.106  43.972  18.847 -0.44 -0.00    +0.000 C  ENDBRANCH  17  19ENDBRANCH  13  17BRANCH  14  25ATOM     25  N   UNL     1      36.928  47.376  11.587 -0.88 +0.09    -0.279 NA ATOM     26  H   UNL     1      36.536  48.310  11.420 -0.25 -0.10    +0.190 HD ENDBRANCH  14  25ENDBRANCH   1  11TORSDOF 6TERENDMDL