REMARK SMILES N[S@H]1C(NS(=O)(=O)c2ccccc2F)=Nc2ccccc21
REMARK SMILES IDX 2 1 3 2 4 3 15 4 16 5 17 6 18 7 19 8 20 9 21 10 1 13 5 16
REMARK SMILES IDX 6 17 7 18 8 19 9 20 13 21 10 22 12 23 11 24 14 25
REMARK H PARENT 2 11 4 12 1 14 1 15
ROOT
ATOM      1  S   UNL     1      -1.267   1.768   0.282  1.00  0.00    -0.114 S 
ATOM      2  C   UNL     1      -0.350   0.723   1.197  1.00  0.00     0.172 C 
ATOM      3  N   UNL     1       0.577   1.198   2.183  1.00  0.00    -0.258 N 
ATOM      4  N   UNL     1      -0.607  -0.543   0.992  1.00  0.00    -0.223 NA
ATOM      5  C   UNL     1      -1.630  -0.669   0.048  1.00  0.00     0.079 A 
ATOM      6  C   UNL     1      -2.179  -1.879  -0.420  1.00  0.00     0.029 A 
ATOM      7  C   UNL     1      -3.214  -1.854  -1.361  1.00  0.00     0.002 A 
ATOM      8  C   UNL     1      -3.705  -0.642  -1.839  1.00  0.00     0.001 A 
ATOM      9  C   UNL     1      -3.178   0.575  -1.394  1.00  0.00     0.017 A 
ATOM     10  C   UNL     1      -2.142   0.541  -0.449  1.00  0.00     0.032 A 
ATOM     11  H   UNL     1      -0.554   2.538  -0.576  1.00  0.00     0.110 HD
ATOM     12  H   UNL     1       0.730   2.203   2.172  1.00  0.00     0.182 HD
ENDROOT
BRANCH   1  13
ATOM     13  N   UNL     1      -2.337   2.465   1.364  1.00  0.00    -0.287 NA
ATOM     14  H   UNL     1      -3.273   2.586   0.973  1.00  0.00     0.131 HD
ATOM     15  H   UNL     1      -2.475   1.895   2.203  1.00  0.00     0.131 HD
ENDBRANCH   1  13
BRANCH   3  16
ATOM     16  S   UNL     1       1.982   0.317   2.385  1.00  0.00     0.266 S 
ATOM     17  O   UNL     1       1.681  -0.864   3.170  1.00  0.00    -0.201 OA
ATOM     18  O   UNL     1       2.986   1.254   2.850  1.00  0.00    -0.201 OA
BRANCH  16  19
ATOM     19  C   UNL     1       2.482  -0.200   0.775  1.00  0.00     0.123 A 
ATOM     20  C   UNL     1       2.634  -1.557   0.479  1.00  0.00     0.025 A 
ATOM     21  C   UNL     1       2.738   0.764  -0.191  1.00  0.00     0.143 A 
ATOM     22  C   UNL     1       3.043  -1.938  -0.801  1.00  0.00     0.002 A 
ATOM     23  C   UNL     1       3.146   0.386  -1.467  1.00  0.00     0.041 A 
ATOM     24  C   UNL     1       3.300  -0.968  -1.772  1.00  0.00     0.003 A 
ATOM     25  F   UNL     1       2.565   2.068   0.068  1.00  0.00    -0.205 F 
ENDBRANCH  16  19
ENDBRANCH   3  16
TORSDOF 3
