MODEL        6USER    Run = 6USERUSER    Estimated Free Energy of Binding    =  -7.83 kcal/mol  [=(1)+(2)+(3)-(4)]USERUSER    (1) Final Intermolecular Energy     = -11.71 kcal/molUSER        vdW + Hbond + desolv Energy     = -11.41 kcal/molUSER        Electrostatic Energy            =  -0.30 kcal/molUSER        Moving Ligand-Fixed Receptor    = -11.71 kcal/molUSER        Moving Ligand-Moving Receptor   =  +0.00 kcal/molUSER    (2) Final Total Internal Energy     =  -1.91 kcal/molUSER    (3) Torsional Free Energy           =  +3.88 kcal/molUSER    (4) Unbound System's Energy         =  -1.91 kcal/molUSERUSERREMARK SMILES O=CNC=C(C=C/C(Cl)=C\C=C/c1ccc(-c2nccs2)cc1O)COREMARK SMILES IDX 8 1 9 2 7 3 6 4 5 5 4 6 3 7 2 8 1 9 25 11 26 12 10 14 11 15REMARK SMILES IDX 12 16 13 17 14 18 23 19 15 20 22 21 16 22 24 23 17 25 18 26REMARK SMILES IDX 21 27 19 28 20 29REMARK H PARENT 3 10 26 13 24 24USER                              x       y       z     vdW  Elec       q    TypeUSER                           _______ _______ _______ _____ _____    ______ ____ROOTATOM      1  C   UNL     1      36.469  44.784  16.169 -0.37 -0.02    +0.041 C  ATOM      2  Cl  UNL     1      35.942  43.153  15.821 -0.59 +0.03    -0.084 Cl ENDROOTBRANCH   1   3ATOM      3  C   UNL     1      37.258  45.482  15.160 -0.42 -0.01    +0.021 C  BRANCH   3   4ATOM      4  C   UNL     1      38.565  45.794  15.237 -0.42 -0.00    +0.009 C  BRANCH   4   5ATOM      5  C   UNL     1      39.188  46.753  16.154 -0.50 +0.00    -0.006 C  BRANCH   5   6ATOM      6  C   UNL     1      38.926  48.078  16.161 -0.42 -0.04    +0.091 C  BRANCH   6   7ATOM      7  N   UNL     1      39.414  49.099  15.374 -0.24 +0.18    -0.335 N  ATOM      8  C   UNL     1      40.671  49.666  15.393 -0.39 -0.11    +0.341 C  ATOM      9  O   UNL     1      41.643  49.356  16.064 -1.01 -0.02    -0.279 OA ATOM     10  H   UNL     1      38.889  49.288  14.527 -0.32 -0.12    +0.169 HD ENDBRANCH   6   7ENDBRANCH   5   6BRANCH   5  11ATOM     11  C   UNL     1      40.245  46.241  17.116 -0.39 -0.02    +0.193 C  BRANCH  11  12ATOM     12  O   UNL     1      41.090  47.306  17.531 -0.30 +0.04    -0.392 OA ATOM     13  H   UNL     1      41.806  47.367  16.877 -0.37 -0.04    +0.211 HD ENDBRANCH  11  12ENDBRANCH   5  11ENDBRANCH   4   5ENDBRANCH   3   4ENDBRANCH   1   3BRANCH   1  14ATOM     14  C   UNL     1      36.066  45.302  17.346 -0.38 -0.01    +0.020 C  BRANCH  14  15ATOM     15  C   UNL     1      34.950  46.201  17.587 -0.48 -0.00    +0.002 C  BRANCH  15  16ATOM     16  C   UNL     1      33.655  45.850  17.659 -0.46 -0.01    +0.012 C  BRANCH  16  17ATOM     17  C   UNL     1      33.137  44.494  17.876 -0.32 -0.01    +0.016 A  ATOM     18  C   UNL     1      32.510  43.841  16.811 -0.31 -0.00    +0.012 A  ATOM     19  C   UNL     1      33.233  43.829  19.104 -0.33 -0.02    +0.123 A  ATOM     20  C   UNL     1      31.989  42.550  16.972 -0.30 -0.00    +0.012 A  ATOM     21  C   UNL     1      32.709  42.546  19.266 -0.33 -0.00    +0.058 A  ATOM     22  C   UNL     1      32.080  41.877  18.201 -0.34 -0.00    +0.014 A  BRANCH  19  23ATOM     23  O   UNL     1      33.834  44.384  20.200 -0.10 +0.08    -0.507 OA ATOM     24  H   UNL     1      33.646  45.338  20.206 -0.19 -0.18    +0.293 HD ENDBRANCH  19  23BRANCH  22  25ATOM     25  C   UNL     1      31.547  40.518  18.431 -0.30 -0.01    +0.123 A  ATOM     26  N   UNL     1      32.050  39.668  19.311 -0.65 -0.05    -0.245 NA ATOM     27  S   UNL     1      30.201  39.894  17.543 -0.45 -0.00    -0.122 S  ATOM     28  C   UNL     1      31.352  38.479  19.294 -0.38 +0.02    +0.123 A  ATOM     29  C   UNL     1      30.311  38.417  18.397 -0.35 +0.03    +0.087 A  ENDBRANCH  22  25ENDBRANCH  16  17ENDBRANCH  15  16ENDBRANCH  14  15ENDBRANCH   1  14TORSDOF 13TERENDMDL