MODEL        10USER    Run = 10USERUSER    Estimated Free Energy of Binding    =  -7.77 kcal/mol  [=(1)+(2)+(3)-(4)]USERUSER    (1) Final Intermolecular Energy     =  -8.66 kcal/molUSER        vdW + Hbond + desolv Energy     =  -8.60 kcal/molUSER        Electrostatic Energy            =  -0.06 kcal/molUSER        Moving Ligand-Fixed Receptor    =  -8.66 kcal/molUSER        Moving Ligand-Moving Receptor   =  +0.00 kcal/molUSER    (2) Final Total Internal Energy     =  -0.42 kcal/molUSER    (3) Torsional Free Energy           =  +0.89 kcal/molUSER    (4) Unbound System's Energy         =  -0.42 kcal/molUSERUSERREMARK SMILES CNC(=O)Nc1ccc(Nc2nc3ccc(F)cc3s2)cc1REMARK SMILES IDX 6 1 7 2 8 3 9 4 21 5 22 6 5 7 2 8 3 9 1 10 4 12 10 14 11 16REMARK SMILES IDX 12 17 20 18 13 19 19 20 14 21 18 22 15 23 16 24 17 25REMARK H PARENT 2 11 5 13 10 15USER                              x       y       z     vdW  Elec       q    TypeUSER                           _______ _______ _______ _____ _____    ______ ____ROOTATOM      1  C   UNL     1      38.865  47.895  15.397 -0.47 -0.02    +0.043 A  ATOM      2  C   UNL     1      37.498  47.915  15.114 -0.47 -0.02    +0.028 A  ATOM      3  C   UNL     1      36.635  46.989  15.712 -0.38 -0.02    +0.028 A  ATOM      4  C   UNL     1      37.111  46.006  16.593 -0.34 -0.02    +0.040 A  ATOM      5  C   UNL     1      38.482  45.994  16.860 -0.38 -0.01    +0.028 A  ATOM      6  C   UNL     1      39.353  46.920  16.263 -0.44 -0.01    +0.028 A  ENDROOTBRANCH   1   7ATOM      7  N   UNL     1      39.674  48.859  14.764 -0.29 +0.13    -0.308 N  ATOM      8  N   UNL     1      41.418  50.223  14.270 -0.36 +0.10    -0.341 N  ATOM      9  C   UNL     1      40.885  49.349  15.203 -0.43 -0.08    +0.318 C  ATOM     10  C   UNL     1      42.695  50.838  14.545 -0.46 -0.02    +0.144 C  ATOM     11  H   UNL     1      41.272  49.936  13.313 +0.11 -0.05    +0.165 HD ATOM     12  O   UNL     1      41.442  49.098  16.263 -1.05 -0.00    -0.249 OA ATOM     13  H   UNL     1      39.245  49.399  14.028 -0.23 -0.11    +0.171 HD ENDBRANCH   1   7BRANCH   4  14ATOM     14  N   UNL     1      36.171  45.146  17.188 -0.11 +0.14    -0.332 N  ATOM     15  H   UNL     1      35.429  44.870  16.553 +0.12 -0.09    +0.169 HD BRANCH  14  16ATOM     16  C   UNL     1      36.205  44.412  18.327 -0.21 -0.05    +0.188 A  ATOM     17  N   UNL     1      36.999  44.767  19.314 -0.21 +0.03    -0.220 NA ATOM     18  S   UNL     1      35.378  42.922  18.590 -0.48 +0.02    -0.097 S  ATOM     19  C   UNL     1      36.912  43.875  20.368 -0.35 -0.00    +0.084 A  ATOM     20  C   UNL     1      36.060  42.792  20.159 -0.41 -0.00    +0.059 A  ATOM     21  C   UNL     1      37.600  43.977  21.596 -0.36 +0.00    +0.033 A  ATOM     22  C   UNL     1      35.865  41.801  21.134 -0.44 +0.00    +0.060 A  ATOM     23  C   UNL     1      37.409  43.000  22.578 -0.37 +0.00    +0.041 A  ATOM     24  C   UNL     1      36.552  41.935  22.338 -0.44 +0.01    +0.124 A  ATOM     25  F   UNL     1      36.382  41.008  23.291 -0.16 +0.01    -0.207 F  ENDBRANCH  14  16ENDBRANCH   4  14TORSDOF 3TERENDMDL