MODEL        8USER    Run = 8USERUSER    Estimated Free Energy of Binding    =  -8.34 kcal/mol  [=(1)+(2)+(3)-(4)]USERUSER    (1) Final Intermolecular Energy     =  -9.53 kcal/molUSER        vdW + Hbond + desolv Energy     =  -9.42 kcal/molUSER        Electrostatic Energy            =  -0.11 kcal/molUSER        Moving Ligand-Fixed Receptor    =  -9.53 kcal/molUSER        Moving Ligand-Moving Receptor   =  +0.00 kcal/molUSER    (2) Final Total Internal Energy     =  -0.13 kcal/molUSER    (3) Torsional Free Energy           =  +1.19 kcal/molUSER    (4) Unbound System's Energy         =  -0.13 kcal/molUSERUSERREMARK SMILES NC(=O)Nc1ccc(Nc2nc3ccc(F)cc3s2)cc1C(F)(F)FREMARK SMILES IDX 5 1 6 2 7 3 8 4 20 5 21 6 4 7 1 8 2 9 3 12 22 14 23 15 24 16REMARK SMILES IDX 25 17 9 18 10 20 11 21 19 22 12 23 18 24 13 25 17 26 14 27REMARK SMILES IDX 15 28 16 29REMARK H PARENT 1 10 1 11 4 13 9 19USER                              x       y       z     vdW  Elec       q    TypeUSER                           _______ _______ _______ _____ _____    ______ ____ROOTATOM      1  C   UNL     1      38.903  47.962  16.023 -0.42 -0.03    +0.055 A  ATOM      2  C   UNL     1      39.540  47.369  17.123 -0.41 -0.01    +0.029 A  ATOM      3  C   UNL     1      39.022  46.221  17.733 -0.40 -0.01    +0.028 A  ATOM      4  C   UNL     1      37.857  45.624  17.261 -0.35 -0.01    +0.041 A  ATOM      5  C   UNL     1      37.255  46.193  16.128 -0.35 -0.02    +0.041 A  ATOM      6  C   UNL     1      37.772  47.340  15.476 -0.38 -0.05    +0.081 A  ENDROOTBRANCH   1   7ATOM      7  N   UNL     1      39.497  49.148  15.540 -0.28 +0.16    -0.308 N  ATOM      8  N   UNL     1      41.051  50.780  15.331 -0.31 +0.14    -0.351 N  ATOM      9  C   UNL     1      40.743  49.585  15.906 -0.38 -0.08    +0.316 C  ATOM     10  H   UNL     1      41.926  51.151  15.684 -0.37 -0.04    +0.161 HD ATOM     11  H   UNL     1      40.304  51.462  15.332 -0.43 -0.11    +0.161 HD ATOM     12  O   UNL     1      41.542  49.010  16.629 -1.03 -0.02    -0.249 OA ATOM     13  H   UNL     1      39.279  49.411  14.588 -0.24 -0.12    +0.171 HD ENDBRANCH   1   7BRANCH   6  14ATOM     14  C   UNL     1      37.096  47.741  14.184 -0.25 -0.25    +0.418 C  ATOM     15  F   UNL     1      36.887  49.079  14.028 -0.21 +0.12    -0.166 F  ATOM     16  F   UNL     1      35.906  47.117  13.973 -0.15 +0.12    -0.166 F  ATOM     17  F   UNL     1      37.861  47.397  13.098 -0.19 +0.04    -0.166 F  ENDBRANCH   6  14BRANCH   4  18ATOM     18  N   UNL     1      37.283  44.458  17.798 -0.13 +0.08    -0.332 N  ATOM     19  H   UNL     1      36.578  44.054  17.190 +0.11 -0.05    +0.169 HD BRANCH  18  20ATOM     20  C   UNL     1      37.219  44.012  19.075 -0.20 -0.02    +0.188 A  ATOM     21  N   UNL     1      36.504  42.951  19.379 -0.17 +0.02    -0.220 NA ATOM     22  S   UNL     1      38.131  44.651  20.394 -0.45 +0.00    -0.097 S  ATOM     23  C   UNL     1      36.617  42.644  20.722 -0.39 -0.00    +0.084 A  ATOM     24  C   UNL     1      37.469  43.472  21.452 -0.35 +0.00    +0.059 A  ATOM     25  C   UNL     1      35.960  41.586  21.387 -0.45 +0.00    +0.033 A  ATOM     26  C   UNL     1      37.692  43.285  22.825 -0.33 +0.00    +0.060 A  ATOM     27  C   UNL     1      36.172  41.391  22.755 -0.44 +0.00    +0.041 A  ATOM     28  C   UNL     1      37.026  42.234  23.450 -0.36 +0.01    +0.124 A  ATOM     29  F   UNL     1      37.217  42.031  24.760 -0.10 +0.00    -0.207 F  ENDBRANCH  18  20ENDBRANCH   4  18TORSDOF 4TERENDMDL