REMARK SMILES CNC(=O)Nc1ccc(Nc2nc3ccc(F)cc3s2)cc1
REMARK SMILES IDX 6 1 7 2 8 3 9 4 21 5 22 6 5 7 2 8 3 9 1 10 4 12 10 14 11 16
REMARK SMILES IDX 12 17 20 18 13 19 19 20 14 21 18 22 15 23 16 24 17 25
REMARK H PARENT 2 11 5 13 10 15
ROOT
ATOM      1  C   UNL     1       2.539   1.045  -0.616  1.00  0.00     0.043 A 
ATOM      2  C   UNL     1       2.587   1.410   0.731  1.00  0.00     0.028 A 
ATOM      3  C   UNL     1       1.468   1.238   1.554  1.00  0.00     0.028 A 
ATOM      4  C   UNL     1       0.264   0.716   1.056  1.00  0.00     0.040 A 
ATOM      5  C   UNL     1       0.229   0.363  -0.295  1.00  0.00     0.028 A 
ATOM      6  C   UNL     1       1.348   0.534  -1.126  1.00  0.00     0.028 A 
ENDROOT
BRANCH   1   7
ATOM      7  N   UNL     1       3.703   1.240  -1.385  1.00  0.00    -0.308 N 
ATOM      8  N   UNL     1       5.175   1.230  -3.110  1.00  0.00    -0.341 N 
ATOM      9  C   UNL     1       3.956   0.759  -2.651  1.00  0.00     0.318 C 
ATOM     10  C   UNL     1       5.617   0.842  -4.429  1.00  0.00     0.144 C 
ATOM     11  H   UNL     1       5.365   2.188  -2.854  1.00  0.00     0.165 HD
ATOM     12  O   UNL     1       3.251   0.006  -3.309  1.00  0.00    -0.249 OA
ATOM     13  H   UNL     1       4.515   1.588  -0.898  1.00  0.00     0.171 HD
ENDBRANCH   1   7
BRANCH   4  14
ATOM     14  N   UNL     1      -0.796   0.531   1.961  1.00  0.00    -0.332 N 
ATOM     15  H   UNL     1      -0.807   1.220   2.705  1.00  0.00     0.169 HD
BRANCH  14  16
ATOM     16  C   UNL     1      -1.936  -0.198   1.886  1.00  0.00     0.188 A 
ATOM     17  N   UNL     1      -2.970   0.118   2.636  1.00  0.00    -0.220 NA
ATOM     18  S   UNL     1      -2.151  -1.639   0.964  1.00  0.00    -0.097 S 
ATOM     19  C   UNL     1      -4.018  -0.762   2.436  1.00  0.00     0.084 A 
ATOM     20  C   UNL     1      -3.759  -1.799   1.541  1.00  0.00     0.059 A 
ATOM     21  C   UNL     1      -5.285  -0.692   3.053  1.00  0.00     0.033 A 
ATOM     22  C   UNL     1      -4.722  -2.773   1.233  1.00  0.00     0.060 A 
ATOM     23  C   UNL     1      -6.255  -1.652   2.749  1.00  0.00     0.041 A 
ATOM     24  C   UNL     1      -5.965  -2.670   1.852  1.00  0.00     0.124 A 
ATOM     25  F   UNL     1      -6.907  -3.582   1.573  1.00  0.00    -0.207 F 
ENDBRANCH  14  16
ENDBRANCH   4  14
TORSDOF 3
