REMARK SMILES NC(=O)Nc1ccc(Nc2nc3ccc(F)cc3s2)cc1Cl
REMARK SMILES IDX 5 1 6 2 7 3 8 4 20 5 21 6 22 7 4 8 1 9 2 10 3 13 9 15 10 17
REMARK SMILES IDX 11 18 19 19 12 20 18 21 13 22 17 23 14 24 15 25 16 26
REMARK H PARENT 1 11 1 12 4 14 9 16
ROOT
ATOM      1  C   UNL     1       3.366  -0.056  -0.455  1.00  0.00     0.061 A 
ATOM      2  C   UNL     1       3.135   0.537   0.784  1.00  0.00     0.030 A 
ATOM      3  C   UNL     1       1.832   0.868   1.181  1.00  0.00     0.028 A 
ATOM      4  C   UNL     1       0.724   0.619   0.357  1.00  0.00     0.042 A 
ATOM      5  C   UNL     1       0.959   0.014  -0.879  1.00  0.00     0.048 A 
ATOM      6  C   UNL     1       2.260  -0.317  -1.280  1.00  0.00     0.066 A 
ATOM      7  Cl  UNL     1       2.466  -1.056  -2.835  1.00  0.00    -0.082 Cl
ENDROOT
BRANCH   1   8
ATOM      8  N   UNL     1       4.654  -0.418  -0.910  1.00  0.00    -0.307 N 
ATOM      9  N   UNL     1       6.894  -0.704  -1.022  1.00  0.00    -0.351 N 
ATOM     10  C   UNL     1       5.860  -0.149  -0.326  1.00  0.00     0.316 C 
ATOM     11  H   UNL     1       6.747  -1.635  -1.384  1.00  0.00     0.161 HD
ATOM     12  H   UNL     1       7.779  -0.591  -0.542  1.00  0.00     0.161 HD
ATOM     13  O   UNL     1       6.087   0.503   0.681  1.00  0.00    -0.249 OA
ATOM     14  H   UNL     1       4.695  -0.809  -1.842  1.00  0.00     0.171 HD
ENDBRANCH   1   8
BRANCH   4  15
ATOM     15  N   UNL     1      -0.551   0.944   0.853  1.00  0.00    -0.331 N 
ATOM     16  H   UNL     1      -0.560   1.812   1.380  1.00  0.00     0.169 HD
BRANCH  15  17
ATOM     17  C   UNL     1      -1.783   0.510   0.494  1.00  0.00     0.188 A 
ATOM     18  N   UNL     1      -2.843   1.260   0.702  1.00  0.00    -0.220 NA
ATOM     19  S   UNL     1      -2.140  -1.059  -0.128  1.00  0.00    -0.097 S 
ATOM     20  C   UNL     1      -3.997   0.611   0.306  1.00  0.00     0.084 A 
ATOM     21  C   UNL     1      -3.814  -0.681  -0.185  1.00  0.00     0.059 A 
ATOM     22  C   UNL     1      -5.305   1.140   0.363  1.00  0.00     0.033 A 
ATOM     23  C   UNL     1      -4.888  -1.470  -0.625  1.00  0.00     0.060 A 
ATOM     24  C   UNL     1      -6.384   0.365  -0.073  1.00  0.00     0.041 A 
ATOM     25  C   UNL     1      -6.165  -0.917  -0.556  1.00  0.00     0.124 A 
ATOM     26  F   UNL     1      -7.211  -1.645  -0.969  1.00  0.00    -0.207 F 
ENDBRANCH  15  17
ENDBRANCH   4  15
TORSDOF 3
