REMARK SMILES NC(=O)Nc1ccc(Nc2nc3ccc(F)cc3s2)cc1C(F)(F)F
REMARK SMILES IDX 5 1 6 2 7 3 8 4 20 5 21 6 4 7 1 8 2 9 3 12 22 14 23 15 24 16
REMARK SMILES IDX 25 17 9 18 10 20 11 21 19 22 12 23 18 24 13 25 17 26 14 27
REMARK SMILES IDX 15 28 16 29
REMARK H PARENT 1 10 1 11 4 13 9 19
ROOT
ATOM      1  C   UNL     1      -3.004   0.321  -0.040  1.00  0.00     0.055 A 
ATOM      2  C   UNL     1      -1.937   1.149  -0.420  1.00  0.00     0.029 A 
ATOM      3  C   UNL     1      -0.611   0.805  -0.138  1.00  0.00     0.028 A 
ATOM      4  C   UNL     1      -0.305  -0.380   0.526  1.00  0.00     0.041 A 
ATOM      5  C   UNL     1      -1.374  -1.227   0.856  1.00  0.00     0.041 A 
ATOM      6  C   UNL     1      -2.724  -0.915   0.560  1.00  0.00     0.081 A 
ENDROOT
BRANCH   1   7
ATOM      7  N   UNL     1      -4.294   0.814  -0.333  1.00  0.00    -0.308 N 
ATOM      8  N   UNL     1      -6.495   1.241  -0.026  1.00  0.00    -0.351 N 
ATOM      9  C   UNL     1      -5.359   0.732   0.525  1.00  0.00     0.316 C 
ATOM     10  H   UNL     1      -7.302   1.084   0.567  1.00  0.00     0.161 HD
ATOM     11  H   UNL     1      -6.658   0.982  -0.990  1.00  0.00     0.161 HD
ATOM     12  O   UNL     1      -5.353   0.297   1.666  1.00  0.00    -0.249 OA
ATOM     13  H   UNL     1      -4.343   1.648  -0.903  1.00  0.00     0.171 HD
ENDBRANCH   1   7
BRANCH   6  14
ATOM     14  C   UNL     1      -3.743  -1.996   0.845  1.00  0.00     0.418 C 
ATOM     15  F   UNL     1      -4.881  -1.933   0.098  1.00  0.00    -0.166 F 
ATOM     16  F   UNL     1      -4.117  -2.063   2.151  1.00  0.00    -0.166 F 
ATOM     17  F   UNL     1      -3.234  -3.240   0.569  1.00  0.00    -0.166 F 
ENDBRANCH   6  14
BRANCH   4  18
ATOM     18  N   UNL     1       0.998  -0.813   0.826  1.00  0.00    -0.332 N 
ATOM     19  H   UNL     1       1.061  -1.262   1.734  1.00  0.00     0.169 HD
BRANCH  18  20
ATOM     20  C   UNL     1       2.196  -0.421   0.330  1.00  0.00     0.188 A 
ATOM     21  N   UNL     1       3.286  -0.514   1.060  1.00  0.00    -0.220 NA
ATOM     22  S   UNL     1       2.474   0.096  -1.293  1.00  0.00    -0.097 S 
ATOM     23  C   UNL     1       4.398  -0.108   0.346  1.00  0.00     0.084 A 
ATOM     24  C   UNL     1       4.152   0.271  -0.973  1.00  0.00     0.059 A 
ATOM     25  C   UNL     1       5.721  -0.054   0.836  1.00  0.00     0.033 A 
ATOM     26  C   UNL     1       5.179   0.704  -1.827  1.00  0.00     0.060 A 
ATOM     27  C   UNL     1       6.752   0.377  -0.004  1.00  0.00     0.041 A 
ATOM     28  C   UNL     1       6.472   0.747  -1.311  1.00  0.00     0.124 A 
ATOM     29  F   UNL     1       7.473   1.157  -2.101  1.00  0.00    -0.207 F 
ENDBRANCH  18  20
ENDBRANCH   4  18
TORSDOF 4
