MODEL        6USER    Run = 6USERUSER    Estimated Free Energy of Binding    =  -8.14 kcal/mol  [=(1)+(2)+(3)-(4)]USERUSER    (1) Final Intermolecular Energy     =  -9.04 kcal/molUSER        vdW + Hbond + desolv Energy     =  -8.91 kcal/molUSER        Electrostatic Energy            =  -0.13 kcal/molUSER        Moving Ligand-Fixed Receptor    =  -9.04 kcal/molUSER        Moving Ligand-Moving Receptor   =  +0.00 kcal/molUSER    (2) Final Total Internal Energy     =  -0.47 kcal/molUSER    (3) Torsional Free Energy           =  +0.89 kcal/molUSER    (4) Unbound System's Energy         =  -0.47 kcal/molUSERUSERREMARK SMILES NC(=O)Nc1ccc(Nc2nc3ccc(F)cc3s2)cc1ClREMARK SMILES IDX 5 1 6 2 7 3 8 4 20 5 21 6 22 7 4 8 1 9 2 10 3 13 9 15 10 17REMARK SMILES IDX 11 18 19 19 12 20 18 21 13 22 17 23 14 24 15 25 16 26REMARK H PARENT 1 11 1 12 4 14 9 16USER                              x       y       z     vdW  Elec       q    TypeUSER                           _______ _______ _______ _____ _____    ______ ____ROOTATOM      1  C   UNL     1      38.760  47.793  15.856 -0.43 -0.03    +0.061 A  ATOM      2  C   UNL     1      39.161  46.890  16.838 -0.43 -0.01    +0.030 A  ATOM      3  C   UNL     1      38.532  45.642  16.955 -0.37 -0.01    +0.028 A  ATOM      4  C   UNL     1      37.487  45.260  16.100 -0.32 -0.02    +0.042 A  ATOM      5  C   UNL     1      37.096  46.164  15.111 -0.35 -0.02    +0.048 A  ATOM      6  C   UNL     1      37.721  47.412  14.992 -0.41 -0.04    +0.066 A  ATOM      7  Cl  UNL     1      37.167  48.480  13.743 -0.76 +0.04    -0.082 Cl ENDROOTBRANCH   1   8ATOM      8  N   UNL     1      39.357  49.062  15.684 -0.29 +0.16    -0.307 N  ATOM      9  N   UNL     1      40.859  50.752  15.695 -0.31 +0.15    -0.351 N  ATOM     10  C   UNL     1      40.600  49.469  16.081 -0.32 -0.09    +0.316 C  ATOM     11  H   UNL     1      40.555  51.015  14.769 -0.29 -0.11    +0.161 HD ATOM     12  H   UNL     1      41.813  51.025  15.901 -0.37 -0.04    +0.161 HD ATOM     13  O   UNL     1      41.437  48.844  16.713 -1.02 -0.00    -0.249 OA ATOM     14  H   UNL     1      38.745  49.791  15.342 -0.37 -0.15    +0.171 HD ENDBRANCH   1   8BRANCH   4  15ATOM     15  N   UNL     1      36.943  43.973  16.262 -0.15 +0.10    -0.331 N  ATOM     16  H   UNL     1      37.643  43.275  16.493 +0.10 -0.04    +0.169 HD BRANCH  15  17ATOM     17  C   UNL     1      35.670  43.567  16.487 -0.26 -0.07    +0.188 A  ATOM     18  N   UNL     1      35.429  42.487  17.197 -0.29 +0.08    -0.220 NA ATOM     19  S   UNL     1      34.262  44.288  15.798 -0.39 +0.05    -0.097 S  ATOM     20  C   UNL     1      34.073  42.229  17.265 -0.35 -0.03    +0.084 A  ATOM     21  C   UNL     1      33.263  43.117  16.558 -0.30 -0.03    +0.059 A  ATOM     22  C   UNL     1      33.467  41.166  17.970 -0.33 -0.01    +0.033 A  ATOM     23  C   UNL     1      31.866  42.987  16.527 -0.28 -0.03    +0.060 A  ATOM     24  C   UNL     1      32.076  41.026  17.948 -0.37 -0.01    +0.041 A  ATOM     25  C   UNL     1      31.301  41.928  17.234 -0.23 -0.04    +0.124 A  ATOM     26  F   UNL     1      29.969  41.778  17.225 -0.03 +0.04    -0.207 F  ENDBRANCH  15  17ENDBRANCH   4  15TORSDOF 3TERENDMDL