
     RDKit          3D

 43 44  0  0  0  0  0  0  0  0999 V2000
    6.2877   -0.1295    1.4354 C   0  0  0  0  0  0  0  0  0  0  0  0
    5.7014   -0.6049    0.1180 C   0  0  0  0  0  0  0  0  0  0  0  0
    4.4663   -1.2859    0.3180 O   0  0  0  0  0  0  0  0  0  0  0  0
    3.3487   -0.4140    0.4293 C   0  0  0  0  0  0  0  0  0  0  0  0
    2.0580   -1.1659    0.7997 C   0  0  0  0  0  0  0  0  0  0  0  0
    2.0902   -2.2491    1.3883 O   0  0  0  0  0  0  0  0  0  0  0  0
    0.8553   -0.5759    0.4720 N   0  0  0  0  0  0  0  0  0  0  0  0
    0.6229    0.7458   -0.1363 C   0  0  0  0  0  0  0  0  0  0  0  0
    1.2102    1.8563    0.6412 C   0  0  0  0  0  0  0  0  0  0  0  0
    1.7100    2.7230    1.2316 N   0  0  0  0  0  0  0  0  0  0  0  0
   -0.8817    0.8448   -0.1792 C   0  0  0  0  0  0  0  0  0  0  0  0
   -1.6816    1.9033   -0.5919 C   0  0  0  0  0  0  0  0  0  0  0  0
   -3.0742    1.7577   -0.5316 C   0  0  0  0  0  0  0  0  0  0  0  0
   -3.9667    2.7333   -0.9062 O   0  0  0  0  0  0  0  0  0  0  0  0
   -3.4473    4.0087   -1.2533 C   0  0  0  0  0  0  0  0  0  0  0  0
   -3.6474    0.5419   -0.0729 C   0  0  0  0  0  0  0  0  0  0  0  0
   -5.0209    0.4981   -0.0598 O   0  0  0  0  0  0  0  0  0  0  0  0
   -5.6397   -0.7146    0.3444 C   0  0  0  0  0  0  0  0  0  0  0  0
   -2.8239   -0.5164    0.3306 C   0  0  0  0  0  0  0  0  0  0  0  0
   -1.4475   -0.3491    0.2745 C   0  0  0  0  0  0  0  0  0  0  0  0
   -0.3717   -1.3411    0.6048 C   0  0  0  0  0  0  0  0  0  0  0  0
   -0.3835   -2.3169   -0.4273 O   0  0  0  0  0  0  0  0  0  0  0  0
   -0.6037   -3.6273    0.0750 C   0  0  0  0  0  0  0  0  0  0  0  0
    7.2841    0.2954    1.2826 H   0  0  0  0  0  0  0  0  0  0  0  0
    6.3621   -0.9595    2.1455 H   0  0  0  0  0  0  0  0  0  0  0  0
    5.6577    0.6343    1.9004 H   0  0  0  0  0  0  0  0  0  0  0  0
    6.3916   -1.3231   -0.3366 H   0  0  0  0  0  0  0  0  0  0  0  0
    5.5796    0.2247   -0.5877 H   0  0  0  0  0  0  0  0  0  0  0  0
    3.5278    0.3242    1.2164 H   0  0  0  0  0  0  0  0  0  0  0  0
    3.2155    0.0884   -0.5333 H   0  0  0  0  0  0  0  0  0  0  0  0
    1.0212    0.7201   -1.1567 H   0  0  0  0  0  0  0  0  0  0  0  0
   -1.2180    2.8164   -0.9475 H   0  0  0  0  0  0  0  0  0  0  0  0
   -2.8786    4.4448   -0.4253 H   0  0  0  0  0  0  0  0  0  0  0  0
   -2.8417    3.9517   -2.1635 H   0  0  0  0  0  0  0  0  0  0  0  0
   -4.2943    4.6702   -1.4592 H   0  0  0  0  0  0  0  0  0  0  0  0
   -5.4013   -0.9508    1.3867 H   0  0  0  0  0  0  0  0  0  0  0  0
   -6.7230   -0.5769    0.2749 H   0  0  0  0  0  0  0  0  0  0  0  0
   -5.3663   -1.5396   -0.3217 H   0  0  0  0  0  0  0  0  0  0  0  0
   -3.2239   -1.4633    0.6731 H   0  0  0  0  0  0  0  0  0  0  0  0
   -0.4641   -1.7487    1.6190 H   0  0  0  0  0  0  0  0  0  0  0  0
   -1.5730   -3.6852    0.5798 H   0  0  0  0  0  0  0  0  0  0  0  0
    0.1948   -3.9242    0.7601 H   0  0  0  0  0  0  0  0  0  0  0  0
   -0.6109   -4.3212   -0.7699 H   0  0  0  0  0  0  0  0  0  0  0  0
  1  2  1  0
  2  3  1  0
  3  4  1  0
  4  5  1  0
  5  6  2  0
  5  7  1  0
  7  8  1  0
  8  9  1  0
  9 10  3  0
  8 11  1  0
 11 12  2  0
 12 13  1  0
 13 14  1  0
 14 15  1  0
 13 16  2  0
 16 17  1  0
 17 18  1  0
 16 19  1  0
 19 20  2  0
 20 21  1  0
 21 22  1  0
 22 23  1  0
 21  7  1  0
 20 11  1  0
  1 24  1  0
  1 25  1  0
  1 26  1  0
  2 27  1  0
  2 28  1  0
  4 29  1  0
  4 30  1  0
  8 31  1  0
 12 32  1  0
 15 33  1  0
 15 34  1  0
 15 35  1  0
 18 36  1  0
 18 37  1  0
 18 38  1  0
 19 39  1  0
 21 40  1  0
 23 41  1  0
 23 42  1  0
 23 43  1  0
M  END
$$$$
