
     RDKit          3D

 57 60  0  0  0  0  0  0  0  0999 V2000
    9.1069    3.4587    2.9604 N   0  0  0  0  0  0  0  0  0  0  0  0
    8.4937    2.7167    2.3135 C   0  0  0  0  0  0  0  0  0  0  0  0
    7.7289    1.7996    1.5211 C   0  0  0  0  0  0  0  0  0  0  0  0
    6.7970    0.9505    2.1324 C   0  0  0  0  0  0  0  0  0  0  0  0
    6.0474    0.0553    1.3634 C   0  0  0  0  0  0  0  0  0  0  0  0
    6.2331   -0.0080   -0.0250 C   0  0  0  0  0  0  0  0  0  0  0  0
    5.4833   -0.9587   -0.8414 C   0  0  0  0  0  0  0  0  0  0  0  0
    4.1551   -0.9755   -1.0703 C   0  0  0  0  0  0  0  0  0  0  0  0
    3.2121   -0.0715   -0.6170 N   0  0  0  0  0  0  0  0  0  0  0  0
    1.8324   -0.0163   -0.8694 C   0  0  0  0  0  0  0  0  0  0  0  0
    0.9985   -1.1324   -0.7718 C   0  0  0  0  0  0  0  0  0  0  0  0
   -0.3679   -1.0504   -1.0776 C   0  0  0  0  0  0  0  0  0  0  0  0
   -0.9214    0.1557   -1.4989 C   0  0  0  0  0  0  0  0  0  0  0  0
   -2.2232    0.3811   -1.8415 O   0  0  0  0  0  0  0  0  0  0  0  0
   -3.1217   -0.7252   -1.9103 C   0  0  0  0  0  0  0  0  0  0  0  0
   -3.8238   -0.9847   -0.5743 C   0  0  0  0  0  0  0  0  0  0  0  0
   -4.5103    0.2827   -0.0435 C   0  0  0  0  0  0  0  0  0  0  0  0
   -5.2500    0.0548    1.2096 N   0  0  0  0  0  0  0  0  0  0  0  0
   -5.6759    1.3352    1.8167 C   0  0  0  0  0  0  0  0  0  0  0  0
   -7.1474    1.7164    1.5459 C   0  0  0  0  0  0  0  0  0  0  0  0
   -8.1272    0.7139    1.9972 N   0  0  0  0  0  0  0  0  0  0  0  0
   -7.5339   -0.6339    2.0427 C   0  0  0  0  0  0  0  0  0  0  0  0
   -6.4085   -0.8474    1.0072 C   0  0  0  0  0  0  0  0  0  0  0  0
   -0.0996    1.2794   -1.5871 C   0  0  0  0  0  0  0  0  0  0  0  0
    1.2616    1.1962   -1.2771 C   0  0  0  0  0  0  0  0  0  0  0  0
    3.9222   -2.1240   -2.0106 C   0  0  0  0  0  0  0  0  0  0  0  0
    2.8653   -2.5203   -2.4743 O   0  0  0  0  0  0  0  0  0  0  0  0
    5.1271   -2.6800   -2.2783 N   0  0  0  0  0  0  0  0  0  0  0  0
    6.1078   -2.0646   -1.5933 C   0  0  0  0  0  0  0  0  0  0  0  0
    7.2863   -2.3700   -1.5736 O   0  0  0  0  0  0  0  0  0  0  0  0
    7.1637    0.8518   -0.6210 C   0  0  0  0  0  0  0  0  0  0  0  0
    7.3359    0.8385   -1.9514 F   0  0  0  0  0  0  0  0  0  0  0  0
    7.9064    1.7532    0.1365 C   0  0  0  0  0  0  0  0  0  0  0  0
    6.6536    0.9773    3.2130 H   0  0  0  0  0  0  0  0  0  0  0  0
    5.3333   -0.6005    1.8604 H   0  0  0  0  0  0  0  0  0  0  0  0
    3.6019    0.8189   -0.3254 H   0  0  0  0  0  0  0  0  0  0  0  0
    1.4007   -2.0895   -0.4483 H   0  0  0  0  0  0  0  0  0  0  0  0
   -0.9583   -1.9540   -0.9787 H   0  0  0  0  0  0  0  0  0  0  0  0
   -3.8822   -0.4523   -2.6528 H   0  0  0  0  0  0  0  0  0  0  0  0
   -2.6428   -1.6287   -2.3045 H   0  0  0  0  0  0  0  0  0  0  0  0
   -4.5503   -1.7930   -0.7250 H   0  0  0  0  0  0  0  0  0  0  0  0
   -3.0974   -1.3314    0.1717 H   0  0  0  0  0  0  0  0  0  0  0  0
   -5.1739    0.7034   -0.8105 H   0  0  0  0  0  0  0  0  0  0  0  0
   -3.7247    1.0276    0.1434 H   0  0  0  0  0  0  0  0  0  0  0  0
   -5.0238    2.1651    1.5137 H   0  0  0  0  0  0  0  0  0  0  0  0
   -5.5384    1.2424    2.9023 H   0  0  0  0  0  0  0  0  0  0  0  0
   -7.3717    2.6731    2.0328 H   0  0  0  0  0  0  0  0  0  0  0  0
   -7.2877    1.8771    0.4691 H   0  0  0  0  0  0  0  0  0  0  0  0
   -8.4473    0.9504    2.9343 H   0  0  0  0  0  0  0  0  0  0  0  0
   -8.3313   -1.3671    1.8742 H   0  0  0  0  0  0  0  0  0  0  0  0
   -7.1382   -0.8184    3.0493 H   0  0  0  0  0  0  0  0  0  0  0  0
   -6.0633   -1.8863    1.0708 H   0  0  0  0  0  0  0  0  0  0  0  0
   -6.8426   -0.7089    0.0069 H   0  0  0  0  0  0  0  0  0  0  0  0
   -0.5187    2.2265   -1.9190 H   0  0  0  0  0  0  0  0  0  0  0  0
    1.8745    2.0872   -1.3822 H   0  0  0  0  0  0  0  0  0  0  0  0
    5.2599   -3.4819   -2.8707 H   0  0  0  0  0  0  0  0  0  0  0  0
    8.6150    2.4068   -0.3640 H   0  0  0  0  0  0  0  0  0  0  0  0
  1  2  3  0
  2  3  1  0
  3  4  2  0
  4  5  1  0
  5  6  2  0
  6  7  1  0
  7  8  2  0
  8  9  1  0
  9 10  1  0
 10 11  2  0
 11 12  1  0
 12 13  2  0
 13 14  1  0
 14 15  1  0
 15 16  1  0
 16 17  1  0
 17 18  1  0
 18 19  1  0
 19 20  1  0
 20 21  1  0
 21 22  1  0
 22 23  1  0
 13 24  1  0
 24 25  2  0
  8 26  1  0
 26 27  2  0
 26 28  1  0
 28 29  1  0
 29 30  2  0
  6 31  1  0
 31 32  1  0
 31 33  2  0
 33  3  1  0
 29  7  1  0
 25 10  1  0
 23 18  1  0
  4 34  1  0
  5 35  1  0
  9 36  1  0
 11 37  1  0
 12 38  1  0
 15 39  1  0
 15 40  1  0
 16 41  1  0
 16 42  1  0
 17 43  1  0
 17 44  1  0
 19 45  1  0
 19 46  1  0
 20 47  1  0
 20 48  1  0
 21 49  1  0
 22 50  1  0
 22 51  1  0
 23 52  1  0
 23 53  1  0
 24 54  1  0
 25 55  1  0
 28 56  1  0
 33 57  1  0
M  END
$$$$
