
     RDKit          3D

 49 52  0  0  0  0  0  0  0  0999 V2000
   -4.0194    4.6892    0.2655 N   0  0  0  0  0  0  0  0  0  0  0  0
   -4.5255    3.5069   -0.1335 C   0  0  0  0  0  0  0  0  0  0  0  0
   -5.8252    3.2651   -0.2978 N   0  0  0  0  0  0  0  0  0  0  0  0
   -5.9092    1.9369   -0.6978 O   0  0  0  0  0  0  0  0  0  0  0  0
   -4.6464    1.3564   -0.7912 N   0  0  0  0  0  0  0  0  0  0  0  0
   -3.8091    2.3329   -0.4413 C   0  0  0  0  0  0  0  0  0  0  0  0
   -2.4030    2.1399   -0.4306 N   0  0  0  0  0  0  0  0  0  0  0  0
   -1.5600    3.1831   -0.1595 N   0  0  0  0  0  0  0  0  0  0  0  0
   -0.3100    2.7721   -0.2643 N   0  0  0  0  0  0  0  0  0  0  0  0
   -0.3230    1.4449   -0.6000 C   0  0  0  0  0  0  0  0  0  0  0  0
    0.9055    0.6849   -0.8140 C   0  0  0  0  0  0  0  0  0  0  0  0
    0.9375   -0.4425   -1.2971 O   0  0  0  0  0  0  0  0  0  0  0  0
    2.0423    1.3692   -0.4364 N   0  0  0  0  0  0  0  0  0  0  0  0
    3.3608    0.7790   -0.5213 C   0  0  0  0  0  0  0  0  0  0  0  0
    3.6329   -0.1934    0.6292 C   0  0  0  0  0  0  0  0  0  0  0  0
    5.0088   -0.7996    0.5351 C   0  0  0  0  0  0  0  0  0  0  0  0
    6.0904   -0.2387    1.2178 C   0  0  0  0  0  0  0  0  0  0  0  0
    7.3389   -0.8265    1.0801 C   0  0  0  0  0  0  0  0  0  0  0  0
    7.5789   -1.9139    0.3171 N   0  0  0  0  0  0  0  0  0  0  0  0
    6.5203   -2.4392   -0.3358 C   0  0  0  0  0  0  0  0  0  0  0  0
    5.2351   -1.9249   -0.2618 C   0  0  0  0  0  0  0  0  0  0  0  0
   -1.6368    1.0048   -0.6788 C   0  0  0  0  0  0  0  0  0  0  0  0
   -2.1439   -0.3689   -0.9428 C   0  0  0  0  0  0  0  0  0  0  0  0
   -1.9432   -1.2109    0.2470 N   0  0  0  0  0  0  0  0  0  0  0  0
   -1.9745   -2.6408   -0.1024 C   0  0  0  0  0  0  0  0  0  0  0  0
   -3.4453   -3.0259   -0.1268 C   0  0  0  0  0  0  0  0  0  0  0  0
   -4.1248   -2.0297    0.8024 C   0  0  0  0  0  0  0  0  0  0  0  0
   -3.0202   -1.0768    1.2391 C   0  0  0  0  0  0  0  0  0  0  0  0
   -4.6148    5.5106    0.2508 H   0  0  0  0  0  0  0  0  0  0  0  0
   -3.0229    4.8875    0.1854 H   0  0  0  0  0  0  0  0  0  0  0  0
    1.9223    2.2864   -0.0198 H   0  0  0  0  0  0  0  0  0  0  0  0
    3.4505    0.2682   -1.4873 H   0  0  0  0  0  0  0  0  0  0  0  0
    4.0831    1.6028   -0.5118 H   0  0  0  0  0  0  0  0  0  0  0  0
    3.5206    0.3249    1.5904 H   0  0  0  0  0  0  0  0  0  0  0  0
    2.8846   -0.9961    0.6420 H   0  0  0  0  0  0  0  0  0  0  0  0
    5.9716    0.6364    1.8478 H   0  0  0  0  0  0  0  0  0  0  0  0
    8.2060   -0.4241    1.5960 H   0  0  0  0  0  0  0  0  0  0  0  0
    6.7377   -3.3137   -0.9423 H   0  0  0  0  0  0  0  0  0  0  0  0
    4.4287   -2.3958   -0.8157 H   0  0  0  0  0  0  0  0  0  0  0  0
   -3.1701   -0.4055   -1.3115 H   0  0  0  0  0  0  0  0  0  0  0  0
   -1.5480   -0.7644   -1.7765 H   0  0  0  0  0  0  0  0  0  0  0  0
   -1.4604   -2.8801   -1.0396 H   0  0  0  0  0  0  0  0  0  0  0  0
   -1.4610   -3.2028    0.6881 H   0  0  0  0  0  0  0  0  0  0  0  0
   -3.5991   -4.0588    0.2006 H   0  0  0  0  0  0  0  0  0  0  0  0
   -3.8546   -2.9289   -1.1391 H   0  0  0  0  0  0  0  0  0  0  0  0
   -4.5805   -2.5295    1.6634 H   0  0  0  0  0  0  0  0  0  0  0  0
   -4.9170   -1.4973    0.2648 H   0  0  0  0  0  0  0  0  0  0  0  0
   -2.6302   -1.4000    2.2129 H   0  0  0  0  0  0  0  0  0  0  0  0
   -3.3784   -0.0533    1.3807 H   0  0  0  0  0  0  0  0  0  0  0  0
  1  2  1  0
  2  3  2  0
  3  4  1  0
  4  5  1  0
  5  6  2  0
  6  7  1  0
  7  8  1  0
  8  9  2  0
  9 10  1  0
 10 11  1  0
 11 12  2  0
 11 13  1  0
 13 14  1  0
 14 15  1  0
 15 16  1  0
 16 17  2  0
 17 18  1  0
 18 19  2  0
 19 20  1  0
 20 21  2  0
 10 22  2  0
 22 23  1  0
 23 24  1  0
 24 25  1  0
 25 26  1  0
 26 27  1  0
 27 28  1  0
  6  2  1  0
 22  7  1  0
 28 24  1  0
 21 16  1  0
  1 29  1  0
  1 30  1  0
 13 31  1  0
 14 32  1  0
 14 33  1  0
 15 34  1  0
 15 35  1  0
 17 36  1  0
 18 37  1  0
 20 38  1  0
 21 39  1  0
 23 40  1  0
 23 41  1  0
 25 42  1  0
 25 43  1  0
 26 44  1  0
 26 45  1  0
 27 46  1  0
 27 47  1  0
 28 48  1  0
 28 49  1  0
M  END
$$$$
