
     RDKit          3D

 49 52  0  0  0  0  0  0  0  0999 V2000
   -3.3715    4.6235    0.2762 N   0  0  0  0  0  0  0  0  0  0  0  0
   -3.6623    3.5442   -0.4766 C   0  0  0  0  0  0  0  0  0  0  0  0
   -4.8824    3.2468   -0.9219 N   0  0  0  0  0  0  0  0  0  0  0  0
   -4.7376    2.0645   -1.6388 O   0  0  0  0  0  0  0  0  0  0  0  0
   -3.4105    1.6422   -1.6562 N   0  0  0  0  0  0  0  0  0  0  0  0
   -2.7668    2.5525   -0.9247 C   0  0  0  0  0  0  0  0  0  0  0  0
   -1.3615    2.4944   -0.7256 N   0  0  0  0  0  0  0  0  0  0  0  0
   -0.7000    3.5397   -0.1537 N   0  0  0  0  0  0  0  0  0  0  0  0
    0.5985    3.3223   -0.2256 N   0  0  0  0  0  0  0  0  0  0  0  0
    0.8057    2.0809   -0.7645 C   0  0  0  0  0  0  0  0  0  0  0  0
    2.1708    1.5850   -0.9467 C   0  0  0  0  0  0  0  0  0  0  0  0
    3.1264    2.3452   -1.0741 O   0  0  0  0  0  0  0  0  0  0  0  0
    2.3262    0.2146   -0.9269 N   0  0  0  0  0  0  0  0  0  0  0  0
    3.6367   -0.3937   -0.9052 C   0  0  0  0  0  0  0  0  0  0  0  0
    4.0032   -0.7966    0.4972 C   0  0  0  0  0  0  0  0  0  0  0  0
    3.8482   -2.1158    0.9328 C   0  0  0  0  0  0  0  0  0  0  0  0
    4.1718   -2.4232    2.2454 C   0  0  0  0  0  0  0  0  0  0  0  0
    4.6226   -1.5188    3.1393 N   0  0  0  0  0  0  0  0  0  0  0  0
    4.7618   -0.2491    2.7016 C   0  0  0  0  0  0  0  0  0  0  0  0
    4.4683    0.1557    1.4096 C   0  0  0  0  0  0  0  0  0  0  0  0
   -0.4277    1.5090   -1.0657 C   0  0  0  0  0  0  0  0  0  0  0  0
   -0.7959    0.1957   -1.6580 C   0  0  0  0  0  0  0  0  0  0  0  0
   -1.5081   -0.6526   -0.6997 N   0  0  0  0  0  0  0  0  0  0  0  0
   -2.2010   -1.7536   -1.3942 C   0  0  0  0  0  0  0  0  0  0  0  0
   -2.5632   -2.9380   -0.4881 C   0  0  0  0  0  0  0  0  0  0  0  0
   -2.8489   -2.4801    0.9333 C   0  0  0  0  0  0  0  0  0  0  0  0
   -1.6567   -1.7148    1.5102 C   0  0  0  0  0  0  0  0  0  0  0  0
   -0.7279   -1.1335    0.4362 C   0  0  0  0  0  0  0  0  0  0  0  0
   -2.4046    4.9254    0.3949 H   0  0  0  0  0  0  0  0  0  0  0  0
   -4.0511    5.3745    0.3344 H   0  0  0  0  0  0  0  0  0  0  0  0
    1.5698   -0.3389   -0.5603 H   0  0  0  0  0  0  0  0  0  0  0  0
    3.5925   -1.2745   -1.5553 H   0  0  0  0  0  0  0  0  0  0  0  0
    4.3954    0.2786   -1.3206 H   0  0  0  0  0  0  0  0  0  0  0  0
    3.4875   -2.8952    0.2702 H   0  0  0  0  0  0  0  0  0  0  0  0
    4.0725   -3.4363    2.6249 H   0  0  0  0  0  0  0  0  0  0  0  0
    5.1252    0.4598    3.4404 H   0  0  0  0  0  0  0  0  0  0  0  0
    4.5961    1.1961    1.1230 H   0  0  0  0  0  0  0  0  0  0  0  0
   -1.4158    0.3830   -2.5441 H   0  0  0  0  0  0  0  0  0  0  0  0
    0.0799   -0.3300   -2.0522 H   0  0  0  0  0  0  0  0  0  0  0  0
   -1.5938   -2.1436   -2.2218 H   0  0  0  0  0  0  0  0  0  0  0  0
   -3.1211   -1.3523   -1.8358 H   0  0  0  0  0  0  0  0  0  0  0  0
   -3.4315   -3.4659   -0.8979 H   0  0  0  0  0  0  0  0  0  0  0  0
   -1.7328   -3.6555   -0.4731 H   0  0  0  0  0  0  0  0  0  0  0  0
   -3.0920   -3.3353    1.5736 H   0  0  0  0  0  0  0  0  0  0  0  0
   -3.7318   -1.8284    0.9313 H   0  0  0  0  0  0  0  0  0  0  0  0
   -2.0345   -0.9113    2.1548 H   0  0  0  0  0  0  0  0  0  0  0  0
   -1.0701   -2.3800    2.1554 H   0  0  0  0  0  0  0  0  0  0  0  0
   -0.0009   -1.8901    0.1138 H   0  0  0  0  0  0  0  0  0  0  0  0
   -0.1569   -0.3266    0.9085 H   0  0  0  0  0  0  0  0  0  0  0  0
  1  2  1  0
  2  3  2  0
  3  4  1  0
  4  5  1  0
  5  6  2  0
  6  7  1  0
  7  8  1  0
  8  9  2  0
  9 10  1  0
 10 11  1  0
 11 12  2  0
 11 13  1  0
 13 14  1  0
 14 15  1  0
 15 16  2  0
 16 17  1  0
 17 18  2  0
 18 19  1  0
 19 20  2  0
 10 21  2  0
 21 22  1  0
 22 23  1  0
 23 24  1  0
 24 25  1  0
 25 26  1  0
 26 27  1  0
 27 28  1  0
  6  2  1  0
 21  7  1  0
 28 23  1  0
 20 15  1  0
  1 29  1  0
  1 30  1  0
 13 31  1  0
 14 32  1  0
 14 33  1  0
 16 34  1  0
 17 35  1  0
 19 36  1  0
 20 37  1  0
 22 38  1  0
 22 39  1  0
 24 40  1  0
 24 41  1  0
 25 42  1  0
 25 43  1  0
 26 44  1  0
 26 45  1  0
 27 46  1  0
 27 47  1  0
 28 48  1  0
 28 49  1  0
M  END
$$$$
