
     RDKit          3D

 37 39  0  0  0  0  0  0  0  0999 V2000
   -3.8685    3.0198    2.9289 N   0  0  0  0  0  0  0  0  0  0  0  0
   -3.3629    2.2711    2.2008 C   0  0  0  0  0  0  0  0  0  0  0  0
   -2.7375    1.3477    1.2992 C   0  0  0  0  0  0  0  0  0  0  0  0
   -2.7007   -0.0121    1.6011 C   0  0  0  0  0  0  0  0  0  0  0  0
   -2.0822   -0.9061    0.7237 C   0  0  0  0  0  0  0  0  0  0  0  0
   -1.4839   -0.4601   -0.4696 C   0  0  0  0  0  0  0  0  0  0  0  0
   -0.8091   -1.4624   -1.3000 C   0  0  0  0  0  0  0  0  0  0  0  0
    0.4921   -1.5312   -1.6274 C   0  0  0  0  0  0  0  0  0  0  0  0
    1.5932   -0.7561   -1.3441 N   0  0  0  0  0  0  0  0  0  0  0  0
    1.9395   -0.1984   -0.0963 C   0  0  0  0  0  0  0  0  0  0  0  0
    1.5111   -0.7307    1.1275 C   0  0  0  0  0  0  0  0  0  0  0  0
    1.8805   -0.1367    2.3377 C   0  0  0  0  0  0  0  0  0  0  0  0
    2.6926    0.9893    2.3307 C   0  0  0  0  0  0  0  0  0  0  0  0
    3.0233    1.5350    3.5392 O   0  0  0  0  0  0  0  0  0  0  0  0
    3.1453    1.5214    1.1244 C   0  0  0  0  0  0  0  0  0  0  0  0
    4.1579    2.9165    1.1110 Cl  0  0  0  0  0  0  0  0  0  0  0  0
    2.7770    0.9264   -0.0825 C   0  0  0  0  0  0  0  0  0  0  0  0
    0.6360   -2.6869   -2.5562 C   0  0  0  0  0  0  0  0  0  0  0  0
    1.6826   -3.0247   -3.0799 O   0  0  0  0  0  0  0  0  0  0  0  0
   -0.5719   -3.2660   -2.6805 N   0  0  0  0  0  0  0  0  0  0  0  0
   -1.4909   -2.6044   -1.9504 C   0  0  0  0  0  0  0  0  0  0  0  0
   -2.6685   -2.8882   -1.8350 O   0  0  0  0  0  0  0  0  0  0  0  0
   -1.5520    0.9104   -0.8009 C   0  0  0  0  0  0  0  0  0  0  0  0
   -0.9953    1.4829   -2.0872 C   0  0  0  0  0  0  0  0  0  0  0  0
   -0.9835    0.6048   -3.1283 F   0  0  0  0  0  0  0  0  0  0  0  0
   -1.7206    2.5503   -2.5322 F   0  0  0  0  0  0  0  0  0  0  0  0
    0.2780    1.9413   -1.9550 F   0  0  0  0  0  0  0  0  0  0  0  0
   -2.1680    1.8025    0.1057 C   0  0  0  0  0  0  0  0  0  0  0  0
   -3.1490   -0.3881    2.5195 H   0  0  0  0  0  0  0  0  0  0  0  0
   -2.0668   -1.9637    0.9878 H   0  0  0  0  0  0  0  0  0  0  0  0
    2.4222   -1.0701   -1.8588 H   0  0  0  0  0  0  0  0  0  0  0  0
    0.9004   -1.6282    1.1624 H   0  0  0  0  0  0  0  0  0  0  0  0
    1.5414   -0.5564    3.2809 H   0  0  0  0  0  0  0  0  0  0  0  0
    3.5913    2.3085    3.3622 H   0  0  0  0  0  0  0  0  0  0  0  0
    3.1208    1.3540   -1.0216 H   0  0  0  0  0  0  0  0  0  0  0  0
   -0.7640   -4.0782   -3.2425 H   0  0  0  0  0  0  0  0  0  0  0  0
   -2.2101    2.8668   -0.1348 H   0  0  0  0  0  0  0  0  0  0  0  0
  1  2  3  0
  2  3  1  0
  3  4  2  0
  4  5  1  0
  5  6  2  0
  6  7  1  0
  7  8  2  0
  8  9  1  0
  9 10  1  0
 10 11  2  0
 11 12  1  0
 12 13  2  0
 13 14  1  0
 13 15  1  0
 15 16  1  0
 15 17  2  0
  8 18  1  0
 18 19  2  0
 18 20  1  0
 20 21  1  0
 21 22  2  0
  6 23  1  0
 23 24  1  0
 24 25  1  0
 24 26  1  0
 24 27  1  0
 23 28  2  0
 28  3  1  0
 21  7  1  0
 17 10  1  0
  4 29  1  0
  5 30  1  0
  9 31  1  0
 11 32  1  0
 12 33  1  0
 14 34  1  0
 17 35  1  0
 20 36  1  0
 28 37  1  0
M  END
$$$$
