
     RDKit          3D

 38 41  0  0  0  0  0  0  0  0999 V2000
   -2.0289    2.1668   -1.4578 C   0  0  0  0  0  0  0  0  0  0  0  0
   -0.8590    1.7234   -0.7120 N   0  0  0  0  0  0  0  0  0  0  0  0
   -1.2018    0.9636    0.4904 C   0  0  0  0  0  0  0  0  0  0  0  0
   -1.5008   -0.4507    0.1655 C   0  0  0  0  0  0  0  0  0  0  0  0
   -0.6366   -1.4848   -0.1558 C   0  0  0  0  0  0  0  0  0  0  0  0
    0.8268   -1.4943   -0.2479 C   0  0  0  0  0  0  0  0  0  0  0  0
    1.5508   -2.4871   -0.7804 N   0  0  0  0  0  0  0  0  0  0  0  0
    2.7998   -2.0299   -0.6229 N   0  0  0  0  0  0  0  0  0  0  0  0
    2.8271   -0.8139    0.0075 C   0  0  0  0  0  0  0  0  0  0  0  0
    4.0246   -0.0440    0.3312 C   0  0  0  0  0  0  0  0  0  0  0  0
    5.3213   -0.5098    0.1086 C   0  0  0  0  0  0  0  0  0  0  0  0
    6.4510    0.1847    0.3979 N   0  0  0  0  0  0  0  0  0  0  0  0
    6.2807    1.4124    0.9418 C   0  0  0  0  0  0  0  0  0  0  0  0
    5.0396    1.9620    1.2030 C   0  0  0  0  0  0  0  0  0  0  0  0
    4.9337    3.1822    1.7428 F   0  0  0  0  0  0  0  0  0  0  0  0
    3.9006    1.2306    0.8969 C   0  0  0  0  0  0  0  0  0  0  0  0
    1.5800   -0.4646    0.2623 N   0  0  0  0  0  0  0  0  0  0  0  0
   -1.3447   -2.6247   -0.3973 N   0  0  0  0  0  0  0  0  0  0  0  0
   -2.6260   -2.3538   -0.2244 N   0  0  0  0  0  0  0  0  0  0  0  0
   -2.7629   -1.0396    0.1248 N   0  0  0  0  0  0  0  0  0  0  0  0
   -4.0503   -0.4919    0.3674 C   0  0  0  0  0  0  0  0  0  0  0  0
   -4.2182    0.7935    0.6796 N   0  0  0  0  0  0  0  0  0  0  0  0
   -5.5974    0.9360    0.8158 O   0  0  0  0  0  0  0  0  0  0  0  0
   -6.2544   -0.2663    0.5839 N   0  0  0  0  0  0  0  0  0  0  0  0
   -5.2951   -1.1515    0.3170 C   0  0  0  0  0  0  0  0  0  0  0  0
   -5.5162   -2.4520    0.0491 N   0  0  0  0  0  0  0  0  0  0  0  0
   -1.7026    2.7546   -2.3217 H   0  0  0  0  0  0  0  0  0  0  0  0
   -2.6770    2.8049   -0.8488 H   0  0  0  0  0  0  0  0  0  0  0  0
   -2.6074    1.3228   -1.8448 H   0  0  0  0  0  0  0  0  0  0  0  0
   -0.3252    2.5449   -0.4297 H   0  0  0  0  0  0  0  0  0  0  0  0
   -0.3265    0.9791    1.1517 H   0  0  0  0  0  0  0  0  0  0  0  0
   -1.9716    1.4685    1.0771 H   0  0  0  0  0  0  0  0  0  0  0  0
    3.5687   -2.5926   -0.9662 H   0  0  0  0  0  0  0  0  0  0  0  0
    5.5199   -1.4877   -0.3203 H   0  0  0  0  0  0  0  0  0  0  0  0
    7.1889    1.9605    1.1700 H   0  0  0  0  0  0  0  0  0  0  0  0
    2.9230    1.6597    1.0995 H   0  0  0  0  0  0  0  0  0  0  0  0
   -4.7760   -3.0461   -0.3241 H   0  0  0  0  0  0  0  0  0  0  0  0
   -6.4575   -2.7649   -0.1622 H   0  0  0  0  0  0  0  0  0  0  0  0
  1  2  1  0
  2  3  1  0
  3  4  1  0
  4  5  2  0
  5  6  1  0
  6  7  2  0
  7  8  1  0
  8  9  1  0
  9 10  1  0
 10 11  2  0
 11 12  1  0
 12 13  2  0
 13 14  1  0
 14 15  1  0
 14 16  2  0
  9 17  2  0
  5 18  1  0
 18 19  2  0
 19 20  1  0
 20 21  1  0
 21 22  2  0
 22 23  1  0
 23 24  1  0
 24 25  2  0
 25 26  1  0
 20  4  1  0
 25 21  1  0
 17  6  1  0
 16 10  1  0
  1 27  1  0
  1 28  1  0
  1 29  1  0
  2 30  1  0
  3 31  1  0
  3 32  1  0
  8 33  1  0
 11 34  1  0
 13 35  1  0
 16 36  1  0
 26 37  1  0
 26 38  1  0
M  END
$$$$
