
     RDKit          3D

 29 31  0  0  0  0  0  0  0  0999 V2000
   -4.6584    1.3636    0.8320 C   0  0  0  0  0  0  0  0  0  0  0  0
   -3.2769    0.8388    0.5554 C   0  0  0  0  0  0  0  0  0  0  0  0
   -2.1851    1.4061    1.2260 C   0  0  0  0  0  0  0  0  0  0  0  0
   -0.8822    0.9709    0.9681 C   0  0  0  0  0  0  0  0  0  0  0  0
   -0.6199   -0.0323    0.0209 C   0  0  0  0  0  0  0  0  0  0  0  0
    0.7605   -0.4739   -0.2781 C   0  0  0  0  0  0  0  0  0  0  0  0
    0.9120   -1.4647   -1.1875 N   0  0  0  0  0  0  0  0  0  0  0  0
    2.1536   -1.8951   -1.4893 C   0  0  0  0  0  0  0  0  0  0  0  0
    3.2303   -1.3117   -0.8581 C   0  0  0  0  0  0  0  0  0  0  0  0
    4.9143   -1.5828   -0.9822 S   0  0  0  0  0  0  0  0  0  0  0  0
    5.1862   -0.3644    0.1964 C   0  0  0  0  0  0  0  0  0  0  0  0
    6.4295   -0.0484    0.5962 N   0  0  0  0  0  0  0  0  0  0  0  0
    4.1180    0.2323    0.6574 N   0  0  0  0  0  0  0  0  0  0  0  0
    2.9930   -0.3037    0.0664 C   0  0  0  0  0  0  0  0  0  0  0  0
    1.7569    0.1386    0.3761 N   0  0  0  0  0  0  0  0  0  0  0  0
   -1.7331   -0.5923   -0.6374 C   0  0  0  0  0  0  0  0  0  0  0  0
   -3.0541   -0.2125   -0.3474 C   0  0  0  0  0  0  0  0  0  0  0  0
   -4.0957   -0.7444   -1.1255 N   0  0  0  0  0  0  0  0  0  0  0  0
   -5.2728    0.5853    1.2958 H   0  0  0  0  0  0  0  0  0  0  0  0
   -4.6354    2.2197    1.5149 H   0  0  0  0  0  0  0  0  0  0  0  0
   -5.1324    1.6994   -0.0960 H   0  0  0  0  0  0  0  0  0  0  0  0
   -2.3364    2.2052    1.9486 H   0  0  0  0  0  0  0  0  0  0  0  0
   -0.0615    1.4419    1.5082 H   0  0  0  0  0  0  0  0  0  0  0  0
    2.2425   -2.6871   -2.2223 H   0  0  0  0  0  0  0  0  0  0  0  0
    6.5133    0.8438    1.0731 H   0  0  0  0  0  0  0  0  0  0  0  0
    7.1952   -0.2445   -0.0371 H   0  0  0  0  0  0  0  0  0  0  0  0
   -1.5664   -1.3525   -1.3991 H   0  0  0  0  0  0  0  0  0  0  0  0
   -3.8911   -1.6654   -1.5008 H   0  0  0  0  0  0  0  0  0  0  0  0
   -5.0036   -0.7113   -0.6747 H   0  0  0  0  0  0  0  0  0  0  0  0
  1  2  1  0
  2  3  2  0
  3  4  1  0
  4  5  2  0
  5  6  1  0
  6  7  2  0
  7  8  1  0
  8  9  2  0
  9 10  1  0
 10 11  1  0
 11 12  1  0
 11 13  2  0
 13 14  1  0
 14 15  2  0
  5 16  1  0
 16 17  2  0
 17 18  1  0
 17  2  1  0
 15  6  1  0
 14  9  1  0
  1 19  1  0
  1 20  1  0
  1 21  1  0
  3 22  1  0
  4 23  1  0
  8 24  1  0
 12 25  1  0
 12 26  1  0
 16 27  1  0
 18 28  1  0
 18 29  1  0
M  END
$$$$
