
     RDKit          3D

 38 39  0  0  0  0  0  0  0  0999 V2000
    6.2649    0.5940    1.2606 C   0  0  0  0  0  0  0  0  0  0  0  0
    5.3025   -0.4316    0.6829 C   0  0  0  0  0  0  0  0  0  0  0  0
    3.9596    0.2034    0.3162 C   0  0  0  0  0  0  0  0  0  0  0  0
    2.9985   -0.8382   -0.2641 C   0  0  0  0  0  0  0  0  0  0  0  0
    1.7386   -0.2550   -0.7366 N   0  0  0  0  0  0  0  0  0  0  0  0
    0.8457    0.1264    0.3603 C   0  0  0  0  0  0  0  0  0  0  0  0
   -0.4490    0.7715   -0.1446 C   0  0  0  0  0  0  0  0  0  0  0  0
   -1.3640   -0.1184   -1.0016 C   0  0  0  0  0  0  0  0  0  0  0  0
   -1.7707   -1.3937   -0.3054 C   0  0  0  0  0  0  0  0  0  0  0  0
   -3.0071   -1.6078    0.1542 C   0  0  0  0  0  0  0  0  0  0  0  0
   -3.9895   -0.5524   -0.0383 C   0  0  0  0  0  0  0  0  0  0  0  0
   -5.2618   -0.6399    0.5372 C   0  0  0  0  0  0  0  0  0  0  0  0
   -6.2034    0.3682    0.3171 C   0  0  0  0  0  0  0  0  0  0  0  0
   -5.8808    1.4623   -0.4849 C   0  0  0  0  0  0  0  0  0  0  0  0
   -4.6152    1.5506   -1.0646 C   0  0  0  0  0  0  0  0  0  0  0  0
   -3.6697    0.5506   -0.8347 C   0  0  0  0  0  0  0  0  0  0  0  0
   -2.4610    0.7049   -1.4559 O   0  0  0  0  0  0  0  0  0  0  0  0
    6.4654    1.3933    0.5400 H   0  0  0  0  0  0  0  0  0  0  0  0
    5.8573    1.0456    2.1706 H   0  0  0  0  0  0  0  0  0  0  0  0
    7.2176    0.1188    1.5146 H   0  0  0  0  0  0  0  0  0  0  0  0
    5.7546   -0.8872   -0.2058 H   0  0  0  0  0  0  0  0  0  0  0  0
    5.1476   -1.2323    1.4154 H   0  0  0  0  0  0  0  0  0  0  0  0
    4.1222    1.0044   -0.4158 H   0  0  0  0  0  0  0  0  0  0  0  0
    3.5302    0.6654    1.2122 H   0  0  0  0  0  0  0  0  0  0  0  0
    3.4831   -1.3109   -1.1271 H   0  0  0  0  0  0  0  0  0  0  0  0
    2.8061   -1.6388    0.4604 H   0  0  0  0  0  0  0  0  0  0  0  0
    1.2762   -0.9429   -1.3298 H   0  0  0  0  0  0  0  0  0  0  0  0
    0.6162   -0.7423    0.9875 H   0  0  0  0  0  0  0  0  0  0  0  0
    1.3389    0.8638    1.0030 H   0  0  0  0  0  0  0  0  0  0  0  0
   -1.0161    1.1336    0.7242 H   0  0  0  0  0  0  0  0  0  0  0  0
   -0.2035    1.6775   -0.7160 H   0  0  0  0  0  0  0  0  0  0  0  0
   -0.8324   -0.4037   -1.9168 H   0  0  0  0  0  0  0  0  0  0  0  0
   -1.0146   -2.1623   -0.1787 H   0  0  0  0  0  0  0  0  0  0  0  0
   -3.2879   -2.5251    0.6572 H   0  0  0  0  0  0  0  0  0  0  0  0
   -5.5311   -1.4912    1.1570 H   0  0  0  0  0  0  0  0  0  0  0  0
   -7.1905    0.2968    0.7667 H   0  0  0  0  0  0  0  0  0  0  0  0
   -6.6143    2.2443   -0.6621 H   0  0  0  0  0  0  0  0  0  0  0  0
   -4.3624    2.3986   -1.6950 H   0  0  0  0  0  0  0  0  0  0  0  0
  1  2  1  0
  2  3  1  0
  3  4  1  0
  4  5  1  0
  5  6  1  0
  6  7  1  0
  7  8  1  0
  8  9  1  0
  9 10  2  0
 10 11  1  0
 11 12  2  0
 12 13  1  0
 13 14  2  0
 14 15  1  0
 15 16  2  0
 16 17  1  0
 17  8  1  0
 16 11  1  0
  1 18  1  0
  1 19  1  0
  1 20  1  0
  2 21  1  0
  2 22  1  0
  3 23  1  0
  3 24  1  0
  4 25  1  0
  4 26  1  0
  5 27  1  0
  6 28  1  0
  6 29  1  0
  7 30  1  0
  7 31  1  0
  8 32  1  0
  9 33  1  0
 10 34  1  0
 12 35  1  0
 13 36  1  0
 14 37  1  0
 15 38  1  0
M  END
$$$$
