MODEL        9USER    Run = 9USERUSER    Estimated Free Energy of Binding    =  -9.94 kcal/mol  [=(1)+(2)+(3)-(4)]USERUSER    (1) Final Intermolecular Energy     = -12.33 kcal/molUSER        vdW + Hbond + desolv Energy     = -12.08 kcal/molUSER        Electrostatic Energy            =  -0.25 kcal/molUSER        Moving Ligand-Fixed Receptor    = -12.33 kcal/molUSER        Moving Ligand-Moving Receptor   =  +0.00 kcal/molUSER    (2) Final Total Internal Energy     =  -3.35 kcal/molUSER    (3) Torsional Free Energy           =  +2.39 kcal/molUSER    (4) Unbound System's Energy         =  -3.35 kcal/molUSERUSERREMARK SMILES C[C@@H](c1nccc2n(CN3CCOCC3)c(=O)c(N[C@H](C)CN3CCOCC3)c-2n1)c1ccc(F)cc1FREMARK SMILES IDX 18 1 29 2 30 3 3 4 4 5 5 6 6 7 7 8 8 9 16 10 17 11 19 12REMARK SMILES IDX 20 14 21 15 22 16 23 17 24 18 28 19 25 20 27 21 26 22 9 23REMARK SMILES IDX 10 24 11 25 15 26 12 27 14 28 13 29 2 30 1 31 31 32 32 33REMARK SMILES IDX 37 34 33 35 36 36 34 37 38 38 35 39REMARK H PARENT 19 13USER                              x       y       z     vdW  Elec       q    TypeUSER                           _______ _______ _______ _____ _____    ______ ____ROOTATOM      1  C   UNL     1      37.941  44.436  18.126 -0.25 -0.02    +0.129 A  ATOM      2  C   UNL     1      39.087  45.143  18.193 -0.33 -0.01    +0.118 A  ATOM      3  N   UNL     1      40.001  44.967  19.183 -0.27 +0.00    -0.228 NA ATOM      4  C   UNL     1      40.975  45.752  19.496 -0.34 +0.01    +0.136 A  ATOM      5  N   UNL     1      41.324  46.962  18.974 -0.31 -0.00    -0.241 NA ATOM      6  C   UNL     1      41.055  47.351  17.784 -0.44 -0.01    +0.115 A  ATOM      7  C   UNL     1      40.288  46.735  16.693 -0.45 -0.01    +0.049 A  ATOM      8  C   UNL     1      39.357  45.816  16.942 -0.34 -0.01    +0.075 A  ATOM      9  N   UNL     1      38.401  45.378  16.052 -0.15 +0.08    -0.291 N  ATOM     10  C   UNL     1      37.465  44.595  16.707 -0.15 -0.08    +0.277 A  ATOM     11  O   UNL     1      36.427  44.111  16.282 -0.23 +0.10    -0.267 OA ENDROOTBRANCH   1  12ATOM     12  N   UNL     1      37.280  43.561  18.982 +0.03 +0.04    -0.375 N  ATOM     13  H   UNL     1      36.552  43.101  18.420 +0.11 -0.03    +0.161 HD BRANCH  12  14ATOM     14  C   UNL     1      36.628  43.989  20.231 -0.41 -0.00    +0.090 C  ATOM     15  C   UNL     1      36.919  43.050  21.398 -0.47 +0.00    +0.032 C  BRANCH  14  16ATOM     16  C   UNL     1      35.083  44.081  20.026 -0.34 -0.01    +0.109 C  BRANCH  16  17ATOM     17  N   UNL     1      34.677  44.117  18.604 -0.13 +0.08    -0.297 NA ATOM     18  C   UNL     1      34.263  45.480  18.205 -0.42 -0.06    +0.113 C  ATOM     19  C   UNL     1      33.600  43.144  18.291 -0.32 -0.03    +0.113 C  ATOM     20  C   UNL     1      33.385  45.462  16.945 -0.25 -0.13    +0.175 C  ATOM     21  C   UNL     1      32.204  43.778  18.166 -0.25 -0.03    +0.175 C  ATOM     22  O   UNL     1      32.131  44.802  17.163 -0.36 +0.11    -0.379 OA ENDBRANCH  16  17ENDBRANCH  14  16ENDBRANCH  12  14ENDBRANCH   1  12BRANCH   9  23ATOM     23  C   UNL     1      38.231  45.733  14.666 -0.30 -0.06    +0.213 C  BRANCH  23  24ATOM     24  N   UNL     1      36.848  46.151  14.424 -0.19 +0.14    -0.281 NA ATOM     25  C   UNL     1      36.345  45.833  13.075 -0.50 -0.05    +0.115 C  ATOM     26  C   UNL     1      36.677  47.603  14.648 -0.41 -0.09    +0.115 C  ATOM     27  C   UNL     1      36.918  46.731  11.966 -0.60 -0.06    +0.175 C  ATOM     28  C   UNL     1      37.265  48.471  13.525 -0.43 -0.07    +0.175 C  ATOM     29  O   UNL     1      36.715  48.119  12.251 -0.95 +0.11    -0.379 OA ENDBRANCH  23  24ENDBRANCH   9  23BRANCH   4  30ATOM     30  C   UNL     1      41.883  45.274  20.644 -0.31 +0.02    +0.087 C  ATOM     31  C   UNL     1      41.413  43.929  21.199 -0.37 +0.00    +0.021 C  BRANCH  30  32ATOM     32  C   UNL     1      42.085  46.382  21.669 -0.30 -0.00    -0.002 A  ATOM     33  C   UNL     1      41.065  46.626  22.608 -0.22 +0.00    +0.010 A  ATOM     34  C   UNL     1      43.259  47.139  21.761 -0.28 +0.04    +0.130 A  ATOM     35  C   UNL     1      41.215  47.613  23.583 -0.26 +0.00    +0.040 A  ATOM     36  C   UNL     1      43.416  48.126  22.730 -0.29 +0.02    +0.078 A  ATOM     37  C   UNL     1      42.388  48.356  23.632 -0.31 +0.03    +0.126 A  ATOM     38  F   UNL     1      44.278  46.928  20.917 -0.10 -0.18    -0.207 F  ATOM     39  F   UNL     1      42.531  49.303  24.569 -0.16 -0.06    -0.207 F  ENDBRANCH  30  32ENDBRANCH   4  30TORSDOF 8TERENDMDL