REMARK SMILES C[C@@H](c1nccc2n(CN3CCOCC3)c(=O)c(N[C@H](C)CN3CCOCC3)c-2n1)c1ccc(F)cc1F
REMARK SMILES IDX 18 1 29 2 30 3 3 4 4 5 5 6 6 7 7 8 8 9 16 10 17 11 19 12
REMARK SMILES IDX 20 14 21 15 22 16 23 17 24 18 28 19 25 20 27 21 26 22 9 23
REMARK SMILES IDX 10 24 11 25 15 26 12 27 14 28 13 29 2 30 1 31 31 32 32 33
REMARK SMILES IDX 37 34 33 35 36 36 34 37 38 38 35 39
REMARK H PARENT 19 13
ROOT
ATOM      1  C   UNL     1      -0.887   0.237   0.556  1.00  0.00     0.129 A 
ATOM      2  C   UNL     1       0.429   0.105   0.817  1.00  0.00     0.118 A 
ATOM      3  N   UNL     1       1.074  -1.089   0.754  1.00  0.00    -0.228 NA
ATOM      4  C   UNL     1       2.236  -1.376   1.234  1.00  0.00     0.136 A 
ATOM      5  N   UNL     1       3.096  -0.606   1.959  1.00  0.00    -0.241 NA
ATOM      6  C   UNL     1       3.146   0.673   1.917  1.00  0.00     0.115 A 
ATOM      7  C   UNL     1       2.332   1.671   1.212  1.00  0.00     0.049 A 
ATOM      8  C   UNL     1       1.090   1.391   0.821  1.00  0.00     0.075 A 
ATOM      9  N   UNL     1       0.150   2.311   0.409  1.00  0.00    -0.291 N 
ATOM     10  C   UNL     1      -1.090   1.705   0.295  1.00  0.00     0.277 A 
ATOM     11  O   UNL     1      -2.177   2.207   0.051  1.00  0.00    -0.267 OA
ENDROOT
BRANCH   1  12
ATOM     12  N   UNL     1      -1.937  -0.652   0.352  1.00  0.00    -0.375 N 
ATOM     13  H   UNL     1      -2.736  -0.089   0.031  1.00  0.00     0.161 HD
BRANCH  12  14
ATOM     14  C   UNL     1      -2.458  -1.544   1.401  1.00  0.00     0.090 C 
ATOM     15  C   UNL     1      -1.451  -2.611   1.821  1.00  0.00     0.032 C 
BRANCH  14  16
ATOM     16  C   UNL     1      -3.765  -2.244   0.911  1.00  0.00     0.109 C 
BRANCH  16  17
ATOM     17  N   UNL     1      -4.771  -1.304   0.370  1.00  0.00    -0.297 NA
ATOM     18  C   UNL     1      -6.136  -1.688   0.792  1.00  0.00     0.113 C 
ATOM     19  C   UNL     1      -4.708  -1.187  -1.109  1.00  0.00     0.113 C 
ATOM     20  C   UNL     1      -7.207  -1.077  -0.123  1.00  0.00     0.175 C 
ATOM     21  C   UNL     1      -5.808  -1.971  -1.844  1.00  0.00     0.175 C 
ATOM     22  O   UNL     1      -7.136  -1.584  -1.462  1.00  0.00    -0.379 OA
ENDBRANCH  16  17
ENDBRANCH  14  16
ENDBRANCH  12  14
ENDBRANCH   1  12
BRANCH   9  23
ATOM     23  C   UNL     1       0.300   3.733   0.230  1.00  0.00     0.213 C 
BRANCH  23  24
ATOM     24  N   UNL     1       0.440   4.044  -1.194  1.00  0.00    -0.281 NA
ATOM     25  C   UNL     1       1.776   3.756  -1.750  1.00  0.00     0.115 C 
ATOM     26  C   UNL     1       0.123   5.462  -1.470  1.00  0.00     0.115 C 
ATOM     27  C   UNL     1       2.861   4.758  -1.320  1.00  0.00     0.175 C 
ATOM     28  C   UNL     1       1.225   6.436  -1.023  1.00  0.00     0.175 C 
ATOM     29  O   UNL     1       2.485   6.106  -1.618  1.00  0.00    -0.379 OA
ENDBRANCH  23  24
ENDBRANCH   9  23
BRANCH   4  30
ATOM     30  C   UNL     1       2.737  -2.809   0.974  1.00  0.00     0.087 C 
ATOM     31  C   UNL     1       3.067  -3.527   2.284  1.00  0.00     0.021 C 
BRANCH  30  32
ATOM     32  C   UNL     1       3.834  -2.814  -0.081  1.00  0.00    -0.002 A 
ATOM     33  C   UNL     1       3.465  -2.890  -1.438  1.00  0.00     0.010 A 
ATOM     34  C   UNL     1       5.195  -2.693   0.225  1.00  0.00     0.130 A 
ATOM     35  C   UNL     1       4.434  -2.871  -2.442  1.00  0.00     0.040 A 
ATOM     36  C   UNL     1       6.167  -2.676  -0.771  1.00  0.00     0.078 A 
ATOM     37  C   UNL     1       5.776  -2.768  -2.098  1.00  0.00     0.126 A 
ATOM     38  F   UNL     1       5.604  -2.582   1.496  1.00  0.00    -0.207 F 
ATOM     39  F   UNL     1       6.705  -2.750  -3.063  1.00  0.00    -0.207 F 
ENDBRANCH  30  32
ENDBRANCH   4  30
TORSDOF 8
