REMARK SMILES CCOCC(=O)N1[C@H](C#N)c2cc(OC)c(OC)cc2[C@H]1OC
REMARK SMILES IDX 4 1 3 2 2 3 1 4 5 5 6 6 7 7 8 8 21 9 11 10 20 11 12 12 19 13
REMARK SMILES IDX 13 14 16 15 9 16 10 17 22 18 23 19 14 20 15 21 17 22 18 23
REMARK H PARENT
ROOT
ATOM      1  C   UNL     1       3.349  -0.414   0.429  1.00  0.00     0.260 C 
ENDROOT
BRANCH   1   2
ATOM      2  O   UNL     1       4.466  -1.286   0.318  1.00  0.00    -0.372 OA
BRANCH   2   3
ATOM      3  C   UNL     1       5.701  -0.605   0.118  1.00  0.00     0.157 C 
ATOM      4  C   UNL     1       6.288  -0.130   1.435  1.00  0.00     0.035 C 
ENDBRANCH   2   3
ENDBRANCH   1   2
BRANCH   1   5
ATOM      5  C   UNL     1       2.058  -1.166   0.800  1.00  0.00     0.252 C 
ATOM      6  O   UNL     1       2.090  -2.249   1.388  1.00  0.00    -0.272 OA
BRANCH   5   7
ATOM      7  N   UNL     1       0.855  -0.576   0.472  1.00  0.00    -0.290 N 
ATOM      8  C   UNL     1       0.623   0.746  -0.136  1.00  0.00     0.223 C 
ATOM      9  C   UNL     1      -0.372  -1.341   0.605  1.00  0.00     0.250 C 
ATOM     10  C   UNL     1      -0.882   0.845  -0.179  1.00  0.00     0.001 A 
ATOM     11  C   UNL     1      -1.448  -0.349   0.275  1.00  0.00     0.012 A 
ATOM     12  C   UNL     1      -1.682   1.903  -0.592  1.00  0.00     0.057 A 
ATOM     13  C   UNL     1      -2.824  -0.516   0.331  1.00  0.00     0.059 A 
ATOM     14  C   UNL     1      -3.074   1.758  -0.532  1.00  0.00     0.161 A 
ATOM     15  C   UNL     1      -3.647   0.542  -0.073  1.00  0.00     0.161 A 
BRANCH   8  16
ATOM     16  C   UNL     1       1.210   1.856   0.641  1.00  0.00     0.093 C 
ATOM     17  N   UNL     1       1.710   2.723   1.232  1.00  0.00    -0.196 NA
ENDBRANCH   8  16
BRANCH   9  18
ATOM     18  O   UNL     1      -0.384  -2.317  -0.427  1.00  0.00    -0.357 OA
ATOM     19  C   UNL     1      -0.604  -3.627   0.075  1.00  0.00     0.198 C 
ENDBRANCH   9  18
BRANCH  14  20
ATOM     20  O   UNL     1      -3.967   2.733  -0.906  1.00  0.00    -0.493 OA
ATOM     21  C   UNL     1      -3.447   4.009  -1.253  1.00  0.00     0.278 C 
ENDBRANCH  14  20
BRANCH  15  22
ATOM     22  O   UNL     1      -5.021   0.498  -0.060  1.00  0.00    -0.493 OA
ATOM     23  C   UNL     1      -5.640  -0.715   0.344  1.00  0.00     0.278 C 
ENDBRANCH  15  22
ENDBRANCH   5   7
ENDBRANCH   1   5
TORSDOF 8
