MODEL        4USER    Run = 4USERUSER    Estimated Free Energy of Binding    = -11.25 kcal/mol  [=(1)+(2)+(3)-(4)]USERUSER    (1) Final Intermolecular Energy     = -13.04 kcal/molUSER        vdW + Hbond + desolv Energy     = -12.76 kcal/molUSER        Electrostatic Energy            =  -0.28 kcal/molUSER        Moving Ligand-Fixed Receptor    = -13.04 kcal/molUSER        Moving Ligand-Moving Receptor   =  +0.00 kcal/molUSER    (2) Final Total Internal Energy     =  -1.71 kcal/molUSER    (3) Torsional Free Energy           =  +1.79 kcal/molUSER    (4) Unbound System's Energy         =  -1.71 kcal/molUSERUSERREMARK SMILES Nc1nonc1-n1nnc(-c2n[nH]c(-c3cncc(Cl)c3)n2)c1CN1CCCCC1REMARK SMILES IDX 7 1 8 2 9 3 10 4 23 5 6 6 2 7 3 8 4 9 5 10 1 11 24 14 25 15REMARK SMILES IDX 26 16 30 17 27 18 29 19 28 20 11 21 12 22 22 23 13 24 14 25REMARK SMILES IDX 15 27 16 28 21 29 17 30 19 31 18 32 20 33REMARK H PARENT 1 12 1 13 13 26USER                              x       y       z     vdW  Elec       q    TypeUSER                           _______ _______ _______ _____ _____    ______ ____ROOTATOM      1  N   UNL     1      39.488  48.127  14.981 -0.38 +0.06    -0.190 N  ATOM      2  N   UNL     1      40.597  48.895  14.755 -0.56 +0.02    -0.060 NA ATOM      3  N   UNL     1      41.419  48.782  15.783 -0.88 +0.00    -0.126 NA ATOM      4  C   UNL     1      40.849  47.935  16.687 -0.40 -0.02    +0.157 A  ATOM      5  C   UNL     1      39.634  47.477  16.205 -0.43 -0.03    +0.092 A  ENDROOTBRANCH   1   6ATOM      6  C   UNL     1      38.425  48.109  14.040 -0.31 -0.09    +0.243 A  ATOM      7  C   UNL     1      37.255  48.895  14.040 -0.29 -0.14    +0.215 A  ATOM      8  N   UNL     1      36.507  48.542  12.996 -0.87 +0.01    -0.030 NA ATOM      9  O   UNL     1      37.225  47.545  12.344 -1.10 +0.05    -0.240 OA ATOM     10  N   UNL     1      38.423  47.274  13.001 -0.64 +0.00    -0.027 NA BRANCH   7  11ATOM     11  N   UNL     1      36.918  49.852  14.925 -0.11 +0.43    -0.378 N  ATOM     12  H   UNL     1      36.281  49.630  15.683 -0.15 -0.37    +0.158 HD ATOM     13  H   UNL     1      37.533  50.645  15.104 -0.43 -0.18    +0.158 HD ENDBRANCH   7  11ENDBRANCH   1   6BRANCH   5  14ATOM     14  C   UNL     1      38.679  46.516  16.816 -0.37 -0.05    +0.143 C  BRANCH  14  15ATOM     15  N   UNL     1      37.541  46.254  15.924 -0.16 +0.14    -0.297 NA ATOM     16  C   UNL     1      37.596  44.869  15.424 -0.32 -0.03    +0.085 C  ATOM     17  C   UNL     1      36.235  46.618  16.494 -0.36 -0.07    +0.085 C  ATOM     18  C   UNL     1      36.258  44.401  14.857 -0.39 -0.01    +0.016 C  ATOM     19  C   UNL     1      35.446  45.427  17.031 -0.38 -0.01    +0.016 C  ATOM     20  C   UNL     1      35.173  44.400  15.933 -0.39 -0.00    +0.003 C  ENDBRANCH  14  15ENDBRANCH   5  14BRANCH   4  21ATOM     21  C   UNL     1      41.532  47.647  17.951 -0.35 -0.01    +0.204 A  ATOM     22  N   UNL     1      42.573  48.332  18.442 -0.40 -0.00    -0.151 NA ATOM     23  N   UNL     1      41.152  46.576  18.723 -0.35 +0.00    -0.205 NA ATOM     24  N   UNL     1      42.810  47.678  19.588 -0.33 -0.02    -0.259 N  ATOM     25  C   UNL     1      41.965  46.615  19.761 -0.33 +0.02    +0.157 A  ATOM     26  H   UNL     1      43.556  48.003  20.190 -0.43 -0.01    +0.192 HD BRANCH  25  27ATOM     27  C   UNL     1      41.971  45.695  20.894 -0.31 +0.01    +0.039 A  ATOM     28  C   UNL     1      43.092  45.627  21.722 -0.18 +0.04    +0.123 A  ATOM     29  C   UNL     1      40.897  44.855  21.211 -0.30 +0.00    +0.035 A  ATOM     30  N   UNL     1      43.207  44.810  22.801 -0.08 -0.05    -0.262 NA ATOM     31  C   UNL     1      40.988  44.005  22.314 -0.23 +0.00    +0.060 A  ATOM     32  C   UNL     1      42.147  44.016  23.072 -0.16 +0.01    +0.131 A  ATOM     33  Cl  UNL     1      39.681  42.968  22.717 -0.36 -0.00    -0.083 Cl ENDBRANCH  25  27ENDBRANCH   4  21TORSDOF 6TERENDMDL