MODEL        8USER    Run = 8USERUSER    Estimated Free Energy of Binding    =  -9.45 kcal/mol  [=(1)+(2)+(3)-(4)]USERUSER    (1) Final Intermolecular Energy     = -11.83 kcal/molUSER        vdW + Hbond + desolv Energy     = -11.80 kcal/molUSER        Electrostatic Energy            =  -0.04 kcal/molUSER        Moving Ligand-Fixed Receptor    = -11.83 kcal/molUSER        Moving Ligand-Moving Receptor   =  +0.00 kcal/molUSER    (2) Final Total Internal Energy     =  -2.61 kcal/molUSER    (3) Torsional Free Energy           =  +2.39 kcal/molUSER    (4) Unbound System's Energy         =  -2.61 kcal/molUSERUSERREMARK SMILES N#Cc1ccc(C2=C(Nc3ccc(OCCN4CCOCC4)c(Cl)c3)C(=O)NC2=O)cc1REMARK SMILES IDX 10 1 11 2 12 3 13 4 23 5 24 6 25 7 9 8 8 10 7 11 29 12 26 13REMARK SMILES IDX 28 14 30 15 27 16 6 18 3 19 4 20 32 21 5 22 31 23 2 24 1 25REMARK SMILES IDX 14 26 15 27 16 28 17 29 18 30 22 31 19 32 21 33 20 34REMARK H PARENT 9 9 28 17USER                              x       y       z     vdW  Elec       q    TypeUSER                           _______ _______ _______ _____ _____    ______ ____ROOTATOM      1  C   UNL     1      36.438  45.048  15.563 -0.33 -0.02    +0.040 A  ATOM      2  C   UNL     1      36.209  43.671  15.698 -0.40 -0.01    +0.030 A  ATOM      3  C   UNL     1      35.285  43.167  16.624 -0.38 -0.02    +0.050 A  ATOM      4  C   UNL     1      34.571  44.034  17.450 -0.21 -0.05    +0.138 A  ATOM      5  C   UNL     1      34.801  45.412  17.328 -0.30 -0.05    +0.085 A  ATOM      6  Cl  UNL     1      33.948  46.554  18.310 -0.75 +0.07    -0.080 Cl ATOM      7  C   UNL     1      35.729  45.910  16.403 -0.32 -0.04    +0.050 A  ENDROOTBRANCH   1   8ATOM      8  N   UNL     1      37.407  45.471  14.634 -0.14 +0.13    -0.350 N  ATOM      9  H   UNL     1      37.270  45.061  13.714 +0.12 -0.06    +0.167 HD BRANCH   8  10ATOM     10  C   UNL     1      38.169  46.619  14.636 -0.41 -0.04    +0.118 C  ATOM     11  C   UNL     1      39.033  47.074  15.564 -0.47 -0.02    +0.076 C  ATOM     12  C   UNL     1      39.481  48.418  15.142 -0.40 -0.10    +0.261 C  ATOM     13  C   UNL     1      38.035  47.713  13.622 -0.35 -0.09    +0.275 C  ATOM     14  N   UNL     1      38.929  48.671  13.942 -0.21 +0.11    -0.287 N  ATOM     15  O   UNL     1      40.193  49.170  15.782 -0.44 +0.10    -0.269 OA ATOM     16  O   UNL     1      37.236  47.771  12.707 -1.05 +0.06    -0.267 OA ATOM     17  H   UNL     1      38.985  49.559  13.472 -0.23 -0.11    +0.173 HD BRANCH  11  18ATOM     18  C   UNL     1      39.451  46.398  16.794 -0.44 +0.00    -0.010 A  ATOM     19  C   UNL     1      40.251  45.110  19.171 -0.40 -0.00    +0.052 A  ATOM     20  C   UNL     1      38.922  45.504  18.997 -0.39 -0.00    +0.020 A  ATOM     21  C   UNL     1      41.183  45.366  18.162 -0.43 +0.00    +0.020 A  ATOM     22  C   UNL     1      38.527  46.145  17.817 -0.36 -0.00    +0.010 A  ATOM     23  C   UNL     1      40.787  46.009  16.984 -0.37 -0.00    +0.010 A  BRANCH  19  24ATOM     24  C   UNL     1      40.657  44.452  20.379 -0.35 +0.01    +0.099 C  ATOM     25  N   UNL     1      40.986  43.914  21.352 -0.22 -0.01    -0.192 NA ENDBRANCH  19  24ENDBRANCH  11  18ENDBRANCH   8  10ENDBRANCH   1   8BRANCH   4  26ATOM     26  O   UNL     1      33.643  43.640  18.377 -0.02 +0.12    -0.491 OA BRANCH  26  27ATOM     27  C   UNL     1      34.071  43.507  19.735 -0.28 -0.01    +0.245 C  BRANCH  27  28ATOM     28  C   UNL     1      34.679  42.105  19.904 -0.28 +0.00    +0.126 C  BRANCH  28  29ATOM     29  N   UNL     1      36.102  42.130  20.277 -0.25 +0.01    -0.295 NA ATOM     30  C   UNL     1      36.716  43.471  20.132 -0.38 -0.01    +0.113 C  ATOM     31  C   UNL     1      36.280  41.629  21.659 -0.54 +0.00    +0.113 C  ATOM     32  C   UNL     1      36.901  44.217  21.464 -0.30 +0.01    +0.175 C  ATOM     33  C   UNL     1      37.621  42.077  22.257 -0.38 +0.01    +0.175 C  ATOM     34  O   UNL     1      37.715  43.501  22.402 -0.17 -0.02    -0.379 OA ENDBRANCH  28  29ENDBRANCH  27  28ENDBRANCH  26  27ENDBRANCH   4  26TORSDOF 8TERENDMDL