REMARK SMILES O=C1NC(=O)C(c2ccc(C(F)(F)F)cc2)=C1Nc1ccc(O)c(Cl)c1
REMARK SMILES IDX 1 1 2 2 3 3 4 4 5 5 6 6 17 7 18 9 19 11 20 12 26 13 21 14
REMARK SMILES IDX 24 15 22 16 25 17 23 18 7 20 8 21 16 22 9 23 15 24 10 25
REMARK SMILES IDX 11 26 12 27 13 28 14 29
REMARK H PARENT 3 8 18 10 23 19
ROOT
ATOM      1  O   UNL     1       2.413   2.895   0.059  1.00  0.00    -0.267 OA
ATOM      2  C   UNL     1       1.278   2.621  -0.285  1.00  0.00     0.275 C 
ATOM      3  N   UNL     1       0.452   3.443  -0.963  1.00  0.00    -0.287 N 
ATOM      4  C   UNL     1      -0.798   2.944  -0.988  1.00  0.00     0.261 C 
ATOM      5  O   UNL     1      -1.789   3.498  -1.424  1.00  0.00    -0.269 OA
ATOM      6  C   UNL     1      -0.751   1.606  -0.362  1.00  0.00     0.076 C 
ATOM      7  C   UNL     1       0.521   1.362   0.005  1.00  0.00     0.118 C 
ATOM      8  H   UNL     1       0.689   4.383  -1.230  1.00  0.00     0.173 HD
ENDROOT
BRANCH   7   9
ATOM      9  N   UNL     1       1.054   0.252   0.626  1.00  0.00    -0.350 N 
ATOM     10  H   UNL     1       0.363  -0.454   0.873  1.00  0.00     0.167 HD
BRANCH   9  11
ATOM     11  C   UNL     1       2.340  -0.315   0.500  1.00  0.00     0.040 A 
ATOM     12  C   UNL     1       2.725  -1.276   1.454  1.00  0.00     0.030 A 
ATOM     13  C   UNL     1       3.268   0.048  -0.482  1.00  0.00     0.050 A 
ATOM     14  C   UNL     1       3.991  -1.868   1.421  1.00  0.00     0.050 A 
ATOM     15  C   UNL     1       4.534  -0.542  -0.517  1.00  0.00     0.084 A 
ATOM     16  C   UNL     1       4.891  -1.498   0.433  1.00  0.00     0.134 A 
ATOM     17  Cl  UNL     1       5.649  -0.088  -1.754  1.00  0.00    -0.080 Cl
BRANCH  16  18
ATOM     18  O   UNL     1       6.117  -2.102   0.436  1.00  0.00    -0.506 OA
ATOM     19  H   UNL     1       6.630  -1.712  -0.297  1.00  0.00     0.293 HD
ENDBRANCH  16  18
ENDBRANCH   9  11
ENDBRANCH   7   9
BRANCH   6  20
ATOM     20  C   UNL     1      -1.905   0.718  -0.218  1.00  0.00    -0.011 A 
ATOM     21  C   UNL     1      -2.675   0.374  -1.335  1.00  0.00     0.009 A 
ATOM     22  C   UNL     1      -2.270   0.212   1.037  1.00  0.00     0.009 A 
ATOM     23  C   UNL     1      -3.778  -0.476  -1.205  1.00  0.00     0.014 A 
ATOM     24  C   UNL     1      -3.372  -0.638   1.169  1.00  0.00     0.014 A 
ATOM     25  C   UNL     1      -4.132  -0.999   0.047  1.00  0.00     0.056 A 
BRANCH  25  26
ATOM     26  C   UNL     1      -5.338  -1.897   0.194  1.00  0.00     0.416 C 
ATOM     27  F   UNL     1      -5.618  -2.606  -0.935  1.00  0.00    -0.166 F 
ATOM     28  F   UNL     1      -6.469  -1.201   0.492  1.00  0.00    -0.166 F 
ATOM     29  F   UNL     1      -5.193  -2.820   1.185  1.00  0.00    -0.166 F 
ENDBRANCH  25  26
ENDBRANCH   6  20
TORSDOF 5
