MODEL        10USER    Run = 10USERUSER    Estimated Free Energy of Binding    =  -9.48 kcal/mol  [=(1)+(2)+(3)-(4)]USERUSER    (1) Final Intermolecular Energy     = -10.97 kcal/molUSER        vdW + Hbond + desolv Energy     = -10.66 kcal/molUSER        Electrostatic Energy            =  -0.30 kcal/molUSER        Moving Ligand-Fixed Receptor    = -10.97 kcal/molUSER        Moving Ligand-Moving Receptor   =  +0.00 kcal/molUSER    (2) Final Total Internal Energy     =  -1.18 kcal/molUSER    (3) Torsional Free Energy           =  +1.49 kcal/molUSER    (4) Unbound System's Energy         =  -1.18 kcal/molUSERUSERREMARK SMILES N#Cc1ccc(C2=C(Nc3ccc(O)c(Cl)c3)C(=O)NC2=O)cc1REMARK SMILES IDX 7 1 8 2 18 3 19 4 20 5 21 6 22 7 6 9 3 10 4 11 24 12 5 13REMARK SMILES IDX 23 14 2 15 1 16 9 17 10 19 11 20 17 21 12 22 15 23 13 24REMARK SMILES IDX 16 25 14 26REMARK H PARENT 20 8 9 18 14 27USER                              x       y       z     vdW  Elec       q    TypeUSER                           _______ _______ _______ _____ _____    ______ ____ROOTATOM      1  C   UNL     1      36.198  45.783  14.728 -0.40 -0.04    +0.076 C  ATOM      2  C   UNL     1      37.257  46.172  13.995 -0.42 -0.05    +0.118 C  ATOM      3  C   UNL     1      36.690  46.850  12.786 -0.47 -0.12    +0.275 C  ATOM      4  O   UNL     1      37.296  47.507  11.960 -1.10 +0.05    -0.267 OA ATOM      5  N   UNL     1      35.356  46.649  12.798 -0.34 +0.19    -0.287 N  ATOM      6  C   UNL     1      34.974  46.089  13.959 -0.18 -0.20    +0.261 C  ATOM      7  O   UNL     1      33.831  45.889  14.326 -0.27 +0.25    -0.269 OA ATOM      8  H   UNL     1      34.723  47.052  12.128 -0.15 -0.17    +0.173 HD ENDROOTBRANCH   1   9ATOM      9  C   UNL     1      36.211  45.136  16.041 -0.34 +0.00    -0.010 A  ATOM     10  C   UNL     1      36.220  43.888  18.563 -0.30 -0.01    +0.052 A  ATOM     11  C   UNL     1      35.569  43.287  17.483 -0.34 -0.01    +0.020 A  ATOM     12  C   UNL     1      36.862  45.117  18.385 -0.32 -0.00    +0.020 A  ATOM     13  C   UNL     1      35.562  43.909  16.231 -0.36 -0.00    +0.010 A  ATOM     14  C   UNL     1      36.854  45.739  17.133 -0.35 -0.00    +0.010 A  BRANCH  10  15ATOM     15  C   UNL     1      36.228  43.251  19.848 -0.40 -0.01    +0.099 C  ATOM     16  N   UNL     1      36.242  42.734  20.887 -0.33 -0.00    -0.192 NA ENDBRANCH  10  15ENDBRANCH   1   9BRANCH   2  17ATOM     17  N   UNL     1      38.604  46.099  14.285 -0.17 +0.09    -0.350 N  ATOM     18  H   UNL     1      39.148  45.603  13.584 +0.13 -0.03    +0.167 HD BRANCH  17  19ATOM     19  C   UNL     1      39.406  47.028  14.982 -0.44 -0.01    +0.040 A  ATOM     20  C   UNL     1      39.606  48.290  14.396 -0.44 -0.01    +0.030 A  ATOM     21  C   UNL     1      40.041  46.760  16.198 -0.44 -0.01    +0.050 A  ATOM     22  C   UNL     1      40.403  49.262  15.009 -0.52 -0.02    +0.050 A  ATOM     23  C   UNL     1      40.838  47.728  16.821 -0.46 -0.01    +0.084 A  ATOM     24  C   UNL     1      41.017  48.978  16.225 -0.46 -0.02    +0.134 A  ATOM     25  Cl  UNL     1      41.574  47.342  18.334 -0.72 +0.00    -0.080 Cl BRANCH  24  26ATOM     26  O   UNL     1      41.792  49.925  16.834 -0.72 -0.08    -0.506 OA ATOM     27  H   UNL     1      41.432  50.807  16.650 -0.35 -0.09    +0.293 HD ENDBRANCH  24  26ENDBRANCH  17  19ENDBRANCH   2  17TORSDOF 5TERENDMDL