MODEL        6USER    Run = 6USERUSER    Estimated Free Energy of Binding    =  -8.83 kcal/mol  [=(1)+(2)+(3)-(4)]USERUSER    (1) Final Intermolecular Energy     = -10.32 kcal/molUSER        vdW + Hbond + desolv Energy     = -10.23 kcal/molUSER        Electrostatic Energy            =  -0.09 kcal/molUSER        Moving Ligand-Fixed Receptor    = -10.32 kcal/molUSER        Moving Ligand-Moving Receptor   =  +0.00 kcal/molUSER    (2) Final Total Internal Energy     =  -1.43 kcal/molUSER    (3) Torsional Free Energy           =  +1.49 kcal/molUSER    (4) Unbound System's Energy         =  -1.43 kcal/molUSERUSERREMARK SMILES O=C1NC(=O)C(c2ccc(C(F)(F)F)cc2)=C1Nc1ccc(O)c(Cl)c1REMARK SMILES IDX 1 1 2 2 3 3 4 4 5 5 6 6 17 7 18 9 19 11 20 12 26 13 21 14REMARK SMILES IDX 24 15 22 16 25 17 23 18 7 20 8 21 16 22 9 23 15 24 10 25REMARK SMILES IDX 11 26 12 27 13 28 14 29REMARK H PARENT 3 8 18 10 23 19USER                              x       y       z     vdW  Elec       q    TypeUSER                           _______ _______ _______ _____ _____    ______ ____ROOTATOM      1  O   UNL     1      41.964  46.553  19.889 -0.32 -0.04    -0.267 OA ATOM      2  C   UNL     1      41.638  46.991  18.801 -0.37 +0.00    +0.275 C  ATOM      3  N   UNL     1      42.146  48.099  18.226 -0.35 +0.00    -0.287 N  ATOM      4  C   UNL     1      41.424  48.445  17.144 -0.29 -0.01    +0.261 C  ATOM      5  O   UNL     1      41.558  49.453  16.476 -1.07 -0.02    -0.269 OA ATOM      6  C   UNL     1      40.415  47.386  16.930 -0.53 -0.01    +0.076 C  ATOM      7  C   UNL     1      40.581  46.454  17.887 -0.48 -0.01    +0.118 C  ATOM      8  H   UNL     1      42.833  48.693  18.658 -0.15 -0.00    +0.173 HD ENDROOTBRANCH   7   9ATOM      9  N   UNL     1      39.878  45.286  18.101 -0.18 +0.03    -0.350 N  ATOM     10  H   UNL     1      40.456  44.510  18.418 +0.10 -0.00    +0.167 HD BRANCH   9  11ATOM     11  C   UNL     1      38.530  45.107  18.477 -0.37 -0.01    +0.040 A  ATOM     12  C   UNL     1      38.275  44.409  19.673 -0.34 -0.00    +0.030 A  ATOM     13  C   UNL     1      37.437  45.538  17.719 -0.33 -0.01    +0.050 A  ATOM     14  C   UNL     1      36.969  44.162  20.107 -0.35 -0.00    +0.050 A  ATOM     15  C   UNL     1      36.131  45.292  18.150 -0.26 -0.03    +0.084 A  ATOM     16  C   UNL     1      35.901  44.606  19.342 -0.24 -0.02    +0.134 A  ATOM     17  Cl  UNL     1      34.803  45.855  17.202 -0.54 +0.06    -0.080 Cl BRANCH  16  18ATOM     18  O   UNL     1      34.641  44.345  19.803 -0.14 +0.09    -0.506 OA ATOM     19  H   UNL     1      34.167  45.197  19.837 -0.08 -0.12    +0.293 HD ENDBRANCH  16  18ENDBRANCH   9  11ENDBRANCH   7   9BRANCH   6  20ATOM     20  C   UNL     1      39.447  47.374  15.833 -0.49 +0.00    -0.011 A  ATOM     21  C   UNL     1      38.632  48.487  15.599 -0.49 -0.01    +0.009 A  ATOM     22  C   UNL     1      39.304  46.246  15.013 -0.42 -0.00    +0.009 A  ATOM     23  C   UNL     1      37.705  48.484  14.551 -0.53 -0.01    +0.014 A  ATOM     24  C   UNL     1      38.379  46.241  13.965 -0.38 -0.00    +0.014 A  ATOM     25  C   UNL     1      37.576  47.364  13.717 -0.49 -0.02    +0.056 A  BRANCH  25  26ATOM     26  C   UNL     1      36.558  47.348  12.601 -0.38 -0.18    +0.416 C  ATOM     27  F   UNL     1      35.506  46.519  12.848 -0.22 +0.10    -0.166 F  ATOM     28  F   UNL     1      37.092  46.936  11.418 -0.28 +0.05    -0.166 F  ATOM     29  F   UNL     1      36.016  48.574  12.361 -0.26 +0.08    -0.166 F  ENDBRANCH  25  26ENDBRANCH   6  20TORSDOF 5TERENDMDL