REMARK SMILES N#Cc1ccc(C2=C(Nc3ccc(O)c(Cl)c3)C(=O)NC2=O)cc1
REMARK SMILES IDX 7 1 8 2 18 3 19 4 20 5 21 6 22 7 6 9 3 10 4 11 24 12 5 13
REMARK SMILES IDX 23 14 2 15 1 16 9 17 10 19 11 20 17 21 12 22 15 23 13 24
REMARK SMILES IDX 16 25 14 26
REMARK H PARENT 20 8 9 18 14 27
ROOT
ATOM      1  C   UNL     1      -1.239  -1.423   0.032  1.00  0.00     0.076 C 
ATOM      2  C   UNL     1       0.068  -1.266  -0.245  1.00  0.00     0.118 C 
ATOM      3  C   UNL     1       0.668  -2.637  -0.174  1.00  0.00     0.275 C 
ATOM      4  O   UNL     1       1.781  -2.971  -0.535  1.00  0.00    -0.267 OA
ATOM      5  N   UNL     1      -0.275  -3.466   0.318  1.00  0.00    -0.287 N 
ATOM      6  C   UNL     1      -1.462  -2.838   0.395  1.00  0.00     0.261 C 
ATOM      7  O   UNL     1      -2.531  -3.341   0.687  1.00  0.00    -0.269 OA
ATOM      8  H   UNL     1      -0.154  -4.460   0.411  1.00  0.00     0.173 HD
ENDROOT
BRANCH   1   9
ATOM      9  C   UNL     1      -2.282  -0.396   0.023  1.00  0.00    -0.010 A 
ATOM     10  C   UNL     1      -4.298   1.568   0.015  1.00  0.00     0.052 A 
ATOM     11  C   UNL     1      -4.068   0.801   1.160  1.00  0.00     0.020 A 
ATOM     12  C   UNL     1      -3.525   1.349  -1.129  1.00  0.00     0.020 A 
ATOM     13  C   UNL     1      -3.068  -0.177   1.162  1.00  0.00     0.010 A 
ATOM     14  C   UNL     1      -2.526   0.371  -1.126  1.00  0.00     0.010 A 
BRANCH  10  15
ATOM     15  C   UNL     1      -5.323   2.571   0.011  1.00  0.00     0.099 C 
ATOM     16  N   UNL     1      -6.147   3.388   0.005  1.00  0.00    -0.192 NA
ENDBRANCH  10  15
ENDBRANCH   1   9
BRANCH   2  17
ATOM     17  N   UNL     1       0.757  -0.136  -0.633  1.00  0.00    -0.350 N 
ATOM     18  H   UNL     1       0.166   0.682  -0.761  1.00  0.00     0.167 HD
BRANCH  17  19
ATOM     19  C   UNL     1       2.079   0.243  -0.314  1.00  0.00     0.040 A 
ATOM     20  C   UNL     1       2.657   1.289  -1.055  1.00  0.00     0.030 A 
ATOM     21  C   UNL     1       2.859  -0.377   0.666  1.00  0.00     0.050 A 
ATOM     22  C   UNL     1       3.968   1.714  -0.818  1.00  0.00     0.050 A 
ATOM     23  C   UNL     1       4.171   0.045   0.913  1.00  0.00     0.084 A 
ATOM     24  C   UNL     1       4.723   1.090   0.170  1.00  0.00     0.134 A 
ATOM     25  Cl  UNL     1       5.072  -0.747   2.155  1.00  0.00    -0.080 Cl
BRANCH  24  26
ATOM     26  O   UNL     1       6.003   1.504   0.412  1.00  0.00    -0.506 OA
ATOM     27  H   UNL     1       6.247   2.195  -0.224  1.00  0.00     0.293 HD
ENDBRANCH  24  26
ENDBRANCH  17  19
ENDBRANCH   2  17
TORSDOF 5
