REMARK SMILES N#Cc1ccc(C2=C(Nc3ccc(OCCN4CCOCC4)c(Cl)c3)C(=O)NC2=O)cc1
REMARK SMILES IDX 10 1 11 2 12 3 13 4 23 5 24 6 25 7 9 8 8 10 7 11 29 12 26 13
REMARK SMILES IDX 28 14 30 15 27 16 6 18 3 19 4 20 32 21 5 22 31 23 2 24 1 25
REMARK SMILES IDX 14 26 15 27 16 28 17 29 18 30 22 31 19 32 21 33 20 34
REMARK H PARENT 9 9 28 17
ROOT
ATOM      1  C   UNL     1       1.547  -0.398   0.400  1.00  0.00     0.040 A 
ATOM      2  C   UNL     1       0.666  -0.441  -0.690  1.00  0.00     0.030 A 
ATOM      3  C   UNL     1      -0.665  -0.018  -0.576  1.00  0.00     0.050 A 
ATOM      4  C   UNL     1      -1.153   0.452   0.643  1.00  0.00     0.138 A 
ATOM      5  C   UNL     1      -0.281   0.490   1.740  1.00  0.00     0.085 A 
ATOM      6  Cl  UNL     1      -0.807   1.069   3.284  1.00  0.00    -0.080 Cl
ATOM      7  C   UNL     1       1.049   0.061   1.621  1.00  0.00     0.050 A 
ENDROOT
BRANCH   1   8
ATOM      8  N   UNL     1       2.859  -0.874   0.212  1.00  0.00    -0.350 N 
ATOM      9  H   UNL     1       3.224  -0.656  -0.712  1.00  0.00     0.167 HD
BRANCH   8  10
ATOM     10  C   UNL     1       3.826  -1.149   1.154  1.00  0.00     0.118 C 
ATOM     11  C   UNL     1       5.160  -0.981   1.088  1.00  0.00     0.076 C 
ATOM     12  C   UNL     1       5.749  -1.560   2.314  1.00  0.00     0.261 C 
ATOM     13  C   UNL     1       3.563  -1.884   2.432  1.00  0.00     0.275 C 
ATOM     14  N   UNL     1       4.734  -1.973   3.095  1.00  0.00    -0.287 N 
ATOM     15  O   UNL     1       6.937  -1.671   2.556  1.00  0.00    -0.269 OA
ATOM     16  O   UNL     1       2.508  -2.369   2.796  1.00  0.00    -0.267 OA
ATOM     17  H   UNL     1       4.854  -2.499   3.944  1.00  0.00     0.173 HD
BRANCH  11  18
ATOM     18  C   UNL     1       5.925  -0.368  -0.001  1.00  0.00    -0.010 A 
ATOM     19  C   UNL     1       7.410   0.811  -2.087  1.00  0.00     0.052 A 
ATOM     20  C   UNL     1       7.793  -0.426  -1.562  1.00  0.00     0.020 A 
ATOM     21  C   UNL     1       6.290   1.464  -1.565  1.00  0.00     0.020 A 
ATOM     22  C   UNL     1       7.056  -1.009  -0.525  1.00  0.00     0.010 A 
ATOM     23  C   UNL     1       5.555   0.880  -0.527  1.00  0.00     0.010 A 
BRANCH  19  24
ATOM     24  C   UNL     1       8.164   1.409  -3.150  1.00  0.00     0.099 C 
ATOM     25  N   UNL     1       8.767   1.894  -4.014  1.00  0.00    -0.192 NA
ENDBRANCH  19  24
ENDBRANCH  11  18
ENDBRANCH   8  10
ENDBRANCH   1   8
BRANCH   4  26
ATOM     26  O   UNL     1      -2.432   0.895   0.851  1.00  0.00    -0.491 OA
BRANCH  26  27
ATOM     27  C   UNL     1      -3.386   0.696  -0.196  1.00  0.00     0.245 C 
BRANCH  27  28
ATOM     28  C   UNL     1      -4.753   1.183   0.312  1.00  0.00     0.126 C 
BRANCH  28  29
ATOM     29  N   UNL     1      -5.826   1.044  -0.685  1.00  0.00    -0.295 NA
ATOM     30  C   UNL     1      -6.287  -0.354  -0.850  1.00  0.00     0.113 C 
ATOM     31  C   UNL     1      -6.965   1.925  -0.341  1.00  0.00     0.113 C 
ATOM     32  C   UNL     1      -7.624  -0.654  -0.152  1.00  0.00     0.175 C 
ATOM     33  C   UNL     1      -8.259   1.477  -1.035  1.00  0.00     0.175 C 
ATOM     34  O   UNL     1      -8.697   0.180  -0.608  1.00  0.00    -0.379 OA
ENDBRANCH  28  29
ENDBRANCH  27  28
ENDBRANCH  26  27
ENDBRANCH   4  26
TORSDOF 8
