MODEL        4USER    Run = 4USERUSER    Estimated Free Energy of Binding    =  -7.01 kcal/mol  [=(1)+(2)+(3)-(4)]USERUSER    (1) Final Intermolecular Energy     =  -9.39 kcal/molUSER        vdW + Hbond + desolv Energy     =  -9.26 kcal/molUSER        Electrostatic Energy            =  -0.14 kcal/molUSER        Moving Ligand-Fixed Receptor    =  -9.39 kcal/molUSER        Moving Ligand-Moving Receptor   =  +0.00 kcal/molUSER    (2) Final Total Internal Energy     =  -1.04 kcal/molUSER    (3) Torsional Free Energy           =  +2.39 kcal/molUSER    (4) Unbound System's Energy         =  -1.04 kcal/molUSERUSERREMARK SMILES CCOCC(=O)N1[C@H](C#N)c2cc(OC)c(OC)cc2[C@H]1OCREMARK SMILES IDX 4 1 3 2 2 3 1 4 5 5 6 6 7 7 8 8 21 9 11 10 20 11 12 12 19 13REMARK SMILES IDX 13 14 16 15 9 16 10 17 22 18 23 19 14 20 15 21 17 22 18 23REMARK H PARENTUSER                              x       y       z     vdW  Elec       q    TypeUSER                           _______ _______ _______ _____ _____    ______ ____ROOTATOM      1  C   UNL     1      35.257  44.546  16.234 -0.21 -0.13    +0.260 C  ENDROOTBRANCH   1   2ATOM      2  O   UNL     1      35.383  43.227  15.721 -0.26 +0.15    -0.372 OA BRANCH   2   3ATOM      3  C   UNL     1      34.757  42.238  16.534 -0.31 -0.07    +0.157 C  ATOM      4  C   UNL     1      35.052  42.468  18.005 -0.44 -0.01    +0.035 C  ENDBRANCH   2   3ENDBRANCH   1   2BRANCH   1   5ATOM      5  C   UNL     1      35.674  45.613  15.206 -0.24 -0.17    +0.252 C  ATOM      6  O   UNL     1      35.015  45.814  14.184 -0.29 +0.19    -0.272 OA BRANCH   5   7ATOM      7  N   UNL     1      36.802  46.359  15.477 -0.17 +0.18    -0.290 N  ATOM      8  C   UNL     1      37.184  47.670  14.923 -0.36 -0.16    +0.223 C  ATOM      9  C   UNL     1      37.716  45.915  16.515 -0.26 -0.10    +0.250 C  ATOM     10  C   UNL     1      38.537  47.923  15.541 -0.49 -0.00    +0.001 A  ATOM     11  C   UNL     1      38.849  46.895  16.435 -0.42 -0.00    +0.012 A  ATOM     12  C   UNL     1      39.415  48.979  15.333 -0.42 -0.03    +0.057 A  ATOM     13  C   UNL     1      40.044  46.895  17.140 -0.45 -0.01    +0.059 A  ATOM     14  C   UNL     1      40.632  48.990  16.027 -0.45 -0.04    +0.161 A  ATOM     15  C   UNL     1      40.945  47.946  16.938 -0.39 -0.02    +0.161 A  BRANCH   8  16ATOM     16  C   UNL     1      37.260  47.680  13.448 -0.57 -0.04    +0.093 C  ATOM     17  N   UNL     1      37.303  47.647  12.287 -1.07 +0.03    -0.196 NA ENDBRANCH   8  16BRANCH   9  18ATOM     18  O   UNL     1      37.079  46.127  17.767 -0.18 +0.14    -0.357 OA ATOM     19  C   UNL     1      37.399  45.115  18.710 -0.25 -0.03    +0.198 C  ENDBRANCH   9  18BRANCH  14  20ATOM     20  O   UNL     1      41.582  49.975  15.901 -0.80 +0.02    -0.493 OA ATOM     21  C   UNL     1      41.945  50.380  14.588 -0.48 -0.06    +0.278 C  ENDBRANCH  14  20BRANCH  15  22ATOM     22  O   UNL     1      42.159  48.054  17.574 -0.36 +0.00    -0.493 OA ATOM     23  C   UNL     1      42.353  47.297  18.760 -0.40 +0.01    +0.278 C  ENDBRANCH  15  22ENDBRANCH   5   7ENDBRANCH   1   5TORSDOF 8TERENDMDL