REMARK SMILES Nc1cc([C@@H]2NC=C(c3cccs3)c3nccn32)ccc1O
REMARK SMILES IDX 2 1 3 2 4 3 19 4 20 5 21 6 1 7 22 10 5 12 6 13 18 14 7 15
REMARK SMILES IDX 17 16 14 17 8 18 16 19 15 20 9 22 10 23 13 24 11 25 12 26
REMARK H PARENT 1 8 1 9 22 11 6 21
ROOT
ATOM      1  C   UNL     1      -4.104   0.493   0.400  1.00  0.00     0.074 A 
ATOM      2  C   UNL     1      -3.047  -0.346   0.754  1.00  0.00     0.037 A 
ATOM      3  C   UNL     1      -1.717  -0.003   0.433  1.00  0.00    -0.003 A 
ATOM      4  C   UNL     1      -1.475   1.190  -0.279  1.00  0.00     0.012 A 
ATOM      5  C   UNL     1      -2.531   2.009  -0.676  1.00  0.00     0.049 A 
ATOM      6  C   UNL     1      -3.827   1.645  -0.344  1.00  0.00     0.138 A 
ENDROOT
BRANCH   1   7
ATOM      7  N   UNL     1      -5.449   0.101   0.575  1.00  0.00    -0.396 N 
ATOM      8  H   UNL     1      -5.553  -0.565   1.339  1.00  0.00     0.156 HD
ATOM      9  H   UNL     1      -5.792  -0.334  -0.283  1.00  0.00     0.156 HD
ENDBRANCH   1   7
BRANCH   6  10
ATOM     10  O   UNL     1      -4.866   2.444  -0.736  1.00  0.00    -0.506 OA
ATOM     11  H   UNL     1      -5.643   2.050  -0.290  1.00  0.00     0.293 HD
ENDBRANCH   6  10
BRANCH   3  12
ATOM     12  C   UNL     1      -0.576  -0.908   0.870  1.00  0.00     0.213 C 
ATOM     13  N   UNL     1       0.241  -0.225   1.872  1.00  0.00    -0.366 N 
ATOM     14  N   UNL     1       0.210  -1.377  -0.275  1.00  0.00    -0.306 N 
ATOM     15  C   UNL     1       1.539   0.151   1.570  1.00  0.00     0.093 C 
ATOM     16  C   UNL     1      -0.198  -2.212  -1.280  1.00  0.00     0.110 A 
ATOM     17  C   UNL     1       1.545  -1.071  -0.472  1.00  0.00     0.144 A 
ATOM     18  C   UNL     1       2.226  -0.214   0.464  1.00  0.00     0.050 C 
ATOM     19  C   UNL     1       0.908  -2.363  -2.080  1.00  0.00     0.131 A 
ATOM     20  N   UNL     1       1.973  -1.661  -1.577  1.00  0.00    -0.237 NA
ATOM     21  H   UNL     1      -0.262   0.413   2.482  1.00  0.00     0.162 HD
BRANCH  18  22
ATOM     22  C   UNL     1       3.583   0.235   0.284  1.00  0.00     0.039 A 
ATOM     23  C   UNL     1       4.644  -0.453  -0.292  1.00  0.00     0.020 A 
ATOM     24  S   UNL     1       4.103   1.825   0.733  1.00  0.00    -0.144 S 
ATOM     25  C   UNL     1       5.857   0.293  -0.332  1.00  0.00     0.012 A 
ATOM     26  C   UNL     1       5.700   1.549   0.201  1.00  0.00     0.065 A 
ENDBRANCH  18  22
ENDBRANCH   3  12
TORSDOF 4
