MODEL        2USER    Run = 2USERUSER    Estimated Free Energy of Binding    =  -8.97 kcal/mol  [=(1)+(2)+(3)-(4)]USERUSER    (1) Final Intermolecular Energy     = -10.16 kcal/molUSER        vdW + Hbond + desolv Energy     =  -9.78 kcal/molUSER        Electrostatic Energy            =  -0.38 kcal/molUSER        Moving Ligand-Fixed Receptor    = -10.16 kcal/molUSER        Moving Ligand-Moving Receptor   =  +0.00 kcal/molUSER    (2) Final Total Internal Energy     =  -1.11 kcal/molUSER    (3) Torsional Free Energy           =  +1.19 kcal/molUSER    (4) Unbound System's Energy         =  -1.11 kcal/molUSERUSERREMARK SMILES Cc1ccc(C2=CN[C@@H](c3ccc(O)c(N)c3)n3ccnc32)o1REMARK SMILES IDX 6 1 7 2 8 3 9 4 18 5 19 6 20 7 21 8 22 9 5 11 2 12 3 13REMARK SMILES IDX 23 14 4 15 1 16 10 17 11 18 17 19 12 20 15 21 13 22 16 23REMARK SMILES IDX 14 26REMARK H PARENT 8 10 16 24 16 25 14 27USER                              x       y       z     vdW  Elec       q    TypeUSER                           _______ _______ _______ _____ _____    ______ ____ROOTATOM      1  C   UNL     1      38.936  47.355  14.994 -0.49 -0.03    +0.076 C  ATOM      2  C   UNL     1      39.158  46.292  15.800 -0.41 -0.02    +0.095 C  ATOM      3  N   UNL     1      38.366  45.160  15.871 -0.06 +0.10    -0.366 N  ATOM      4  C   UNL     1      37.069  45.127  15.196 -0.28 -0.08    +0.213 C  ATOM      5  N   UNL     1      36.888  46.248  14.268 -0.18 +0.15    -0.306 N  ATOM      6  C   UNL     1      35.881  46.419  13.357 -0.44 -0.06    +0.110 A  ATOM      7  C   UNL     1      36.169  47.609  12.737 -0.54 -0.07    +0.131 A  ATOM      8  N   UNL     1      37.325  48.153  13.236 -0.81 +0.08    -0.237 NA ATOM      9  C   UNL     1      37.769  47.310  14.156 -0.38 -0.06    +0.147 A  ATOM     10  H   UNL     1      38.417  44.647  16.748 +0.10 -0.03    +0.162 HD ENDROOTBRANCH   1  11ATOM     11  C   UNL     1      39.870  48.445  15.049 -0.45 -0.04    +0.139 A  ATOM     12  C   UNL     1      41.465  49.857  14.374 -0.57 -0.02    +0.101 A  ATOM     13  C   UNL     1      41.146  50.236  15.654 -0.60 -0.01    +0.046 A  ATOM     14  O   UNL     1      40.712  48.789  14.002 -0.10 +0.09    -0.461 OA ATOM     15  C   UNL     1      40.137  49.341  16.082 -0.40 -0.02    +0.051 A  ATOM     16  C   UNL     1      42.421  50.362  13.371 -0.69 -0.02    +0.087 C  ENDBRANCH   1  11BRANCH   4  17ATOM     17  C   UNL     1      35.954  45.075  16.229 -0.33 +0.00    -0.003 A  ATOM     18  C   UNL     1      35.439  43.834  16.645 -0.35 -0.00    +0.012 A  ATOM     19  C   UNL     1      35.435  46.254  16.805 -0.34 -0.03    +0.037 A  ATOM     20  C   UNL     1      34.447  43.771  17.623 -0.27 -0.02    +0.049 A  ATOM     21  C   UNL     1      34.395  46.204  17.733 -0.38 -0.07    +0.074 A  ATOM     22  C   UNL     1      33.961  44.948  18.175 -0.29 -0.06    +0.138 A  BRANCH  21  23ATOM     23  N   UNL     1      33.908  47.378  18.341 -0.30 +0.43    -0.396 N  ATOM     24  H   UNL     1      33.088  47.185  18.913 -0.38 -0.12    +0.156 HD ATOM     25  H   UNL     1      33.688  48.102  17.660 -0.45 -0.42    +0.156 HD ENDBRANCH  21  23BRANCH  22  26ATOM     26  O   UNL     1      33.070  44.863  19.208 -0.14 +0.13    -0.506 OA ATOM     27  H   UNL     1      33.338  45.576  19.818 -0.25 -0.15    +0.293 HD ENDBRANCH  22  26ENDBRANCH   4  17TORSDOF 4TERENDMDL