REMARK SMILES Nc1ccc([C@H]2NC=C(c3ccco3)c3nccn32)c(O)c1
REMARK SMILES IDX 2 1 3 2 4 3 5 4 20 5 22 6 1 7 21 10 6 12 7 13 19 14 8 15
REMARK SMILES IDX 18 16 15 17 9 18 17 19 16 20 10 22 11 23 14 24 12 25 13 26
REMARK H PARENT 1 8 1 9 21 11 7 21
ROOT
ATOM      1  C   UNL     1      -4.335   0.546   0.418  1.00  0.00     0.035 A 
ATOM      2  C   UNL     1      -4.187   0.402  -0.961  1.00  0.00     0.026 A 
ATOM      3  C   UNL     1      -2.925   0.187  -1.527  1.00  0.00     0.014 A 
ATOM      4  C   UNL     1      -1.770   0.148  -0.727  1.00  0.00     0.037 A 
ATOM      5  C   UNL     1      -1.926   0.368   0.647  1.00  0.00     0.124 A 
ATOM      6  C   UNL     1      -3.187   0.581   1.212  1.00  0.00     0.072 A 
ENDROOT
BRANCH   1   7
ATOM      7  N   UNL     1      -5.581   0.877   0.962  1.00  0.00    -0.399 N 
ATOM      8  H   UNL     1      -5.676   0.660   1.949  1.00  0.00     0.156 HD
ATOM      9  H   UNL     1      -6.371   0.542   0.419  1.00  0.00     0.156 HD
ENDBRANCH   1   7
BRANCH   5  10
ATOM     10  O   UNL     1      -0.819   0.397   1.444  1.00  0.00    -0.507 OA
ATOM     11  H   UNL     1      -1.084   0.435   2.378  1.00  0.00     0.293 HD
ENDBRANCH   5  10
BRANCH   4  12
ATOM     12  C   UNL     1      -0.421  -0.090  -1.385  1.00  0.00     0.217 C 
ATOM     13  N   UNL     1       0.377   1.144  -1.415  1.00  0.00    -0.366 N 
ATOM     14  N   UNL     1       0.296  -1.237  -0.816  1.00  0.00    -0.306 N 
ATOM     15  C   UNL     1       1.604   1.170  -0.770  1.00  0.00     0.095 C 
ATOM     16  C   UNL     1      -0.107  -2.546  -0.802  1.00  0.00     0.110 A 
ATOM     17  C   UNL     1       1.577  -1.166  -0.298  1.00  0.00     0.147 A 
ATOM     18  C   UNL     1       2.240   0.106  -0.230  1.00  0.00     0.076 C 
ATOM     19  C   UNL     1       0.945  -3.229  -0.246  1.00  0.00     0.131 A 
ATOM     20  N   UNL     1       1.978  -2.378   0.052  1.00  0.00    -0.237 NA
ATOM     21  H   UNL     1      -0.174   1.986  -1.264  1.00  0.00     0.162 HD
BRANCH  18  22
ATOM     22  C   UNL     1       3.510   0.316   0.408  1.00  0.00     0.139 A 
ATOM     23  C   UNL     1       4.520   1.239   0.131  1.00  0.00     0.051 A 
ATOM     24  O   UNL     1       3.948  -0.437   1.481  1.00  0.00    -0.464 OA
ATOM     25  C   UNL     1       5.576   1.034   1.050  1.00  0.00     0.043 A 
ATOM     26  C   UNL     1       5.175  -0.003   1.850  1.00  0.00     0.196 A 
ENDBRANCH  18  22
ENDBRANCH   4  12
TORSDOF 4
