MODEL        9USER    Run = 9USERUSER    Estimated Free Energy of Binding    =  -7.77 kcal/mol  [=(1)+(2)+(3)-(4)]USERUSER    (1) Final Intermolecular Energy     =  -8.97 kcal/molUSER        vdW + Hbond + desolv Energy     =  -8.55 kcal/molUSER        Electrostatic Energy            =  -0.41 kcal/molUSER        Moving Ligand-Fixed Receptor    =  -8.97 kcal/molUSER        Moving Ligand-Moving Receptor   =  +0.00 kcal/molUSER    (2) Final Total Internal Energy     =  -0.63 kcal/molUSER    (3) Torsional Free Energy           =  +1.19 kcal/molUSER    (4) Unbound System's Energy         =  -0.63 kcal/molUSERUSERREMARK SMILES Nc1ccc([C@H]2NC=C(c3ccco3)c3nccn32)c(O)c1REMARK SMILES IDX 2 1 3 2 4 3 5 4 20 5 22 6 1 7 21 10 6 12 7 13 19 14 8 15REMARK SMILES IDX 18 16 15 17 9 18 17 19 16 20 10 22 11 23 14 24 12 25 13 26REMARK H PARENT 1 8 1 9 21 11 7 21USER                              x       y       z     vdW  Elec       q    TypeUSER                           _______ _______ _______ _____ _____    ______ ____ROOTATOM      1  C   UNL     1      38.112  48.410  15.710 -0.38 -0.02    +0.035 A  ATOM      2  C   UNL     1      37.737  47.137  16.139 -0.37 -0.01    +0.026 A  ATOM      3  C   UNL     1      38.598  46.365  16.927 -0.40 -0.00    +0.014 A  ATOM      4  C   UNL     1      39.876  46.834  17.275 -0.45 -0.01    +0.037 A  ATOM      5  C   UNL     1      40.267  48.082  16.776 -0.38 -0.03    +0.124 A  ATOM      6  C   UNL     1      39.406  48.854  15.990 -0.35 -0.03    +0.072 A  ENDROOTBRANCH   1   7ATOM      7  N   UNL     1      37.295  49.125  14.827 -0.22 +0.36    -0.399 N  ATOM      8  H   UNL     1      37.800  49.737  14.194 -0.46 -0.14    +0.156 HD ATOM      9  H   UNL     1      36.516  49.598  15.276 -0.16 -0.25    +0.156 HD ENDBRANCH   1   7BRANCH   5  10ATOM     10  O   UNL     1      41.523  48.541  17.045 -0.66 -0.00    -0.507 OA ATOM     11  H   UNL     1      42.164  48.121  16.447 -0.29 +0.01    +0.293 HD ENDBRANCH   5  10BRANCH   4  12ATOM     12  C   UNL     1      40.776  45.961  18.135 -0.39 -0.01    +0.217 C  ATOM     13  N   UNL     1      42.180  46.384  18.027 +0.03 +0.02    -0.366 N  ATOM     14  N   UNL     1      40.305  45.846  19.519 -0.22 +0.00    -0.306 N  ATOM     15  C   UNL     1      42.850  46.796  19.168 -0.40 +0.02    +0.095 C  ATOM     16  C   UNL     1      39.115  45.321  19.952 -0.31 -0.00    +0.110 A  ATOM     17  C   UNL     1      41.075  46.159  20.625 -0.20 +0.01    +0.147 A  ATOM     18  C   UNL     1      42.390  46.703  20.436 -0.40 +0.02    +0.076 C  ATOM     19  C   UNL     1      39.195  45.358  21.321 -0.27 +0.01    +0.131 A  ATOM     20  N   UNL     1      40.403  45.864  21.727 -0.17 -0.02    -0.237 NA ATOM     21  H   UNL     1      42.364  46.973  17.218 -0.44 -0.07    +0.162 HD BRANCH  18  22ATOM     22  C   UNL     1      43.220  47.186  21.505 -0.28 +0.04    +0.139 A  ATOM     23  C   UNL     1      42.885  47.892  22.662 -0.31 +0.01    +0.051 A  ATOM     24  O   UNL     1      44.589  47.004  21.538 -0.60 -0.40    -0.464 OA ATOM     25  C   UNL     1      44.071  48.136  23.395 -0.28 +0.01    +0.043 A  ATOM     26  C   UNL     1      45.082  47.574  22.661 -0.19 +0.09    +0.196 A  ENDBRANCH  18  22ENDBRANCH   4  12TORSDOF 4TERENDMDL