REMARK SMILES Cc1ccc(C2=CN[C@@H](c3ccc(O)c(N)c3)n3ccnc32)o1
REMARK SMILES IDX 6 1 7 2 8 3 9 4 18 5 19 6 20 7 21 8 22 9 5 11 2 12 3 13
REMARK SMILES IDX 23 14 4 15 1 16 10 17 11 18 17 19 12 20 15 21 13 22 16 23
REMARK SMILES IDX 14 26
REMARK H PARENT 8 10 16 24 16 25 14 27
ROOT
ATOM      1  C   UNL     1       1.580  -0.444   0.607  1.00  0.00     0.076 C 
ATOM      2  C   UNL     1       0.830   0.106   1.588  1.00  0.00     0.095 C 
ATOM      3  N   UNL     1      -0.438  -0.307   1.956  1.00  0.00    -0.366 N 
ATOM      4  C   UNL     1      -1.161  -1.278   1.137  1.00  0.00     0.213 C 
ATOM      5  N   UNL     1      -0.304  -1.918   0.133  1.00  0.00    -0.306 N 
ATOM      6  C   UNL     1      -0.613  -2.986  -0.665  1.00  0.00     0.110 A 
ATOM      7  C   UNL     1       0.517  -3.201  -1.414  1.00  0.00     0.131 A 
ATOM      8  N   UNL     1       1.501  -2.305  -1.082  1.00  0.00    -0.237 NA
ATOM      9  C   UNL     1       1.002  -1.538  -0.125  1.00  0.00     0.147 A 
ATOM     10  H   UNL     1      -1.013   0.400   2.408  1.00  0.00     0.162 HD
ENDROOT
BRANCH   1  11
ATOM     11  C   UNL     1       2.882   0.113   0.366  1.00  0.00     0.139 A 
ATOM     12  C   UNL     1       4.635   1.481   0.584  1.00  0.00     0.101 A 
ATOM     13  C   UNL     1       4.978   0.586  -0.398  1.00  0.00     0.046 A 
ATOM     14  O   UNL     1       3.387   1.210   1.047  1.00  0.00    -0.461 OA
ATOM     15  C   UNL     1       3.868  -0.280  -0.537  1.00  0.00     0.051 A 
ATOM     16  C   UNL     1       5.327   2.626   1.206  1.00  0.00     0.087 C 
ENDBRANCH   1  11
BRANCH   4  17
ATOM     17  C   UNL     1      -2.366  -0.610   0.493  1.00  0.00    -0.003 A 
ATOM     18  C   UNL     1      -3.666  -0.989   0.874  1.00  0.00     0.012 A 
ATOM     19  C   UNL     1      -2.210   0.409  -0.470  1.00  0.00     0.037 A 
ATOM     20  C   UNL     1      -4.779  -0.354   0.324  1.00  0.00     0.049 A 
ATOM     21  C   UNL     1      -3.318   1.001  -1.077  1.00  0.00     0.074 A 
ATOM     22  C   UNL     1      -4.592   0.649  -0.617  1.00  0.00     0.138 A 
BRANCH  21  23
ATOM     23  N   UNL     1      -3.162   2.050  -2.005  1.00  0.00    -0.396 N 
ATOM     24  H   UNL     1      -3.838   1.976  -2.763  1.00  0.00     0.156 HD
ATOM     25  H   UNL     1      -2.220   2.088  -2.389  1.00  0.00     0.156 HD
ENDBRANCH  21  23
BRANCH  22  26
ATOM     26  O   UNL     1      -5.688   1.334  -1.064  1.00  0.00    -0.506 OA
ATOM     27  H   UNL     1      -5.331   2.192  -1.364  1.00  0.00     0.293 HD
ENDBRANCH  22  26
ENDBRANCH   4  17
TORSDOF 4
