MODEL        2USER    Run = 2USERUSER    Estimated Free Energy of Binding    =  -8.23 kcal/mol  [=(1)+(2)+(3)-(4)]USERUSER    (1) Final Intermolecular Energy     =  -9.43 kcal/molUSER        vdW + Hbond + desolv Energy     =  -9.06 kcal/molUSER        Electrostatic Energy            =  -0.37 kcal/molUSER        Moving Ligand-Fixed Receptor    =  -9.43 kcal/molUSER        Moving Ligand-Moving Receptor   =  +0.00 kcal/molUSER    (2) Final Total Internal Energy     =  -1.31 kcal/molUSER    (3) Torsional Free Energy           =  +1.19 kcal/molUSER    (4) Unbound System's Energy         =  -1.31 kcal/molUSERUSERREMARK SMILES Nc1cc([C@@H]2NC=C(c3cccs3)c3nccn32)ccc1OREMARK SMILES IDX 2 1 3 2 4 3 19 4 20 5 21 6 1 7 22 10 5 12 6 13 18 14 7 15REMARK SMILES IDX 17 16 14 17 8 18 16 19 15 20 9 22 10 23 13 24 11 25 12 26REMARK H PARENT 1 8 1 9 22 11 6 21USER                              x       y       z     vdW  Elec       q    TypeUSER                           _______ _______ _______ _____ _____    ______ ____ROOTATOM      1  C   UNL     1      34.380  46.219  17.729 -0.38 -0.07    +0.074 A  ATOM      2  C   UNL     1      35.443  46.252  16.825 -0.34 -0.03    +0.037 A  ATOM      3  C   UNL     1      36.011  45.056  16.339 -0.33 +0.00    -0.003 A  ATOM      4  C   UNL     1      35.506  43.824  16.805 -0.34 -0.00    +0.012 A  ATOM      5  C   UNL     1      34.476  43.786  17.743 -0.28 -0.02    +0.049 A  ATOM      6  C   UNL     1      33.937  44.979  18.200 -0.29 -0.06    +0.138 A  ENDROOTBRANCH   1   7ATOM      7  N   UNL     1      33.897  47.395  18.343 -0.29 +0.44    -0.396 N  ATOM      8  H   UNL     1      33.065  47.215  18.903 -0.39 -0.12    +0.156 HD ATOM      9  H   UNL     1      33.662  48.083  17.625 -0.45 -0.44    +0.156 HD ENDBRANCH   1   7BRANCH   6  10ATOM     10  O   UNL     1      32.929  44.945  19.125 -0.12 +0.13    -0.506 OA ATOM     11  H   UNL     1      33.233  45.561  19.822 -0.26 -0.15    +0.293 HD ENDBRANCH   6  10BRANCH   3  12ATOM     12  C   UNL     1      37.137  45.114  15.318 -0.27 -0.08    +0.213 C  ATOM     13  N   UNL     1      38.426  45.157  16.006 -0.06 +0.09    -0.366 N  ATOM     14  N   UNL     1      36.959  46.227  14.381 -0.17 +0.15    -0.306 N  ATOM     15  C   UNL     1      39.208  46.298  15.944 -0.42 -0.02    +0.093 C  ATOM     16  C   UNL     1      35.971  46.380  13.446 -0.43 -0.06    +0.110 A  ATOM     17  C   UNL     1      37.837  47.291  14.272 -0.37 -0.06    +0.144 A  ATOM     18  C   UNL     1      38.984  47.361  15.140 -0.51 -0.02    +0.050 C  ATOM     19  C   UNL     1      36.268  47.562  12.813 -0.54 -0.07    +0.131 A  ATOM     20  N   UNL     1      37.415  48.114  13.325 -0.77 +0.08    -0.237 NA ATOM     21  H   UNL     1      38.466  44.654  16.888 +0.10 -0.03    +0.162 HD BRANCH  18  22ATOM     22  C   UNL     1      39.892  48.480  15.162 -0.54 -0.01    +0.039 A  ATOM     23  C   UNL     1      39.803  49.641  15.920 -0.25 -0.01    +0.020 A  ATOM     24  S   UNL     1      41.355  48.508  14.234 -0.29 +0.01    -0.144 S  ATOM     25  C   UNL     1      40.887  50.543  15.717 -0.46 -0.00    +0.012 A  ATOM     26  C   UNL     1      41.799  50.048  14.818 -0.62 -0.01    +0.065 A  ENDBRANCH  18  22ENDBRANCH   3  12TORSDOF 4TERENDMDL