MODEL        4USER    Run = 4USERUSER    Estimated Free Energy of Binding    = -10.94 kcal/mol  [=(1)+(2)+(3)-(4)]USERUSER    (1) Final Intermolecular Energy     = -14.22 kcal/molUSER        vdW + Hbond + desolv Energy     = -14.29 kcal/molUSER        Electrostatic Energy            =  +0.07 kcal/molUSER        Moving Ligand-Fixed Receptor    = -14.22 kcal/molUSER        Moving Ligand-Moving Receptor   =  +0.00 kcal/molUSER    (2) Final Total Internal Energy     =  -3.73 kcal/molUSER    (3) Torsional Free Energy           =  +3.28 kcal/molUSER    (4) Unbound System's Energy         =  -3.73 kcal/molUSERUSERREMARK SMILES COc1ccc(O)c(C(=O)c2ccc(C(=O)N[C@@H]3CCN(Cc4nc5ncccc5nc4-c4cccnc4)C[C@H]3NC(=O)c3ccncc3)cc2)c1FREMARK SMILES IDX 11 1 12 2 13 3 14 4 50 5 51 6 9 7 10 8 8 9 3 10 4 11 52 12REMARK SMILES IDX 5 13 6 14 53 15 2 16 1 17 7 18 15 20 17 21 16 22 18 24 19 25REMARK SMILES IDX 40 26 20 27 39 28 21 29 41 30 42 31 43 33 44 34 45 35 49 36REMARK SMILES IDX 46 37 48 38 47 39 22 40 23 41 24 42 32 43 25 44 31 45 26 46REMARK SMILES IDX 30 47 27 48 29 49 28 50 33 51 34 52 38 53 35 54 37 55 36 56REMARK H PARENT 7 19 17 23 41 32USER                              x       y       z     vdW  Elec       q    TypeUSER                           _______ _______ _______ _____ _____    ______ ____ROOTATOM      1  C   UNL     1      36.830  43.550  20.302 -0.39 -0.00    +0.023 A  ATOM      2  C   UNL     1      36.115  42.349  20.240 -0.45 -0.00    +0.013 A  ATOM      3  C   UNL     1      35.162  42.154  19.235 -0.39 -0.00    +0.014 A  ATOM      4  C   UNL     1      34.942  43.144  18.270 -0.33 -0.01    +0.039 A  ATOM      5  C   UNL     1      35.659  44.344  18.325 -0.32 -0.00    +0.014 A  ATOM      6  C   UNL     1      36.607  44.540  19.335 -0.33 -0.00    +0.013 A  ENDROOTBRANCH   1   7ATOM      7  C   UNL     1      37.880  43.790  21.321 -0.29 +0.00    +0.199 C  ATOM      8  O   UNL     1      39.049  43.911  20.944 -0.16 -0.00    -0.288 OA BRANCH   7   9ATOM      9  C   UNL     1      37.619  43.839  22.776 -0.30 +0.01    +0.104 A  ATOM     10  C   UNL     1      36.770  42.846  24.834 -0.28 +0.00    +0.155 A  ATOM     11  C   UNL     1      37.164  43.983  25.545 -0.29 -0.00    +0.053 A  ATOM     12  C   UNL     1      36.991  42.790  23.450 -0.29 +0.02    +0.179 A  ATOM     13  C   UNL     1      37.763  45.052  24.874 -0.27 +0.00    +0.051 A  ATOM     14  C   UNL     1      37.974  44.985  23.499 -0.23 +0.02    +0.130 A  ATOM     15  F   UNL     1      36.568  41.710  22.773 -0.19 -0.01    -0.202 F  BRANCH  10  16ATOM     16  O   UNL     1      36.170  41.741  25.377 -0.17 +0.08    -0.494 OA ATOM     17  C   UNL     1      35.802  41.803  26.749 -0.39 -0.07    +0.278 C  ENDBRANCH  10  16BRANCH  14  18ATOM     18  O   UNL     1      38.538  46.089  22.917 -0.14 -0.06    -0.507 OA ATOM     19  H   UNL     1      38.987  45.795  22.091 +0.15 +0.02    +0.293 HD ENDBRANCH  14  18ENDBRANCH   7   9ENDBRANCH   1   7BRANCH   4  20ATOM     20  C   UNL     1      33.917  42.895  17.225 -0.25 -0.09    +0.251 C  ATOM     21  N   UNL     1      32.606  43.131  17.579 -0.08 +0.10    -0.347 N  ATOM     22  O   UNL     1      34.252  42.501  16.112 -0.34 +0.13    -0.269 OA ATOM     23  H   UNL     1      32.391  43.462  18.510 +0.12 -0.03    +0.164 HD BRANCH  21  24ATOM     24  C   UNL     1      31.494  42.858  16.659 -0.30 -0.04    +0.107 C  ATOM     25  C   UNL     1      31.265  44.032  15.697 -0.38 -0.02    +0.042 C  ATOM     26  C   UNL     1      30.204  42.483  17.443 -0.22 -0.02    +0.118 C  ATOM     27  C   UNL     1      30.058  44.873  16.108 -0.33 -0.03    +0.087 C  ATOM     28  C   UNL     1      28.985  42.697  16.522 -0.23 -0.04    +0.112 C  ATOM     29  N   UNL     1      28.805  44.098  16.083 -0.12 +0.13    -0.295 NA BRANCH  26  30ATOM     30  N   UNL     1      30.289  41.122  17.973 -0.07 +0.04    -0.346 N  ATOM     31  C   UNL     1      31.244  40.791  18.915 -0.11 -0.00    +0.251 C  ATOM     32  H   UNL     1      30.003  40.389  17.323 +0.09 -0.01    +0.164 HD ATOM     33  O   UNL     1      31.949  41.628  19.470 -0.29 -0.01    -0.269 OA BRANCH  31  34ATOM     34  C   UNL     1      31.427  39.342  19.213 -0.39 +0.01    +0.042 A  ATOM     35  C   UNL     1      30.946  38.860  20.435 -0.40 +0.00    +0.034 A  ATOM     36  C   UNL     1      32.041  38.457  18.325 -0.46 +0.00    +0.034 A  ATOM     37  C   UNL     1      31.112  37.518  20.719 -0.42 +0.02    +0.112 A  ATOM     38  C   UNL     1      32.158  37.131  18.705 -0.44 +0.03    +0.112 A  ATOM     39  N   UNL     1      31.709  36.644  19.882 -0.52 -0.08    -0.265 NA ENDBRANCH  31  34ENDBRANCH  26  30BRANCH  29  40ATOM     40  C   UNL     1      27.758  44.759  16.899 -0.13 -0.01    +0.143 C  BRANCH  40  41ATOM     41  C   UNL     1      26.784  43.795  17.549 -0.27 -0.01    +0.083 A  ATOM     42  N   UNL     1      27.039  43.477  18.853 -0.19 +0.03    -0.228 NA ATOM     43  C   UNL     1      25.655  43.309  16.886 -0.28 -0.01    +0.095 A  ATOM     44  C   UNL     1      26.181  42.680  19.490 -0.25 -0.04    +0.178 A  ATOM     45  N   UNL     1      24.771  42.499  17.521 -0.00 +0.00    -0.242 NA ATOM     46  N   UNL     1      26.433  42.375  20.767 -0.15 +0.06    -0.235 NA ATOM     47  C   UNL     1      25.041  42.194  18.807 -0.27 -0.02    +0.108 A  ATOM     48  C   UNL     1      25.569  41.567  21.417 -0.39 -0.02    +0.114 A  ATOM     49  C   UNL     1      24.178  41.371  19.512 -0.17 -0.01    +0.034 A  ATOM     50  C   UNL     1      24.433  41.043  20.838 -0.44 -0.01    +0.022 A  BRANCH  43  51ATOM     51  C   UNL     1      25.307  43.622  15.502 -0.33 -0.00    +0.020 A  ATOM     52  C   UNL     1      25.018  44.930  15.097 -0.32 +0.00    +0.013 A  ATOM     53  C   UNL     1      25.225  42.631  14.524 -0.26 -0.04    +0.121 A  ATOM     54  C   UNL     1      24.692  45.195  13.768 -0.28 +0.00    +0.021 A  ATOM     55  N   UNL     1      24.917  42.855  13.223 -0.19 +0.03    -0.264 NA ATOM     56  C   UNL     1      24.658  44.134  12.876 -0.18 +0.03    +0.111 A  ENDBRANCH  43  51ENDBRANCH  40  41ENDBRANCH  29  40ENDBRANCH  21  24ENDBRANCH   4  20TORSDOF 11TERENDMDL