REMARK SMILES COc1ccc(O)c(C(=O)c2ccc(C(=O)N[C@@H]3CCN(Cc4nc5ncccc5nc4-c4cccnc4)C[C@H]3NC(=O)c3ccncc3)cc2)c1F
REMARK SMILES IDX 11 1 12 2 13 3 14 4 50 5 51 6 9 7 10 8 8 9 3 10 4 11 52 12
REMARK SMILES IDX 5 13 6 14 53 15 2 16 1 17 7 18 15 20 17 21 16 22 18 24 19 25
REMARK SMILES IDX 40 26 20 27 39 28 21 29 41 30 42 31 43 33 44 34 45 35 49 36
REMARK SMILES IDX 46 37 48 38 47 39 22 40 23 41 24 42 32 43 25 44 31 45 26 46
REMARK SMILES IDX 30 47 27 48 29 49 28 50 33 51 34 52 38 53 35 54 37 55 36 56
REMARK H PARENT 7 19 17 23 41 32
ROOT
ATOM      1  C   UNL     1       5.055  -1.525  -0.486  1.00  0.00     0.023 A 
ATOM      2  C   UNL     1       5.067  -1.047   0.829  1.00  0.00     0.013 A 
ATOM      3  C   UNL     1       3.881  -0.598   1.420  1.00  0.00     0.014 A 
ATOM      4  C   UNL     1       2.675  -0.655   0.713  1.00  0.00     0.039 A 
ATOM      5  C   UNL     1       2.658  -1.139  -0.600  1.00  0.00     0.014 A 
ATOM      6  C   UNL     1       3.846  -1.580  -1.192  1.00  0.00     0.013 A 
ENDROOT
BRANCH   1   7
ATOM      7  C   UNL     1       6.276  -2.051  -1.144  1.00  0.00     0.199 C 
ATOM      8  O   UNL     1       6.165  -3.017  -1.904  1.00  0.00    -0.288 OA
BRANCH   7   9
ATOM      9  C   UNL     1       7.635  -1.520  -0.901  1.00  0.00     0.104 A 
ATOM     10  C   UNL     1       9.157   0.312  -0.381  1.00  0.00     0.155 A 
ATOM     11  C   UNL     1      10.238  -0.573  -0.430  1.00  0.00     0.053 A 
ATOM     12  C   UNL     1       7.863  -0.170  -0.630  1.00  0.00     0.179 A 
ATOM     13  C   UNL     1      10.023  -1.920  -0.734  1.00  0.00     0.051 A 
ATOM     14  C   UNL     1       8.734  -2.384  -0.981  1.00  0.00     0.130 A 
ATOM     15  F   UNL     1       6.839   0.700  -0.622  1.00  0.00    -0.202 F 
BRANCH  10  16
ATOM     16  O   UNL     1       9.241   1.650  -0.102  1.00  0.00    -0.494 OA
ATOM     17  C   UNL     1      10.530   2.181   0.177  1.00  0.00     0.278 C 
ENDBRANCH  10  16
BRANCH  14  18
ATOM     18  O   UNL     1       8.618  -3.711  -1.301  1.00  0.00    -0.507 OA
ATOM     19  H   UNL     1       7.713  -3.853  -1.663  1.00  0.00     0.293 HD
ENDBRANCH  14  18
ENDBRANCH   7   9
ENDBRANCH   1   7
BRANCH   4  20
ATOM     20  C   UNL     1       1.442  -0.164   1.379  1.00  0.00     0.251 C 
ATOM     21  N   UNL     1       0.273  -0.831   1.079  1.00  0.00    -0.347 N 
ATOM     22  O   UNL     1       1.494   0.787   2.152  1.00  0.00    -0.269 OA
ATOM     23  H   UNL     1       0.294  -1.613   0.439  1.00  0.00     0.164 HD
BRANCH  21  24
ATOM     24  C   UNL     1      -1.024  -0.400   1.618  1.00  0.00     0.107 C 
ATOM     25  C   UNL     1      -2.040  -1.551   1.613  1.00  0.00     0.042 C 
ATOM     26  C   UNL     1      -1.551   0.851   0.859  1.00  0.00     0.118 C 
ATOM     27  C   UNL     1      -3.038  -1.418   0.465  1.00  0.00     0.087 C 
ATOM     28  C   UNL     1      -3.073   0.963   1.087  1.00  0.00     0.112 C 
ATOM     29  N   UNL     1      -3.843  -0.187   0.566  1.00  0.00    -0.295 NA
BRANCH  26  30
ATOM     30  N   UNL     1      -0.822   2.054   1.260  1.00  0.00    -0.346 N 
ATOM     31  C   UNL     1      -0.913   3.214   0.516  1.00  0.00     0.251 C 
ATOM     32  H   UNL     1       0.059   1.880   1.746  1.00  0.00     0.164 HD
ATOM     33  O   UNL     1      -1.714   3.354  -0.403  1.00  0.00    -0.269 OA
BRANCH  31  34
ATOM     34  C   UNL     1       0.047   4.306   0.844  1.00  0.00     0.042 A 
ATOM     35  C   UNL     1       0.200   5.343  -0.082  1.00  0.00     0.034 A 
ATOM     36  C   UNL     1       0.780   4.339   2.032  1.00  0.00     0.034 A 
ATOM     37  C   UNL     1       1.088   6.359   0.214  1.00  0.00     0.112 A 
ATOM     38  C   UNL     1       1.644   5.402   2.233  1.00  0.00     0.112 A 
ATOM     39  N   UNL     1       1.815   6.410   1.351  1.00  0.00    -0.265 NA
ENDBRANCH  31  34
ENDBRANCH  26  30
BRANCH  29  40
ATOM     40  C   UNL     1      -4.452   0.155  -0.742  1.00  0.00     0.143 C 
BRANCH  40  41
ATOM     41  C   UNL     1      -5.418  -0.892  -1.263  1.00  0.00     0.083 A 
ATOM     42  N   UNL     1      -4.927  -1.733  -2.221  1.00  0.00    -0.228 NA
ATOM     43  C   UNL     1      -6.710  -1.040  -0.753  1.00  0.00     0.095 A 
ATOM     44  C   UNL     1      -5.716  -2.709  -2.671  1.00  0.00     0.178 A 
ATOM     45  N   UNL     1      -7.524  -2.029  -1.199  1.00  0.00    -0.242 NA
ATOM     46  N   UNL     1      -5.230  -3.532  -3.606  1.00  0.00    -0.235 NA
ATOM     47  C   UNL     1      -7.023  -2.848  -2.147  1.00  0.00     0.108 A 
ATOM     48  C   UNL     1      -6.024  -4.522  -4.066  1.00  0.00     0.114 A 
ATOM     49  C   UNL     1      -7.804  -3.879  -2.644  1.00  0.00     0.034 A 
ATOM     50  C   UNL     1      -7.310  -4.737  -3.620  1.00  0.00     0.022 A 
BRANCH  43  51
ATOM     51  C   UNL     1      -7.294  -0.193   0.284  1.00  0.00     0.020 A 
ATOM     52  C   UNL     1      -7.425  -0.638   1.605  1.00  0.00     0.013 A 
ATOM     53  C   UNL     1      -7.768   1.088   0.005  1.00  0.00     0.121 A 
ATOM     54  C   UNL     1      -7.985   0.196   2.571  1.00  0.00     0.021 A 
ATOM     55  N   UNL     1      -8.312   1.926   0.921  1.00  0.00    -0.264 NA
ATOM     56  C   UNL     1      -8.407   1.459   2.184  1.00  0.00     0.111 A 
ENDBRANCH  43  51
ENDBRANCH  40  41
ENDBRANCH  29  40
ENDBRANCH  21  24
ENDBRANCH   4  20
TORSDOF 11
