REMARK SMILES CN(C)CCOc1cc(C#N)ccc1C(=O)c1ccc(CN2CCN(c3nc4ccccc4[nH]3)CC2)cc1
REMARK SMILES IDX 7 1 8 2 9 3 12 4 13 5 14 6 6 7 5 8 4 9 2 10 1 11 3 12 15 13
REMARK SMILES IDX 16 14 17 15 18 16 38 17 19 18 37 19 20 20 21 21 22 22 23 23
REMARK SMILES IDX 36 24 24 25 35 26 25 27 26 28 27 29 34 30 28 31 33 32 29 33
REMARK SMILES IDX 32 34 30 35 31 36 10 38 11 39
REMARK H PARENT 34 37
ROOT
ATOM      1  C   UNL     1       4.840   0.908  -1.293  1.00  0.00     0.131 A 
ATOM      2  C   UNL     1       5.720   1.020  -2.374  1.00  0.00     0.066 A 
ATOM      3  C   UNL     1       5.855   2.239  -3.052  1.00  0.00     0.056 A 
ATOM      4  C   UNL     1       5.101   3.348  -2.654  1.00  0.00     0.020 A 
ATOM      5  C   UNL     1       4.191   3.228  -1.602  1.00  0.00     0.017 A 
ATOM      6  C   UNL     1       4.038   2.001  -0.942  1.00  0.00     0.065 A 
ENDROOT
BRANCH   1   7
ATOM      7  O   UNL     1       4.707  -0.266  -0.600  1.00  0.00    -0.491 OA
BRANCH   7   8
ATOM      8  C   UNL     1       5.930  -0.743  -0.005  1.00  0.00     0.245 C 
BRANCH   8   9
ATOM      9  C   UNL     1       6.302   0.073   1.250  1.00  0.00     0.125 C 
BRANCH   9  10
ATOM     10  N   UNL     1       7.456  -0.468   1.997  1.00  0.00    -0.306 NA
ATOM     11  C   UNL     1       7.580   0.226   3.284  1.00  0.00     0.105 C 
ATOM     12  C   UNL     1       8.707  -0.335   1.244  1.00  0.00     0.105 C 
ENDBRANCH   9  10
ENDBRANCH   8   9
ENDBRANCH   7   8
ENDBRANCH   1   7
BRANCH   6  13
ATOM     13  C   UNL     1       3.066   1.944   0.169  1.00  0.00     0.196 C 
ATOM     14  O   UNL     1       3.194   2.767   1.072  1.00  0.00    -0.288 OA
BRANCH  13  15
ATOM     15  C   UNL     1       1.930   0.978   0.181  1.00  0.00     0.023 A 
ATOM     16  C   UNL     1       1.568   0.218  -0.937  1.00  0.00     0.012 A 
ATOM     17  C   UNL     1       1.169   0.871   1.354  1.00  0.00     0.012 A 
ATOM     18  C   UNL     1       0.473  -0.649  -0.874  1.00  0.00     0.006 A 
ATOM     19  C   UNL     1       0.068   0.011   1.412  1.00  0.00     0.006 A 
ATOM     20  C   UNL     1      -0.294  -0.755   0.296  1.00  0.00    -0.034 A 
BRANCH  20  21
ATOM     21  C   UNL     1      -1.477  -1.700   0.363  1.00  0.00     0.120 C 
BRANCH  21  22
ATOM     22  N   UNL     1      -2.460  -1.502  -0.715  1.00  0.00    -0.296 NA
ATOM     23  C   UNL     1      -3.073  -0.151  -0.650  1.00  0.00     0.106 C 
ATOM     24  C   UNL     1      -3.498  -2.557  -0.698  1.00  0.00     0.106 C 
ATOM     25  C   UNL     1      -4.473  -0.064  -1.298  1.00  0.00     0.135 C 
ATOM     26  C   UNL     1      -4.833  -2.173  -0.015  1.00  0.00     0.135 C 
ATOM     27  N   UNL     1      -5.415  -0.970  -0.617  1.00  0.00    -0.340 N 
BRANCH  27  28
ATOM     28  C   UNL     1      -6.625  -0.473  -0.255  1.00  0.00     0.203 A 
ATOM     29  N   UNL     1      -7.120   0.717  -0.520  1.00  0.00    -0.213 NA
ATOM     30  N   UNL     1      -7.538  -1.216   0.456  1.00  0.00    -0.324 N 
ATOM     31  C   UNL     1      -8.373   0.744   0.038  1.00  0.00     0.091 A 
ATOM     32  C   UNL     1      -8.663  -0.462   0.662  1.00  0.00     0.067 A 
ATOM     33  C   UNL     1      -9.329   1.770   0.051  1.00  0.00     0.030 A 
ATOM     34  C   UNL     1      -9.871  -0.722   1.313  1.00  0.00     0.028 A 
ATOM     35  C   UNL     1     -10.551   1.540   0.697  1.00  0.00     0.002 A 
ATOM     36  C   UNL     1     -10.815   0.314   1.315  1.00  0.00     0.002 A 
ATOM     37  H   UNL     1      -7.407  -2.167   0.754  1.00  0.00     0.170 HD
ENDBRANCH  27  28
ENDBRANCH  21  22
ENDBRANCH  20  21
ENDBRANCH  13  15
ENDBRANCH   6  13
BRANCH   3  38
ATOM     38  C   UNL     1       6.778   2.352  -4.144  1.00  0.00     0.099 C 
ATOM     39  N   UNL     1       7.530   2.436  -5.024  1.00  0.00    -0.192 NA
ENDBRANCH   3  38
TORSDOF 10
