MODEL        4USER    Run = 4USERUSER    Estimated Free Energy of Binding    =  -8.72 kcal/mol  [=(1)+(2)+(3)-(4)]USERUSER    (1) Final Intermolecular Energy     = -11.70 kcal/molUSER        vdW + Hbond + desolv Energy     = -11.88 kcal/molUSER        Electrostatic Energy            =  +0.18 kcal/molUSER        Moving Ligand-Fixed Receptor    = -11.70 kcal/molUSER        Moving Ligand-Moving Receptor   =  +0.00 kcal/molUSER    (2) Final Total Internal Energy     =  -1.54 kcal/molUSER    (3) Torsional Free Energy           =  +2.98 kcal/molUSER    (4) Unbound System's Energy         =  -1.54 kcal/molUSERUSERREMARK SMILES CN(C)CCOc1cc(C#N)ccc1C(=O)c1ccc(CN2CCN(c3nc4ccccc4[nH]3)CC2)cc1REMARK SMILES IDX 7 1 8 2 9 3 12 4 13 5 14 6 6 7 5 8 4 9 2 10 1 11 3 12 15 13REMARK SMILES IDX 16 14 17 15 18 16 38 17 19 18 37 19 20 20 21 21 22 22 23 23REMARK SMILES IDX 36 24 24 25 35 26 25 27 26 28 27 29 34 30 28 31 33 32 29 33REMARK SMILES IDX 32 34 30 35 31 36 10 38 11 39REMARK H PARENT 34 37USER                              x       y       z     vdW  Elec       q    TypeUSER                           _______ _______ _______ _____ _____    ______ ____ROOTATOM      1  C   UNL     1      28.496  40.112  17.431 -0.20 +0.02    +0.131 A  ATOM      2  C   UNL     1      27.326  39.490  17.878 -0.19 +0.02    +0.066 A  ATOM      3  C   UNL     1      26.116  40.197  17.906 -0.25 +0.00    +0.056 A  ATOM      4  C   UNL     1      26.077  41.533  17.495 -0.24 -0.00    +0.020 A  ATOM      5  C   UNL     1      27.252  42.170  17.088 -0.19 -0.00    +0.017 A  ATOM      6  C   UNL     1      28.466  41.469  17.086 -0.20 -0.01    +0.065 A  ENDROOTBRANCH   1   7ATOM      7  O   UNL     1      29.686  39.436  17.373 -0.13 -0.11    -0.491 OA BRANCH   7   8ATOM      8  C   UNL     1      29.808  38.370  18.336 -0.26 +0.09    +0.245 C  BRANCH   8   9ATOM      9  C   UNL     1      31.286  38.067  18.657 -0.45 +0.03    +0.125 C  BRANCH   9  10ATOM     10  N   UNL     1      31.486  36.849  19.469 -0.67 -0.11    -0.306 NA ATOM     11  C   UNL     1      31.421  37.190  20.895 -0.50 +0.02    +0.105 C  ATOM     12  C   UNL     1      32.767  36.200  19.176 -0.43 +0.02    +0.105 C  ENDBRANCH   9  10ENDBRANCH   8   9ENDBRANCH   7   8ENDBRANCH   1   7BRANCH   6  13ATOM     13  C   UNL     1      29.669  42.197  16.635 -0.21 -0.06    +0.196 C  ATOM     14  O   UNL     1      29.659  42.649  15.493 -0.19 +0.18    -0.288 OA BRANCH  13  15ATOM     15  C   UNL     1      30.833  42.441  17.535 -0.26 -0.01    +0.023 A  ATOM     16  C   UNL     1      31.495  43.673  17.604 -0.27 -0.00    +0.012 A  ATOM     17  C   UNL     1      31.306  41.369  18.306 -0.30 -0.00    +0.012 A  ATOM     18  C   UNL     1      32.600  43.832  18.445 -0.35 -0.00    +0.006 A  ATOM     19  C   UNL     1      32.417  41.528  19.139 -0.37 +0.00    +0.006 A  ATOM     20  C   UNL     1      33.079  42.761  19.213 -0.37 +0.00    -0.034 A  BRANCH  20  21ATOM     21  C   UNL     1      34.274  42.938  20.129 -0.17 +0.01    +0.120 C  BRANCH  21  22ATOM     22  N   UNL     1      35.568  42.938  19.426 -0.19 +0.03    -0.296 NA ATOM     23  C   UNL     1      36.038  44.321  19.155 -0.36 -0.02    +0.106 C  ATOM     24  C   UNL     1      35.504  42.145  18.178 -0.24 -0.03    +0.106 C  ATOM     25  C   UNL     1      37.002  44.432  17.952 -0.30 -0.03    +0.135 C  ATOM     26  C   UNL     1      35.301  42.958  16.877 -0.38 -0.05    +0.135 C  ATOM     27  N   UNL     1      36.341  43.978  16.716 -0.12 +0.11    -0.340 N  BRANCH  27  28ATOM     28  C   UNL     1      36.438  44.768  15.617 -0.22 -0.09    +0.203 A  ATOM     29  N   UNL     1      36.385  46.082  15.561 -0.22 +0.14    -0.213 NA ATOM     30  N   UNL     1      36.640  44.251  14.359 -0.14 +0.11    -0.324 N  ATOM     31  C   UNL     1      36.547  46.417  14.241 -0.37 -0.05    +0.091 A  ATOM     32  C   UNL     1      36.709  45.281  13.459 -0.41 -0.03    +0.067 A  ATOM     33  C   UNL     1      36.570  47.679  13.630 -0.54 -0.02    +0.030 A  ATOM     34  C   UNL     1      36.898  45.318  12.075 -0.54 -0.01    +0.028 A  ATOM     35  C   UNL     1      36.757  47.750  12.243 -0.55 -0.00    +0.002 A  ATOM     36  C   UNL     1      36.919  46.588  11.482 -0.61 -0.00    +0.002 A  ATOM     37  H   UNL     1      36.743  43.275  14.142 +0.13 -0.05    +0.170 HD ENDBRANCH  27  28ENDBRANCH  21  22ENDBRANCH  20  21ENDBRANCH  13  15ENDBRANCH   6  13BRANCH   3  38ATOM     38  C   UNL     1      24.916  39.544  18.341 -0.33 -0.02    +0.099 C  ATOM     39  N   UNL     1      23.950  39.009  18.699 -0.29 +0.09    -0.192 NA ENDBRANCH   3  38TORSDOF 10TERENDMDL