REMARK SMILES N#Cc1ccc(C(=O)c2ccc(CN3CCCN(c4nc5ccccc5[nH]4)CC3)cc2)c(O)c1
REMARK SMILES IDX 13 1 12 2 9 3 10 4 31 5 11 6 30 7 7 8 8 9 6 10 3 11 4 12
REMARK SMILES IDX 34 13 5 14 32 15 2 16 1 17 33 18 14 20 15 21 16 22 29 24
REMARK SMILES IDX 28 25 18 26 17 27 19 29 20 30 27 31 21 32 26 33 22 34 25 35
REMARK SMILES IDX 23 36 24 37
REMARK H PARENT 33 19 27 38
REMARK Flexibility Score:  199.900
ROOT
ATOM      1  C   UNL     1       1.614   1.635   3.278  1.00  0.00     0.120 C 
ENDROOT
BRANCH   1   2
ATOM      2  C   UNL     1       2.071   1.562   1.833  1.00  0.00    -0.034 A 
ATOM      3  C   UNL     1       2.849   1.406  -0.859  1.00  0.00     0.023 A 
ATOM      4  C   UNL     1       2.150   2.525  -0.401  1.00  0.00     0.012 A 
ATOM      5  C   UNL     1       3.202   0.384   0.029  1.00  0.00     0.012 A 
ATOM      6  C   UNL     1       1.758   2.597   0.936  1.00  0.00     0.006 A 
ATOM      7  C   UNL     1       2.812   0.464   1.368  1.00  0.00     0.006 A 
BRANCH   3   8
ATOM      8  C   UNL     1       3.239   1.349  -2.284  1.00  0.00     0.196 C 
ATOM      9  O   UNL     1       3.741   2.341  -2.813  1.00  0.00    -0.288 OA
BRANCH   8  10
ATOM     10  C   UNL     1       3.060   0.117  -3.097  1.00  0.00     0.064 A 
ATOM     11  C   UNL     1       2.773  -2.199  -4.666  1.00  0.00     0.056 A 
ATOM     12  C   UNL     1       1.924  -1.977  -3.574  1.00  0.00     0.020 A 
ATOM     13  C   UNL     1       3.752  -1.253  -4.987  1.00  0.00     0.066 A 
ATOM     14  C   UNL     1       2.062  -0.822  -2.794  1.00  0.00     0.017 A 
ATOM     15  C   UNL     1       3.882  -0.099  -4.213  1.00  0.00     0.128 A 
BRANCH  11  16
ATOM     16  C   UNL     1       2.633  -3.388  -5.455  1.00  0.00     0.099 C 
ATOM     17  N   UNL     1       2.519  -4.359  -6.082  1.00  0.00    -0.192 NA
ENDBRANCH  11  16
BRANCH  15  18
ATOM     18  O   UNL     1       4.846   0.792  -4.608  1.00  0.00    -0.507 OA
ATOM     19  H   UNL     1       4.700   1.633  -4.112  1.00  0.00     0.293 HD
ENDBRANCH  15  18
ENDBRANCH   8  10
ENDBRANCH   3   8
ENDBRANCH   1   2
BRANCH   1  20
ATOM     20  N   UNL     1       0.335   0.977   3.604  1.00  0.00    -0.297 NA
BRANCH  20  21
ATOM     21  C   UNL     1       0.396  -0.483   3.482  1.00  0.00     0.087 C 
BRANCH  21  22
ATOM     22  C   UNL     1      -0.736  -1.192   4.232  1.00  0.00     0.037 CG0
ATOM     23  G   UNL     1      -1.991  -1.409   3.391  1.00  0.00     0.000 G0
ENDBRANCH  21  22
ENDBRANCH  20  21
BRANCH  20  24
ATOM     24  C   UNL     1      -0.801   1.587   2.882  1.00  0.00     0.106 C 
BRANCH  24  25
ATOM     25  C   UNL     1      -2.196   1.104   3.327  1.00  0.00     0.135 C 
BRANCH  25  26
ATOM     26  N   UNL     1      -2.527  -0.209   2.760  1.00  0.00    -0.341 N 
BRANCH  26  27
ATOM     27  C   UNL     1      -1.991  -1.409   3.391  1.00  0.00     0.121 CG0
ATOM     28  G   UNL     1      -0.736  -1.192   4.232  1.00  0.00     0.000 G0
ENDBRANCH  26  27
BRANCH  26  29
ATOM     29  C   UNL     1      -3.046  -0.224   1.503  1.00  0.00     0.203 A 
ATOM     30  N   UNL     1      -3.166   0.789   0.673  1.00  0.00    -0.213 NA
ATOM     31  N   UNL     1      -3.561  -1.366   0.939  1.00  0.00    -0.324 N 
ATOM     32  C   UNL     1      -3.733   0.280  -0.470  1.00  0.00     0.091 A 
ATOM     33  C   UNL     1      -3.992  -1.077  -0.332  1.00  0.00     0.067 A 
ATOM     34  C   UNL     1      -4.059   0.920  -1.675  1.00  0.00     0.030 A 
ATOM     35  C   UNL     1      -4.572  -1.857  -1.335  1.00  0.00     0.028 A 
ATOM     36  C   UNL     1      -4.635   0.162  -2.704  1.00  0.00     0.002 A 
ATOM     37  C   UNL     1      -4.887  -1.202  -2.534  1.00  0.00     0.002 A 
ATOM     38  H   UNL     1      -3.626  -2.260   1.395  1.00  0.00     0.170 HD
ENDBRANCH  26  29
ENDBRANCH  25  26
ENDBRANCH  24  25
ENDBRANCH  20  24
ENDBRANCH   1  20
TORSDOF 7
