MODEL        8USER    Run = 8USERUSER    Estimated Free Energy of Binding    = -11.00 kcal/mol  [=(1)+(2)+(3)-(4)]USERUSER    (1) Final Intermolecular Energy     = -13.98 kcal/molUSER        vdW + Hbond + desolv Energy     = -13.78 kcal/molUSER        Electrostatic Energy            =  -0.20 kcal/molUSER        Moving Ligand-Fixed Receptor    = -13.98 kcal/molUSER        Moving Ligand-Moving Receptor   =  +0.00 kcal/molUSER    (2) Final Total Internal Energy     =  -1.13 kcal/molUSER    (3) Torsional Free Energy           =  +2.98 kcal/molUSER    (4) Unbound System's Energy         =  -1.13 kcal/molUSERUSERREMARK SMILES CN(C)CCOc1cc(C#N)ccc1C(=O)c1ccc(CN2CCN(c3nc4ccccc4[nH]3)CC2)c(F)c1REMARK SMILES IDX 7 1 8 2 9 3 12 4 13 5 14 6 6 7 5 8 4 9 2 10 1 11 3 12 15 13REMARK SMILES IDX 16 14 17 15 18 16 39 17 19 18 37 19 20 20 38 21 21 22 22 23REMARK SMILES IDX 23 24 36 25 24 26 35 27 25 28 26 29 27 30 34 31 28 32 33 33REMARK SMILES IDX 29 34 32 35 30 36 31 37 10 39 11 40REMARK H PARENT 34 38USER                              x       y       z     vdW  Elec       q    TypeUSER                           _______ _______ _______ _____ _____    ______ ____ROOTATOM      1  C   UNL     1      40.616  48.835  15.392 -0.50 -0.03    +0.131 A  ATOM      2  C   UNL     1      39.628  48.843  14.400 -0.30 -0.03    +0.066 A  ATOM      3  C   UNL     1      38.492  48.031  14.519 -0.48 -0.02    +0.056 A  ATOM      4  C   UNL     1      38.331  47.216  15.642 -0.43 -0.01    +0.020 A  ATOM      5  C   UNL     1      39.299  47.223  16.647 -0.45 -0.01    +0.017 A  ATOM      6  C   UNL     1      40.434  48.046  16.544 -0.49 -0.01    +0.065 A  ENDROOTBRANCH   1   7ATOM      7  O   UNL     1      41.729  49.623  15.311 -0.67 +0.02    -0.491 OA BRANCH   7   8ATOM      8  C   UNL     1      42.252  49.920  14.010 -0.50 -0.04    +0.245 C  BRANCH   8   9ATOM      9  C   UNL     1      43.200  51.138  13.982 -0.29 -0.04    +0.125 C  BRANCH   9  10ATOM     10  N   UNL     1      43.330  51.815  12.676 -0.01 +0.14    -0.306 NA ATOM     11  C   UNL     1      42.595  51.125  11.615 -0.41 -0.06    +0.105 C  ATOM     12  C   UNL     1      44.743  51.928  12.305 -0.34 -0.05    +0.105 C  ENDBRANCH   9  10ENDBRANCH   8   9ENDBRANCH   7   8ENDBRANCH   1   7BRANCH   6  13ATOM     13  C   UNL     1      41.406  47.986  17.673 -0.39 -0.01    +0.196 C  ATOM     14  O   UNL     1      42.139  48.949  17.890 -0.48 -0.04    -0.288 OA BRANCH  13  15ATOM     15  C   UNL     1      41.549  46.789  18.533 -0.51 -0.00    +0.026 A  ATOM     16  C   UNL     1      41.215  45.510  18.068 -0.45 +0.00    +0.013 A  ATOM     17  C   UNL     1      42.027  46.959  19.832 -0.33 +0.01    +0.051 A  ATOM     18  C   UNL     1      41.273  44.417  18.934 -0.13 +0.00    +0.009 A  ATOM     19  C   UNL     1      42.081  45.864  20.685 -0.26 +0.03    +0.128 A  ATOM     20  C   UNL     1      41.686  44.586  20.264 -0.27 +0.00    +0.002 A  ATOM     21  F   UNL     1      42.487  46.056  21.949 -0.05 -0.04    -0.207 F  BRANCH  20  22ATOM     22  C   UNL     1      41.658  43.440  21.246 -0.27 +0.01    +0.123 C  BRANCH  22  23ATOM     23  N   UNL     1      40.478  43.316  22.088 -0.14 -0.01    -0.295 NA ATOM     24  C   UNL     1      39.387  44.258  21.812 -0.28 +0.00    +0.106 C  ATOM     25  C   UNL     1      40.699  43.081  23.518 -0.23 +0.00    +0.106 C  ATOM     26  C   UNL     1      38.186  44.008  22.751 -0.30 +0.01    +0.135 C  ATOM     27  C   UNL     1      39.995  44.081  24.467 -0.14 +0.00    +0.135 C  ATOM     28  N   UNL     1      38.557  44.211  24.171 -0.07 -0.02    -0.340 N  BRANCH  28  29ATOM     29  C   UNL     1      37.633  43.803  25.079 -0.18 +0.00    +0.203 A  ATOM     30  N   UNL     1      37.135  42.597  25.245 -0.24 +0.01    -0.213 NA ATOM     31  N   UNL     1      37.049  44.688  25.949 -0.16 +0.02    -0.324 N  ATOM     32  C   UNL     1      36.269  42.692  26.305 -0.37 -0.01    +0.091 A  ATOM     33  C   UNL     1      36.193  43.999  26.770 -0.37 -0.01    +0.067 A  ATOM     34  C   UNL     1      35.506  41.696  26.934 -0.57 -0.01    +0.030 A  ATOM     35  C   UNL     1      35.384  44.391  27.837 -0.45 -0.01    +0.028 A  ATOM     36  C   UNL     1      34.694  42.057  28.017 -0.34 -0.00    +0.002 A  ATOM     37  C   UNL     1      34.635  43.382  28.457 -0.54 -0.00    +0.002 A  ATOM     38  H   UNL     1      37.221  45.680  25.964 +0.06 -0.01    +0.170 HD ENDBRANCH  28  29ENDBRANCH  22  23ENDBRANCH  20  22ENDBRANCH  13  15ENDBRANCH   6  13BRANCH   3  39ATOM     39  C   UNL     1      37.485  48.056  13.497 -0.52 -0.04    +0.099 C  ATOM     40  N   UNL     1      36.675  48.092  12.667 -0.96 +0.07    -0.192 NA ENDBRANCH   3  39TORSDOF 10TERENDMDL