REMARK SMILES CN(C)CCOc1cc(C#N)ccc1C(=O)c1ccc(CN2CCN(c3nc4ccccc4[nH]3)CC2)c(F)c1
REMARK SMILES IDX 7 1 8 2 9 3 12 4 13 5 14 6 6 7 5 8 4 9 2 10 1 11 3 12 15 13
REMARK SMILES IDX 16 14 17 15 18 16 39 17 19 18 37 19 20 20 38 21 21 22 22 23
REMARK SMILES IDX 23 24 36 25 24 26 35 27 25 28 26 29 27 30 34 31 28 32 33 33
REMARK SMILES IDX 29 34 32 35 30 36 31 37 10 39 11 40
REMARK H PARENT 34 38
ROOT
ATOM      1  C   UNL     1      -4.577   0.654  -1.897  1.00  0.00     0.131 A 
ATOM      2  C   UNL     1      -5.457   0.550  -2.981  1.00  0.00     0.066 A 
ATOM      3  C   UNL     1      -5.879   1.696  -3.668  1.00  0.00     0.056 A 
ATOM      4  C   UNL     1      -5.410   2.954  -3.283  1.00  0.00     0.020 A 
ATOM      5  C   UNL     1      -4.511   3.062  -2.220  1.00  0.00     0.017 A 
ATOM      6  C   UNL     1      -4.070   1.917  -1.535  1.00  0.00     0.065 A 
ENDROOT
BRANCH   1   7
ATOM      7  O   UNL     1      -4.138  -0.445  -1.213  1.00  0.00    -0.491 OA
BRANCH   7   8
ATOM      8  C   UNL     1      -5.095  -1.458  -0.879  1.00  0.00     0.245 C 
BRANCH   8   9
ATOM      9  C   UNL     1      -6.145  -1.006   0.158  1.00  0.00     0.125 C 
BRANCH   9  10
ATOM     10  N   UNL     1      -5.606  -0.355   1.369  1.00  0.00    -0.306 NA
ATOM     11  C   UNL     1      -4.729  -1.242   2.135  1.00  0.00     0.105 C 
ATOM     12  C   UNL     1      -6.702   0.112   2.221  1.00  0.00     0.105 C 
ENDBRANCH   9  10
ENDBRANCH   8   9
ENDBRANCH   7   8
ENDBRANCH   1   7
BRANCH   6  13
ATOM     13  C   UNL     1      -3.106   2.137  -0.419  1.00  0.00     0.196 C 
ATOM     14  O   UNL     1      -3.156   3.183   0.225  1.00  0.00    -0.288 OA
BRANCH  13  15
ATOM     15  C   UNL     1      -2.059   1.149  -0.071  1.00  0.00     0.026 A 
ATOM     16  C   UNL     1      -1.326   0.480  -1.060  1.00  0.00     0.013 A 
ATOM     17  C   UNL     1      -1.812   0.892   1.278  1.00  0.00     0.051 A 
ATOM     18  C   UNL     1      -0.413  -0.512  -0.699  1.00  0.00     0.009 A 
ATOM     19  C   UNL     1      -0.900  -0.097   1.625  1.00  0.00     0.128 A 
ATOM     20  C   UNL     1      -0.206  -0.829   0.652  1.00  0.00     0.002 A 
ATOM     21  F   UNL     1      -0.719  -0.373   2.925  1.00  0.00    -0.207 F 
BRANCH  20  22
ATOM     22  C   UNL     1       0.698  -1.966   1.061  1.00  0.00     0.123 C 
BRANCH  22  23
ATOM     23  N   UNL     1       2.116  -1.669   1.203  1.00  0.00    -0.295 NA
ATOM     24  C   UNL     1       2.470  -0.700   2.247  1.00  0.00     0.106 C 
ATOM     25  C   UNL     1       2.892  -1.510  -0.030  1.00  0.00     0.106 C 
ATOM     26  C   UNL     1       3.999  -0.491   2.315  1.00  0.00     0.135 C 
ATOM     27  C   UNL     1       3.689  -0.187  -0.141  1.00  0.00     0.135 C 
ATOM     28  N   UNL     1       4.529   0.058   1.045  1.00  0.00    -0.340 N 
BRANCH  28  29
ATOM     29  C   UNL     1       5.882   0.068   0.934  1.00  0.00     0.203 A 
ATOM     30  N   UNL     1       6.769  -0.447   1.757  1.00  0.00    -0.213 NA
ATOM     31  N   UNL     1       6.507   0.707  -0.107  1.00  0.00    -0.324 N 
ATOM     32  C   UNL     1       7.994  -0.205   1.188  1.00  0.00     0.091 A 
ATOM     33  C   UNL     1       7.861   0.522   0.012  1.00  0.00     0.067 A 
ATOM     34  C   UNL     1       9.275  -0.581   1.621  1.00  0.00     0.030 A 
ATOM     35  C   UNL     1       8.943   0.916  -0.775  1.00  0.00     0.028 A 
ATOM     36  C   UNL     1      10.380  -0.210   0.844  1.00  0.00     0.002 A 
ATOM     37  C   UNL     1      10.214   0.527  -0.332  1.00  0.00     0.002 A 
ATOM     38  H   UNL     1       6.038   1.232  -0.826  1.00  0.00     0.170 HD
ENDBRANCH  28  29
ENDBRANCH  22  23
ENDBRANCH  20  22
ENDBRANCH  13  15
ENDBRANCH   6  13
BRANCH   3  39
ATOM     39  C   UNL     1      -6.776   1.572  -4.781  1.00  0.00     0.099 C 
ATOM     40  N   UNL     1      -7.497   1.456  -5.683  1.00  0.00    -0.192 NA
ENDBRANCH   3  39
TORSDOF 10
