MODEL        4USER    Run = 4USERUSER    Estimated Free Energy of Binding    =  -9.96 kcal/mol  [=(1)+(2)+(3)-(4)]USERUSER    (1) Final Intermolecular Energy     = -12.05 kcal/molUSER        vdW + Hbond + desolv Energy     = -11.84 kcal/molUSER        Electrostatic Energy            =  -0.21 kcal/molUSER        Moving Ligand-Fixed Receptor    = -12.05 kcal/molUSER        Moving Ligand-Moving Receptor   =  +0.00 kcal/molUSER    (2) Final Total Internal Energy     =  -1.45 kcal/molUSER    (3) Torsional Free Energy           =  +2.09 kcal/molUSER    (4) Unbound System's Energy         =  -1.45 kcal/molUSERUSERREMARK SMILES N#Cc1ccc(C(=O)c2ccc(CN3CCN(c4nc5ccccc5[nH]4)CC3)cc2)c(O)c1REMARK SMILES IDX 9 1 10 2 11 3 12 4 29 5 30 6 7 7 8 8 6 9 3 10 4 11 33 12REMARK SMILES IDX 5 13 31 14 2 15 1 16 32 17 13 19 14 20 15 21 28 22 16 23REMARK SMILES IDX 27 24 17 25 18 26 19 27 26 28 20 29 25 30 21 31 24 32 22 33REMARK SMILES IDX 23 34REMARK H PARENT 32 18 26 35USER                              x       y       z     vdW  Elec       q    TypeUSER                           _______ _______ _______ _____ _____    ______ ____ROOTATOM      1  C   UNL     1      19.276  32.714  -3.499 -0.28 -0.01    +0.023 A  ATOM      2  C   UNL     1      18.371  33.547  -4.160 -0.23 -0.00    +0.012 A  ATOM      3  C   UNL     1      18.707  34.878  -4.414 -0.23 -0.00    +0.006 A  ATOM      4  C   UNL     1      19.941  35.400  -3.992 -0.35 +0.01    -0.034 A  ATOM      5  C   UNL     1      20.835  34.553  -3.319 -0.40 -0.00    +0.006 A  ATOM      6  C   UNL     1      20.503  33.220  -3.063 -0.30 -0.01    +0.012 A  ENDROOTBRANCH   1   7ATOM      7  C   UNL     1      18.881  31.312  -3.235 -0.25 -0.09    +0.196 C  ATOM      8  O   UNL     1      17.698  31.059  -3.013 -0.19 +0.15    -0.288 OA BRANCH   7   9ATOM      9  C   UNL     1      19.864  30.197  -3.217 -0.28 -0.03    +0.064 A  ATOM     10  C   UNL     1      21.693  28.063  -3.126 -0.25 -0.05    +0.056 A  ATOM     11  C   UNL     1      21.673  28.930  -4.226 -0.25 -0.01    +0.020 A  ATOM     12  C   UNL     1      20.786  28.249  -2.081 -0.35 -0.07    +0.066 A  ATOM     13  C   UNL     1      20.759  29.990  -4.275 -0.21 -0.01    +0.017 A  ATOM     14  C   UNL     1      19.872  29.302  -2.136 -0.34 -0.09    +0.128 A  BRANCH  10  15ATOM     15  C   UNL     1      22.632  26.980  -3.080 -0.48 -0.10    +0.099 C  ATOM     16  N   UNL     1      23.385  26.098  -3.031 -0.84 +0.13    -0.192 NA ENDBRANCH  10  15BRANCH  14  17ATOM     17  O   UNL     1      19.002  29.398  -1.082 -0.73 +0.29    -0.507 OA ATOM     18  H   UNL     1      18.301  30.045  -1.328 -0.40 -0.22    +0.293 HD ENDBRANCH  14  17ENDBRANCH   7   9ENDBRANCH   1   7BRANCH   4  19ATOM     19  C   UNL     1      20.289  36.852  -4.263 -0.29 -0.03    +0.120 C  BRANCH  19  20ATOM     20  N   UNL     1      21.115  37.531  -3.265 -0.71 +0.09    -0.296 NA ATOM     21  C   UNL     1      21.803  38.740  -3.747 -0.34 -0.06    +0.106 C  ATOM     22  C   UNL     1      20.483  37.730  -1.948 -0.24 -0.05    +0.106 C  ATOM     23  C   UNL     1      22.503  39.523  -2.611 -0.32 -0.15    +0.135 C  ATOM     24  C   UNL     1      20.270  39.207  -1.545 -0.22 -0.08    +0.135 C  ATOM     25  N   UNL     1      21.543  39.954  -1.583 -0.12 +0.31    -0.340 N  BRANCH  25  26ATOM     26  C   UNL     1      21.961  40.546  -0.434 -0.18 -0.22    +0.203 A  ATOM     27  N   UNL     1      21.424  40.460   0.765 -0.16 +0.20    -0.213 NA ATOM     28  N   UNL     1      23.048  41.385  -0.406 -0.10 +0.53    -0.324 N  ATOM     29  C   UNL     1      22.197  41.242   1.586 -0.29 -0.09    +0.091 A  ATOM     30  C   UNL     1      23.229  41.839   0.874 -0.39 -0.08    +0.067 A  ATOM     31  C   UNL     1      22.077  41.495   2.960 -0.30 -0.03    +0.030 A  ATOM     32  C   UNL     1      24.169  42.693   1.453 -0.48 -0.03    +0.028 A  ATOM     33  C   UNL     1      23.009  42.346   3.570 -0.38 -0.00    +0.002 A  ATOM     34  C   UNL     1      24.035  42.934   2.825 -0.53 -0.00    +0.002 A  ATOM     35  H   UNL     1      23.604  41.640  -1.205 -0.43 -0.38    +0.170 HD ENDBRANCH  25  26ENDBRANCH  19  20ENDBRANCH   4  19TORSDOF 7TERENDMDL