MODEL        5USER    Run = 5USERUSER    Estimated Free Energy of Binding    =  -8.21 kcal/mol  [=(1)+(2)+(3)-(4)]USERUSER    (1) Final Intermolecular Energy     = -12.09 kcal/molUSER        vdW + Hbond + desolv Energy     = -13.04 kcal/molUSER        Electrostatic Energy            =  +0.04 kcal/molUSER        Moving Ligand-Fixed Receptor    = -13.00 kcal/molUSER        Moving Ligand-Moving Receptor   =  +0.92 kcal/molUSER    (2) Final Total Internal Energy     =  -1.37 kcal/molUSER    (3) Torsional Free Energy           =  +3.88 kcal/molUSER    (4) Unbound System's Energy         =  -1.37 kcal/molUSERUSERREMARK SMILES N#Cc1ccc(C(=O)c2ccc(CN3CCCN(c4nc5ccccc5[nH]4)CC3)cc2)c(O)c1REMARK SMILES IDX 13 1 12 2 9 3 10 4 31 5 11 6 30 7 7 8 8 9 6 10 3 11 4 12REMARK SMILES IDX 34 13 5 14 32 15 2 16 1 17 33 18 14 20 15 21 16 22 29 24REMARK SMILES IDX 28 25 18 26 17 27 19 29 20 30 27 31 21 32 26 33 22 34 25 35REMARK SMILES IDX 23 36 24 37REMARK H PARENT 33 19 27 38REMARK Flexibility Score:  199.900USER                              x       y       z     vdW  Elec       q    TypeUSER                           _______ _______ _______ _____ _____    ______ ____ROOTATOM      1  C   UNL     1      41.746  45.598  21.437 -0.28 +0.02    +0.120 C  ENDROOTBRANCH   1   2ATOM      2  C   UNL     1      41.498  46.241  20.085 -0.38 -0.00    -0.034 A  ATOM      3  C   UNL     1      41.018  47.489  17.618 -0.51 -0.00    +0.023 A  ATOM      4  C   UNL     1      42.191  47.769  18.322 -0.50 -0.00    +0.012 A  ATOM      5  C   UNL     1      40.104  46.554  18.116 -0.46 -0.00    +0.012 A  ATOM      6  C   UNL     1      42.424  47.153  19.552 -0.46 +0.00    +0.006 A  ATOM      7  C   UNL     1      40.345  45.936  19.345 -0.42 -0.00    +0.006 A  BRANCH   3   8ATOM      8  C   UNL     1      40.789  48.168  16.324 -0.46 -0.03    +0.196 C  ATOM      9  O   UNL     1      41.523  49.099  15.993 -0.96 -0.01    -0.288 OA BRANCH   8  10ATOM     10  C   UNL     1      39.706  47.745  15.398 -0.48 -0.02    +0.064 A  ATOM     11  C   UNL     1      37.635  47.002  13.647 -0.46 -0.02    +0.056 A  ATOM     12  C   UNL     1      38.668  46.102  13.940 -0.27 -0.00    +0.020 A  ATOM     13  C   UNL     1      37.626  48.266  14.246 -0.49 -0.04    +0.066 A  ATOM     14  C   UNL     1      39.698  46.468  14.815 -0.42 -0.00    +0.017 A  ATOM     15  C   UNL     1      38.649  48.625  15.124 -0.40 -0.07    +0.128 A  BRANCH  11  16ATOM     16  C   UNL     1      36.588  46.625  12.742 -0.62 -0.04    +0.099 C  ATOM     17  N   UNL     1      35.730  46.326  12.018 -0.48 +0.11    -0.192 NA ENDBRANCH  11  16BRANCH  15  18ATOM     18  O   UNL     1      38.554  49.870  15.691 +0.15 +0.42    -0.507 OA ATOM     19  H   UNL     1      39.452  50.280  15.669 -0.23 -0.22    +0.293 HD ENDBRANCH  15  18ENDBRANCH   8  10ENDBRANCH   3   8ENDBRANCH   1   2BRANCH   1  20ATOM     20  N   UNL     1      40.862  46.015  22.542 -0.10 -0.03    -0.297 NA BRANCH  20  21ATOM     21  C   UNL     1      41.597  46.354  23.765 -0.16 +0.01    +0.087 C  BRANCH  21  22ATOM     22  C   UNL     1      40.699  46.949  24.854 -0.20 +0.00    +0.037 CG0ATOM     23  G   UNL     1      39.929  45.904  25.657 +0.00 +0.00    +0.000 G0 ENDBRANCH  21  22ENDBRANCH  20  21BRANCH  20  24ATOM     24  C   UNL     1      39.758  45.057  22.758 -0.24 +0.01    +0.106 C  BRANCH  24  25ATOM     25  C   UNL     1      38.562  45.606  23.562 -0.28 +0.01    +0.135 C  BRANCH  25  26ATOM     26  N   UNL     1      38.731  45.399  25.005 -0.06 -0.02    -0.341 N  BRANCH  26  27ATOM     27  C   UNL     1      39.932  45.904  25.658 -0.13 +0.00    +0.121 CG0ATOM     28  G   UNL     1      40.713  46.946  24.860 +0.00 +0.00    +0.000 G0 ENDBRANCH  26  27BRANCH  26  29ATOM     29  C   UNL     1      37.922  44.478  25.594 -0.15 -0.00    +0.203 A  ATOM     30  N   UNL     1      38.199  43.221  25.861 -0.12 +0.01    -0.213 NA ATOM     31  N   UNL     1      36.634  44.772  25.971 -0.18 +0.03    -0.324 N  ATOM     32  C   UNL     1      37.079  42.703  26.464 -0.31 -0.01    +0.091 A  ATOM     33  C   UNL     1      36.076  43.658  26.548 -0.38 -0.01    +0.067 A  ATOM     34  C   UNL     1      36.842  41.415  26.969 -0.48 -0.01    +0.030 A  ATOM     35  C   UNL     1      34.821  43.411  27.110 -0.51 -0.00    +0.028 A  ATOM     36  C   UNL     1      35.596  41.139  27.547 -0.64 -0.00    +0.002 A  ATOM     37  C   UNL     1      34.604  42.121  27.614 -0.49 -0.00    +0.002 A  ATOM     38  H   UNL     1      36.174  45.655  25.828 -0.49 -0.04    +0.170 HD ENDBRANCH  26  29ENDBRANCH  25  26ENDBRANCH  24  25ENDBRANCH  20  24ENDBRANCH   1  20TORSDOF 7TERENDMDL