REMARK SMILES N#Cc1ccc(C(=O)c2ccc(CN3CCN(c4nc5ccccc5[nH]4)CC3)cc2)c(O)c1
REMARK SMILES IDX 9 1 10 2 11 3 12 4 29 5 30 6 7 7 8 8 6 9 3 10 4 11 33 12
REMARK SMILES IDX 5 13 31 14 2 15 1 16 32 17 13 19 14 20 15 21 28 22 16 23
REMARK SMILES IDX 27 24 17 25 18 26 19 27 26 28 20 29 25 30 21 31 24 32 22 33
REMARK SMILES IDX 23 34
REMARK H PARENT 32 18 26 35
ROOT
ATOM      1  C   UNL     1      -3.243   0.913  -0.635  1.00  0.00     0.023 A 
ATOM      2  C   UNL     1      -2.654   1.736  -1.597  1.00  0.00     0.012 A 
ATOM      3  C   UNL     1      -1.604   1.251  -2.380  1.00  0.00     0.006 A 
ATOM      4  C   UNL     1      -1.115  -0.053  -2.198  1.00  0.00    -0.034 A 
ATOM      5  C   UNL     1      -1.710  -0.864  -1.219  1.00  0.00     0.006 A 
ATOM      6  C   UNL     1      -2.761  -0.383  -0.433  1.00  0.00     0.012 A 
ENDROOT
BRANCH   1   7
ATOM      7  C   UNL     1      -4.344   1.464   0.186  1.00  0.00     0.196 C 
ATOM      8  O   UNL     1      -4.241   2.607   0.630  1.00  0.00    -0.288 OA
BRANCH   7   9
ATOM      9  C   UNL     1      -5.568   0.683   0.506  1.00  0.00     0.064 A 
ATOM     10  C   UNL     1      -7.897  -0.750   1.161  1.00  0.00     0.056 A 
ATOM     11  C   UNL     1      -7.166  -1.077   0.012  1.00  0.00     0.020 A 
ATOM     12  C   UNL     1      -7.476   0.306   1.972  1.00  0.00     0.066 A 
ATOM     13  C   UNL     1      -6.009  -0.361  -0.318  1.00  0.00     0.017 A 
ATOM     14  C   UNL     1      -6.327   1.022   1.637  1.00  0.00     0.128 A 
BRANCH  10  15
ATOM     15  C   UNL     1      -9.080  -1.488   1.496  1.00  0.00     0.099 C 
ATOM     16  N   UNL     1     -10.035  -2.094   1.756  1.00  0.00    -0.192 NA
ENDBRANCH  10  15
BRANCH  14  17
ATOM     17  O   UNL     1      -5.999   2.058   2.471  1.00  0.00    -0.507 OA
ATOM     18  H   UNL     1      -5.283   2.579   2.039  1.00  0.00     0.293 HD
ENDBRANCH  14  17
ENDBRANCH   7   9
ENDBRANCH   1   7
BRANCH   4  19
ATOM     19  C   UNL     1       0.034  -0.564  -3.047  1.00  0.00     0.120 C 
BRANCH  19  20
ATOM     20  N   UNL     1       1.382  -0.402  -2.502  1.00  0.00    -0.296 NA
ATOM     21  C   UNL     1       1.805   0.993  -2.299  1.00  0.00     0.106 C 
ATOM     22  C   UNL     1       1.708  -1.264  -1.351  1.00  0.00     0.106 C 
ATOM     23  C   UNL     1       3.152   1.105  -1.546  1.00  0.00     0.135 C 
ATOM     24  C   UNL     1       1.997  -0.508  -0.034  1.00  0.00     0.135 C 
ATOM     25  N   UNL     1       3.081   0.478  -0.217  1.00  0.00    -0.340 N 
BRANCH  25  26
ATOM     26  C   UNL     1       4.186   0.350   0.561  1.00  0.00     0.203 A 
ATOM     27  N   UNL     1       4.402  -0.515   1.530  1.00  0.00    -0.213 NA
ATOM     28  N   UNL     1       5.263   1.194   0.433  1.00  0.00    -0.324 N 
ATOM     29  C   UNL     1       5.654  -0.237   2.019  1.00  0.00     0.091 A 
ATOM     30  C   UNL     1       6.221   0.837   1.346  1.00  0.00     0.067 A 
ATOM     31  C   UNL     1       6.377  -0.861   3.045  1.00  0.00     0.030 A 
ATOM     32  C   UNL     1       7.488   1.345   1.637  1.00  0.00     0.028 A 
ATOM     33  C   UNL     1       7.654  -0.376   3.358  1.00  0.00     0.002 A 
ATOM     34  C   UNL     1       8.196   0.709   2.664  1.00  0.00     0.002 A 
ATOM     35  H   UNL     1       5.323   1.962  -0.213  1.00  0.00     0.170 HD
ENDBRANCH  25  26
ENDBRANCH  19  20
ENDBRANCH   4  19
TORSDOF 7
