MODEL        9USER    Run = 9USERUSER    Estimated Free Energy of Binding    = -12.45 kcal/mol  [=(1)+(2)+(3)-(4)]USERUSER    (1) Final Intermolecular Energy     = -14.54 kcal/molUSER        vdW + Hbond + desolv Energy     = -14.48 kcal/molUSER        Electrostatic Energy            =  -0.06 kcal/molUSER        Moving Ligand-Fixed Receptor    = -14.54 kcal/molUSER        Moving Ligand-Moving Receptor   =  +0.00 kcal/molUSER    (2) Final Total Internal Energy     =  -2.78 kcal/molUSER    (3) Torsional Free Energy           =  +2.09 kcal/molUSER    (4) Unbound System's Energy         =  -2.78 kcal/molUSERUSERREMARK SMILES CN1CCN(c2ccc(-c3nc4ccccc4nc3-c3ccc(CN4CCC(n5c(O)nc6ccccc65)CC4)cc3)cc2)CC1REMARK SMILES IDX 20 1 21 2 22 3 23 4 41 5 42 6 19 7 10 8 11 9 12 10 18 11REMARK SMILES IDX 13 12 17 13 14 14 16 15 15 16 9 17 6 18 7 19 44 20 8 21REMARK SMILES IDX 43 22 5 23 2 24 3 25 46 26 4 27 45 28 1 29 24 30 25 31 26 32REMARK SMILES IDX 40 33 27 34 39 35 28 36 29 37 30 38 38 39 32 40 37 41 33 42REMARK SMILES IDX 36 43 34 44 35 45 31 46REMARK H PARENT 31 47USER                              x       y       z     vdW  Elec       q    TypeUSER                           _______ _______ _______ _____ _____    ______ ____ROOTATOM      1  C   UNL     1      39.724  44.177  22.887 -0.23 +0.00    +0.002 A  ATOM      2  C   UNL     1      40.869  43.586  22.326 -0.29 +0.00    +0.011 A  ATOM      3  C   UNL     1      41.722  44.302  21.480 -0.31 +0.00    +0.006 A  ATOM      4  C   UNL     1      41.452  45.639  21.170 -0.30 -0.00    -0.034 A  ATOM      5  C   UNL     1      40.319  46.243  21.727 -0.07 +0.00    +0.006 A  ATOM      6  C   UNL     1      39.475  45.526  22.583 -0.29 +0.00    +0.011 A  ENDROOTBRANCH   1   7ATOM      7  C   UNL     1      38.852  43.395  23.788 -0.20 +0.01    +0.097 A  ATOM      8  C   UNL     1      37.565  42.925  23.480 -0.31 +0.01    +0.097 A  ATOM      9  N   UNL     1      36.817  42.257  24.406 -0.27 -0.00    -0.244 NA ATOM     10  C   UNL     1      37.369  42.035  25.611 -0.30 -0.01    +0.089 A  ATOM     11  N   UNL     1      39.407  43.156  25.013 -0.10 -0.01    -0.244 NA ATOM     12  C   UNL     1      36.646  41.348  26.577 -0.38 -0.01    +0.030 A  ATOM     13  C   UNL     1      38.672  42.485  25.915 -0.21 -0.00    +0.089 A  ATOM     14  C   UNL     1      37.183  41.092  27.841 -0.47 -0.00    +0.002 A  ATOM     15  C   UNL     1      39.198  42.225  27.176 -0.28 -0.00    +0.030 A  ATOM     16  C   UNL     1      38.465  41.533  28.142 -0.38 -0.00    +0.002 A  BRANCH   8  17ATOM     17  C   UNL     1      36.896  43.061  22.176 -0.42 +0.00    +0.003 A  ATOM     18  C   UNL     1      35.593  43.266  19.637 -0.39 -0.00    +0.037 A  ATOM     19  C   UNL     1      35.634  42.056  20.336 -0.41 -0.00    +0.026 A  ATOM     20  C   UNL     1      36.228  44.368  20.229 -0.34 -0.00    +0.026 A  ATOM     21  C   UNL     1      36.279  41.952  21.577 -0.53 +0.00    +0.012 A  ATOM     22  C   UNL     1      36.869  44.271  21.472 -0.33 +0.00    +0.012 A  BRANCH  18  23ATOM     23  N   UNL     1      34.973  43.422  18.391 -0.08 +0.09    -0.369 N  ATOM     24  N   UNL     1      32.252  43.572  17.101 -0.11 +0.10    -0.303 NA ATOM     25  C   UNL     1      33.252  42.521  16.805 -0.31 -0.05    +0.105 C  ATOM     26  C   UNL     1      32.770  44.549  18.087 -0.31 -0.03    +0.105 C  ATOM     27  C   UNL     1      34.241  42.208  17.952 -0.38 -0.04    +0.132 C  ATOM     28  C   UNL     1      34.306  44.698  18.053 -0.32 -0.05    +0.132 C  ATOM     29  C   UNL     1      30.985  43.008  17.555 -0.26 -0.02    +0.105 C  ENDBRANCH  18  23ENDBRANCH   8  17ENDBRANCH   1   7BRANCH   4  30ATOM     30  C   UNL     1      42.363  46.419  20.247 -0.36 +0.03    +0.120 C  BRANCH  30  31ATOM     31  N   UNL     1      42.056  46.246  18.814 -0.27 -0.03    -0.299 NA ATOM     32  C   UNL     1      41.597  47.496  18.194 -0.51 -0.00    +0.087 C  ATOM     33  C   UNL     1      41.155  45.103  18.606 -0.42 +0.00    +0.087 C  ATOM     34  C   UNL     1      41.069  47.297  16.774 -0.36 -0.01    +0.041 C  ATOM     35  C   UNL     1      39.795  45.468  18.018 -0.47 -0.00    +0.041 C  ATOM     36  C   UNL     1      39.981  46.215  16.695 -0.44 -0.01    +0.095 C  BRANCH  36  37ATOM     37  N   UNL     1      38.717  46.691  16.146 -0.21 +0.10    -0.291 N  ATOM     38  C   UNL     1      38.443  47.998  15.840 -0.21 -0.16    +0.295 A  ATOM     39  C   UNL     1      37.593  45.963  15.815 -0.32 -0.03    +0.072 A  ATOM     40  N   UNL     1      37.248  48.178  15.352 -0.34 +0.17    -0.195 NA ATOM     41  C   UNL     1      37.258  44.604  15.881 -0.33 -0.01    +0.029 A  ATOM     42  C   UNL     1      36.698  46.921  15.330 -0.33 -0.07    +0.092 A  ATOM     43  C   UNL     1      35.981  44.228  15.446 -0.37 -0.00    +0.002 A  ATOM     44  C   UNL     1      35.422  46.525  14.898 -0.29 -0.03    +0.031 A  ATOM     45  C   UNL     1      35.074  45.171  14.964 -0.30 -0.00    +0.002 A  BRANCH  38  46ATOM     46  O   UNL     1      39.284  49.000  15.998 -0.17 +0.26    -0.480 OA ATOM     47  H   UNL     1      38.954  49.633  15.336 -0.20 -0.23    +0.296 HD ENDBRANCH  38  46ENDBRANCH  36  37ENDBRANCH  30  31ENDBRANCH   4  30TORSDOF 7TERENDMDL