REMARK SMILES CC(C)c1nnc2ccc(-c3ccc(O)c(CN4CCN(C)CC4)c3)cn12
REMARK SMILES IDX 11 1 12 2 13 3 14 4 16 5 25 6 10 7 4 8 5 9 27 10 6 11 26 12
REMARK SMILES IDX 7 13 8 14 9 15 2 16 1 17 3 18 17 19 18 20 19 21 24 22 20 23
REMARK SMILES IDX 23 24 21 25 22 26 15 27
REMARK H PARENT 15 28
ROOT
ATOM      1  C   UNL     1      -0.879   1.334   0.811  1.00  0.00    -0.016 A 
ATOM      2  C   UNL     1      -0.765   2.321  -0.174  1.00  0.00     0.012 A 
ATOM      3  C   UNL     1       0.476   2.601  -0.743  1.00  0.00     0.047 A 
ATOM      4  C   UNL     1       1.603   1.895  -0.331  1.00  0.00     0.120 A 
ATOM      5  C   UNL     1       1.524   0.902   0.656  1.00  0.00     0.009 A 
ATOM      6  C   UNL     1       0.267   0.639   1.228  1.00  0.00     0.017 A 
ENDROOT
BRANCH   1   7
ATOM      7  C   UNL     1      -2.184   1.036   1.425  1.00  0.00    -0.001 A 
ATOM      8  C   UNL     1      -5.506  -0.458   0.732  1.00  0.00     0.139 A 
ATOM      9  N   UNL     1      -6.433  -0.510   1.671  1.00  0.00    -0.134 NA
ATOM     10  N   UNL     1      -4.373   0.139   1.250  1.00  0.00    -0.286 N 
ATOM     11  N   UNL     1      -5.920   0.039   2.822  1.00  0.00    -0.130 NA
ATOM     12  C   UNL     1      -3.136   0.439   0.678  1.00  0.00     0.103 A 
ATOM     13  C   UNL     1      -4.692   0.427   2.568  1.00  0.00     0.160 A 
ATOM     14  C   UNL     1      -3.698   1.056   3.364  1.00  0.00     0.050 A 
ATOM     15  C   UNL     1      -2.500   1.347   2.822  1.00  0.00     0.014 A 
BRANCH   8  16
ATOM     16  C   UNL     1      -5.643  -0.941  -0.680  1.00  0.00     0.052 C 
ATOM     17  C   UNL     1      -6.157   0.183  -1.579  1.00  0.00     0.016 C 
ATOM     18  C   UNL     1      -6.572  -2.154  -0.760  1.00  0.00     0.016 C 
ENDBRANCH   8  16
ENDBRANCH   1   7
BRANCH   5  19
ATOM     19  C   UNL     1       2.744   0.177   1.188  1.00  0.00     0.124 C 
BRANCH  19  20
ATOM     20  N   UNL     1       3.750  -0.108   0.152  1.00  0.00    -0.296 NA
ATOM     21  C   UNL     1       5.060  -0.430   0.762  1.00  0.00     0.100 C 
ATOM     22  C   UNL     1       3.343  -1.207  -0.744  1.00  0.00     0.100 C 
ATOM     23  C   UNL     1       6.054  -1.166  -0.179  1.00  0.00     0.099 C 
ATOM     24  C   UNL     1       4.366  -1.440  -1.890  1.00  0.00     0.099 C 
ATOM     25  N   UNL     1       5.733  -0.968  -1.596  1.00  0.00    -0.304 NA
ATOM     26  C   UNL     1       6.714  -1.594  -2.474  1.00  0.00     0.105 C 
ENDBRANCH  19  20
ENDBRANCH   5  19
BRANCH   4  27
ATOM     27  O   UNL     1       2.784   2.211  -0.944  1.00  0.00    -0.508 OA
ATOM     28  H   UNL     1       3.425   1.501  -0.711  1.00  0.00     0.293 HD
ENDBRANCH   4  27
TORSDOF 5
