MODEL        8USER    Run = 8USERUSER    Estimated Free Energy of Binding    = -11.89 kcal/mol  [=(1)+(2)+(3)-(4)]USERUSER    (1) Final Intermolecular Energy     = -13.98 kcal/molUSER        vdW + Hbond + desolv Energy     = -13.75 kcal/molUSER        Electrostatic Energy            =  -0.23 kcal/molUSER        Moving Ligand-Fixed Receptor    = -13.98 kcal/molUSER        Moving Ligand-Moving Receptor   =  +0.00 kcal/molUSER    (2) Final Total Internal Energy     =  -1.91 kcal/molUSER    (3) Torsional Free Energy           =  +2.09 kcal/molUSER    (4) Unbound System's Energy         =  -1.91 kcal/molUSERUSERREMARK SMILES Oc1nc2ccccc2n1C1CCN(Cc2ccc(-c3nc4ccccc4nc3-c3ccnc(N4CCOCC4)c3)cc2)CC1REMARK SMILES IDX 15 1 14 2 11 3 12 4 45 5 13 6 44 7 10 8 2 9 3 10 4 11 9 12REMARK SMILES IDX 5 13 8 14 6 15 7 16 1 17 16 19 17 20 43 21 18 22 42 23 19 24REMARK SMILES IDX 20 25 21 26 29 27 22 28 28 29 23 30 27 31 24 32 26 33 25 34REMARK SMILES IDX 30 35 31 36 41 37 32 38 34 39 33 40 35 41 36 42 40 43 37 44REMARK SMILES IDX 39 45 38 46REMARK H PARENT 1 18USER                              x       y       z     vdW  Elec       q    TypeUSER                           _______ _______ _______ _____ _____    ______ ____ROOTATOM      1  C   UNL     1      40.509  45.245  18.953 -0.42 +0.00    +0.120 C  ENDROOTBRANCH   1   2ATOM      2  N   UNL     1      39.594  46.319  18.541 -0.23 +0.03    -0.299 NA ATOM      3  C   UNL     1      39.123  45.994  15.617 -0.36 -0.02    +0.095 C  ATOM      4  C   UNL     1      40.409  46.600  16.198 -0.49 -0.00    +0.041 C  ATOM      5  C   UNL     1      38.316  45.209  16.670 -0.35 -0.01    +0.041 C  ATOM      6  C   UNL     1      40.189  47.236  17.567 -0.47 -0.02    +0.087 C  ATOM      7  C   UNL     1      38.292  45.842  18.065 -0.37 -0.02    +0.087 C  BRANCH   3   8ATOM      8  N   UNL     1      38.395  46.956  14.792 -0.21 +0.11    -0.291 N  ATOM      9  C   UNL     1      38.373  48.319  14.854 -0.29 -0.16    +0.295 A  ATOM     10  N   UNL     1      37.616  48.873  13.945 -0.50 +0.11    -0.195 NA ATOM     11  C   UNL     1      37.093  47.819  13.244 -0.50 -0.04    +0.092 A  ATOM     12  C   UNL     1      37.550  46.603  13.749 -0.42 -0.03    +0.072 A  ATOM     13  C   UNL     1      36.209  47.829  12.155 -0.49 -0.02    +0.031 A  ATOM     14  C   UNL     1      37.156  45.372  13.206 -0.46 -0.01    +0.029 A  ATOM     15  C   UNL     1      35.805  46.609  11.601 -0.45 -0.00    +0.002 A  ATOM     16  C   UNL     1      36.272  45.402  12.121 -0.47 -0.00    +0.002 A  BRANCH   9  17ATOM     17  O   UNL     1      39.014  49.059  15.730 -0.19 +0.29    -0.480 OA ATOM     18  H   UNL     1      38.835  49.957  15.394 -0.25 -0.26    +0.296 HD ENDBRANCH   9  17ENDBRANCH   3   8ENDBRANCH   1   2BRANCH   1  19ATOM     19  C   UNL     1      41.583  45.707  19.917 -0.37 -0.00    -0.034 A  ATOM     20  C   UNL     1      42.213  46.944  19.746 -0.44 +0.00    +0.006 A  ATOM     21  C   UNL     1      41.935  44.920  21.021 -0.30 +0.00    +0.006 A  ATOM     22  C   UNL     1      43.191  47.372  20.649 -0.30 +0.00    +0.011 A  ATOM     23  C   UNL     1      42.914  45.350  21.921 -0.23 +0.00    +0.011 A  ATOM     24  C   UNL     1      43.573  46.577  21.744 -0.31 +0.00    +0.002 A  BRANCH  24  25ATOM     25  C   UNL     1      44.619  47.042  22.673 -0.22 +0.05    +0.097 A  ATOM     26  N   UNL     1      45.876  46.648  22.326 -0.59 -0.27    -0.244 NA ATOM     27  C   UNL     1      44.396  47.836  23.810 -0.20 +0.02    +0.097 A  ATOM     28  C   UNL     1      46.898  47.076  23.088 -0.12 +0.05    +0.089 A  ATOM     29  N   UNL     1      45.438  48.276  24.573 -0.10 -0.05    -0.244 NA ATOM     30  C   UNL     1      48.198  46.709  22.762 -0.09 +0.02    +0.030 A  ATOM     31  C   UNL     1      46.678  47.898  24.215 -0.08 +0.02    +0.089 A  ATOM     32  C   UNL     1      49.287  47.138  23.524 -0.03 +0.00    +0.002 A  ATOM     33  C   UNL     1      47.767  48.318  24.968 -0.05 +0.00    +0.030 A  ATOM     34  C   UNL     1      49.070  47.946  24.632 -0.03 +0.00    +0.002 A  BRANCH  27  35ATOM     35  C   UNL     1      43.078  48.258  24.316 -0.30 +0.00    +0.008 A  ATOM     36  C   UNL     1      42.983  49.185  25.355 -0.30 +0.00    +0.030 A  ATOM     37  C   UNL     1      41.880  47.735  23.808 -0.26 +0.01    +0.057 A  ATOM     38  C   UNL     1      41.730  49.562  25.800 -0.11 +0.01    +0.114 A  ATOM     39  C   UNL     1      40.648  48.161  24.308 -0.26 +0.02    +0.129 A  ATOM     40  N   UNL     1      40.577  49.077  25.294 -0.17 -0.04    -0.239 NA BRANCH  39  41ATOM     41  N   UNL     1      39.466  47.609  23.769 -0.16 -0.04    -0.352 N  ATOM     42  C   UNL     1      39.507  46.127  23.821 -0.23 +0.01    +0.146 C  ATOM     43  C   UNL     1      38.222  48.180  24.333 -0.34 +0.02    +0.146 C  ATOM     44  C   UNL     1      38.084  45.547  23.823 -0.21 +0.03    +0.181 C  ATOM     45  C   UNL     1      37.653  47.273  25.434 -0.29 +0.01    +0.181 C  ATOM     46  O   UNL     1      37.306  45.959  24.957 -0.72 -0.07    -0.378 OA ENDBRANCH  39  41ENDBRANCH  27  35ENDBRANCH  24  25ENDBRANCH   1  19TORSDOF 7TERENDMDL