MODEL        9USER    Run = 9USERUSER    Estimated Free Energy of Binding    = -10.35 kcal/mol  [=(1)+(2)+(3)-(4)]USERUSER    (1) Final Intermolecular Energy     = -11.85 kcal/molUSER        vdW + Hbond + desolv Energy     = -11.59 kcal/molUSER        Electrostatic Energy            =  -0.25 kcal/molUSER        Moving Ligand-Fixed Receptor    = -11.85 kcal/molUSER        Moving Ligand-Moving Receptor   =  +0.00 kcal/molUSER    (2) Final Total Internal Energy     =  -0.64 kcal/molUSER    (3) Torsional Free Energy           =  +1.49 kcal/molUSER    (4) Unbound System's Energy         =  -0.64 kcal/molUSERUSERREMARK SMILES CC(C)c1nnc2ccc(-c3ccc(O)c(CN4CCN(C)CC4)c3)cn12REMARK SMILES IDX 11 1 12 2 13 3 14 4 16 5 25 6 10 7 4 8 5 9 27 10 6 11 26 12REMARK SMILES IDX 7 13 8 14 9 15 2 16 1 17 3 18 17 19 18 20 19 21 24 22 20 23REMARK SMILES IDX 23 24 21 25 22 26 15 27REMARK H PARENT 15 28USER                              x       y       z     vdW  Elec       q    TypeUSER                           _______ _______ _______ _____ _____    ______ ____ROOTATOM      1  C   UNL     1      38.690  46.092  18.022 -0.36 +0.00    -0.016 A  ATOM      2  C   UNL     1      39.839  45.853  18.783 -0.44 -0.00    +0.012 A  ATOM      3  C   UNL     1      40.995  46.596  18.557 -0.47 -0.00    +0.047 A  ATOM      4  C   UNL     1      41.005  47.580  17.572 -0.43 -0.01    +0.120 A  ATOM      5  C   UNL     1      39.872  47.843  16.789 -0.44 -0.00    +0.009 A  ATOM      6  C   UNL     1      38.717  47.077  17.022 -0.34 -0.01    +0.017 A  ENDROOTBRANCH   1   7ATOM      7  C   UNL     1      37.465  45.306  18.247 -0.34 +0.00    -0.001 A  ATOM      8  C   UNL     1      35.937  42.794  20.507 -0.36 -0.00    +0.139 A  ATOM      9  N   UNL     1      34.711  42.351  20.295 -0.48 -0.01    -0.134 NA ATOM     10  N   UNL     1      36.258  43.716  19.529 -0.19 +0.03    -0.286 N  ATOM     11  N   UNL     1      34.204  42.984  19.184 -0.35 +0.01    -0.130 NA ATOM     12  C   UNL     1      37.417  44.458  19.296 -0.29 -0.01    +0.103 A  ATOM     13  C   UNL     1      35.129  43.796  18.729 -0.24 -0.04    +0.160 A  ATOM     14  C   UNL     1      35.168  44.684  17.621 -0.28 -0.02    +0.050 A  ATOM     15  C   UNL     1      36.281  45.407  17.389 -0.33 -0.01    +0.014 A  BRANCH   8  16ATOM     16  C   UNL     1      36.858  42.367  21.608 -0.51 +0.00    +0.052 C  ATOM     17  C   UNL     1      36.188  41.305  22.480 -0.55 +0.00    +0.016 C  ATOM     18  C   UNL     1      37.290  43.561  22.461 -0.43 +0.00    +0.016 C  ENDBRANCH   8  16ENDBRANCH   1   7BRANCH   5  19ATOM     19  C   UNL     1      39.876  48.846  15.652 -0.54 -0.05    +0.124 C  BRANCH  19  20ATOM     20  N   UNL     1      39.028  48.444  14.518 -0.29 +0.12    -0.296 NA ATOM     21  C   UNL     1      39.180  47.000  14.230 -0.42 -0.02    +0.100 C  ATOM     22  C   UNL     1      37.603  48.753  14.741 -0.50 -0.07    +0.100 C  ATOM     23  C   UNL     1      38.037  46.382  13.377 -0.34 -0.03    +0.099 C  ATOM     24  C   UNL     1      36.727  48.411  13.504 -0.51 -0.05    +0.099 C  ATOM     25  N   UNL     1      37.305  47.392  12.607 -0.86 +0.08    -0.304 NA ATOM     26  C   UNL     1      36.287  46.798  11.749 -0.60 -0.05    +0.105 C  ENDBRANCH  19  20ENDBRANCH   5  19BRANCH   4  27ATOM     27  O   UNL     1      42.169  48.282  17.416 -0.34 -0.04    -0.508 OA ATOM     28  H   UNL     1      42.886  47.620  17.288 -0.35 -0.09    +0.293 HD ENDBRANCH   4  27TORSDOF 5TERENDMDL