
     RDKit          3D

 42 45  0  0  0  0  0  0  0  0999 V2000
   -0.1927   -1.1505    2.1214 C   0  0  0  0  0  0  0  0  0  0  0  0
   -0.6713   -0.8440    0.7197 C   0  0  0  0  0  0  0  0  0  0  0  0
    0.0745   -0.3847   -0.3173 C   0  0  0  0  0  0  0  0  0  0  0  0
    1.4572   -0.0660   -0.1049 C   0  0  0  0  0  0  0  0  0  0  0  0
    2.0710    0.5725    0.8712 N   0  0  0  0  0  0  0  0  0  0  0  0
    3.3973    0.6134    0.5216 C   0  0  0  0  0  0  0  0  0  0  0  0
    4.4867    1.1800    1.1950 C   0  0  0  0  0  0  0  0  0  0  0  0
    5.7593    1.0868    0.6191 C   0  0  0  0  0  0  0  0  0  0  0  0
    5.9436    0.4399   -0.6045 C   0  0  0  0  0  0  0  0  0  0  0  0
    4.8671   -0.1317   -1.2945 C   0  0  0  0  0  0  0  0  0  0  0  0
    3.6103   -0.0170   -0.6957 C   0  0  0  0  0  0  0  0  0  0  0  0
    2.3635   -0.4457   -1.0696 N   0  0  0  0  0  0  0  0  0  0  0  0
   -0.5557   -0.1070   -1.6180 C   0  0  0  0  0  0  0  0  0  0  0  0
   -0.9114    1.1216   -2.0304 C   0  0  0  0  0  0  0  0  0  0  0  0
   -0.7510    2.3021   -1.2160 C   0  0  0  0  0  0  0  0  0  0  0  0
   -1.5635    2.6750   -0.2164 C   0  0  0  0  0  0  0  0  0  0  0  0
   -2.8618    2.0246    0.0473 C   0  0  0  0  0  0  0  0  0  0  0  0
   -3.8885    2.4093   -0.5021 O   0  0  0  0  0  0  0  0  0  0  0  0
   -2.8666    1.1340    1.1020 N   0  0  0  0  0  0  0  0  0  0  0  0
   -3.1414   -0.2264    0.7376 C   0  0  0  0  0  0  0  0  0  0  0  0
   -4.4833   -0.6267    0.6145 C   0  0  0  0  0  0  0  0  0  0  0  0
   -4.7978   -1.9388    0.2652 C   0  0  0  0  0  0  0  0  0  0  0  0
   -3.7751   -2.8537    0.0564 C   0  0  0  0  0  0  0  0  0  0  0  0
   -4.0768   -4.1172   -0.2714 F   0  0  0  0  0  0  0  0  0  0  0  0
   -2.4434   -2.4826    0.1947 C   0  0  0  0  0  0  0  0  0  0  0  0
   -2.1089   -1.1637    0.5424 C   0  0  0  0  0  0  0  0  0  0  0  0
    0.8835   -1.0469    2.2587 H   0  0  0  0  0  0  0  0  0  0  0  0
   -0.6849   -0.4948    2.8464 H   0  0  0  0  0  0  0  0  0  0  0  0
   -0.4279   -2.1874    2.3873 H   0  0  0  0  0  0  0  0  0  0  0  0
    4.3374    1.6834    2.1476 H   0  0  0  0  0  0  0  0  0  0  0  0
    6.6091    1.5131    1.1458 H   0  0  0  0  0  0  0  0  0  0  0  0
    6.9439    0.3737   -1.0292 H   0  0  0  0  0  0  0  0  0  0  0  0
    5.0118   -0.6533   -2.2376 H   0  0  0  0  0  0  0  0  0  0  0  0
    2.1401   -0.9651   -1.9071 H   0  0  0  0  0  0  0  0  0  0  0  0
   -0.7188   -0.9630   -2.2654 H   0  0  0  0  0  0  0  0  0  0  0  0
   -1.3439    1.2641   -3.0182 H   0  0  0  0  0  0  0  0  0  0  0  0
    0.1437    2.8894   -1.4043 H   0  0  0  0  0  0  0  0  0  0  0  0
   -1.3486    3.5486    0.3854 H   0  0  0  0  0  0  0  0  0  0  0  0
   -3.6907    1.4324    1.6159 H   0  0  0  0  0  0  0  0  0  0  0  0
   -5.2921    0.0857    0.7595 H   0  0  0  0  0  0  0  0  0  0  0  0
   -5.8295   -2.2515    0.1539 H   0  0  0  0  0  0  0  0  0  0  0  0
   -1.6746   -3.2319    0.0419 H   0  0  0  0  0  0  0  0  0  0  0  0
  1  2  1  0
  2  3  2  3
  3  4  1  0
  4  5  2  0
  5  6  1  0
  6  7  2  0
  7  8  1  0
  8  9  2  0
  9 10  1  0
 10 11  2  0
 11 12  1  0
  3 13  1  0
 13 14  2  3
 14 15  1  0
 15 16  2  3
 16 17  1  0
 17 18  2  0
 17 19  1  0
 19 20  1  0
 20 21  2  0
 21 22  1  0
 22 23  2  0
 23 24  1  0
 23 25  1  0
 25 26  2  0
 26  2  1  0
 12  4  1  0
 26 20  1  0
 11  6  1  0
  1 27  1  0
  1 28  1  0
  1 29  1  0
  7 30  1  0
  8 31  1  0
  9 32  1  0
 10 33  1  0
 12 34  1  0
 13 35  1  0
 14 36  1  0
 15 37  1  0
 16 38  1  0
 19 39  1  0
 21 40  1  0
 22 41  1  0
 25 42  1  0
M  END
$$$$
