
     RDKit          3D

 31 32  0  0  0  0  0  0  0  0999 V2000
    6.7928   -0.1136    0.0377 O   0  0  0  0  0  0  0  0  0  0  0  0
    5.9598    0.7947   -0.0938 N   0  0  0  0  0  0  0  0  0  0  0  0
    6.2396    1.9997   -0.1679 O   0  0  0  0  0  0  0  0  0  0  0  0
    4.5438    0.4154   -0.1712 C   0  0  0  0  0  0  0  0  0  0  0  0
    3.5668    1.4021   -0.3257 C   0  0  0  0  0  0  0  0  0  0  0  0
    2.2194    1.0298   -0.3979 C   0  0  0  0  0  0  0  0  0  0  0  0
    1.8172   -0.3196   -0.3240 C   0  0  0  0  0  0  0  0  0  0  0  0
    0.3850   -0.6820   -0.4035 C   0  0  0  0  0  0  0  0  0  0  0  0
   -0.0623   -1.8598   -0.9675 C   0  0  0  0  0  0  0  0  0  0  0  0
   -1.4213   -2.0505   -0.9663 C   0  0  0  0  0  0  0  0  0  0  0  0
   -2.2924   -1.1669   -0.4539 N   0  0  0  0  0  0  0  0  0  0  0  0
   -1.7826   -0.0510    0.0751 C   0  0  0  0  0  0  0  0  0  0  0  0
   -2.6104    0.9099    0.6371 N   0  0  0  0  0  0  0  0  0  0  0  0
   -3.8985    1.0887   -0.0149 C   0  0  0  0  0  0  0  0  0  0  0  0
   -4.9537    0.0944    0.4843 C   0  0  0  0  0  0  0  0  0  0  0  0
   -6.2686    0.5629    0.1790 O   0  0  0  0  0  0  0  0  0  0  0  0
   -0.4748    0.2287    0.1081 N   0  0  0  0  0  0  0  0  0  0  0  0
    2.8263   -1.2893   -0.1611 C   0  0  0  0  0  0  0  0  0  0  0  0
    4.1790   -0.9321   -0.0865 C   0  0  0  0  0  0  0  0  0  0  0  0
    3.8281    2.4565   -0.3884 H   0  0  0  0  0  0  0  0  0  0  0  0
    1.4679    1.8109   -0.5152 H   0  0  0  0  0  0  0  0  0  0  0  0
    0.5994   -2.5941   -1.4048 H   0  0  0  0  0  0  0  0  0  0  0  0
   -1.8653   -2.9457   -1.3916 H   0  0  0  0  0  0  0  0  0  0  0  0
   -2.0411    1.7480    0.6936 H   0  0  0  0  0  0  0  0  0  0  0  0
   -3.8214    1.0582   -1.1097 H   0  0  0  0  0  0  0  0  0  0  0  0
   -4.2477    2.1027    0.2176 H   0  0  0  0  0  0  0  0  0  0  0  0
   -4.8335   -0.8832    0.0095 H   0  0  0  0  0  0  0  0  0  0  0  0
   -4.8877   -0.0498    1.5683 H   0  0  0  0  0  0  0  0  0  0  0  0
   -6.4605    1.2913    0.7944 H   0  0  0  0  0  0  0  0  0  0  0  0
    2.5709   -2.3434   -0.0673 H   0  0  0  0  0  0  0  0  0  0  0  0
    4.9260   -1.7128    0.0441 H   0  0  0  0  0  0  0  0  0  0  0  0
  1  2  2  0
  2  3  1  0
  2  4  1  0
  4  5  2  0
  5  6  1  0
  6  7  2  0
  7  8  1  0
  8  9  2  0
  9 10  1  0
 10 11  2  0
 11 12  1  0
 12 13  1  0
 13 14  1  0
 14 15  1  0
 15 16  1  0
 12 17  2  0
  7 18  1  0
 18 19  2  0
 19  4  1  0
 17  8  1  0
  5 20  1  0
  6 21  1  0
  9 22  1  0
 10 23  1  0
 13 24  1  0
 14 25  1  0
 14 26  1  0
 15 27  1  0
 15 28  1  0
 16 29  1  0
 18 30  1  0
 19 31  1  0
M  CHG  2   2   1   3  -1
M  END
$$$$
