MODEL        8USER    Run = 8USERUSER    Estimated Free Energy of Binding    = -12.10 kcal/mol  [=(1)+(2)+(3)-(4)]USERUSER    (1) Final Intermolecular Energy     = -14.19 kcal/molUSER        vdW + Hbond + desolv Energy     = -14.11 kcal/molUSER        Electrostatic Energy            =  -0.08 kcal/molUSER        Moving Ligand-Fixed Receptor    = -14.19 kcal/molUSER        Moving Ligand-Moving Receptor   =  +0.00 kcal/molUSER    (2) Final Total Internal Energy     =  -1.55 kcal/molUSER    (3) Torsional Free Energy           =  +2.09 kcal/molUSER    (4) Unbound System's Energy         =  -1.55 kcal/molUSERUSERREMARK SMILES Nc1ccc(-c2nc3ccccc3nc2-c2ccc(CN3CCC(n4c(O)nc5ccccc54)CC3)cc2)cc1REMARK SMILES IDX 16 1 17 2 18 3 19 4 37 5 38 6 15 7 6 8 7 9 8 10 14 11 9 12REMARK SMILES IDX 13 13 10 14 12 15 11 16 5 17 2 18 3 19 40 20 4 21 39 22 1 23REMARK SMILES IDX 20 26 21 27 22 28 36 29 23 30 35 31 24 32 25 33 26 34 34 35REMARK SMILES IDX 28 36 33 37 29 38 32 39 30 40 31 41 27 42REMARK H PARENT 1 24 1 25 27 43USER                              x       y       z     vdW  Elec       q    TypeUSER                           _______ _______ _______ _____ _____    ______ ____ROOTATOM      1  C   UNL     1      37.456  44.709  17.365 -0.35 -0.00    +0.002 A  ATOM      2  C   UNL     1      37.296  43.865  16.253 -0.29 -0.00    +0.011 A  ATOM      3  C   UNL     1      36.165  43.052  16.116 -0.45 -0.00    +0.006 A  ATOM      4  C   UNL     1      35.166  43.054  17.097 -0.37 +0.01    -0.034 A  ATOM      5  C   UNL     1      35.327  43.874  18.220 -0.32 -0.00    +0.006 A  ATOM      6  C   UNL     1      36.457  44.685  18.352 -0.33 -0.00    +0.011 A  ENDROOTBRANCH   1   7ATOM      7  C   UNL     1      38.634  45.583  17.519 -0.33 -0.02    +0.097 A  ATOM      8  C   UNL     1      39.029  46.576  16.608 -0.36 -0.03    +0.097 A  ATOM      9  N   UNL     1      40.174  47.291  16.798 -0.32 +0.05    -0.244 NA ATOM     10  C   UNL     1      40.891  47.033  17.906 -0.45 -0.01    +0.089 A  ATOM     11  N   UNL     1      39.358  45.337  18.647 -0.26 +0.02    -0.244 NA ATOM     12  C   UNL     1      42.062  47.744  18.148 -0.44 -0.00    +0.030 A  ATOM     13  C   UNL     1      40.478  46.056  18.839 -0.40 -0.00    +0.089 A  ATOM     14  C   UNL     1      42.830  47.512  19.290 -0.49 +0.00    +0.002 A  ATOM     15  C   UNL     1      41.249  45.833  19.972 -0.39 +0.00    +0.030 A  ATOM     16  C   UNL     1      42.422  46.552  20.206 -0.41 +0.00    +0.002 A  BRANCH   8  17ATOM     17  C   UNL     1      38.276  46.971  15.403 -0.43 -0.00    +0.003 A  ATOM     18  C   UNL     1      36.856  47.704  13.054 -0.60 -0.01    +0.031 A  ATOM     19  C   UNL     1      36.902  48.558  14.155 -0.49 -0.02    +0.026 A  ATOM     20  C   UNL     1      37.467  46.454  13.156 -0.48 -0.01    +0.026 A  ATOM     21  C   UNL     1      37.624  48.210  15.303 -0.49 -0.01    +0.012 A  ATOM     22  C   UNL     1      38.190  46.103  14.303 -0.41 -0.00    +0.012 A  BRANCH  18  23ATOM     23  N   UNL     1      36.033  48.002  11.963 -0.22 +0.22    -0.399 N  ATOM     24  H   UNL     1      36.239  48.895  11.527 -0.40 -0.08    +0.156 HD ATOM     25  H   UNL     1      35.043  47.887  12.154 -0.02 -0.12    +0.156 HD ENDBRANCH  18  23ENDBRANCH   8  17ENDBRANCH   1   7BRANCH   4  26ATOM     26  C   UNL     1      33.942  42.173  16.958 -0.35 -0.06    +0.120 C  BRANCH  26  27ATOM     27  N   UNL     1      32.716  42.802  17.484 -0.11 +0.09    -0.299 NA ATOM     28  C   UNL     1      31.502  42.422  16.745 -0.30 -0.03    +0.087 C  ATOM     29  C   UNL     1      32.557  42.566  18.924 -0.37 -0.01    +0.087 C  ATOM     30  C   UNL     1      31.035  40.989  17.004 -0.30 -0.01    +0.041 C  ATOM     31  C   UNL     1      32.146  41.138  19.277 -0.36 +0.00    +0.041 C  ATOM     32  C   UNL     1      30.881  40.738  18.508 -0.24 -0.00    +0.095 C  BRANCH  32  33ATOM     33  N   UNL     1      30.450  39.382  18.814 -0.17 -0.03    -0.291 N  ATOM     34  C   UNL     1      31.225  38.255  18.799 -0.26 +0.06    +0.295 A  ATOM     35  C   UNL     1      29.181  38.989  19.190 -0.27 +0.01    +0.072 A  ATOM     36  N   UNL     1      30.574  37.174  19.132 -0.64 -0.10    -0.195 NA ATOM     37  C   UNL     1      27.974  39.674  19.383 -0.16 +0.00    +0.029 A  ATOM     38  C   UNL     1      29.295  37.609  19.378 -0.29 +0.03    +0.092 A  ATOM     39  C   UNL     1      26.863  38.918  19.778 -0.26 -0.00    +0.002 A  ATOM     40  C   UNL     1      28.169  36.870  19.773 -0.22 +0.00    +0.031 A  ATOM     41  C   UNL     1      26.956  37.539  19.970 -0.29 -0.00    +0.002 A  BRANCH  34  42ATOM     42  O   UNL     1      32.505  38.224  18.491 -0.22 -0.04    -0.480 OA ATOM     43  H   UNL     1      32.487  37.699  17.670 +0.24 +0.02    +0.296 HD ENDBRANCH  34  42ENDBRANCH  32  33ENDBRANCH  26  27ENDBRANCH   4  26TORSDOF 7TERENDMDL