MODEL        4USER    Run = 4USERUSER    Estimated Free Energy of Binding    = -12.10 kcal/mol  [=(1)+(2)+(3)-(4)]USERUSER    (1) Final Intermolecular Energy     = -13.89 kcal/molUSER        vdW + Hbond + desolv Energy     = -13.74 kcal/molUSER        Electrostatic Energy            =  -0.14 kcal/molUSER        Moving Ligand-Fixed Receptor    = -13.89 kcal/molUSER        Moving Ligand-Moving Receptor   =  +0.00 kcal/molUSER    (2) Final Total Internal Energy     =  -1.86 kcal/molUSER    (3) Torsional Free Energy           =  +1.79 kcal/molUSER    (4) Unbound System's Energy         =  -1.86 kcal/molUSERUSERREMARK SMILES Oc1nc2ccc(F)cc2n1C1CCN(Cc2ccc(-c3nc4ccccc4nc3-c3ccccc3)cc2)CC1REMARK SMILES IDX 12 1 13 2 14 3 15 4 39 5 40 6 11 7 2 8 3 9 4 10 10 11 5 12REMARK SMILES IDX 9 13 6 14 7 15 8 16 1 17 16 19 17 20 18 21 38 22 19 23 37 24REMARK SMILES IDX 20 25 21 26 22 27 30 28 23 29 29 30 24 31 28 32 25 33 27 34REMARK SMILES IDX 26 35 31 36 32 37 36 38 33 39 35 40 34 41REMARK H PARENT 1 18USER                              x       y       z     vdW  Elec       q    TypeUSER                           _______ _______ _______ _____ _____    ______ ____ROOTATOM      1  C   UNL     1      40.684  47.035  16.612 -0.47 -0.01    +0.095 C  ATOM      2  C   UNL     1      41.128  48.130  17.586 -0.47 -0.00    +0.041 C  ATOM      3  C   UNL     1      42.203  47.628  18.550 -0.51 +0.00    +0.087 C  ATOM      4  N   UNL     1      41.960  46.286  19.094 -0.26 -0.03    -0.299 NA ATOM      5  C   UNL     1      40.621  45.773  18.830 -0.47 -0.00    +0.087 C  ATOM      6  C   UNL     1      40.396  45.697  17.320 -0.41 -0.00    +0.041 C  ENDROOTBRANCH   1   7ATOM      7  N   UNL     1      39.575  47.479  15.770 -0.26 +0.08    -0.291 N  ATOM      8  C   UNL     1      39.494  48.692  15.140 -0.27 -0.13    +0.295 A  ATOM      9  N   UNL     1      38.403  48.838  14.434 -0.32 +0.11    -0.195 NA ATOM     10  C   UNL     1      37.729  47.654  14.597 -0.43 -0.05    +0.093 A  ATOM     11  C   UNL     1      38.433  46.780  15.432 -0.37 -0.03    +0.074 A  ATOM     12  C   UNL     1      36.498  47.253  14.044 -0.47 -0.02    +0.034 A  ATOM     13  C   UNL     1      37.947  45.504  15.747 -0.31 -0.02    +0.068 A  ATOM     14  C   UNL     1      36.009  45.975  14.340 -0.39 -0.02    +0.041 A  ATOM     15  C   UNL     1      36.728  45.129  15.178 -0.28 -0.05    +0.125 A  ATOM     16  F   UNL     1      36.235  43.913  15.455 -0.10 +0.08    -0.207 F  BRANCH   8  17ATOM     17  O   UNL     1      40.396  49.650  15.232 -0.25 +0.20    -0.480 OA ATOM     18  H   UNL     1      39.842  50.440  15.365 -0.22 -0.23    +0.296 HD ENDBRANCH   8  17ENDBRANCH   1   7BRANCH   4  19ATOM     19  C   UNL     1      42.337  46.158  20.507 -0.32 +0.03    +0.120 C  BRANCH  19  20ATOM     20  C   UNL     1      41.273  45.468  21.332 -0.29 -0.00    -0.034 A  ATOM     21  C   UNL     1      41.152  44.073  21.300 -0.32 +0.00    +0.006 A  ATOM     22  C   UNL     1      40.404  46.204  22.150 -0.20 +0.00    +0.006 A  ATOM     23  C   UNL     1      40.175  43.429  22.062 -0.23 +0.00    +0.011 A  ATOM     24  C   UNL     1      39.439  45.557  22.924 -0.28 +0.00    +0.011 A  ATOM     25  C   UNL     1      39.314  44.159  22.898 -0.25 +0.00    +0.002 A  BRANCH  25  26ATOM     26  C   UNL     1      38.308  43.464  23.715 -0.24 +0.01    +0.097 A  ATOM     27  N   UNL     1      38.659  43.335  25.027 -0.10 -0.00    -0.244 NA ATOM     28  C   UNL     1      37.101  42.939  23.221 -0.33 +0.01    +0.097 A  ATOM     29  C   UNL     1      37.818  42.656  25.823 -0.25 -0.00    +0.089 A  ATOM     30  N   UNL     1      36.250  42.253  24.035 -0.21 -0.01    -0.244 NA ATOM     31  C   UNL     1      38.146  42.472  27.162 -0.32 -0.00    +0.030 A  ATOM     32  C   UNL     1      36.609  42.111  25.327 -0.36 -0.01    +0.089 A  ATOM     33  C   UNL     1      37.307  41.761  28.021 -0.33 -0.00    +0.002 A  ATOM     34  C   UNL     1      35.777  41.411  26.195 -0.42 -0.01    +0.030 A  ATOM     35  C   UNL     1      36.120  41.225  27.535 -0.60 -0.00    +0.002 A  BRANCH  28  36ATOM     36  C   UNL     1      36.647  43.050  21.824 -0.41 +0.00    +0.002 A  ATOM     37  C   UNL     1      36.794  44.261  21.127 -0.35 +0.00    +0.010 A  ATOM     38  C   UNL     1      36.058  41.967  21.139 -0.50 +0.00    +0.010 A  ATOM     39  C   UNL     1      36.340  44.399  19.811 -0.36 -0.00    +0.001 A  ATOM     40  C   UNL     1      35.604  42.102  19.824 -0.41 -0.00    +0.001 A  ATOM     41  C   UNL     1      35.739  43.320  19.163 -0.39 -0.00    +0.000 A  ENDBRANCH  28  36ENDBRANCH  25  26ENDBRANCH  19  20ENDBRANCH   4  19TORSDOF 6TERENDMDL