REMARK SMILES Oc1nc2ccccc2n1C1CCN(Cc2ccc(-c3nc4ccc(F)cc4nc3-c3ccc(F)cc3)cc2)CC1
REMARK SMILES IDX 15 1 14 2 11 3 12 4 41 5 13 6 40 7 10 8 2 9 3 10 4 11 9 12
REMARK SMILES IDX 5 13 8 14 6 15 7 16 1 17 16 19 17 20 39 21 18 22 38 23 19 24
REMARK SMILES IDX 20 25 21 26 30 27 22 28 29 29 23 30 28 31 24 32 27 33 25 34
REMARK SMILES IDX 26 35 31 36 32 37 37 38 33 39 36 40 34 41 35 42
REMARK H PARENT 1 18
ROOT
ATOM      1  C   UNL     1      -0.955   1.788   1.742  1.00  0.00     0.120 C 
ENDROOT
BRANCH   1   2
ATOM      2  N   UNL     1      -1.834   1.758   0.562  1.00  0.00    -0.299 NA
ATOM      3  C   UNL     1      -4.517   0.469   0.362  1.00  0.00     0.095 C 
ATOM      4  C   UNL     1      -4.262   1.938   0.000  1.00  0.00     0.041 C 
ATOM      5  C   UNL     1      -3.216  -0.337   0.526  1.00  0.00     0.041 C 
ATOM      6  C   UNL     1      -3.092   2.468   0.825  1.00  0.00     0.087 C 
ATOM      7  C   UNL     1      -2.004   0.418  -0.015  1.00  0.00     0.087 C 
BRANCH   3   8
ATOM      8  N   UNL     1      -5.480  -0.161  -0.531  1.00  0.00    -0.291 N 
ATOM      9  C   UNL     1      -5.298  -0.450  -1.855  1.00  0.00     0.295 A 
ATOM     10  N   UNL     1      -6.331  -1.027  -2.406  1.00  0.00    -0.195 NA
ATOM     11  C   UNL     1      -7.248  -1.128  -1.389  1.00  0.00     0.092 A 
ATOM     12  C   UNL     1      -6.748  -0.592  -0.200  1.00  0.00     0.072 A 
ATOM     13  C   UNL     1      -8.542  -1.673  -1.413  1.00  0.00     0.031 A 
ATOM     14  C   UNL     1      -7.496  -0.573   0.985  1.00  0.00     0.029 A 
ATOM     15  C   UNL     1      -9.301  -1.665  -0.238  1.00  0.00     0.002 A 
ATOM     16  C   UNL     1      -8.784  -1.121   0.940  1.00  0.00     0.002 A 
BRANCH   9  17
ATOM     17  O   UNL     1      -4.203  -0.191  -2.537  1.00  0.00    -0.480 OA
ATOM     18  H   UNL     1      -4.445  -0.529  -3.420  1.00  0.00     0.296 HD
ENDBRANCH   9  17
ENDBRANCH   3   8
ENDBRANCH   1   2
BRANCH   1  19
ATOM     19  C   UNL     1       0.493   1.486   1.420  1.00  0.00    -0.034 A 
ATOM     20  C   UNL     1       1.190   2.261   0.485  1.00  0.00     0.006 A 
ATOM     21  C   UNL     1       1.169   0.445   2.068  1.00  0.00     0.006 A 
ATOM     22  C   UNL     1       2.527   1.986   0.187  1.00  0.00     0.011 A 
ATOM     23  C   UNL     1       2.507   0.170   1.766  1.00  0.00     0.011 A 
ATOM     24  C   UNL     1       3.204   0.924   0.807  1.00  0.00     0.002 A 
BRANCH  24  25
ATOM     25  C   UNL     1       4.604   0.628   0.460  1.00  0.00     0.097 A 
ATOM     26  N   UNL     1       5.450   1.684   0.626  1.00  0.00    -0.244 NA
ATOM     27  C   UNL     1       5.074  -0.617   0.013  1.00  0.00     0.097 A 
ATOM     28  C   UNL     1       6.754   1.482   0.375  1.00  0.00     0.090 A 
ATOM     29  N   UNL     1       6.401  -0.820  -0.229  1.00  0.00    -0.244 NA
ATOM     30  C   UNL     1       7.654   2.528   0.544  1.00  0.00     0.033 A 
ATOM     31  C   UNL     1       7.234   0.221  -0.052  1.00  0.00     0.092 A 
ATOM     32  C   UNL     1       9.016   2.354   0.299  1.00  0.00     0.041 A 
ATOM     33  C   UNL     1       8.589   0.056  -0.297  1.00  0.00     0.069 A 
ATOM     34  C   UNL     1       9.470   1.115  -0.121  1.00  0.00     0.125 A 
ATOM     35  F   UNL     1      10.775   0.936  -0.362  1.00  0.00    -0.207 F 
BRANCH  27  36
ATOM     36  C   UNL     1       4.234  -1.800  -0.253  1.00  0.00     0.003 A 
ATOM     37  C   UNL     1       3.099  -1.735  -1.085  1.00  0.00     0.013 A 
ATOM     38  C   UNL     1       4.572  -3.048   0.305  1.00  0.00     0.013 A 
ATOM     39  C   UNL     1       2.320  -2.870  -1.328  1.00  0.00     0.040 A 
ATOM     40  C   UNL     1       3.795  -4.183   0.061  1.00  0.00     0.040 A 
ATOM     41  C   UNL     1       2.674  -4.082  -0.751  1.00  0.00     0.123 A 
ATOM     42  F   UNL     1       1.929  -5.170  -0.989  1.00  0.00    -0.207 F 
ENDBRANCH  27  36
ENDBRANCH  24  25
ENDBRANCH   1  19
TORSDOF 6
