REMARK SMILES Oc1nc2ccc(F)cc2n1C1CCN(Cc2ccc(-c3nc4ccccc4nc3-c3ccccc3)cc2)CC1
REMARK SMILES IDX 12 1 13 2 14 3 15 4 39 5 40 6 11 7 2 8 3 9 4 10 10 11 5 12
REMARK SMILES IDX 9 13 6 14 7 15 8 16 1 17 16 19 17 20 18 21 38 22 19 23 37 24
REMARK SMILES IDX 20 25 21 26 22 27 30 28 23 29 29 30 24 31 28 32 25 33 27 34
REMARK SMILES IDX 26 35 31 36 32 37 36 38 33 39 35 40 34 41
REMARK H PARENT 1 18
ROOT
ATOM      1  C   UNL     1       4.064   0.947   0.092  1.00  0.00     0.095 C 
ATOM      2  C   UNL     1       3.288  -0.066  -0.754  1.00  0.00     0.041 C 
ATOM      3  C   UNL     1       1.925  -0.389  -0.141  1.00  0.00     0.087 C 
ATOM      4  N   UNL     1       1.937  -0.579   1.315  1.00  0.00    -0.299 NA
ATOM      5  C   UNL     1       3.274  -0.686   1.887  1.00  0.00     0.087 C 
ATOM      6  C   UNL     1       4.056   0.594   1.591  1.00  0.00     0.041 C 
ENDROOT
BRANCH   1   7
ATOM      7  N   UNL     1       5.411   1.166  -0.430  1.00  0.00    -0.291 N 
ATOM      8  C   UNL     1       5.869   2.334  -0.979  1.00  0.00     0.295 A 
ATOM      9  N   UNL     1       7.119   2.273  -1.359  1.00  0.00    -0.195 NA
ATOM     10  C   UNL     1       7.514   1.000  -1.036  1.00  0.00     0.093 A 
ATOM     11  C   UNL     1       6.467   0.276  -0.455  1.00  0.00     0.074 A 
ATOM     12  C   UNL     1       8.773   0.393  -1.206  1.00  0.00     0.034 A 
ATOM     13  C   UNL     1       6.627  -1.052  -0.037  1.00  0.00     0.068 A 
ATOM     14  C   UNL     1       8.949  -0.929  -0.779  1.00  0.00     0.041 A 
ATOM     15  C   UNL     1       7.888  -1.626  -0.210  1.00  0.00     0.125 A 
ATOM     16  F   UNL     1       8.078  -2.894   0.183  1.00  0.00    -0.207 F 
BRANCH   8  17
ATOM     17  O   UNL     1       5.144   3.423  -1.145  1.00  0.00    -0.480 OA
ATOM     18  H   UNL     1       5.790   4.042  -1.531  1.00  0.00     0.296 HD
ENDBRANCH   8  17
ENDBRANCH   1   7
BRANCH   4  19
ATOM     19  C   UNL     1       1.051  -1.660   1.764  1.00  0.00     0.120 C 
BRANCH  19  20
ATOM     20  C   UNL     1      -0.412  -1.341   1.546  1.00  0.00    -0.034 A 
ATOM     21  C   UNL     1      -1.067  -0.432   2.387  1.00  0.00     0.006 A 
ATOM     22  C   UNL     1      -1.130  -1.933   0.498  1.00  0.00     0.006 A 
ATOM     23  C   UNL     1      -2.416  -0.130   2.189  1.00  0.00     0.011 A 
ATOM     24  C   UNL     1      -2.475  -1.617   0.291  1.00  0.00     0.011 A 
ATOM     25  C   UNL     1      -3.137  -0.705   1.129  1.00  0.00     0.002 A 
BRANCH  25  26
ATOM     26  C   UNL     1      -4.549  -0.356   0.917  1.00  0.00     0.097 A 
ATOM     27  N   UNL     1      -5.372  -0.756   1.928  1.00  0.00    -0.244 NA
ATOM     28  C   UNL     1      -5.048   0.300  -0.223  1.00  0.00     0.097 A 
ATOM     29  C   UNL     1      -6.687  -0.527   1.776  1.00  0.00     0.089 A 
ATOM     30  N   UNL     1      -6.383   0.532  -0.370  1.00  0.00    -0.244 NA
ATOM     31  C   UNL     1      -7.570  -0.943   2.766  1.00  0.00     0.030 A 
ATOM     32  C   UNL     1      -7.196   0.118   0.623  1.00  0.00     0.089 A 
ATOM     33  C   UNL     1      -8.945  -0.738   2.642  1.00  0.00     0.002 A 
ATOM     34  C   UNL     1      -8.567   0.324   0.514  1.00  0.00     0.030 A 
ATOM     35  C   UNL     1      -9.446  -0.105   1.510  1.00  0.00     0.002 A 
BRANCH  28  36
ATOM     36  C   UNL     1      -4.222   0.774  -1.347  1.00  0.00     0.002 A 
ATOM     37  C   UNL     1      -4.530   0.389  -2.663  1.00  0.00     0.010 A 
ATOM     38  C   UNL     1      -3.110   1.620  -1.155  1.00  0.00     0.010 A 
ATOM     39  C   UNL     1      -3.740   0.800  -3.741  1.00  0.00     0.001 A 
ATOM     40  C   UNL     1      -2.319   2.033  -2.231  1.00  0.00     0.001 A 
ATOM     41  C   UNL     1      -2.630   1.617  -3.523  1.00  0.00     0.000 A 
ENDBRANCH  28  36
ENDBRANCH  25  26
ENDBRANCH  19  20
ENDBRANCH   4  19
TORSDOF 6
