MODEL        2USER    Run = 2USERUSER    Estimated Free Energy of Binding    = -12.66 kcal/mol  [=(1)+(2)+(3)-(4)]USERUSER    (1) Final Intermolecular Energy     = -14.45 kcal/molUSER        vdW + Hbond + desolv Energy     = -14.45 kcal/molUSER        Electrostatic Energy            =  +0.00 kcal/molUSER        Moving Ligand-Fixed Receptor    = -14.45 kcal/molUSER        Moving Ligand-Moving Receptor   =  +0.00 kcal/molUSER    (2) Final Total Internal Energy     =  -1.88 kcal/molUSER    (3) Torsional Free Energy           =  +1.79 kcal/molUSER    (4) Unbound System's Energy         =  -1.88 kcal/molUSERUSERREMARK SMILES Oc1nc2ccccc2n1C1CCN(Cc2ccc(-c3nc4ccc(F)cc4nc3-c3ccc(F)cc3)cc2)CC1REMARK SMILES IDX 15 1 14 2 11 3 12 4 41 5 13 6 40 7 10 8 2 9 3 10 4 11 9 12REMARK SMILES IDX 5 13 8 14 6 15 7 16 1 17 16 19 17 20 39 21 18 22 38 23 19 24REMARK SMILES IDX 20 25 21 26 30 27 22 28 29 29 23 30 28 31 24 32 27 33 25 34REMARK SMILES IDX 26 35 31 36 32 37 37 38 33 39 36 40 34 41 35 42REMARK H PARENT 1 18USER                              x       y       z     vdW  Elec       q    TypeUSER                           _______ _______ _______ _____ _____    ______ ____ROOTATOM      1  C   UNL     1      36.119  46.164  14.138 -0.42 -0.07    +0.120 C  ENDROOTBRANCH   1   2ATOM      2  N   UNL     1      36.905  47.157  14.888 -0.20 +0.20    -0.299 NA ATOM      3  C   UNL     1      39.688  46.834  15.911 -0.46 -0.02    +0.095 C  ATOM      4  C   UNL     1      39.250  48.008  15.026 -0.57 -0.01    +0.041 C  ATOM      5  C   UNL     1      38.498  46.033  16.468 -0.42 -0.01    +0.041 C  ATOM      6  C   UNL     1      38.095  47.566  14.131 -0.51 -0.03    +0.087 C  ATOM      7  C   UNL     1      37.174  46.771  16.279 -0.37 -0.05    +0.087 C  BRANCH   3   8ATOM      8  N   UNL     1      40.643  47.239  16.933 -0.30 +0.04    -0.291 N  ATOM      9  C   UNL     1      41.403  48.376  16.936 -0.19 -0.01    +0.295 A  ATOM     10  N   UNL     1      42.167  48.485  17.989 -0.52 -0.01    -0.195 NA ATOM     11  C   UNL     1      41.896  47.359  18.726 -0.45 +0.00    +0.092 A  ATOM     12  C   UNL     1      40.947  46.554  18.092 -0.46 -0.00    +0.072 A  ATOM     13  C   UNL     1      42.431  46.957  19.961 -0.42 +0.01    +0.031 A  ATOM     14  C   UNL     1      40.504  45.344  18.643 -0.44 -0.00    +0.029 A  ATOM     15  C   UNL     1      41.997  45.754  20.527 -0.34 +0.00    +0.002 A  ATOM     16  C   UNL     1      41.050  44.961  19.874 -0.39 +0.00    +0.002 A  BRANCH   9  17ATOM     17  O   UNL     1      41.389  49.291  15.992 -0.82 +0.02    -0.480 OA ATOM     18  H   UNL     1      41.386  50.111  16.522 +0.13 -0.03    +0.296 HD ENDBRANCH   9  17ENDBRANCH   3   8ENDBRANCH   1   2BRANCH   1  19ATOM     19  C   UNL     1      35.382  45.186  15.028 -0.32 +0.02    -0.034 A  ATOM     20  C   UNL     1      35.934  43.931  15.315 -0.33 -0.00    +0.006 A  ATOM     21  C   UNL     1      34.150  45.525  15.600 -0.29 -0.01    +0.006 A  ATOM     22  C   UNL     1      35.257  43.026  16.137 -0.42 -0.00    +0.011 A  ATOM     23  C   UNL     1      33.474  44.617  16.421 -0.32 -0.01    +0.011 A  ATOM     24  C   UNL     1      34.006  43.345  16.689 -0.36 -0.00    +0.002 A  BRANCH  24  25ATOM     25  C   UNL     1      33.292  42.369  17.529 -0.30 -0.03    +0.097 A  ATOM     26  N   UNL     1      32.182  41.840  16.940 -0.08 +0.11    -0.244 NA ATOM     27  C   UNL     1      33.690  41.975  18.817 -0.32 -0.01    +0.097 A  ATOM     28  C   UNL     1      31.500  40.907  17.624 -0.30 -0.02    +0.090 A  ATOM     29  N   UNL     1      33.000  41.018  19.502 -0.27 -0.05    -0.244 NA ATOM     30  C   UNL     1      30.370  40.331  17.056 -0.33 -0.00    +0.033 A  ATOM     31  C   UNL     1      31.913  40.490  18.912 -0.33 +0.00    +0.092 A  ATOM     32  C   UNL     1      29.640  39.354  17.733 -0.32 +0.01    +0.041 A  ATOM     33  C   UNL     1      31.181  39.521  19.581 -0.35 +0.01    +0.069 A  ATOM     34  C   UNL     1      30.055  38.959  18.994 -0.28 +0.02    +0.125 A  ATOM     35  F   UNL     1      29.361  38.024  19.655 -0.08 -0.04    -0.207 F  BRANCH  27  36ATOM     36  C   UNL     1      34.837  42.528  19.561 -0.43 -0.00    +0.003 A  ATOM     37  C   UNL     1      35.560  41.759  20.494 -0.30 -0.00    +0.013 A  ATOM     38  C   UNL     1      35.259  43.851  19.330 -0.38 -0.00    +0.013 A  ATOM     39  C   UNL     1      36.647  42.301  21.185 -0.46 +0.00    +0.040 A  ATOM     40  C   UNL     1      36.347  44.394  20.018 -0.32 -0.00    +0.040 A  ATOM     41  C   UNL     1      37.029  43.614  20.942 -0.32 +0.00    +0.123 A  ATOM     42  F   UNL     1      38.075  44.131  21.601 -0.08 -0.01    -0.207 F  ENDBRANCH  27  36ENDBRANCH  24  25ENDBRANCH   1  19TORSDOF 6TERENDMDL