REMARK SMILES CNC1=C(c2ccc(OC(C)C)cc2)C=C(c2cccc(Cl)c2Cl)N[C@H]1N
REMARK SMILES IDX 5 1 6 2 7 3 8 4 13 5 14 6 4 7 3 8 26 9 15 10 25 11 16 12
REMARK SMILES IDX 2 14 1 15 27 17 17 20 18 21 23 22 19 23 21 24 20 25 24 26
REMARK SMILES IDX 22 27 9 28 10 29 11 30 12 31
REMARK H PARENT 25 13 2 16 27 18 27 19
ROOT
ATOM      1  C   UNL     1      -0.661  -0.192   0.424  1.00  0.00    -0.016 A 
ATOM      2  C   UNL     1      -1.352   0.352   1.510  1.00  0.00     0.012 A 
ATOM      3  C   UNL     1      -2.733   0.543   1.434  1.00  0.00     0.047 A 
ATOM      4  C   UNL     1      -3.442   0.200   0.278  1.00  0.00     0.119 A 
ATOM      5  C   UNL     1      -2.750  -0.332  -0.809  1.00  0.00     0.047 A 
ATOM      6  C   UNL     1      -1.366  -0.527  -0.737  1.00  0.00     0.012 A 
ENDROOT
BRANCH   1   7
ATOM      7  C   UNL     1       0.801  -0.398   0.495  1.00  0.00     0.006 C 
ATOM      8  C   UNL     1       1.314  -1.533   1.049  1.00  0.00     0.056 C 
ATOM      9  C   UNL     1       2.865  -1.734   1.133  1.00  0.00     0.193 C 
ATOM     10  C   UNL     1       1.691   0.597  -0.092  1.00  0.00     0.037 C 
ATOM     11  N   UNL     1       3.590  -0.560   0.713  1.00  0.00    -0.364 N 
ATOM     12  C   UNL     1       3.022   0.472   0.008  1.00  0.00     0.045 C 
ATOM     13  H   UNL     1       4.576  -0.726   0.550  1.00  0.00     0.162 HD
BRANCH   8  14
ATOM     14  N   UNL     1       0.513  -2.566   1.604  1.00  0.00    -0.388 N 
ATOM     15  C   UNL     1       0.679  -3.958   1.199  1.00  0.00     0.139 C 
ATOM     16  H   UNL     1      -0.475  -2.311   1.565  1.00  0.00     0.160 HD
ENDBRANCH   8  14
BRANCH   9  17
ATOM     17  N   UNL     1       3.222  -2.176   2.476  1.00  0.00    -0.306 NA
ATOM     18  H   UNL     1       2.408  -2.695   2.812  1.00  0.00     0.121 HD
ATOM     19  H   UNL     1       3.212  -1.323   3.031  1.00  0.00     0.121 HD
ENDBRANCH   9  17
BRANCH  12  20
ATOM     20  C   UNL     1       3.922   1.482  -0.581  1.00  0.00     0.018 A 
ATOM     21  C   UNL     1       4.618   2.318   0.310  1.00  0.00     0.012 A 
ATOM     22  C   UNL     1       4.115   1.642  -1.968  1.00  0.00     0.068 A 
ATOM     23  C   UNL     1       5.483   3.305  -0.161  1.00  0.00     0.002 A 
ATOM     24  C   UNL     1       4.988   2.639  -2.434  1.00  0.00     0.060 A 
ATOM     25  C   UNL     1       5.666   3.466  -1.531  1.00  0.00     0.022 A 
ATOM     26  Cl  UNL     1       3.301   0.595  -3.093  1.00  0.00    -0.082 Cl
ATOM     27  Cl  UNL     1       5.285   2.905  -4.119  1.00  0.00    -0.083 Cl
ENDBRANCH  12  20
ENDBRANCH   1   7
BRANCH   4  28
ATOM     28  O   UNL     1      -4.784   0.446   0.348  1.00  0.00    -0.491 OA
BRANCH  28  29
ATOM     29  C   UNL     1      -5.628   0.050  -0.737  1.00  0.00     0.167 C 
ATOM     30  C   UNL     1      -7.016  -0.190  -0.146  1.00  0.00     0.052 C 
ATOM     31  C   UNL     1      -5.693   1.162  -1.780  1.00  0.00     0.052 C 
ENDBRANCH  28  29
ENDBRANCH   4  28
TORSDOF 6
