REMARK SMILES CNC1=C(c2ccc(C(N)=O)cc2)C=C(c2ccc3ccccc3c2)N[C@H]1N
REMARK SMILES IDX 3 1 4 2 14 3 15 4 26 5 27 6 2 8 1 9 5 11 6 12 13 13 7 14
REMARK SMILES IDX 12 15 8 16 9 17 10 18 11 19 28 22 16 25 17 26 25 27 18 28
REMARK SMILES IDX 24 29 19 30 23 31 20 32 22 33 21 34
REMARK H PARENT 26 7 2 10 10 20 10 21 28 23 28 24
ROOT
ATOM      1  C   UNL     1      -1.416  -1.608  -0.624  1.00  0.00     0.056 C 
ATOM      2  C   UNL     1      -1.296  -0.373  -0.058  1.00  0.00     0.006 C 
ATOM      3  C   UNL     1       0.018   0.217   0.166  1.00  0.00     0.037 C 
ATOM      4  C   UNL     1       1.134  -0.426  -0.202  1.00  0.00     0.044 C 
ATOM      5  N   UNL     1       1.090  -1.695  -0.726  1.00  0.00    -0.364 N 
ATOM      6  C   UNL     1      -0.128  -2.427  -0.989  1.00  0.00     0.193 C 
ATOM      7  H   UNL     1       1.871  -1.927  -1.329  1.00  0.00     0.162 HD
ENDROOT
BRANCH   1   8
ATOM      8  N   UNL     1      -2.675  -2.167  -0.930  1.00  0.00    -0.388 N 
ATOM      9  C   UNL     1      -2.947  -3.538  -1.305  1.00  0.00     0.139 C 
ATOM     10  H   UNL     1      -3.449  -1.708  -0.456  1.00  0.00     0.160 HD
ENDBRANCH   1   8
BRANCH   2  11
ATOM     11  C   UNL     1      -2.500   0.414   0.292  1.00  0.00    -0.016 A 
ATOM     12  C   UNL     1      -3.144   1.192  -0.679  1.00  0.00     0.009 A 
ATOM     13  C   UNL     1      -2.987   0.408   1.604  1.00  0.00     0.009 A 
ATOM     14  C   UNL     1      -4.273   1.947  -0.348  1.00  0.00     0.014 A 
ATOM     15  C   UNL     1      -4.115   1.162   1.937  1.00  0.00     0.014 A 
ATOM     16  C   UNL     1      -4.770   1.926   0.962  1.00  0.00     0.039 A 
BRANCH  16  17
ATOM     17  C   UNL     1      -5.966   2.712   1.368  1.00  0.00     0.248 C 
ATOM     18  N   UNL     1      -6.843   3.084   0.387  1.00  0.00    -0.366 N 
ATOM     19  O   UNL     1      -6.187   2.989   2.540  1.00  0.00    -0.270 OA
ATOM     20  H   UNL     1      -7.707   3.502   0.709  1.00  0.00     0.159 HD
ATOM     21  H   UNL     1      -6.854   2.641  -0.520  1.00  0.00     0.159 HD
ENDBRANCH  16  17
ENDBRANCH   2  11
BRANCH   6  22
ATOM     22  N   UNL     1      -0.137  -3.723  -0.323  1.00  0.00    -0.306 NA
ATOM     23  H   UNL     1      -0.221  -3.503   0.668  1.00  0.00     0.121 HD
ATOM     24  H   UNL     1       0.803  -4.091  -0.424  1.00  0.00     0.121 HD
ENDBRANCH   6  22
BRANCH   4  25
ATOM     25  C   UNL     1       2.459   0.201  -0.042  1.00  0.00    -0.002 A 
ATOM     26  C   UNL     1       2.740   1.451  -0.603  1.00  0.00     0.011 A 
ATOM     27  C   UNL     1       3.470  -0.470   0.661  1.00  0.00     0.019 A 
ATOM     28  C   UNL     1       4.006   2.026  -0.457  1.00  0.00     0.009 A 
ATOM     29  C   UNL     1       4.747   0.095   0.818  1.00  0.00    -0.018 A 
ATOM     30  C   UNL     1       5.018   1.361   0.251  1.00  0.00    -0.018 A 
ATOM     31  C   UNL     1       5.761  -0.571   1.526  1.00  0.00     0.009 A 
ATOM     32  C   UNL     1       6.295   1.924   0.407  1.00  0.00     0.009 A 
ATOM     33  C   UNL     1       7.024   0.003   1.673  1.00  0.00     0.001 A 
ATOM     34  C   UNL     1       7.291   1.249   1.114  1.00  0.00     0.001 A 
ENDBRANCH   4  25
TORSDOF 5
