MODEL        7USER    Run = 7USERUSER    Estimated Free Energy of Binding    =  -9.55 kcal/mol  [=(1)+(2)+(3)-(4)]USERUSER    (1) Final Intermolecular Energy     = -11.34 kcal/molUSER        vdW + Hbond + desolv Energy     = -11.17 kcal/molUSER        Electrostatic Energy            =  -0.17 kcal/molUSER        Moving Ligand-Fixed Receptor    = -11.34 kcal/molUSER        Moving Ligand-Moving Receptor   =  +0.00 kcal/molUSER    (2) Final Total Internal Energy     =  -0.82 kcal/molUSER    (3) Torsional Free Energy           =  +1.79 kcal/molUSER    (4) Unbound System's Energy         =  -0.82 kcal/molUSERUSERREMARK SMILES CNC1=C(c2ccc(OC(C)C)cc2)C=C(c2cccc(Cl)c2Cl)N[C@H]1NREMARK SMILES IDX 5 1 6 2 7 3 8 4 13 5 14 6 4 7 3 8 26 9 15 10 25 11 16 12REMARK SMILES IDX 2 14 1 15 27 17 17 20 18 21 23 22 19 23 21 24 20 25 24 26REMARK SMILES IDX 22 27 9 28 10 29 11 30 12 31REMARK H PARENT 25 13 2 16 27 18 27 19USER                              x       y       z     vdW  Elec       q    TypeUSER                           _______ _______ _______ _____ _____    ______ ____ROOTATOM      1  C   UNL     1      39.310  45.221  21.127 -0.34 -0.00    -0.016 A  ATOM      2  C   UNL     1      38.500  44.146  20.750 -0.32 +0.00    +0.012 A  ATOM      3  C   UNL     1      37.604  43.592  21.666 -0.35 +0.00    +0.047 A  ATOM      4  C   UNL     1      37.505  44.096  22.967 -0.28 +0.01    +0.119 A  ATOM      5  C   UNL     1      38.321  45.160  23.346 -0.28 +0.00    +0.047 A  ATOM      6  C   UNL     1      39.220  45.720  22.431 -0.31 +0.00    +0.012 A  ENDROOTBRANCH   1   7ATOM      7  C   UNL     1      40.262  45.814  20.165 -0.39 +0.00    +0.006 C  ATOM      8  C   UNL     1      41.597  45.845  20.441 -0.39 +0.01    +0.056 C  ATOM      9  C   UNL     1      42.595  46.490  19.421 -0.26 +0.05    +0.193 C  ATOM     10  C   UNL     1      39.767  46.310  18.886 -0.36 -0.00    +0.037 C  ATOM     11  N   UNL     1      41.913  47.128  18.321 -0.29 +0.01    -0.364 N  ATOM     12  C   UNL     1      40.593  46.909  18.016 -0.53 -0.00    +0.045 C  ATOM     13  H   UNL     1      42.521  47.361  17.545 -0.49 -0.04    +0.162 HD BRANCH   8  14ATOM     14  N   UNL     1      42.160  45.345  21.645 -0.08 -0.07    -0.388 N  ATOM     15  C   UNL     1      42.297  43.912  21.883 -0.28 +0.02    +0.139 C  ATOM     16  H   UNL     1      41.723  45.789  22.454 +0.08 +0.02    +0.160 HD ENDBRANCH   8  14BRANCH   9  17ATOM     17  N   UNL     1      43.498  47.388  20.131 -0.23 -0.09    -0.306 NA ATOM     18  H   UNL     1      42.889  48.006  20.672 -0.33 -0.00    +0.121 HD ATOM     19  H   UNL     1      43.873  47.992  19.404 -0.46 +0.01    +0.121 HD ENDBRANCH   9  17BRANCH  12  20ATOM     20  C   UNL     1      40.091  47.416  16.724 -0.50 -0.00    +0.018 A  ATOM     21  C   UNL     1      40.712  48.563  16.200 -0.57 -0.00    +0.012 A  ATOM     22  C   UNL     1      39.040  46.812  16.004 -0.39 -0.02    +0.068 A  ATOM     23  C   UNL     1      40.295  49.114  14.989 -0.57 -0.00    +0.002 A  ATOM     24  C   UNL     1      38.626  47.374  14.784 -0.43 -0.02    +0.060 A  ATOM     25  C   UNL     1      39.253  48.521  14.284 -0.44 -0.01    +0.022 A  ATOM     26  Cl  UNL     1      38.281  45.368  16.605 -0.46 +0.02    -0.082 Cl ATOM     27  Cl  UNL     1      37.346  46.699  13.834 -0.67 +0.03    -0.083 Cl ENDBRANCH  12  20ENDBRANCH   1   7BRANCH   4  28ATOM     28  O   UNL     1      36.589  43.453  23.750 -0.10 -0.08    -0.491 OA BRANCH  28  29ATOM     29  C   UNL     1      36.939  43.095  25.090 -0.32 +0.00    +0.167 C  ATOM     30  C   UNL     1      36.532  44.271  25.977 -0.39 -0.00    +0.052 C  ATOM     31  C   UNL     1      36.179  41.841  25.511 -0.43 -0.01    +0.052 C  ENDBRANCH  28  29ENDBRANCH   4  28TORSDOF 6TERENDMDL