MODEL        2USER    Run = 2USERUSER    Estimated Free Energy of Binding    = -10.31 kcal/mol  [=(1)+(2)+(3)-(4)]USERUSER    (1) Final Intermolecular Energy     = -11.80 kcal/molUSER        vdW + Hbond + desolv Energy     = -11.70 kcal/molUSER        Electrostatic Energy            =  -0.10 kcal/molUSER        Moving Ligand-Fixed Receptor    = -11.80 kcal/molUSER        Moving Ligand-Moving Receptor   =  +0.00 kcal/molUSER    (2) Final Total Internal Energy     =  -1.34 kcal/molUSER    (3) Torsional Free Energy           =  +1.49 kcal/molUSER    (4) Unbound System's Energy         =  -1.34 kcal/molUSERUSERREMARK SMILES CNC1=C(c2ccc(N3CCOCC3)cc2)C=C(c2ccc3ccccc3c2)N[C@@H]1NREMARK SMILES IDX 3 1 4 2 17 3 18 4 29 5 30 6 2 8 1 9 5 11 6 12 16 13 7 14REMARK SMILES IDX 15 15 8 16 9 17 10 18 14 19 11 20 13 21 12 22 31 23 19 26REMARK SMILES IDX 20 27 28 28 21 29 27 30 22 31 26 32 23 33 25 34 24 35REMARK H PARENT 29 7 2 10 31 24 31 25USER                              x       y       z     vdW  Elec       q    TypeUSER                           _______ _______ _______ _____ _____    ______ ____ROOTATOM      1  C   UNL     1      30.789  44.719  15.946 -0.37 -0.02    +0.056 C  ATOM      2  C   UNL     1      31.880  43.984  16.309 -0.38 -0.00    +0.006 C  ATOM      3  C   UNL     1      33.222  44.450  15.953 -0.36 -0.02    +0.037 C  ATOM      4  C   UNL     1      33.405  45.505  15.147 -0.32 -0.04    +0.044 C  ATOM      5  N   UNL     1      32.333  46.189  14.632 -0.13 +0.37    -0.364 N  ATOM      6  C   UNL     1      31.003  46.065  15.160 -0.41 -0.10    +0.193 C  ATOM      7  H   UNL     1      32.535  47.094  14.226 -0.36 -0.20    +0.162 HD ENDROOTBRANCH   1   8ATOM      8  N   UNL     1      29.424  44.454  16.220 -0.08 +0.13    -0.388 N  ATOM      9  C   UNL     1      28.609  43.415  15.619 -0.14 -0.10    +0.139 C  ATOM     10  H   UNL     1      28.897  45.322  16.317 +0.09 -0.01    +0.160 HD ENDBRANCH   1   8BRANCH   2  11ATOM     11  C   UNL     1      31.781  42.746  17.110 -0.30 +0.01    -0.016 A  ATOM     12  C   UNL     1      30.958  41.699  16.695 -0.28 -0.00    +0.011 A  ATOM     13  C   UNL     1      32.558  42.576  18.256 -0.34 -0.00    +0.011 A  ATOM     14  C   UNL     1      30.895  40.512  17.438 -0.34 -0.00    +0.026 A  ATOM     15  C   UNL     1      32.486  41.385  18.989 -0.37 -0.00    +0.026 A  ATOM     16  C   UNL     1      31.654  40.319  18.604 -0.38 -0.00    +0.037 A  BRANCH  16  17ATOM     17  N   UNL     1      31.582  39.146  19.333 -0.18 -0.06    -0.367 N  ATOM     18  C   UNL     1      31.736  37.823  18.708 -0.47 +0.03    +0.145 C  ATOM     19  C   UNL     1      31.260  39.138  20.768 -0.35 +0.03    +0.145 C  ATOM     20  C   UNL     1      32.208  36.799  19.754 -0.44 +0.05    +0.181 C  ATOM     21  C   UNL     1      30.552  37.826  21.148 -0.37 +0.01    +0.181 C  ATOM     22  O   UNL     1      31.317  36.646  20.868 -0.29 -0.06    -0.378 OA ENDBRANCH  16  17ENDBRANCH   2  11BRANCH   6  23ATOM     23  N   UNL     1      30.548  47.171  15.995 -0.51 -0.02    -0.306 NA ATOM     24  H   UNL     1      30.043  46.752  16.776 +0.04 +0.05    +0.121 HD ATOM     25  H   UNL     1      31.398  47.539  16.418 -0.41 -0.11    +0.121 HD ENDBRANCH   6  23BRANCH   4  26ATOM     26  C   UNL     1      34.759  45.970  14.803 -0.33 +0.00    -0.002 A  ATOM     27  C   UNL     1      35.065  46.332  13.487 -0.40 -0.01    +0.011 A  ATOM     28  C   UNL     1      35.759  46.049  15.783 -0.35 -0.02    +0.019 A  ATOM     29  C   UNL     1      36.348  46.774  13.155 -0.58 -0.00    +0.009 A  ATOM     30  C   UNL     1      37.054  46.493  15.463 -0.38 +0.01    -0.018 A  ATOM     31  C   UNL     1      37.352  46.862  14.131 -0.45 +0.01    -0.018 A  ATOM     32  C   UNL     1      38.060  46.577  16.440 -0.39 -0.00    +0.009 A  ATOM     33  C   UNL     1      38.646  47.305  13.814 -0.42 -0.00    +0.009 A  ATOM     34  C   UNL     1      39.342  47.021  16.108 -0.46 -0.00    +0.001 A  ATOM     35  C   UNL     1      39.634  47.386  14.797 -0.49 -0.00    +0.001 A  ENDBRANCH   4  26TORSDOF 5TERENDMDL