REMARK SMILES CNC1=C(c2ccc(N3CCOCC3)cc2)C=C(c2ccc3ccccc3c2)N[C@@H]1N
REMARK SMILES IDX 3 1 4 2 17 3 18 4 29 5 30 6 2 8 1 9 5 11 6 12 16 13 7 14
REMARK SMILES IDX 15 15 8 16 9 17 10 18 14 19 11 20 13 21 12 22 31 23 19 26
REMARK SMILES IDX 20 27 28 28 21 29 27 30 22 31 26 32 23 33 25 34 24 35
REMARK H PARENT 29 7 2 10 31 24 31 25
ROOT
ATOM      1  C   UNL     1       0.575  -2.644  -0.912  1.00  0.00     0.056 C 
ATOM      2  C   UNL     1       0.319  -1.366  -0.507  1.00  0.00     0.006 C 
ATOM      3  C   UNL     1       1.419  -0.405  -0.392  1.00  0.00     0.037 C 
ATOM      4  C   UNL     1       2.696  -0.786  -0.528  1.00  0.00     0.044 C 
ATOM      5  N   UNL     1       3.015  -2.095  -0.787  1.00  0.00    -0.364 N 
ATOM      6  C   UNL     1       2.054  -3.052  -1.259  1.00  0.00     0.193 C 
ATOM      7  H   UNL     1       3.962  -2.270  -1.099  1.00  0.00     0.162 HD
ENDROOT
BRANCH   1   8
ATOM      8  N   UNL     1      -0.348  -3.700  -1.111  1.00  0.00    -0.388 N 
ATOM      9  C   UNL     1      -1.633  -3.859  -0.457  1.00  0.00     0.139 C 
ATOM     10  H   UNL     1       0.135  -4.595  -1.191  1.00  0.00     0.160 HD
ENDBRANCH   1   8
BRANCH   2  11
ATOM     11  C   UNL     1      -1.046  -0.872  -0.230  1.00  0.00    -0.016 A 
ATOM     12  C   UNL     1      -1.504  -0.760   1.083  1.00  0.00     0.011 A 
ATOM     13  C   UNL     1      -1.873  -0.445  -1.269  1.00  0.00     0.011 A 
ATOM     14  C   UNL     1      -2.786  -0.256   1.344  1.00  0.00     0.026 A 
ATOM     15  C   UNL     1      -3.152   0.057  -0.994  1.00  0.00     0.026 A 
ATOM     16  C   UNL     1      -3.646   0.167   0.317  1.00  0.00     0.037 A 
BRANCH  16  17
ATOM     17  N   UNL     1      -4.911   0.659   0.584  1.00  0.00    -0.367 N 
ATOM     18  C   UNL     1      -5.952   0.750  -0.452  1.00  0.00     0.145 C 
ATOM     19  C   UNL     1      -5.273   1.206   1.901  1.00  0.00     0.145 C 
ATOM     20  C   UNL     1      -7.345   0.738   0.201  1.00  0.00     0.181 C 
ATOM     21  C   UNL     1      -6.363   2.281   1.749  1.00  0.00     0.181 C 
ATOM     22  O   UNL     1      -7.567   1.810   1.128  1.00  0.00    -0.378 OA
ENDBRANCH  16  17
ENDBRANCH   2  11
BRANCH   6  23
ATOM     23  N   UNL     1       2.128  -3.375  -2.679  1.00  0.00    -0.306 NA
ATOM     24  H   UNL     1       1.234  -3.801  -2.924  1.00  0.00     0.121 HD
ATOM     25  H   UNL     1       2.109  -2.472  -3.149  1.00  0.00     0.121 HD
ENDBRANCH   6  23
BRANCH   4  26
ATOM     26  C   UNL     1       3.793   0.190  -0.419  1.00  0.00    -0.002 A 
ATOM     27  C   UNL     1       4.648   0.412  -1.504  1.00  0.00     0.011 A 
ATOM     28  C   UNL     1       4.002   0.903   0.770  1.00  0.00     0.019 A 
ATOM     29  C   UNL     1       5.690   1.337  -1.407  1.00  0.00     0.009 A 
ATOM     30  C   UNL     1       5.046   1.838   0.882  1.00  0.00    -0.018 A 
ATOM     31  C   UNL     1       5.901   2.058  -0.222  1.00  0.00    -0.018 A 
ATOM     32  C   UNL     1       5.259   2.557   2.070  1.00  0.00     0.009 A 
ATOM     33  C   UNL     1       6.943   2.992  -0.108  1.00  0.00     0.009 A 
ATOM     34  C   UNL     1       6.300   3.483   2.166  1.00  0.00     0.001 A 
ATOM     35  C   UNL     1       7.140   3.701   1.078  1.00  0.00     0.001 A 
ENDBRANCH   4  26
TORSDOF 5
