MODEL        10USER    Run = 10USERUSER    Estimated Free Energy of Binding    = -11.22 kcal/mol  [=(1)+(2)+(3)-(4)]USERUSER    (1) Final Intermolecular Energy     = -12.71 kcal/molUSER        vdW + Hbond + desolv Energy     = -12.57 kcal/molUSER        Electrostatic Energy            =  -0.13 kcal/molUSER        Moving Ligand-Fixed Receptor    = -12.71 kcal/molUSER        Moving Ligand-Moving Receptor   =  +0.00 kcal/molUSER    (2) Final Total Internal Energy     =  -0.96 kcal/molUSER    (3) Torsional Free Energy           =  +1.49 kcal/molUSER    (4) Unbound System's Energy         =  -0.96 kcal/molUSERUSERREMARK SMILES CNC1=C(c2ccc(C(N)=O)cc2)C=C(c2ccc3ccccc3c2)N[C@H]1NREMARK SMILES IDX 3 1 4 2 14 3 15 4 26 5 27 6 2 8 1 9 5 11 6 12 13 13 7 14REMARK SMILES IDX 12 15 8 16 9 17 10 18 11 19 28 22 16 25 17 26 25 27 18 28REMARK SMILES IDX 24 29 19 30 23 31 20 32 22 33 21 34REMARK H PARENT 26 7 2 10 10 20 10 21 28 23 28 24USER                              x       y       z     vdW  Elec       q    TypeUSER                           _______ _______ _______ _____ _____    ______ ____ROOTATOM      1  C   UNL     1      40.754  47.377  17.358 -0.55 -0.01    +0.056 C  ATOM      2  C   UNL     1      39.614  46.648  17.187 -0.52 -0.00    +0.006 C  ATOM      3  C   UNL     1      39.077  45.844  18.277 -0.45 -0.01    +0.037 C  ATOM      4  C   UNL     1      39.673  45.822  19.477 -0.41 -0.00    +0.044 C  ATOM      5  N   UNL     1      40.853  46.487  19.702 -0.11 -0.01    -0.364 N  ATOM      6  C   UNL     1      41.527  47.308  18.722 -0.37 -0.00    +0.193 C  ATOM      7  H   UNL     1      41.006  46.757  20.667 +0.09 +0.01    +0.162 HD ENDROOTBRANCH   1   8ATOM      8  N   UNL     1      41.250  48.230  16.349 -0.21 +0.03    -0.388 N  ATOM      9  C   UNL     1      40.768  49.553  16.018 -0.53 -0.03    +0.139 C  ATOM     10  H   UNL     1      42.237  48.088  16.146 -0.23 +0.01    +0.160 HD ENDBRANCH   1   8BRANCH   2  11ATOM     11  C   UNL     1      38.872  46.701  15.907 -0.42 +0.01    -0.016 A  ATOM     12  C   UNL     1      38.776  45.562  15.097 -0.29 -0.00    +0.009 A  ATOM     13  C   UNL     1      38.285  47.899  15.484 -0.48 -0.00    +0.009 A  ATOM     14  C   UNL     1      38.088  45.613  13.881 -0.37 -0.00    +0.014 A  ATOM     15  C   UNL     1      37.596  47.952  14.270 -0.53 -0.01    +0.014 A  ATOM     16  C   UNL     1      37.485  46.809  13.468 -0.48 -0.01    +0.039 A  BRANCH  16  17ATOM     17  C   UNL     1      36.743  46.918  12.183 -0.54 -0.10    +0.248 C  ATOM     18  N   UNL     1      35.433  46.524  12.172 -0.26 +0.23    -0.366 N  ATOM     19  O   UNL     1      37.264  47.379  11.175 -0.88 +0.07    -0.270 OA ATOM     20  H   UNL     1      34.922  46.731  11.323 -0.17 -0.14    +0.159 HD ATOM     21  H   UNL     1      34.897  46.419  13.020 -0.01 -0.12    +0.159 HD ENDBRANCH  16  17ENDBRANCH   2  11BRANCH   6  22ATOM     22  N   UNL     1      42.905  46.883  18.512 -0.17 -0.03    -0.306 NA ATOM     23  H   UNL     1      43.296  47.578  17.879 -0.47 -0.01    +0.121 HD ATOM     24  H   UNL     1      42.849  46.035  17.957 -0.40 -0.00    +0.121 HD ENDBRANCH   6  22BRANCH   4  25ATOM     25  C   UNL     1      39.090  45.067  20.601 -0.36 -0.00    -0.002 A  ATOM     26  C   UNL     1      39.400  45.388  21.926 -0.32 +0.00    +0.011 A  ATOM     27  C   UNL     1      38.228  43.989  20.347 -0.30 -0.00    +0.019 A  ATOM     28  C   UNL     1      38.852  44.652  22.981 -0.28 +0.00    +0.009 A  ATOM     29  C   UNL     1      37.669  43.241  21.397 -0.35 -0.00    -0.018 A  ATOM     30  C   UNL     1      37.985  43.578  22.732 -0.33 -0.00    -0.018 A  ATOM     31  C   UNL     1      36.801  42.165  21.147 -0.48 +0.00    +0.009 A  ATOM     32  C   UNL     1      37.426  42.828  23.780 -0.37 +0.00    +0.009 A  ATOM     33  C   UNL     1      36.253  41.431  22.200 -0.55 +0.00    +0.001 A  ATOM     34  C   UNL     1      36.566  41.762  23.515 -0.47 +0.00    +0.001 A  ENDBRANCH   4  25TORSDOF 5TERENDMDL