MODEL        5USER    Run = 5USERUSER    Estimated Free Energy of Binding    = -10.51 kcal/mol  [=(1)+(2)+(3)-(4)]USERUSER    (1) Final Intermolecular Energy     = -12.60 kcal/molUSER        vdW + Hbond + desolv Energy     = -12.38 kcal/molUSER        Electrostatic Energy            =  -0.22 kcal/molUSER        Moving Ligand-Fixed Receptor    = -12.60 kcal/molUSER        Moving Ligand-Moving Receptor   =  +0.00 kcal/molUSER    (2) Final Total Internal Energy     =  -1.22 kcal/molUSER    (3) Torsional Free Energy           =  +2.09 kcal/molUSER    (4) Unbound System's Energy         =  -1.22 kcal/molUSERUSERREMARK SMILES N#Cc1ccc(C(=O)c2ccc(CN3CCN(c4nc5cc(F)ccc5[nH]4)CC3)c(F)c2)c(O)c1REMARK SMILES IDX 9 1 10 2 11 3 12 4 30 5 31 6 32 7 7 8 8 9 6 10 3 11 4 12REMARK SMILES IDX 35 13 5 14 33 15 2 16 1 17 34 18 13 20 14 21 15 22 29 23REMARK SMILES IDX 16 24 28 25 17 26 18 27 19 28 27 29 20 30 26 31 21 32 25 33REMARK SMILES IDX 22 34 24 35 23 37REMARK H PARENT 34 19 27 36USER                              x       y       z     vdW  Elec       q    TypeUSER                           _______ _______ _______ _____ _____    ______ ____ROOTATOM      1  C   UNL     1      41.423  46.627  18.818 -0.49 +0.00    +0.026 A  ATOM      2  C   UNL     1      40.938  45.380  18.406 -0.46 +0.00    +0.013 A  ATOM      3  C   UNL     1      40.948  44.301  19.292 -0.34 +0.00    +0.009 A  ATOM      4  C   UNL     1      41.419  44.462  20.606 -0.35 +0.00    +0.002 A  ATOM      5  C   UNL     1      41.885  45.719  20.998 -0.25 +0.02    +0.128 A  ATOM      6  F   UNL     1      42.340  45.905  22.245 -0.04 -0.04    -0.207 F  ATOM      7  C   UNL     1      41.885  46.803  20.124 -0.25 +0.01    +0.051 A  ENDROOTBRANCH   1   8ATOM      8  C   UNL     1      41.378  47.753  17.862 -0.42 -0.01    +0.196 C  ATOM      9  O   UNL     1      42.188  48.671  17.985 -0.55 -0.02    -0.288 OA BRANCH   8  10ATOM     10  C   UNL     1      40.401  47.811  16.742 -0.48 -0.01    +0.064 A  ATOM     11  C   UNL     1      38.589  47.971  14.600 -0.48 -0.02    +0.056 A  ATOM     12  C   UNL     1      38.377  47.054  15.637 -0.42 -0.01    +0.020 A  ATOM     13  C   UNL     1      39.696  48.820  14.643 -0.41 -0.03    +0.066 A  ATOM     14  C   UNL     1      39.276  46.977  16.707 -0.45 -0.00    +0.017 A  ATOM     15  C   UNL     1      40.587  48.747  15.712 -0.50 -0.03    +0.128 A  BRANCH  11  16ATOM     16  C   UNL     1      37.667  48.044  13.505 -0.50 -0.03    +0.099 C  ATOM     17  N   UNL     1      36.917  48.092  12.620 -1.03 +0.05    -0.192 NA ENDBRANCH  11  16BRANCH  15  18ATOM     18  O   UNL     1      41.631  49.632  15.691 -0.76 +0.00    -0.507 OA ATOM     19  H   UNL     1      41.599  50.157  16.524 +0.09 -0.00    +0.293 HD ENDBRANCH  15  18ENDBRANCH   8  10ENDBRANCH   1   8BRANCH   4  20ATOM     20  C   UNL     1      41.437  43.297  21.571 -0.29 +0.01    +0.123 C  BRANCH  20  21ATOM     21  N   UNL     1      40.234  43.225  22.417 -0.13 -0.01    -0.295 NA ATOM     22  C   UNL     1      40.551  43.552  23.828 -0.19 +0.00    +0.106 C  ATOM     23  C   UNL     1      39.157  44.103  21.898 -0.28 +0.00    +0.106 C  ATOM     24  C   UNL     1      40.162  44.975  24.291 -0.12 +0.01    +0.135 C  ATOM     25  C   UNL     1      38.105  44.501  22.958 -0.30 +0.01    +0.135 C  ATOM     26  N   UNL     1      38.731  45.223  24.067 -0.09 -0.03    -0.340 N  BRANCH  26  27ATOM     27  C   UNL     1      38.036  45.892  25.018 -0.19 +0.02    +0.203 A  ATOM     28  N   UNL     1      37.655  47.151  24.996 -0.70 -0.04    -0.213 NA ATOM     29  N   UNL     1      37.624  45.292  26.182 -0.13 +0.02    -0.324 N  ATOM     30  C   UNL     1      36.990  47.372  26.175 -0.32 -0.01    +0.093 A  ATOM     31  C   UNL     1      36.958  46.216  26.947 -0.29 -0.01    +0.067 A  ATOM     32  C   UNL     1      36.386  48.539  26.659 -0.37 -0.01    +0.069 A  ATOM     33  C   UNL     1      36.351  46.142  28.203 -0.30 -0.01    +0.031 A  ATOM     34  C   UNL     1      35.775  48.484  27.910 -0.28 -0.02    +0.125 A  ATOM     35  C   UNL     1      35.754  47.317  28.672 -0.35 -0.01    +0.041 A  ATOM     36  H   UNL     1      37.790  44.332  26.434 +0.10 -0.01    +0.170 HD ATOM     37  F   UNL     1      35.190  49.588  28.399 -0.07 -0.00    -0.207 F  ENDBRANCH  26  27ENDBRANCH  20  21ENDBRANCH   4  20TORSDOF 7TERENDMDL