MODEL        9USER    Run = 9USERUSER    Estimated Free Energy of Binding    = -10.45 kcal/mol  [=(1)+(2)+(3)-(4)]USERUSER    (1) Final Intermolecular Energy     = -12.84 kcal/molUSER        vdW + Hbond + desolv Energy     = -12.70 kcal/molUSER        Electrostatic Energy            =  -0.13 kcal/molUSER        Moving Ligand-Fixed Receptor    = -12.84 kcal/molUSER        Moving Ligand-Moving Receptor   =  +0.00 kcal/molUSER    (2) Final Total Internal Energy     =  -1.25 kcal/molUSER    (3) Torsional Free Energy           =  +2.39 kcal/molUSER    (4) Unbound System's Energy         =  -1.25 kcal/molUSERUSERREMARK SMILES N#Cc1ccc(C(=O)c2ccc(CN3CCN(c4nc5ccc(C(F)(F)F)cc5[nH]4)CC3)cc2)c(O)c1REMARK SMILES IDX 9 1 10 2 11 3 12 4 33 5 34 6 7 7 8 8 6 9 3 10 4 11 37 12REMARK SMILES IDX 5 13 35 14 2 15 1 16 36 17 13 19 14 20 15 21 32 22 16 23REMARK SMILES IDX 31 24 17 25 18 26 19 27 30 28 20 29 29 30 21 31 28 32 22 33REMARK SMILES IDX 23 34 24 36 25 37 26 38 27 39REMARK H PARENT 36 18 30 35USER                              x       y       z     vdW  Elec       q    TypeUSER                           _______ _______ _______ _____ _____    ______ ____ROOTATOM      1  C   UNL     1      40.205  45.835  19.670 -0.38 +0.00    +0.023 A  ATOM      2  C   UNL     1      38.943  45.231  19.666 -0.37 -0.00    +0.012 A  ATOM      3  C   UNL     1      38.382  44.777  20.865 -0.35 +0.00    +0.006 A  ATOM      4  C   UNL     1      39.082  44.898  22.076 -0.30 -0.00    -0.034 A  ATOM      5  C   UNL     1      40.353  45.495  22.063 -0.27 +0.00    +0.006 A  ATOM      6  C   UNL     1      40.915  45.952  20.868 -0.29 +0.00    +0.012 A  ENDROOTBRANCH   1   7ATOM      7  C   UNL     1      40.842  46.310  18.421 -0.42 -0.01    +0.196 C  ATOM      8  O   UNL     1      42.070  46.395  18.367 -0.35 -0.01    -0.288 OA BRANCH   7   9ATOM      9  C   UNL     1      40.061  46.675  17.213 -0.44 -0.01    +0.064 A  ATOM     10  C   UNL     1      38.616  47.419  14.921 -0.44 -0.02    +0.056 A  ATOM     11  C   UNL     1      38.203  46.327  15.693 -0.38 -0.01    +0.020 A  ATOM     12  C   UNL     1      39.742  48.150  15.304 -0.50 -0.02    +0.066 A  ATOM     13  C   UNL     1      38.919  45.959  16.838 -0.40 -0.00    +0.017 A  ATOM     14  C   UNL     1      40.448  47.786  16.449 -0.44 -0.02    +0.128 A  BRANCH  10  15ATOM     15  C   UNL     1      37.876  47.795  13.753 -0.52 -0.04    +0.099 C  ATOM     16  N   UNL     1      37.267  48.092  12.811 -0.97 +0.04    -0.192 NA ENDBRANCH  10  15BRANCH  14  17ATOM     17  O   UNL     1      41.519  48.572  16.778 -0.69 -0.01    -0.507 OA ATOM     18  H   UNL     1      42.295  47.980  16.922 -0.29 -0.01    +0.293 HD ENDBRANCH  14  17ENDBRANCH   7   9ENDBRANCH   1   7BRANCH   4  19ATOM     19  C   UNL     1      38.484  44.397  23.377 -0.27 +0.01    +0.120 C  BRANCH  19  20ATOM     20  N   UNL     1      37.834  45.393  24.226 -0.37 -0.04    -0.296 NA ATOM     21  C   UNL     1      38.454  46.726  24.222 -0.31 +0.02    +0.106 C  ATOM     22  C   UNL     1      37.473  44.938  25.583 -0.30 +0.00    +0.106 C  ATOM     23  C   UNL     1      37.733  47.707  25.173 -0.35 +0.01    +0.135 C  ATOM     24  C   UNL     1      38.067  45.791  26.727 -0.25 -0.01    +0.135 C  ATOM     25  N   UNL     1      37.715  47.215  26.566 -0.14 +0.02    -0.340 N  BRANCH  25  26ATOM     26  C   UNL     1      36.831  47.738  27.455 -0.23 -0.03    +0.203 A  ATOM     27  N   UNL     1      36.780  48.963  27.929 -0.18 +0.02    -0.213 NA ATOM     28  N   UNL     1      35.797  46.988  27.962 -0.02 +0.10    -0.324 N  ATOM     29  C   UNL     1      35.711  48.994  28.788 -0.26 -0.01    +0.091 A  ATOM     30  C   UNL     1      35.072  47.763  28.829 -0.36 -0.01    +0.068 A  ATOM     31  C   UNL     1      35.221  50.047  29.578 -0.19 +0.00    +0.031 A  ATOM     32  C   UNL     1      33.945  47.504  29.614 -0.38 -0.00    +0.041 A  ATOM     33  C   UNL     1      34.097  49.817  30.383 -0.18 +0.00    +0.015 A  ATOM     34  C   UNL     1      33.452  48.566  30.401 -0.28 -0.00    +0.058 A  ATOM     35  H   UNL     1      35.604  46.030  27.715 -0.42 -0.08    +0.170 HD BRANCH  34  36ATOM     36  C   UNL     1      32.250  48.352  31.293 -0.13 -0.02    +0.416 C  ATOM     37  F   UNL     1      31.373  49.391  31.236 -0.07 -0.01    -0.166 F  ATOM     38  F   UNL     1      31.534  47.241  30.968 -0.16 +0.01    -0.166 F  ATOM     39  F   UNL     1      32.575  48.211  32.607 -0.07 +0.02    -0.166 F  ENDBRANCH  34  36ENDBRANCH  25  26ENDBRANCH  19  20ENDBRANCH   4  19TORSDOF 8TERENDMDL