MODEL        9USER    Run = 9USERUSER    Estimated Free Energy of Binding    = -10.58 kcal/mol  [=(1)+(2)+(3)-(4)]USERUSER    (1) Final Intermolecular Energy     = -12.67 kcal/molUSER        vdW + Hbond + desolv Energy     = -12.55 kcal/molUSER        Electrostatic Energy            =  -0.12 kcal/molUSER        Moving Ligand-Fixed Receptor    = -12.67 kcal/molUSER        Moving Ligand-Moving Receptor   =  +0.00 kcal/molUSER    (2) Final Total Internal Energy     =  -1.86 kcal/molUSER    (3) Torsional Free Energy           =  +2.09 kcal/molUSER    (4) Unbound System's Energy         =  -1.86 kcal/molUSERUSERREMARK SMILES Cn1c(N2CCN(Cc3ccc(C(=O)c4ccc(C#N)cc4O)cc3)CC2)nc2ccccc21REMARK SMILES IDX 9 1 10 2 11 3 12 4 24 5 25 6 8 7 7 8 4 9 5 10 27 11 6 12REMARK SMILES IDX 26 13 3 14 2 15 34 16 28 17 33 18 29 19 32 20 30 21 31 22REMARK SMILES IDX 1 23 13 24 14 25 15 26 16 27 22 28 17 29 21 30 18 31 23 32REMARK SMILES IDX 19 34 20 35REMARK H PARENT 23 33USER                              x       y       z     vdW  Elec       q    TypeUSER                           _______ _______ _______ _____ _____    ______ ____ROOTATOM      1  C   UNL     1      41.493  44.743  21.393 -0.29 -0.00    -0.034 A  ATOM      2  C   UNL     1      40.984  44.420  20.124 -0.37 +0.00    +0.006 A  ATOM      3  C   UNL     1      41.028  45.348  19.082 -0.44 +0.00    +0.012 A  ATOM      4  C   UNL     1      41.562  46.620  19.308 -0.45 +0.00    +0.023 A  ATOM      5  C   UNL     1      42.081  46.949  20.563 -0.21 +0.00    +0.012 A  ATOM      6  C   UNL     1      42.037  46.018  21.603 -0.29 +0.00    +0.006 A  ENDROOTBRANCH   1   7ATOM      7  C   UNL     1      41.436  43.736  22.527 -0.26 +0.01    +0.120 C  BRANCH   7   8ATOM      8  N   UNL     1      40.107  43.636  23.150 -0.09 -0.01    -0.296 NA ATOM      9  N   UNL     1      37.460  44.148  21.761 -0.18 -0.02    -0.340 N  ATOM     10  C   UNL     1      37.785  42.883  22.467 -0.35 +0.01    +0.135 C  ATOM     11  C   UNL     1      38.480  45.210  21.964 -0.30 +0.01    +0.135 C  ATOM     12  C   UNL     1      39.301  42.607  22.443 -0.13 +0.01    +0.106 C  ATOM     13  C   UNL     1      39.388  44.931  23.184 -0.23 +0.01    +0.106 C  BRANCH   9  14ATOM     14  C   UNL     1      37.067  43.987  20.464 -0.26 -0.01    +0.206 A  ATOM     15  N   UNL     1      36.091  43.084  20.102 -0.21 +0.02    -0.313 N  ATOM     16  C   UNL     1      35.881  43.197  18.746 -0.29 -0.01    +0.069 A  ATOM     17  N   UNL     1      37.534  44.617  19.410 -0.24 +0.02    -0.213 NA ATOM     18  C   UNL     1      35.006  42.566  17.852 -0.38 -0.01    +0.028 A  ATOM     19  C   UNL     1      36.804  44.155  18.344 -0.26 -0.02    +0.091 A  ATOM     20  C   UNL     1      35.094  42.942  16.505 -0.44 -0.00    +0.002 A  ATOM     21  C   UNL     1      36.880  44.516  16.990 -0.32 -0.01    +0.031 A  ATOM     22  C   UNL     1      36.015  43.899  16.078 -0.39 -0.00    +0.002 A  ATOM     23  C   UNL     1      35.442  42.134  20.971 -0.31 +0.01    +0.153 C  ENDBRANCH   9  14ENDBRANCH   7   8ENDBRANCH   1   7BRANCH   4  24ATOM     24  C   UNL     1      41.644  47.627  18.225 -0.40 -0.01    +0.196 C  ATOM     25  O   UNL     1      42.533  48.477  18.266 -0.46 -0.01    -0.288 OA BRANCH  24  26ATOM     26  C   UNL     1      40.700  47.641  17.076 -0.48 -0.01    +0.064 A  ATOM     27  C   UNL     1      39.736  46.638  16.906 -0.46 -0.00    +0.017 A  ATOM     28  C   UNL     1      40.745  48.703  16.161 -0.47 -0.02    +0.128 A  ATOM     29  C   UNL     1      38.863  46.681  15.812 -0.42 -0.01    +0.020 A  ATOM     30  C   UNL     1      39.881  48.744  15.066 -0.50 -0.02    +0.066 A  ATOM     31  C   UNL     1      38.938  47.729  14.887 -0.47 -0.02    +0.056 A  BRANCH  28  32ATOM     32  O   UNL     1      41.619  49.750  16.278 -0.83 -0.03    -0.507 OA ATOM     33  H   UNL     1      41.587  50.068  17.209 +0.13 +0.01    +0.293 HD ENDBRANCH  28  32BRANCH  31  34ATOM     34  C   UNL     1      38.043  47.767  13.768 -0.51 -0.03    +0.099 C  ATOM     35  N   UNL     1      37.325  47.805  12.856 -0.98 +0.05    -0.192 NA ENDBRANCH  31  34ENDBRANCH  24  26ENDBRANCH   4  24TORSDOF 7TERENDMDL