MODEL        10USER    Run = 10USERUSER    Estimated Free Energy of Binding    = -11.09 kcal/mol  [=(1)+(2)+(3)-(4)]USERUSER    (1) Final Intermolecular Energy     = -13.18 kcal/molUSER        vdW + Hbond + desolv Energy     = -13.00 kcal/molUSER        Electrostatic Energy            =  -0.18 kcal/molUSER        Moving Ligand-Fixed Receptor    = -13.18 kcal/molUSER        Moving Ligand-Moving Receptor   =  +0.00 kcal/molUSER    (2) Final Total Internal Energy     =  -0.94 kcal/molUSER    (3) Torsional Free Energy           =  +2.09 kcal/molUSER    (4) Unbound System's Energy         =  -0.94 kcal/molUSERUSERREMARK SMILES COc1cc(C#N)ccc1C(=O)c1ccc(CN2CCN(c3nc4ccccc4[nH]3)CC2)cc1REMARK SMILES IDX 13 1 14 2 15 3 16 4 33 5 34 6 11 7 12 8 10 9 3 10 4 11 5 12REMARK SMILES IDX 9 13 8 14 2 15 1 16 6 17 7 18 17 19 18 20 19 21 32 22 20 23REMARK SMILES IDX 31 24 21 25 22 26 23 27 30 28 24 29 29 30 25 31 28 32 26 33REMARK SMILES IDX 27 34REMARK H PARENT 30 35USER                              x       y       z     vdW  Elec       q    TypeUSER                           _______ _______ _______ _____ _____    ______ ____ROOTATOM      1  C   UNL     1      41.130  46.924  18.090 -0.51 -0.00    +0.023 A  ATOM      2  C   UNL     1      41.980  47.091  19.190 -0.46 +0.00    +0.012 A  ATOM      3  C   UNL     1      42.140  46.062  20.121 -0.36 +0.00    +0.006 A  ATOM      4  C   UNL     1      41.455  44.848  19.969 -0.33 -0.00    -0.034 A  ATOM      5  C   UNL     1      40.587  44.694  18.878 -0.43 +0.00    +0.006 A  ATOM      6  C   UNL     1      40.422  45.726  17.946 -0.46 -0.00    +0.012 A  ENDROOTBRANCH   1   7ATOM      7  C   UNL     1      40.989  48.054  17.132 -0.43 -0.02    +0.196 C  ATOM      8  O   UNL     1      41.738  49.027  17.208 -0.88 -0.04    -0.288 OA BRANCH   7   9ATOM      9  C   UNL     1      39.951  48.065  16.080 -0.49 -0.02    +0.065 A  ATOM     10  C   UNL     1      40.211  48.496  14.773 -0.45 -0.03    +0.131 A  ATOM     11  C   UNL     1      39.199  48.470  13.808 -0.14 -0.02    +0.066 A  ATOM     12  C   UNL     1      37.907  48.065  14.162 -0.49 -0.03    +0.056 A  ATOM     13  C   UNL     1      38.652  47.682  16.439 -0.36 -0.01    +0.017 A  ATOM     14  C   UNL     1      37.634  47.679  15.481 -0.44 -0.01    +0.020 A  BRANCH  10  15ATOM     15  O   UNL     1      41.457  48.907  14.381 -0.25 +0.05    -0.496 OA ATOM     16  C   UNL     1      41.591  50.323  14.549 -0.45 -0.07    +0.278 C  ENDBRANCH  10  15BRANCH  12  17ATOM     17  C   UNL     1      36.862  48.051  13.181 -0.59 -0.04    +0.099 C  ATOM     18  N   UNL     1      36.021  48.043  12.380 -0.66 +0.10    -0.192 NA ENDBRANCH  12  17ENDBRANCH   7   9ENDBRANCH   1   7BRANCH   4  19ATOM     19  C   UNL     1      41.624  43.733  20.981 -0.29 +0.01    +0.120 C  BRANCH  19  20ATOM     20  N   UNL     1      41.236  44.114  22.349 -0.11 -0.02    -0.296 NA ATOM     21  C   UNL     1      39.922  44.791  22.377 -0.24 +0.01    +0.106 C  ATOM     22  C   UNL     1      41.256  42.947  23.268 -0.25 +0.00    +0.106 C  ATOM     23  C   UNL     1      38.703  43.887  22.683 -0.26 +0.01    +0.135 C  ATOM     24  C   UNL     1      40.262  43.055  24.444 -0.17 +0.00    +0.135 C  ATOM     25  N   UNL     1      38.881  43.133  23.931 -0.08 -0.02    -0.340 N  BRANCH  25  26ATOM     26  C   UNL     1      37.887  43.019  24.847 -0.18 +0.00    +0.203 A  ATOM     27  N   UNL     1      37.337  43.973  25.565 -0.18 +0.00    -0.213 NA ATOM     28  N   UNL     1      37.355  41.797  25.185 -0.17 +0.02    -0.324 N  ATOM     29  C   UNL     1      36.406  43.355  26.363 -0.34 -0.01    +0.091 A  ATOM     30  C   UNL     1      36.398  41.983  26.147 -0.40 -0.01    +0.067 A  ATOM     31  C   UNL     1      35.530  43.904  27.312 -0.47 -0.01    +0.030 A  ATOM     32  C   UNL     1      35.563  41.100  26.833 -0.55 -0.01    +0.028 A  ATOM     33  C   UNL     1      34.676  43.044  28.012 -0.58 -0.00    +0.002 A  ATOM     34  C   UNL     1      34.696  41.666  27.777 -0.46 -0.00    +0.002 A  ATOM     35  H   UNL     1      37.657  40.913  24.812 -0.07 +0.00    +0.170 HD ENDBRANCH  25  26ENDBRANCH  19  20ENDBRANCH   4  19TORSDOF 7TERENDMDL