REMARK SMILES Cn1c(N2CCN(Cc3ccc(C(=O)c4ccc(C#N)cc4O)cc3)CC2)nc2ccccc21
REMARK SMILES IDX 9 1 10 2 11 3 12 4 24 5 25 6 8 7 7 8 4 9 5 10 27 11 6 12
REMARK SMILES IDX 26 13 3 14 2 15 34 16 28 17 33 18 29 19 32 20 30 21 31 22
REMARK SMILES IDX 1 23 13 24 14 25 15 26 16 27 22 28 17 29 21 30 18 31 23 32
REMARK SMILES IDX 19 34 20 35
REMARK H PARENT 23 33
ROOT
ATOM      1  C   UNL     1       1.362  -0.484  -0.504  1.00  0.00    -0.034 A 
ATOM      2  C   UNL     1       2.355  -0.817   0.431  1.00  0.00     0.006 A 
ATOM      3  C   UNL     1       3.643  -0.288   0.322  1.00  0.00     0.012 A 
ATOM      4  C   UNL     1       3.955   0.564  -0.742  1.00  0.00     0.023 A 
ATOM      5  C   UNL     1       2.971   0.912  -1.672  1.00  0.00     0.012 A 
ATOM      6  C   UNL     1       1.684   0.382  -1.559  1.00  0.00     0.006 A 
ENDROOT
BRANCH   1   7
ATOM      7  C   UNL     1      -0.034  -1.067  -0.389  1.00  0.00     0.120 C 
BRANCH   7   8
ATOM      8  N   UNL     1      -0.630  -0.892   0.945  1.00  0.00    -0.296 NA
ATOM      9  N   UNL     1      -3.439   0.104   1.508  1.00  0.00    -0.340 N 
ATOM     10  C   UNL     1      -2.909  -1.187   2.016  1.00  0.00     0.135 C 
ATOM     11  C   UNL     1      -2.401   0.948   0.860  1.00  0.00     0.135 C 
ATOM     12  C   UNL     1      -1.833  -1.756   1.070  1.00  0.00     0.106 C 
ATOM     13  C   UNL     1      -0.967   0.520   1.244  1.00  0.00     0.106 C 
BRANCH   9  14
ATOM     14  C   UNL     1      -4.601  -0.001   0.800  1.00  0.00     0.206 A 
ATOM     15  N   UNL     1      -5.499   1.041   0.709  1.00  0.00    -0.313 N 
ATOM     16  C   UNL     1      -6.532   0.649  -0.112  1.00  0.00     0.069 A 
ATOM     17  N   UNL     1      -5.036  -1.051   0.141  1.00  0.00    -0.213 NA
ATOM     18  C   UNL     1      -7.686   1.290  -0.580  1.00  0.00     0.028 A 
ATOM     19  C   UNL     1      -6.217  -0.665  -0.441  1.00  0.00     0.091 A 
ATOM     20  C   UNL     1      -8.534   0.547  -1.411  1.00  0.00     0.002 A 
ATOM     21  C   UNL     1      -7.080  -1.395  -1.272  1.00  0.00     0.031 A 
ATOM     22  C   UNL     1      -8.239  -0.774  -1.752  1.00  0.00     0.002 A 
ATOM     23  C   UNL     1      -5.415   2.303   1.401  1.00  0.00     0.153 C 
ENDBRANCH   9  14
ENDBRANCH   7   8
ENDBRANCH   1   7
BRANCH   4  24
ATOM     24  C   UNL     1       5.302   1.161  -0.884  1.00  0.00     0.196 C 
ATOM     25  O   UNL     1       5.400   2.353  -1.174  1.00  0.00    -0.288 OA
BRANCH  24  26
ATOM     26  C   UNL     1       6.548   0.377  -0.673  1.00  0.00     0.064 A 
ATOM     27  C   UNL     1       6.581  -1.012  -0.856  1.00  0.00     0.017 A 
ATOM     28  C   UNL     1       7.731   1.044  -0.322  1.00  0.00     0.128 A 
ATOM     29  C   UNL     1       7.771  -1.720  -0.648  1.00  0.00     0.020 A 
ATOM     30  C   UNL     1       8.916   0.340  -0.107  1.00  0.00     0.066 A 
ATOM     31  C   UNL     1       8.938  -1.047  -0.267  1.00  0.00     0.056 A 
BRANCH  28  32
ATOM     32  O   UNL     1       7.802   2.404  -0.172  1.00  0.00    -0.507 OA
ATOM     33  H   UNL     1       6.965   2.790  -0.518  1.00  0.00     0.293 HD
ENDBRANCH  28  32
BRANCH  31  34
ATOM     34  C   UNL     1      10.153  -1.778  -0.054  1.00  0.00     0.099 C 
ATOM     35  N   UNL     1      11.130  -2.380   0.118  1.00  0.00    -0.192 NA
ENDBRANCH  31  34
ENDBRANCH  24  26
ENDBRANCH   4  24
TORSDOF 7
