REMARK SMILES COc1cc(C#N)ccc1C(=O)c1ccc(CN2CCN(c3nc4ccccc4[nH]3)CC2)cc1
REMARK SMILES IDX 13 1 14 2 15 3 16 4 33 5 34 6 11 7 12 8 10 9 3 10 4 11 5 12
REMARK SMILES IDX 9 13 8 14 2 15 1 16 6 17 7 18 17 19 18 20 19 21 32 22 20 23
REMARK SMILES IDX 31 24 21 25 22 26 23 27 30 28 24 29 29 30 25 31 28 32 26 33
REMARK SMILES IDX 27 34
REMARK H PARENT 30 35
ROOT
ATOM      1  C   UNL     1      -3.732  -0.834   1.462  1.00  0.00     0.023 A 
ATOM      2  C   UNL     1      -2.917  -0.459   2.537  1.00  0.00     0.012 A 
ATOM      3  C   UNL     1      -1.567  -0.817   2.557  1.00  0.00     0.006 A 
ATOM      4  C   UNL     1      -1.008  -1.555   1.504  1.00  0.00    -0.034 A 
ATOM      5  C   UNL     1      -1.834  -1.948   0.441  1.00  0.00     0.006 A 
ATOM      6  C   UNL     1      -3.188  -1.594   0.421  1.00  0.00     0.012 A 
ENDROOT
BRANCH   1   7
ATOM      7  C   UNL     1      -5.165  -0.434   1.493  1.00  0.00     0.196 C 
ATOM      8  O   UNL     1      -5.695  -0.111   2.555  1.00  0.00    -0.288 OA
BRANCH   7   9
ATOM      9  C   UNL     1      -6.004  -0.425   0.276  1.00  0.00     0.065 A 
ATOM     10  C   UNL     1      -5.645   0.280  -0.879  1.00  0.00     0.131 A 
ATOM     11  C   UNL     1      -6.464   0.242  -2.012  1.00  0.00     0.066 A 
ATOM     12  C   UNL     1      -7.675  -0.459  -1.974  1.00  0.00     0.056 A 
ATOM     13  C   UNL     1      -7.227  -1.107   0.321  1.00  0.00     0.017 A 
ATOM     14  C   UNL     1      -8.058  -1.126  -0.803  1.00  0.00     0.020 A 
BRANCH  10  15
ATOM     15  O   UNL     1      -4.473   0.985  -0.962  1.00  0.00    -0.496 OA
ATOM     16  C   UNL     1      -4.660   2.322  -0.483  1.00  0.00     0.278 C 
ENDBRANCH  10  15
BRANCH  12  17
ATOM     17  C   UNL     1      -8.526  -0.489  -3.127  1.00  0.00     0.099 C 
ATOM     18  N   UNL     1      -9.217  -0.521  -4.060  1.00  0.00    -0.192 NA
ENDBRANCH  12  17
ENDBRANCH   7   9
ENDBRANCH   1   7
BRANCH   4  19
ATOM     19  C   UNL     1       0.456  -1.948   1.528  1.00  0.00     0.120 C 
BRANCH  19  20
ATOM     20  N   UNL     1       1.369  -0.809   1.713  1.00  0.00    -0.296 NA
ATOM     21  C   UNL     1       2.764  -1.252   1.923  1.00  0.00     0.106 C 
ATOM     22  C   UNL     1       1.278   0.153   0.585  1.00  0.00     0.106 C 
ATOM     23  C   UNL     1       3.659  -1.285   0.661  1.00  0.00     0.135 C 
ATOM     24  C   UNL     1       2.581   0.938   0.321  1.00  0.00     0.135 C 
ATOM     25  N   UNL     1       3.667   0.007  -0.038  1.00  0.00    -0.340 N 
BRANCH  25  26
ATOM     26  C   UNL     1       4.814   0.563  -0.502  1.00  0.00     0.203 A 
ATOM     27  N   UNL     1       5.097   1.840  -0.634  1.00  0.00    -0.213 NA
ATOM     28  N   UNL     1       5.850  -0.209  -0.972  1.00  0.00    -0.324 N 
ATOM     29  C   UNL     1       6.359   1.893  -1.173  1.00  0.00     0.091 A 
ATOM     30  C   UNL     1       6.857   0.616  -1.399  1.00  0.00     0.067 A 
ATOM     31  C   UNL     1       7.147   3.004  -1.508  1.00  0.00     0.030 A 
ATOM     32  C   UNL     1       8.112   0.366  -1.956  1.00  0.00     0.028 A 
ATOM     33  C   UNL     1       8.413   2.785  -2.064  1.00  0.00     0.002 A 
ATOM     34  C   UNL     1       8.884   1.487  -2.285  1.00  0.00     0.002 A 
ATOM     35  H   UNL     1       5.842  -1.213  -1.028  1.00  0.00     0.170 HD
ENDBRANCH  25  26
ENDBRANCH  19  20
ENDBRANCH   4  19
TORSDOF 7
