REMARK SMILES N#Cc1ccc(C(=O)c2ccc(CN3CCN(c4nc5cc(F)ccc5[nH]4)CC3)c(F)c2)c(O)c1
REMARK SMILES IDX 9 1 10 2 11 3 12 4 30 5 31 6 32 7 7 8 8 9 6 10 3 11 4 12
REMARK SMILES IDX 35 13 5 14 33 15 2 16 1 17 34 18 13 20 14 21 15 22 29 23
REMARK SMILES IDX 16 24 28 25 17 26 18 27 19 28 27 29 20 30 26 31 21 32 25 33
REMARK SMILES IDX 22 34 24 35 23 37
REMARK H PARENT 34 19 27 36
ROOT
ATOM      1  C   UNL     1      -3.893  -0.381   0.590  1.00  0.00     0.026 A 
ATOM      2  C   UNL     1      -3.121  -1.448   1.064  1.00  0.00     0.013 A 
ATOM      3  C   UNL     1      -1.914  -1.767   0.439  1.00  0.00     0.009 A 
ATOM      4  C   UNL     1      -1.453  -1.008  -0.650  1.00  0.00     0.002 A 
ATOM      5  C   UNL     1      -2.235   0.061  -1.096  1.00  0.00     0.128 A 
ATOM      6  F   UNL     1      -1.822   0.805  -2.132  1.00  0.00    -0.207 F 
ATOM      7  C   UNL     1      -3.442   0.388  -0.485  1.00  0.00     0.051 A 
ENDROOT
BRANCH   1   8
ATOM      8  C   UNL     1      -5.155  -0.057   1.289  1.00  0.00     0.196 C 
ATOM      9  O   UNL     1      -5.170  -0.056   2.519  1.00  0.00    -0.288 OA
BRANCH   8  10
ATOM     10  C   UNL     1      -6.404   0.289   0.561  1.00  0.00     0.064 A 
ATOM     11  C   UNL     1      -8.789   0.973  -0.760  1.00  0.00     0.056 A 
ATOM     12  C   UNL     1      -7.829   0.180  -1.401  1.00  0.00     0.020 A 
ATOM     13  C   UNL     1      -8.565   1.409   0.547  1.00  0.00     0.066 A 
ATOM     14  C   UNL     1      -6.643  -0.166  -0.742  1.00  0.00     0.017 A 
ATOM     15  C   UNL     1      -7.387   1.058   1.204  1.00  0.00     0.128 A 
BRANCH  11  16
ATOM     16  C   UNL     1     -10.000   1.327  -1.440  1.00  0.00     0.099 C 
ATOM     17  N   UNL     1     -10.976   1.610  -2.001  1.00  0.00    -0.192 NA
ENDBRANCH  11  16
BRANCH  15  18
ATOM     18  O   UNL     1      -7.258   1.504   2.492  1.00  0.00    -0.507 OA
ATOM     19  H   UNL     1      -6.489   1.040   2.897  1.00  0.00     0.293 HD
ENDBRANCH  15  18
ENDBRANCH   8  10
ENDBRANCH   1   8
BRANCH   4  20
ATOM     20  C   UNL     1      -0.149  -1.349  -1.336  1.00  0.00     0.123 C 
BRANCH  20  21
ATOM     21  N   UNL     1       0.993  -1.423  -0.409  1.00  0.00    -0.295 NA
ATOM     22  C   UNL     1       2.191  -1.985  -1.078  1.00  0.00     0.106 C 
ATOM     23  C   UNL     1       1.291  -0.097   0.185  1.00  0.00     0.106 C 
ATOM     24  C   UNL     1       3.266  -0.959  -1.505  1.00  0.00     0.135 C 
ATOM     25  C   UNL     1       2.734   0.042   0.720  1.00  0.00     0.135 C 
ATOM     26  N   UNL     1       3.709  -0.160  -0.353  1.00  0.00    -0.340 N 
BRANCH  26  27
ATOM     27  C   UNL     1       5.028   0.127  -0.237  1.00  0.00     0.203 A 
ATOM     28  N   UNL     1       5.976  -0.086  -1.123  1.00  0.00    -0.213 NA
ATOM     29  N   UNL     1       5.554   0.711   0.889  1.00  0.00    -0.324 N 
ATOM     30  C   UNL     1       7.141   0.362  -0.555  1.00  0.00     0.093 A 
ATOM     31  C   UNL     1       6.906   0.867   0.718  1.00  0.00     0.067 A 
ATOM     32  C   UNL     1       8.444   0.368  -1.068  1.00  0.00     0.069 A 
ATOM     33  C   UNL     1       7.908   1.390   1.539  1.00  0.00     0.031 A 
ATOM     34  C   UNL     1       9.457   0.886  -0.263  1.00  0.00     0.125 A 
ATOM     35  C   UNL     1       9.204   1.387   1.013  1.00  0.00     0.041 A 
ATOM     36  H   UNL     1       5.031   0.974   1.708  1.00  0.00     0.170 HD
ATOM     37  F   UNL     1      10.715   0.903  -0.728  1.00  0.00    -0.207 F 
ENDBRANCH  26  27
ENDBRANCH  20  21
ENDBRANCH   4  20
TORSDOF 7
