REMARK SMILES N#Cc1ccc(C(=O)c2ccc(CN3CCN(c4nc5ccc(C(F)(F)F)cc5[nH]4)CC3)cc2)c(O)c1
REMARK SMILES IDX 9 1 10 2 11 3 12 4 33 5 34 6 7 7 8 8 6 9 3 10 4 11 37 12
REMARK SMILES IDX 5 13 35 14 2 15 1 16 36 17 13 19 14 20 15 21 32 22 16 23
REMARK SMILES IDX 31 24 17 25 18 26 19 27 30 28 20 29 29 30 21 31 28 32 22 33
REMARK SMILES IDX 23 34 24 36 25 37 26 38 27 39
REMARK H PARENT 36 18 30 35
ROOT
ATOM      1  C   UNL     1       3.941  -1.161  -0.192  1.00  0.00     0.023 A 
ATOM      2  C   UNL     1       3.526   0.026   0.421  1.00  0.00     0.012 A 
ATOM      3  C   UNL     1       2.493   0.001   1.364  1.00  0.00     0.006 A 
ATOM      4  C   UNL     1       1.847  -1.202   1.690  1.00  0.00    -0.034 A 
ATOM      5  C   UNL     1       2.266  -2.384   1.058  1.00  0.00     0.006 A 
ATOM      6  C   UNL     1       3.299  -2.363   0.117  1.00  0.00     0.012 A 
ENDROOT
BRANCH   1   7
ATOM      7  C   UNL     1       5.016  -1.175  -1.210  1.00  0.00     0.196 C 
ATOM      8  O   UNL     1       4.902  -1.906  -2.195  1.00  0.00    -0.288 OA
BRANCH   7   9
ATOM      9  C   UNL     1       6.228  -0.324  -1.105  1.00  0.00     0.064 A 
ATOM     10  C   UNL     1       8.531   1.279  -0.970  1.00  0.00     0.056 A 
ATOM     11  C   UNL     1       7.902   0.846   0.203  1.00  0.00     0.020 A 
ATOM     12  C   UNL     1       8.019   0.897  -2.211  1.00  0.00     0.066 A 
ATOM     13  C   UNL     1       6.758   0.043   0.137  1.00  0.00     0.017 A 
ATOM     14  C   UNL     1       6.884   0.090  -2.274  1.00  0.00     0.128 A 
BRANCH  10  15
ATOM     15  C   UNL     1       9.706   2.097  -0.897  1.00  0.00     0.099 C 
ATOM     16  N   UNL     1      10.659   2.754  -0.826  1.00  0.00    -0.192 NA
ENDBRANCH  10  15
BRANCH  14  17
ATOM     17  O   UNL     1       6.463  -0.270  -3.525  1.00  0.00    -0.507 OA
ATOM     18  H   UNL     1       5.806  -0.998  -3.425  1.00  0.00     0.293 HD
ENDBRANCH  14  17
ENDBRANCH   7   9
ENDBRANCH   1   7
BRANCH   4  19
ATOM     19  C   UNL     1       0.719  -1.234   2.704  1.00  0.00     0.120 C 
BRANCH  19  20
ATOM     20  N   UNL     1      -0.632  -1.020   2.189  1.00  0.00    -0.296 NA
ATOM     21  C   UNL     1      -1.103  -2.021   1.221  1.00  0.00     0.106 C 
ATOM     22  C   UNL     1      -0.947   0.362   1.778  1.00  0.00     0.106 C 
ATOM     23  C   UNL     1      -2.521  -1.701   0.696  1.00  0.00     0.135 C 
ATOM     24  C   UNL     1      -1.429   0.504   0.316  1.00  0.00     0.135 C 
ATOM     25  N   UNL     1      -2.586  -0.374   0.051  1.00  0.00    -0.340 N 
BRANCH  25  26
ATOM     26  C   UNL     1      -3.789   0.228  -0.135  1.00  0.00     0.203 A 
ATOM     27  N   UNL     1      -4.064   1.513  -0.147  1.00  0.00    -0.213 NA
ATOM     28  N   UNL     1      -4.925  -0.504  -0.385  1.00  0.00    -0.324 N 
ATOM     29  C   UNL     1      -5.413   1.612  -0.374  1.00  0.00     0.091 A 
ATOM     30  C   UNL     1      -5.983   0.356  -0.528  1.00  0.00     0.068 A 
ATOM     31  C   UNL     1      -6.231   2.750  -0.461  1.00  0.00     0.031 A 
ATOM     32  C   UNL     1      -7.342   0.150  -0.778  1.00  0.00     0.041 A 
ATOM     33  C   UNL     1      -7.601   2.577  -0.702  1.00  0.00     0.015 A 
ATOM     34  C   UNL     1      -8.159   1.296  -0.871  1.00  0.00     0.058 A 
ATOM     35  H   UNL     1      -4.959  -1.508  -0.464  1.00  0.00     0.170 HD
BRANCH  34  36
ATOM     36  C   UNL     1      -9.644   1.149  -1.117  1.00  0.00     0.416 C 
ATOM     37  F   UNL     1     -10.364   1.174   0.038  1.00  0.00    -0.166 F 
ATOM     38  F   UNL     1     -10.157   2.138  -1.899  1.00  0.00    -0.166 F 
ATOM     39  F   UNL     1      -9.973  -0.019  -1.735  1.00  0.00    -0.166 F 
ENDBRANCH  34  36
ENDBRANCH  25  26
ENDBRANCH  19  20
ENDBRANCH   4  19
TORSDOF 8
