
     RDKit          3D

 42 44  0  0  0  0  0  0  0  0999 V2000
   -3.5830   -0.9842   -2.1805 O   0  0  0  0  0  0  0  0  0  0  0  0
   -2.6424   -1.7176   -2.4533 C   0  0  0  0  0  0  0  0  0  0  0  0
   -1.2849   -1.5848   -1.8803 C   0  0  0  0  0  0  0  0  0  0  0  0
   -1.0576   -1.1448   -0.6329 C   0  0  0  0  0  0  0  0  0  0  0  0
   -2.0786   -0.9005    0.2636 O   0  0  0  0  0  0  0  0  0  0  0  0
   -2.2851    0.5039    0.4496 C   0  0  0  0  0  0  0  0  0  0  0  0
   -3.4234    0.6904    1.4207 C   0  0  0  0  0  0  0  0  0  0  0  0
   -3.1871    1.1110    2.7366 C   0  0  0  0  0  0  0  0  0  0  0  0
   -4.2497    1.2752    3.6273 C   0  0  0  0  0  0  0  0  0  0  0  0
   -5.5554    1.0153    3.2133 C   0  0  0  0  0  0  0  0  0  0  0  0
   -5.8004    0.5872    1.9099 C   0  0  0  0  0  0  0  0  0  0  0  0
   -4.7398    0.4229    1.0183 C   0  0  0  0  0  0  0  0  0  0  0  0
    0.3110   -1.0850   -0.0773 C   0  0  0  0  0  0  0  0  0  0  0  0
    0.5697   -1.5986    1.1996 C   0  0  0  0  0  0  0  0  0  0  0  0
    1.8531   -1.5400    1.7410 C   0  0  0  0  0  0  0  0  0  0  0  0
    2.8924   -0.9604    1.0120 C   0  0  0  0  0  0  0  0  0  0  0  0
    2.6673   -0.4248   -0.2655 C   0  0  0  0  0  0  0  0  0  0  0  0
    3.7616    0.1949   -1.0308 C   0  0  0  0  0  0  0  0  0  0  0  0
    3.6470    1.5040   -1.5278 C   0  0  0  0  0  0  0  0  0  0  0  0
    4.6851    2.0918   -2.2558 C   0  0  0  0  0  0  0  0  0  0  0  0
    5.8562    1.3792   -2.4997 C   0  0  0  0  0  0  0  0  0  0  0  0
    5.9906    0.0804   -2.0158 C   0  0  0  0  0  0  0  0  0  0  0  0
    4.9520   -0.5058   -1.2871 C   0  0  0  0  0  0  0  0  0  0  0  0
    1.3650   -0.4939   -0.7938 C   0  0  0  0  0  0  0  0  0  0  0  0
   -2.7401   -2.5267   -3.1960 H   0  0  0  0  0  0  0  0  0  0  0  0
   -0.4805   -1.9012   -2.5333 H   0  0  0  0  0  0  0  0  0  0  0  0
   -1.3771    0.9784    0.8428 H   0  0  0  0  0  0  0  0  0  0  0  0
   -2.5362    0.9894   -0.5024 H   0  0  0  0  0  0  0  0  0  0  0  0
   -2.1736    1.3099    3.0767 H   0  0  0  0  0  0  0  0  0  0  0  0
   -4.0585    1.6025    4.6457 H   0  0  0  0  0  0  0  0  0  0  0  0
   -6.3816    1.1410    3.9077 H   0  0  0  0  0  0  0  0  0  0  0  0
   -6.8160    0.3758    1.5863 H   0  0  0  0  0  0  0  0  0  0  0  0
   -4.9374    0.0766    0.0044 H   0  0  0  0  0  0  0  0  0  0  0  0
   -0.2319   -2.0526    1.7801 H   0  0  0  0  0  0  0  0  0  0  0  0
    2.0428   -1.9427    2.7327 H   0  0  0  0  0  0  0  0  0  0  0  0
    3.8847   -0.9136    1.4570 H   0  0  0  0  0  0  0  0  0  0  0  0
    2.7459    2.0839   -1.3382 H   0  0  0  0  0  0  0  0  0  0  0  0
    4.5787    3.1074   -2.6282 H   0  0  0  0  0  0  0  0  0  0  0  0
    6.6640    1.8360   -3.0653 H   0  0  0  0  0  0  0  0  0  0  0  0
    6.9028   -0.4792   -2.2057 H   0  0  0  0  0  0  0  0  0  0  0  0
    5.0743   -1.5252   -0.9266 H   0  0  0  0  0  0  0  0  0  0  0  0
    1.1761   -0.0755   -1.7811 H   0  0  0  0  0  0  0  0  0  0  0  0
  1  2  2  0
  2  3  1  0
  3  4  2  3
  4  5  1  0
  5  6  1  0
  6  7  1  0
  7  8  2  0
  8  9  1  0
  9 10  2  0
 10 11  1  0
 11 12  2  0
  4 13  1  0
 13 14  2  0
 14 15  1  0
 15 16  2  0
 16 17  1  0
 17 18  1  0
 18 19  2  0
 19 20  1  0
 20 21  2  0
 21 22  1  0
 22 23  2  0
 17 24  2  0
 12  7  1  0
 24 13  1  0
 23 18  1  0
  2 25  1  0
  3 26  1  0
  6 27  1  0
  6 28  1  0
  8 29  1  0
  9 30  1  0
 10 31  1  0
 11 32  1  0
 12 33  1  0
 14 34  1  0
 15 35  1  0
 16 36  1  0
 19 37  1  0
 20 38  1  0
 21 39  1  0
 22 40  1  0
 23 41  1  0
 24 42  1  0
M  END
$$$$
