
     RDKit          3D

 36 38  0  0  0  0  0  0  0  0999 V2000
   -1.8956   -3.0364    0.2739 C   0  0  0  0  0  0  0  0  0  0  0  0
   -2.3106   -1.6856   -0.0291 N   0  0  0  0  0  0  0  0  0  0  0  0
   -3.5011   -1.3884   -0.6738 C   0  0  0  0  0  0  0  0  0  0  0  0
   -4.2712   -2.1459   -1.2318 O   0  0  0  0  0  0  0  0  0  0  0  0
   -3.7045    0.0585   -0.5412 C   0  0  0  0  0  0  0  0  0  0  0  0
   -4.7252    0.8418   -1.0460 C   0  0  0  0  0  0  0  0  0  0  0  0
   -4.6880    2.2068   -0.7574 C   0  0  0  0  0  0  0  0  0  0  0  0
   -3.6477    2.7460    0.0224 C   0  0  0  0  0  0  0  0  0  0  0  0
   -2.6276    1.9304    0.5263 C   0  0  0  0  0  0  0  0  0  0  0  0
   -2.6658    0.5769    0.2318 C   0  0  0  0  0  0  0  0  0  0  0  0
   -1.7351   -0.5270    0.6411 C   0  0  0  0  0  0  0  0  0  0  0  0
   -0.3316   -0.3242    0.1524 C   0  0  0  0  0  0  0  0  0  0  0  0
    0.7334   -0.2515    0.9695 C   0  0  0  0  0  0  0  0  0  0  0  0
    2.1350   -0.0749    0.5725 C   0  0  0  0  0  0  0  0  0  0  0  0
    2.5386    0.3761   -0.6795 C   0  0  0  0  0  0  0  0  0  0  0  0
    3.9021    0.5232   -0.9373 C   0  0  0  0  0  0  0  0  0  0  0  0
    4.8329    0.2300    0.0613 C   0  0  0  0  0  0  0  0  0  0  0  0
    6.3095    0.3433   -0.1530 C   0  0  0  0  0  0  0  0  0  0  0  0
    6.8834   -0.8534   -0.4533 F   0  0  0  0  0  0  0  0  0  0  0  0
    6.9705    0.8109    0.9419 F   0  0  0  0  0  0  0  0  0  0  0  0
    6.6410    1.1833   -1.1727 F   0  0  0  0  0  0  0  0  0  0  0  0
    4.3397   -0.2101    1.2791 C   0  0  0  0  0  0  0  0  0  0  0  0
    3.0225   -0.3592    1.5541 N   0  0  0  0  0  0  0  0  0  0  0  0
   -0.8204   -3.1366    0.1067 H   0  0  0  0  0  0  0  0  0  0  0  0
   -2.4287   -3.7502   -0.3601 H   0  0  0  0  0  0  0  0  0  0  0  0
   -2.1291   -3.2485    1.3210 H   0  0  0  0  0  0  0  0  0  0  0  0
   -5.5210    0.4055   -1.6403 H   0  0  0  0  0  0  0  0  0  0  0  0
   -5.4715    2.8599   -1.1355 H   0  0  0  0  0  0  0  0  0  0  0  0
   -3.6401    3.8128    0.2379 H   0  0  0  0  0  0  0  0  0  0  0  0
   -1.8310    2.3537    1.1308 H   0  0  0  0  0  0  0  0  0  0  0  0
   -1.8001   -0.6865    1.7239 H   0  0  0  0  0  0  0  0  0  0  0  0
   -0.2143   -0.2557   -0.9257 H   0  0  0  0  0  0  0  0  0  0  0  0
    0.5960   -0.3507    2.0449 H   0  0  0  0  0  0  0  0  0  0  0  0
    1.8207    0.6202   -1.4546 H   0  0  0  0  0  0  0  0  0  0  0  0
    4.2303    0.8695   -1.9157 H   0  0  0  0  0  0  0  0  0  0  0  0
    5.0048   -0.4641    2.1023 H   0  0  0  0  0  0  0  0  0  0  0  0
  1  2  1  0
  2  3  1  0
  3  4  2  0
  3  5  1  0
  5  6  2  0
  6  7  1  0
  7  8  2  0
  8  9  1  0
  9 10  2  0
 10 11  1  0
 11 12  1  0
 12 13  2  3
 13 14  1  0
 14 15  2  0
 15 16  1  0
 16 17  2  0
 17 18  1  0
 18 19  1  0
 18 20  1  0
 18 21  1  0
 17 22  1  0
 22 23  2  0
 11  2  1  0
 23 14  1  0
 10  5  1  0
  1 24  1  0
  1 25  1  0
  1 26  1  0
  6 27  1  0
  7 28  1  0
  8 29  1  0
  9 30  1  0
 11 31  1  0
 12 32  1  0
 13 33  1  0
 15 34  1  0
 16 35  1  0
 22 36  1  0
M  END
$$$$
