
     RDKit          3D

 45 47  0  0  0  0  0  0  0  0999 V2000
    3.0231    1.7747   -1.9627 C   0  0  0  0  0  0  0  0  0  0  0  0
    3.2055    0.6446   -1.0602 N   0  0  0  0  0  0  0  0  0  0  0  0
    2.1565   -0.3549   -1.2562 C   0  0  0  0  0  0  0  0  0  0  0  0
    2.3225   -1.5234   -0.2853 C   0  0  0  0  0  0  0  0  0  0  0  0
    2.3216   -1.1835    1.2152 C   0  0  0  0  0  0  0  0  0  0  0  0
    1.0321   -0.5699    1.8220 C   0  0  0  0  0  0  0  0  0  0  0  0
    1.0506    0.9619    1.7413 C   0  0  0  0  0  0  0  0  0  0  0  0
   -0.1854    1.5246    2.2074 O   0  0  0  0  0  0  0  0  0  0  0  0
   -0.9545    1.7677    1.0932 C   0  0  0  0  0  0  0  0  0  0  0  0
   -1.1832    3.1160    0.7918 C   0  0  0  0  0  0  0  0  0  0  0  0
   -1.8425    3.4556   -0.3797 C   0  0  0  0  0  0  0  0  0  0  0  0
   -2.2177    2.4413   -1.2452 C   0  0  0  0  0  0  0  0  0  0  0  0
   -2.9129    2.7799   -2.3765 O   0  0  0  0  0  0  0  0  0  0  0  0
   -1.9405    1.0829   -0.9851 C   0  0  0  0  0  0  0  0  0  0  0  0
   -2.3466    0.1356   -1.9700 N   0  0  0  0  0  0  0  0  0  0  0  0
   -1.4062    0.7110    0.2744 C   0  0  0  0  0  0  0  0  0  0  0  0
   -1.3512   -0.7022    0.7478 C   0  0  0  0  0  0  0  0  0  0  0  0
   -2.5169   -1.4951    0.5837 C   0  0  0  0  0  0  0  0  0  0  0  0
   -2.5700   -2.8266    0.9832 C   0  0  0  0  0  0  0  0  0  0  0  0
   -3.6902   -3.5811    0.8020 O   0  0  0  0  0  0  0  0  0  0  0  0
   -1.4808   -3.4171    1.5869 C   0  0  0  0  0  0  0  0  0  0  0  0
   -0.3400   -2.6536    1.8143 C   0  0  0  0  0  0  0  0  0  0  0  0
   -0.2498   -1.2950    1.4127 C   0  0  0  0  0  0  0  0  0  0  0  0
    2.0666    2.2757   -1.7806 H   0  0  0  0  0  0  0  0  0  0  0  0
    3.8167    2.5086   -1.7919 H   0  0  0  0  0  0  0  0  0  0  0  0
    3.0712    1.4632   -3.0111 H   0  0  0  0  0  0  0  0  0  0  0  0
    4.1164    0.2197   -1.2353 H   0  0  0  0  0  0  0  0  0  0  0  0
    1.1658    0.0912   -1.1334 H   0  0  0  0  0  0  0  0  0  0  0  0
    2.2053   -0.7462   -2.2800 H   0  0  0  0  0  0  0  0  0  0  0  0
    1.5430   -2.2647   -0.4970 H   0  0  0  0  0  0  0  0  0  0  0  0
    3.2723   -2.0280   -0.5095 H   0  0  0  0  0  0  0  0  0  0  0  0
    2.5304   -2.1234    1.7448 H   0  0  0  0  0  0  0  0  0  0  0  0
    3.1777   -0.5375    1.4479 H   0  0  0  0  0  0  0  0  0  0  0  0
    1.0940   -0.7579    2.9069 H   0  0  0  0  0  0  0  0  0  0  0  0
    1.8359    1.3426    2.4071 H   0  0  0  0  0  0  0  0  0  0  0  0
    1.3160    1.3374    0.7474 H   0  0  0  0  0  0  0  0  0  0  0  0
   -0.8353    3.8902    1.4698 H   0  0  0  0  0  0  0  0  0  0  0  0
   -2.0553    4.4923   -0.6188 H   0  0  0  0  0  0  0  0  0  0  0  0
   -3.4197    1.9746   -2.5960 H   0  0  0  0  0  0  0  0  0  0  0  0
   -2.0980    0.4699   -2.9012 H   0  0  0  0  0  0  0  0  0  0  0  0
   -1.8966   -0.7663   -1.8129 H   0  0  0  0  0  0  0  0  0  0  0  0
   -3.4043   -1.0445    0.1422 H   0  0  0  0  0  0  0  0  0  0  0  0
   -4.3903   -3.0127    0.4403 H   0  0  0  0  0  0  0  0  0  0  0  0
   -1.5249   -4.4532    1.9081 H   0  0  0  0  0  0  0  0  0  0  0  0
    0.4898   -3.1245    2.3393 H   0  0  0  0  0  0  0  0  0  0  0  0
  1  2  1  0
  2  3  1  0
  3  4  1  0
  4  5  1  0
  5  6  1  0
  6  7  1  0
  7  8  1  0
  8  9  1  0
  9 10  2  0
 10 11  1  0
 11 12  2  0
 12 13  1  0
 12 14  1  0
 14 15  1  0
 14 16  2  0
 16 17  1  0
 17 18  2  0
 18 19  1  0
 19 20  1  0
 19 21  2  0
 21 22  1  0
 22 23  2  0
 23  6  1  0
 16  9  1  0
 23 17  1  0
  1 24  1  0
  1 25  1  0
  1 26  1  0
  2 27  1  0
  3 28  1  0
  3 29  1  0
  4 30  1  0
  4 31  1  0
  5 32  1  0
  5 33  1  0
  6 34  1  0
  7 35  1  0
  7 36  1  0
 10 37  1  0
 11 38  1  0
 13 39  1  0
 15 40  1  0
 15 41  1  0
 18 42  1  0
 20 43  1  0
 21 44  1  0
 22 45  1  0
M  END
$$$$
