
     RDKit          3D

 51 53  0  0  0  0  0  0  0  0999 V2000
   -7.0521   -0.6998    2.3098 N   0  0  0  0  0  0  0  0  0  0  0  0
   -7.3353    0.5239    1.7727 C   0  0  0  0  0  0  0  0  0  0  0  0
   -6.8585    1.0895    0.7163 N   0  0  0  0  0  0  0  0  0  0  0  0
   -5.8847    0.4125   -0.0374 C   0  0  0  0  0  0  0  0  0  0  0  0
   -4.5469    0.7799    0.1237 C   0  0  0  0  0  0  0  0  0  0  0  0
   -3.5562    0.1174   -0.5940 C   0  0  0  0  0  0  0  0  0  0  0  0
   -2.1180    0.4436   -0.4762 C   0  0  0  0  0  0  0  0  0  0  0  0
   -1.1370   -0.5422   -0.6909 C   0  0  0  0  0  0  0  0  0  0  0  0
    0.2326   -0.2618   -0.5816 C   0  0  0  0  0  0  0  0  0  0  0  0
    0.6586    1.0224   -0.2572 C   0  0  0  0  0  0  0  0  0  0  0  0
    1.9547    1.4333   -0.1192 O   0  0  0  0  0  0  0  0  0  0  0  0
    2.9742    0.4527   -0.3403 C   0  0  0  0  0  0  0  0  0  0  0  0
    4.3389    1.1392   -0.1678 C   0  0  0  0  0  0  0  0  0  0  0  0
    5.4922    0.2687   -0.4624 N   0  0  0  0  0  0  0  0  0  0  0  0
    5.6637   -0.7874    0.5587 C   0  0  0  0  0  0  0  0  0  0  0  0
    6.9278   -1.6431    0.3129 C   0  0  0  0  0  0  0  0  0  0  0  0
    8.1580   -0.8420    0.2367 N   0  0  0  0  0  0  0  0  0  0  0  0
    7.9863    0.2147   -0.7716 C   0  0  0  0  0  0  0  0  0  0  0  0
    6.7303    1.0780   -0.5236 C   0  0  0  0  0  0  0  0  0  0  0  0
   -0.2957    2.0172   -0.0488 C   0  0  0  0  0  0  0  0  0  0  0  0
   -1.6631    1.7347   -0.1591 C   0  0  0  0  0  0  0  0  0  0  0  0
   -3.8639   -0.8961   -1.4405 N   0  0  0  0  0  0  0  0  0  0  0  0
   -5.1673   -1.2178   -1.6040 C   0  0  0  0  0  0  0  0  0  0  0  0
   -6.2171   -0.5898   -0.9508 C   0  0  0  0  0  0  0  0  0  0  0  0
   -7.6262   -1.0227   -1.2063 C   0  0  0  0  0  0  0  0  0  0  0  0
   -7.9695   -2.0869   -0.3279 O   0  0  0  0  0  0  0  0  0  0  0  0
   -6.1619   -1.0991    2.0219 H   0  0  0  0  0  0  0  0  0  0  0  0
   -7.2037   -0.7863    3.3105 H   0  0  0  0  0  0  0  0  0  0  0  0
   -8.1120    1.0572    2.3481 H   0  0  0  0  0  0  0  0  0  0  0  0
   -4.3020    1.5707    0.8240 H   0  0  0  0  0  0  0  0  0  0  0  0
   -1.4412   -1.5556   -0.9514 H   0  0  0  0  0  0  0  0  0  0  0  0
    0.9311   -1.0718   -0.7620 H   0  0  0  0  0  0  0  0  0  0  0  0
    2.8629   -0.3555    0.3907 H   0  0  0  0  0  0  0  0  0  0  0  0
    2.8967    0.0550   -1.3596 H   0  0  0  0  0  0  0  0  0  0  0  0
    4.3513    1.9988   -0.8519 H   0  0  0  0  0  0  0  0  0  0  0  0
    4.4099    1.5673    0.8413 H   0  0  0  0  0  0  0  0  0  0  0  0
    5.7212   -0.3453    1.5624 H   0  0  0  0  0  0  0  0  0  0  0  0
    4.8026   -1.4641    0.5460 H   0  0  0  0  0  0  0  0  0  0  0  0
    6.8071   -2.2191   -0.6134 H   0  0  0  0  0  0  0  0  0  0  0  0
    7.0321   -2.3670    1.1285 H   0  0  0  0  0  0  0  0  0  0  0  0
    8.9325   -1.4437   -0.0393 H   0  0  0  0  0  0  0  0  0  0  0  0
    8.8716    0.8596   -0.7569 H   0  0  0  0  0  0  0  0  0  0  0  0
    7.9335   -0.2355   -1.7710 H   0  0  0  0  0  0  0  0  0  0  0  0
    6.6511    1.8040   -1.3418 H   0  0  0  0  0  0  0  0  0  0  0  0
    6.8641    1.6458    0.4071 H   0  0  0  0  0  0  0  0  0  0  0  0
    0.0252    3.0275    0.1939 H   0  0  0  0  0  0  0  0  0  0  0  0
   -2.3647    2.5525   -0.0123 H   0  0  0  0  0  0  0  0  0  0  0  0
   -5.3476   -2.0305   -2.3040 H   0  0  0  0  0  0  0  0  0  0  0  0
   -8.3403   -0.2029   -1.0760 H   0  0  0  0  0  0  0  0  0  0  0  0
   -7.7406   -1.3786   -2.2359 H   0  0  0  0  0  0  0  0  0  0  0  0
   -7.9046   -1.7215    0.5752 H   0  0  0  0  0  0  0  0  0  0  0  0
  1  2  1  0
  2  3  2  3
  3  4  1  0
  4  5  2  0
  5  6  1  0
  6  7  1  0
  7  8  2  0
  8  9  1  0
  9 10  2  0
 10 11  1  0
 11 12  1  0
 12 13  1  0
 13 14  1  0
 14 15  1  0
 15 16  1  0
 16 17  1  0
 17 18  1  0
 18 19  1  0
 10 20  1  0
 20 21  2  0
  6 22  2  0
 22 23  1  0
 23 24  2  0
 24 25  1  0
 25 26  1  0
 24  4  1  0
 21  7  1  0
 19 14  1  0
  1 27  1  0
  1 28  1  0
  2 29  1  0
  5 30  1  0
  8 31  1  0
  9 32  1  0
 12 33  1  0
 12 34  1  0
 13 35  1  0
 13 36  1  0
 15 37  1  0
 15 38  1  0
 16 39  1  0
 16 40  1  0
 17 41  1  0
 18 42  1  0
 18 43  1  0
 19 44  1  0
 19 45  1  0
 20 46  1  0
 21 47  1  0
 23 48  1  0
 25 49  1  0
 25 50  1  0
 26 51  1  0
M  END
$$$$
