
     RDKit          3D

 34 36  0  0  0  0  0  0  0  0999 V2000
   -0.9396   -0.1887   -2.7539 O   0  0  0  0  0  0  0  0  0  0  0  0
   -1.6345   -0.0520   -1.7580 C   0  0  0  0  0  0  0  0  0  0  0  0
   -2.9748    0.3201   -1.7586 N   0  0  0  0  0  0  0  0  0  0  0  0
   -3.4792    0.3931   -0.4699 C   0  0  0  0  0  0  0  0  0  0  0  0
   -4.7595    0.7332   -0.0898 C   0  0  0  0  0  0  0  0  0  0  0  0
   -5.0393    0.7436    1.2790 C   0  0  0  0  0  0  0  0  0  0  0  0
   -4.0443    0.4193    2.2205 C   0  0  0  0  0  0  0  0  0  0  0  0
   -2.7522    0.0775    1.8099 C   0  0  0  0  0  0  0  0  0  0  0  0
   -2.4856    0.0642    0.4518 C   0  0  0  0  0  0  0  0  0  0  0  0
   -1.2033   -0.2488   -0.2786 C   0  0  0  0  0  0  0  0  0  0  0  0
   -0.7129   -1.6526   -0.0439 C   0  0  0  0  0  0  0  0  0  0  0  0
    0.5592   -2.0460    0.1429 C   0  0  0  0  0  0  0  0  0  0  0  0
    1.7458   -1.1937    0.0844 C   0  0  0  0  0  0  0  0  0  0  0  0
    2.0871   -0.4932   -1.0638 C   0  0  0  0  0  0  0  0  0  0  0  0
    3.2421    0.2800   -1.0399 C   0  0  0  0  0  0  0  0  0  0  0  0
    3.6087    0.9963   -2.1419 O   0  0  0  0  0  0  0  0  0  0  0  0
    4.0389    0.3338    0.0973 C   0  0  0  0  0  0  0  0  0  0  0  0
    5.2886    1.1485    0.1709 C   0  0  0  0  0  0  0  0  0  0  0  0
    5.9090    1.0577    1.3857 F   0  0  0  0  0  0  0  0  0  0  0  0
    6.2324    0.7751   -0.7376 F   0  0  0  0  0  0  0  0  0  0  0  0
    5.0769    2.4808   -0.0192 F   0  0  0  0  0  0  0  0  0  0  0  0
    3.6224   -0.4195    1.1845 C   0  0  0  0  0  0  0  0  0  0  0  0
    2.5027   -1.1819    1.2015 N   0  0  0  0  0  0  0  0  0  0  0  0
   -3.4913    0.5084   -2.6044 H   0  0  0  0  0  0  0  0  0  0  0  0
   -5.5242    0.9852   -0.8151 H   0  0  0  0  0  0  0  0  0  0  0  0
   -6.0368    1.0067    1.6243 H   0  0  0  0  0  0  0  0  0  0  0  0
   -4.2847    0.4363    3.2816 H   0  0  0  0  0  0  0  0  0  0  0  0
   -1.9850   -0.1703    2.5374 H   0  0  0  0  0  0  0  0  0  0  0  0
   -0.4634    0.5214   -0.0362 H   0  0  0  0  0  0  0  0  0  0  0  0
   -1.4845   -2.4194    0.0217 H   0  0  0  0  0  0  0  0  0  0  0  0
    0.7716   -3.0850    0.3832 H   0  0  0  0  0  0  0  0  0  0  0  0
    1.4705   -0.5612   -1.9530 H   0  0  0  0  0  0  0  0  0  0  0  0
    2.9487    0.8710   -2.8480 H   0  0  0  0  0  0  0  0  0  0  0  0
    4.1907   -0.4401    2.1128 H   0  0  0  0  0  0  0  0  0  0  0  0
  1  2  2  0
  2  3  1  0
  3  4  1  0
  4  5  2  0
  5  6  1  0
  6  7  2  0
  7  8  1  0
  8  9  2  0
  9 10  1  0
 10 11  1  0
 11 12  2  3
 12 13  1  0
 13 14  2  0
 14 15  1  0
 15 16  1  0
 15 17  2  0
 17 18  1  0
 18 19  1  0
 18 20  1  0
 18 21  1  0
 17 22  1  0
 22 23  2  0
 10  2  1  0
 23 13  1  0
  9  4  1  0
  3 24  1  0
  5 25  1  0
  6 26  1  0
  7 27  1  0
  8 28  1  0
 10 29  1  0
 11 30  1  0
 12 31  1  0
 14 32  1  0
 16 33  1  0
 22 34  1  0
M  END
$$$$
