
     RDKit          3D

 50 52  0  0  0  0  0  0  0  0999 V2000
    5.4739   -1.1957    2.1427 N   0  0  0  0  0  0  0  0  0  0  0  0
    5.8874    0.0617    1.8278 C   0  0  0  0  0  0  0  0  0  0  0  0
    5.7370    0.7444    0.7410 N   0  0  0  0  0  0  0  0  0  0  0  0
    5.0151    0.1580   -0.3214 C   0  0  0  0  0  0  0  0  0  0  0  0
    3.6201    0.2913   -0.3165 C   0  0  0  0  0  0  0  0  0  0  0  0
    2.8568   -0.3037   -1.3174 C   0  0  0  0  0  0  0  0  0  0  0  0
    1.3838   -0.2159   -1.3596 C   0  0  0  0  0  0  0  0  0  0  0  0
    0.6901    0.9323   -0.9377 C   0  0  0  0  0  0  0  0  0  0  0  0
   -0.7115    0.9997   -0.9714 C   0  0  0  0  0  0  0  0  0  0  0  0
   -1.4562   -0.0830   -1.4296 C   0  0  0  0  0  0  0  0  0  0  0  0
   -2.8158   -0.1631   -1.5129 O   0  0  0  0  0  0  0  0  0  0  0  0
   -3.6102    0.9512   -1.1066 C   0  0  0  0  0  0  0  0  0  0  0  0
   -3.8777    0.9725    0.4140 C   0  0  0  0  0  0  0  0  0  0  0  0
   -4.5062   -0.2441    0.9654 N   0  0  0  0  0  0  0  0  0  0  0  0
   -5.8804   -0.4846    0.4781 C   0  0  0  0  0  0  0  0  0  0  0  0
   -6.9300    0.4637    1.0817 C   0  0  0  0  0  0  0  0  0  0  0  0
   -6.9163    0.4163    2.5140 O   0  0  0  0  0  0  0  0  0  0  0  0
   -5.6136    0.7265    3.0229 C   0  0  0  0  0  0  0  0  0  0  0  0
   -4.5428   -0.2145    2.4444 C   0  0  0  0  0  0  0  0  0  0  0  0
   -0.7837   -1.2257   -1.8622 C   0  0  0  0  0  0  0  0  0  0  0  0
    0.6137   -1.2902   -1.8331 C   0  0  0  0  0  0  0  0  0  0  0  0
    3.4364   -1.0260   -2.3055 N   0  0  0  0  0  0  0  0  0  0  0  0
    4.7908   -1.1140   -2.3205 C   0  0  0  0  0  0  0  0  0  0  0  0
    5.6233   -0.5346   -1.3740 C   0  0  0  0  0  0  0  0  0  0  0  0
    7.0842   -0.6990   -1.5597 C   0  0  0  0  0  0  0  0  0  0  0  0
    7.9106    0.1355   -0.8668 N   0  0  0  0  0  0  0  0  0  0  0  0
    7.5385   -1.5383   -2.3281 O   0  0  0  0  0  0  0  0  0  0  0  0
    5.3856   -1.4409    3.1222 H   0  0  0  0  0  0  0  0  0  0  0  0
    4.7979   -1.6445    1.5356 H   0  0  0  0  0  0  0  0  0  0  0  0
    6.4527    0.5257    2.6546 H   0  0  0  0  0  0  0  0  0  0  0  0
    3.1477    0.8431    0.4896 H   0  0  0  0  0  0  0  0  0  0  0  0
    1.2347    1.8084   -0.5915 H   0  0  0  0  0  0  0  0  0  0  0  0
   -1.1788    1.9169   -0.6326 H   0  0  0  0  0  0  0  0  0  0  0  0
   -3.1753    1.8998   -1.4428 H   0  0  0  0  0  0  0  0  0  0  0  0
   -4.5589    0.8744   -1.6485 H   0  0  0  0  0  0  0  0  0  0  0  0
   -4.4690    1.8657    0.6456 H   0  0  0  0  0  0  0  0  0  0  0  0
   -2.9101    1.0992    0.9135 H   0  0  0  0  0  0  0  0  0  0  0  0
   -5.9303   -0.4589   -0.6145 H   0  0  0  0  0  0  0  0  0  0  0  0
   -6.1472   -1.5120    0.7595 H   0  0  0  0  0  0  0  0  0  0  0  0
   -6.7781    1.4985    0.7544 H   0  0  0  0  0  0  0  0  0  0  0  0
   -7.9296    0.1601    0.7545 H   0  0  0  0  0  0  0  0  0  0  0  0
   -5.3863    1.7775    2.8116 H   0  0  0  0  0  0  0  0  0  0  0  0
   -5.6519    0.6135    4.1112 H   0  0  0  0  0  0  0  0  0  0  0  0
   -3.5570    0.0386    2.8515 H   0  0  0  0  0  0  0  0  0  0  0  0
   -4.7586   -1.2352    2.7862 H   0  0  0  0  0  0  0  0  0  0  0  0
   -1.3512   -2.0783   -2.2280 H   0  0  0  0  0  0  0  0  0  0  0  0
    1.1035   -2.1975   -2.1841 H   0  0  0  0  0  0  0  0  0  0  0  0
    5.1962   -1.6819   -3.1559 H   0  0  0  0  0  0  0  0  0  0  0  0
    8.9097    0.0181   -0.9518 H   0  0  0  0  0  0  0  0  0  0  0  0
    7.5369    0.7886   -0.1839 H   0  0  0  0  0  0  0  0  0  0  0  0
  1  2  1  0
  2  3  2  3
  3  4  1  0
  4  5  2  0
  5  6  1  0
  6  7  1  0
  7  8  2  0
  8  9  1  0
  9 10  2  0
 10 11  1  0
 11 12  1  0
 12 13  1  0
 13 14  1  0
 14 15  1  0
 15 16  1  0
 16 17  1  0
 17 18  1  0
 18 19  1  0
 10 20  1  0
 20 21  2  0
  6 22  2  0
 22 23  1  0
 23 24  2  0
 24 25  1  0
 25 26  1  0
 25 27  2  0
 24  4  1  0
 21  7  1  0
 19 14  1  0
  1 28  1  0
  1 29  1  0
  2 30  1  0
  5 31  1  0
  8 32  1  0
  9 33  1  0
 12 34  1  0
 12 35  1  0
 13 36  1  0
 13 37  1  0
 15 38  1  0
 15 39  1  0
 16 40  1  0
 16 41  1  0
 18 42  1  0
 18 43  1  0
 19 44  1  0
 19 45  1  0
 20 46  1  0
 21 47  1  0
 23 48  1  0
 26 49  1  0
 26 50  1  0
M  END
$$$$
