
     RDKit          3D

 33 35  0  0  0  0  0  0  0  0999 V2000
   -1.4775    1.6627    3.1804 O   0  0  0  0  0  0  0  0  0  0  0  0
   -2.0892    1.1099    2.2799 C   0  0  0  0  0  0  0  0  0  0  0  0
   -3.2533    0.3649    2.4440 N   0  0  0  0  0  0  0  0  0  0  0  0
   -3.6878   -0.1661    1.2403 C   0  0  0  0  0  0  0  0  0  0  0  0
   -4.7944   -0.9595    1.0264 C   0  0  0  0  0  0  0  0  0  0  0  0
   -5.0345   -1.3834   -0.2829 C   0  0  0  0  0  0  0  0  0  0  0  0
   -4.1734   -1.0077   -1.3311 C   0  0  0  0  0  0  0  0  0  0  0  0
   -3.0569   -0.2018   -1.0884 C   0  0  0  0  0  0  0  0  0  0  0  0
   -2.8241    0.2104    0.2123 C   0  0  0  0  0  0  0  0  0  0  0  0
   -1.7279    1.0826    0.7688 C   0  0  0  0  0  0  0  0  0  0  0  0
   -0.3509    0.5172    0.5624 C   0  0  0  0  0  0  0  0  0  0  0  0
    0.6071    1.1457   -0.1403 C   0  0  0  0  0  0  0  0  0  0  0  0
    1.9614    0.6379   -0.3790 C   0  0  0  0  0  0  0  0  0  0  0  0
    2.6510   -0.1498    0.5363 C   0  0  0  0  0  0  0  0  0  0  0  0
    3.9477   -0.5600    0.2286 C   0  0  0  0  0  0  0  0  0  0  0  0
    4.5332   -0.1611   -0.9740 C   0  0  0  0  0  0  0  0  0  0  0  0
    5.9059   -0.6027   -1.3743 C   0  0  0  0  0  0  0  0  0  0  0  0
    6.5495    0.3025   -2.1630 F   0  0  0  0  0  0  0  0  0  0  0  0
    6.7292   -0.8160   -0.3098 F   0  0  0  0  0  0  0  0  0  0  0  0
    3.7738    0.6361   -1.8180 C   0  0  0  0  0  0  0  0  0  0  0  0
    2.5119    1.0428   -1.5465 N   0  0  0  0  0  0  0  0  0  0  0  0
   -3.6925    0.2302    3.3419 H   0  0  0  0  0  0  0  0  0  0  0  0
   -5.4569   -1.2472    1.8343 H   0  0  0  0  0  0  0  0  0  0  0  0
   -5.8968   -2.0108   -0.4978 H   0  0  0  0  0  0  0  0  0  0  0  0
   -4.3806   -1.3490   -2.3433 H   0  0  0  0  0  0  0  0  0  0  0  0
   -2.3941    0.0875   -1.8984 H   0  0  0  0  0  0  0  0  0  0  0  0
   -1.8365    2.1020    0.3805 H   0  0  0  0  0  0  0  0  0  0  0  0
   -0.1579   -0.4524    1.0159 H   0  0  0  0  0  0  0  0  0  0  0  0
    0.4025    2.1002   -0.6199 H   0  0  0  0  0  0  0  0  0  0  0  0
    2.2047   -0.4349    1.4831 H   0  0  0  0  0  0  0  0  0  0  0  0
    4.4995   -1.1771    0.9348 H   0  0  0  0  0  0  0  0  0  0  0  0
    5.8408   -1.5411   -1.9337 H   0  0  0  0  0  0  0  0  0  0  0  0
    4.1671    0.9879   -2.7695 H   0  0  0  0  0  0  0  0  0  0  0  0
  1  2  2  0
  2  3  1  0
  3  4  1  0
  4  5  2  0
  5  6  1  0
  6  7  2  0
  7  8  1  0
  8  9  2  0
  9 10  1  0
 10 11  1  0
 11 12  2  3
 12 13  1  0
 13 14  2  0
 14 15  1  0
 15 16  2  0
 16 17  1  0
 17 18  1  0
 17 19  1  0
 16 20  1  0
 20 21  2  0
 10  2  1  0
 21 13  1  0
  9  4  1  0
  3 22  1  0
  5 23  1  0
  6 24  1  0
  7 25  1  0
  8 26  1  0
 10 27  1  0
 11 28  1  0
 12 29  1  0
 14 30  1  0
 15 31  1  0
 17 32  1  0
 20 33  1  0
M  END
$$$$
