MODEL        5USER    Run = 5USERUSER    Estimated Free Energy of Binding    = -12.10 kcal/mol  [=(1)+(2)+(3)-(4)]USERUSER    (1) Final Intermolecular Energy     = -15.08 kcal/molUSER        vdW + Hbond + desolv Energy     = -15.00 kcal/molUSER        Electrostatic Energy            =  -0.08 kcal/molUSER        Moving Ligand-Fixed Receptor    = -15.08 kcal/molUSER        Moving Ligand-Moving Receptor   =  +0.00 kcal/molUSER    (2) Final Total Internal Energy     =  -2.82 kcal/molUSER    (3) Torsional Free Energy           =  +2.98 kcal/molUSER    (4) Unbound System's Energy         =  -2.82 kcal/molUSERUSERREMARK SMILES O=C(NCCN1CCOCC1)c1ccc(-c2nc3ccccc3nc2-c2ccc(CN3CCC(n4c(O)nc5ccccc54)CC3)cc2)cc1REMARK SMILES IDX 16 1 17 2 18 3 19 4 20 5 21 6 22 7 23 8 24 9 25 10 15 11REMARK SMILES IDX 12 12 13 13 50 14 14 15 49 16 2 17 3 18 1 19 4 21 5 22 6 23REMARK SMILES IDX 7 24 11 25 8 26 10 27 9 28 26 29 27 30 48 31 28 32 47 33REMARK SMILES IDX 29 34 30 35 31 36 32 37 46 38 33 39 45 40 34 41 35 42 36 43REMARK SMILES IDX 44 44 38 45 43 46 39 47 42 48 40 49 41 50 37 51REMARK H PARENT 3 20 37 52USER                              x       y       z     vdW  Elec       q    TypeUSER                           _______ _______ _______ _____ _____    ______ ____ROOTATOM      1  C   UNL     1      34.226  45.232  15.354 -0.24 -0.07    +0.097 A  ATOM      2  N   UNL     1      34.225  46.006  14.231 -0.18 +0.22    -0.244 NA ATOM      3  C   UNL     1      35.381  46.601  13.887 -0.39 -0.07    +0.089 A  ATOM      4  C   UNL     1      35.434  47.386  12.741 -0.34 -0.02    +0.030 A  ATOM      5  C   UNL     1      36.617  48.009  12.340 -0.50 -0.00    +0.002 A  ATOM      6  C   UNL     1      37.767  47.847  13.101 -0.31 -0.00    +0.002 A  ATOM      7  C   UNL     1      37.724  47.064  14.255 -0.45 -0.01    +0.030 A  ATOM      8  C   UNL     1      36.551  46.440  14.661 -0.35 -0.05    +0.089 A  ATOM      9  N   UNL     1      36.551  45.696  15.782 -0.18 +0.13    -0.244 NA ATOM     10  C   UNL     1      35.380  45.100  16.144 -0.26 -0.06    +0.097 A  ENDROOTBRANCH   1  11ATOM     11  C   UNL     1      32.942  44.553  15.611 -0.32 -0.00    +0.002 A  ATOM     12  C   UNL     1      30.493  43.212  16.086 -0.29 -0.02    +0.039 A  ATOM     13  C   UNL     1      31.709  42.547  16.279 -0.23 -0.01    +0.014 A  ATOM     14  C   UNL     1      30.500  44.543  15.658 -0.34 -0.01    +0.014 A  ATOM     15  C   UNL     1      32.917  43.217  16.051 -0.32 -0.01    +0.011 A  ATOM     16  C   UNL     1      31.710  45.208  15.436 -0.40 -0.01    +0.011 A  BRANCH  12  17ATOM     17  C   UNL     1      29.175  42.542  16.283 -0.16 -0.10    +0.251 C  ATOM     18  N   UNL     1      29.193  41.166  16.410 -0.14 +0.07    -0.351 N  ATOM     19  O   UNL     1      28.153  43.212  16.348 -0.15 +0.10    -0.269 OA ATOM     20  H   UNL     1      30.070  40.733  16.667 +0.07 -0.03    +0.163 HD BRANCH  18  21ATOM     21  C   UNL     1      27.969  40.445  16.729 -0.25 +0.01    +0.131 C  BRANCH  21  22ATOM     22  C   UNL     1      28.207  39.357  17.792 -0.18 +0.04    +0.106 C  BRANCH  22  23ATOM     23  N   UNL     1      29.631  39.083  18.029 -0.18 -0.08    -0.297 NA ATOM     24  C   UNL     1      29.883  37.818  18.752 -0.36 +0.05    +0.113 C  ATOM     25  C   UNL     1      30.285  40.219  18.710 -0.18 +0.00    +0.113 C  ATOM     26  C   UNL     1      30.299  38.018  20.220 -0.34 +0.02    +0.175 C  ATOM     27  C   UNL     1      31.625  39.801  19.333 -0.34 +0.02    +0.175 C  ATOM     28  O   UNL     1      31.473  38.827  20.375 -0.56 -0.08    -0.379 OA ENDBRANCH  22  23ENDBRANCH  21  22ENDBRANCH  18  21ENDBRANCH  12  17ENDBRANCH   1  11BRANCH  10  29ATOM     29  C   UNL     1      35.459  44.343  17.406 -0.31 -0.00    +0.002 A  ATOM     30  C   UNL     1      35.313  44.967  18.656 -0.36 -0.00    +0.011 A  ATOM     31  C   UNL     1      35.691  42.957  17.391 -0.35 -0.00    +0.011 A  ATOM     32  C   UNL     1      35.342  44.228  19.841 -0.39 -0.00    +0.006 A  ATOM     33  C   UNL     1      35.728  42.214  18.575 -0.16 -0.00    +0.006 A  ATOM     34  C   UNL     1      35.536  42.841  19.811 -0.42 +0.00    -0.034 A  BRANCH  34  35ATOM     35  C   UNL     1      35.540  42.038  21.096 -0.31 +0.01    +0.120 C  BRANCH  35  36ATOM     36  N   UNL     1      36.888  41.866  21.664 -0.31 -0.01    -0.299 NA ATOM     37  C   UNL     1      37.655  43.121  21.719 -0.38 +0.00    +0.087 C  ATOM     38  C   UNL     1      36.874  41.131  22.930 -0.17 +0.00    +0.087 C  ATOM     39  C   UNL     1      38.236  43.450  23.095 -0.34 +0.00    +0.041 C  ATOM     40  C   UNL     1      36.433  41.973  24.125 -0.39 +0.00    +0.041 C  ATOM     41  C   UNL     1      37.131  43.344  24.152 -0.35 +0.01    +0.095 C  BRANCH  41  42ATOM     42  N   UNL     1      37.585  43.724  25.481 -0.12 +0.00    -0.291 N  ATOM     43  C   UNL     1      37.454  44.954  26.064 -0.15 -0.01    +0.295 A  ATOM     44  C   UNL     1      38.228  42.914  26.395 -0.22 -0.00    +0.072 A  ATOM     45  N   UNL     1      37.946  45.011  27.270 -0.19 +0.02    -0.195 NA ATOM     46  C   UNL     1      38.641  41.575  26.377 -0.24 -0.00    +0.029 A  ATOM     47  C   UNL     1      38.434  43.746  27.497 -0.23 -0.01    +0.092 A  ATOM     48  C   UNL     1      39.278  41.085  27.523 -0.36 -0.00    +0.002 A  ATOM     49  C   UNL     1      39.074  43.235  28.637 -0.11 -0.00    +0.031 A  ATOM     50  C   UNL     1      39.491  41.897  28.637 -0.14 +0.00    +0.002 A  BRANCH  43  51ATOM     51  O   UNL     1      36.904  46.002  25.486 -0.71 -0.02    -0.480 OA ATOM     52  H   UNL     1      36.022  46.008  25.903 -0.43 -0.11    +0.296 HD ENDBRANCH  43  51ENDBRANCH  41  42ENDBRANCH  35  36ENDBRANCH  34  35ENDBRANCH  10  29TORSDOF 10TERENDMDL