MODEL        7USER    Run = 7USERUSER    Estimated Free Energy of Binding    = -14.37 kcal/mol  [=(1)+(2)+(3)-(4)]USERUSER    (1) Final Intermolecular Energy     = -16.45 kcal/molUSER        vdW + Hbond + desolv Energy     = -16.48 kcal/molUSER        Electrostatic Energy            =  +0.03 kcal/molUSER        Moving Ligand-Fixed Receptor    = -16.45 kcal/molUSER        Moving Ligand-Moving Receptor   =  +0.00 kcal/molUSER    (2) Final Total Internal Energy     =  -2.49 kcal/molUSER    (3) Torsional Free Energy           =  +2.09 kcal/molUSER    (4) Unbound System's Energy         =  -2.49 kcal/molUSERUSERREMARK SMILES O=C(c1ccc(-c2nc3ccccc3nc2-c2ccc(CN3CCC(n4c(O)nc5ccccc54)CC3)cc2)cc1)N1CCS(=O)(=O)CC1REMARK SMILES IDX 17 1 18 2 19 3 20 4 38 5 39 6 16 7 7 8 8 9 9 10 15 11 10 12REMARK SMILES IDX 14 13 11 14 13 15 12 16 6 17 3 18 4 19 41 20 5 21 40 22 2 23REMARK SMILES IDX 42 24 43 25 49 26 44 27 48 28 45 29 1 30 46 31 47 32 21 33REMARK SMILES IDX 22 34 23 35 37 36 24 37 36 38 25 39 26 40 27 41 35 42 29 43REMARK SMILES IDX 34 44 30 45 33 46 31 47 32 48 28 49REMARK H PARENT 28 50USER                              x       y       z     vdW  Elec       q    TypeUSER                           _______ _______ _______ _____ _____    ______ ____ROOTATOM      1  C   UNL     1      34.414  43.154  16.644 -0.39 -0.00    +0.002 A  ATOM      2  C   UNL     1      35.761  42.803  16.436 -0.44 -0.00    +0.011 A  ATOM      3  C   UNL     1      36.596  43.560  15.609 -0.36 -0.00    +0.006 A  ATOM      4  C   UNL     1      36.110  44.699  14.959 -0.34 +0.02    -0.034 A  ATOM      5  C   UNL     1      34.771  45.053  15.145 -0.25 -0.00    +0.006 A  ATOM      6  C   UNL     1      33.933  44.283  15.963 -0.31 -0.01    +0.011 A  ENDROOTBRANCH   1   7ATOM      7  C   UNL     1      33.561  42.323  17.520 -0.32 -0.03    +0.097 A  ATOM      8  C   UNL     1      33.748  42.115  18.896 -0.34 -0.01    +0.097 A  ATOM      9  N   UNL     1      32.886  41.344  19.619 -0.29 -0.04    -0.244 NA ATOM     10  C   UNL     1      31.858  40.774  18.966 -0.31 +0.00    +0.089 A  ATOM     11  N   UNL     1      32.514  41.735  16.867 +0.07 +0.13    -0.244 NA ATOM     12  C   UNL     1      30.967  39.970  19.663 -0.17 +0.00    +0.030 A  ATOM     13  C   UNL     1      31.670  40.973  17.583 -0.30 -0.02    +0.089 A  ATOM     14  C   UNL     1      29.885  39.362  19.022 -0.30 +0.00    +0.002 A  ATOM     15  C   UNL     1      30.588  40.368  16.954 -0.31 -0.00    +0.030 A  ATOM     16  C   UNL     1      29.692  39.565  17.661 -0.35 +0.00    +0.002 A  BRANCH   8  17ATOM     17  C   UNL     1      34.851  42.650  19.714 -0.44 -0.00    +0.002 A  ATOM     18  C   UNL     1      37.025  43.589  21.223 -0.39 +0.00    +0.040 A  ATOM     19  C   UNL     1      36.651  42.247  21.317 -0.49 +0.00    +0.014 A  ATOM     20  C   UNL     1      36.320  44.475  20.406 -0.23 -0.00    +0.014 A  ATOM     21  C   UNL     1      35.576  41.785  20.557 -0.33 -0.00    +0.011 A  ATOM     22  C   UNL     1      35.244  44.000  19.648 -0.40 -0.00    +0.011 A  BRANCH  18  23ATOM     23  C   UNL     1      38.177  44.059  22.013 -0.25 +0.01    +0.253 C  ATOM     24  N   UNL     1      38.143  43.876  23.399 -0.12 -0.02    -0.337 N  ATOM     25  C   UNL     1      39.227  44.461  24.195 -0.17 +0.01    +0.136 C  ATOM     26  C   UNL     1      36.973  43.337  24.108 -0.33 +0.01    +0.136 C  ATOM     27  C   UNL     1      38.694  45.385  25.265 -0.18 +0.01    +0.158 C  ATOM     28  C   UNL     1      37.252  42.996  25.556 -0.29 -0.01    +0.158 C  ATOM     29  S   UNL     1      37.739  44.457  26.445 -0.33 -0.01    +0.153 S  ATOM     30  O   UNL     1      39.088  44.622  21.414 -0.21 -0.01    -0.269 OA ATOM     31  O   UNL     1      38.632  44.038  27.509 -0.18 +0.02    -0.229 OA ATOM     32  O   UNL     1      36.539  45.217  26.740 -0.28 +0.05    -0.229 OA ENDBRANCH  18  23ENDBRANCH   8  17ENDBRANCH   1   7BRANCH   4  33ATOM     33  C   UNL     1      37.010  45.534  14.072 -0.40 -0.05    +0.120 C  BRANCH  33  34ATOM     34  N   UNL     1      36.788  46.983  14.228 -0.21 +0.17    -0.299 NA ATOM     35  C   UNL     1      36.527  47.392  15.616 -0.35 -0.08    +0.087 C  ATOM     36  C   UNL     1      37.887  47.768  13.652 -0.52 -0.03    +0.087 C  ATOM     37  C   UNL     1      37.752  47.306  16.528 -0.24 -0.02    +0.041 C  ATOM     38  C   UNL     1      39.181  47.704  14.465 -0.52 -0.01    +0.041 C  ATOM     39  C   UNL     1      38.926  48.089  15.927 -0.47 -0.04    +0.095 C  BRANCH  39  40ATOM     40  N   UNL     1      40.123  48.000  16.753 -0.29 +0.07    -0.291 N  ATOM     41  C   UNL     1      41.158  48.892  16.790 -0.10 -0.02    +0.295 A  ATOM     42  C   UNL     1      40.430  46.995  17.649 -0.45 -0.01    +0.072 A  ATOM     43  N   UNL     1      42.103  48.558  17.627 -0.51 -0.02    -0.195 NA ATOM     44  C   UNL     1      39.774  45.822  18.053 -0.43 -0.00    +0.029 A  ATOM     45  C   UNL     1      41.669  47.377  18.174 -0.44 -0.00    +0.092 A  ATOM     46  C   UNL     1      40.411  45.033  19.020 -0.44 +0.00    +0.002 A  ATOM     47  C   UNL     1      42.289  46.571  19.142 -0.46 +0.00    +0.031 A  ATOM     48  C   UNL     1      41.646  45.399  19.557 -0.35 +0.00    +0.002 A  BRANCH  41  49ATOM     49  O   UNL     1      41.232  49.999  16.080 -0.73 +0.08    -0.480 OA ATOM     50  H   UNL     1      41.424  50.655  16.777 -0.27 -0.07    +0.296 HD ENDBRANCH  41  49ENDBRANCH  39  40ENDBRANCH  33  34ENDBRANCH   4  33TORSDOF 7TERENDMDL