REMARK SMILES O=C(c1ccc(-c2nc3ccccc3nc2-c2ccc(CN3CCC(n4c(O)nc5ccccc54)CC3)cc2)cc1)N1CC(O)C1
REMARK SMILES IDX 17 1 18 2 19 3 20 4 38 5 39 6 16 7 7 8 8 9 9 10 15 11 10 12
REMARK SMILES IDX 14 13 11 14 13 15 12 16 6 17 3 18 4 19 41 20 5 21 40 22 2 23
REMARK SMILES IDX 42 24 43 25 46 26 44 27 1 28 45 29 21 31 22 32 23 33 37 34
REMARK SMILES IDX 24 35 36 36 25 37 26 38 27 39 35 40 29 41 34 42 30 43 33 44
REMARK SMILES IDX 31 45 32 46 28 47
REMARK H PARENT 45 30 28 48
ROOT
ATOM      1  C   UNL     1       1.235  -1.849   0.495  1.00  0.00     0.002 A 
ATOM      2  C   UNL     1       0.521  -1.775   1.703  1.00  0.00     0.011 A 
ATOM      3  C   UNL     1      -0.092  -0.587   2.115  1.00  0.00     0.006 A 
ATOM      4  C   UNL     1      -0.014   0.564   1.324  1.00  0.00    -0.034 A 
ATOM      5  C   UNL     1       0.675   0.493   0.105  1.00  0.00     0.006 A 
ATOM      6  C   UNL     1       1.279  -0.698  -0.308  1.00  0.00     0.011 A 
ENDROOT
BRANCH   1   7
ATOM      7  C   UNL     1       1.912  -3.101   0.107  1.00  0.00     0.097 A 
ATOM      8  C   UNL     1       3.263  -3.201  -0.269  1.00  0.00     0.097 A 
ATOM      9  N   UNL     1       3.803  -4.394  -0.645  1.00  0.00    -0.244 NA
ATOM     10  C   UNL     1       3.002  -5.474  -0.615  1.00  0.00     0.089 A 
ATOM     11  N   UNL     1       1.107  -4.200   0.140  1.00  0.00    -0.244 NA
ATOM     12  C   UNL     1       3.514  -6.717  -0.974  1.00  0.00     0.030 A 
ATOM     13  C   UNL     1       1.648  -5.377  -0.222  1.00  0.00     0.089 A 
ATOM     14  C   UNL     1       2.719  -7.863  -0.956  1.00  0.00     0.002 A 
ATOM     15  C   UNL     1       0.863  -6.523  -0.212  1.00  0.00     0.030 A 
ATOM     16  C   UNL     1       1.385  -7.766  -0.576  1.00  0.00     0.002 A 
BRANCH   8  17
ATOM     17  C   UNL     1       4.218  -2.079  -0.295  1.00  0.00     0.002 A 
ATOM     18  C   UNL     1       5.965   0.135  -0.416  1.00  0.00     0.040 A 
ATOM     19  C   UNL     1       5.295  -0.163   0.773  1.00  0.00     0.014 A 
ATOM     20  C   UNL     1       5.813  -0.700  -1.525  1.00  0.00     0.014 A 
ATOM     21  C   UNL     1       4.433  -1.263   0.832  1.00  0.00     0.011 A 
ATOM     22  C   UNL     1       4.946  -1.794  -1.464  1.00  0.00     0.011 A 
BRANCH  18  23
ATOM     23  C   UNL     1       6.861   1.314  -0.526  1.00  0.00     0.254 C 
ATOM     24  N   UNL     1       6.468   2.466   0.124  1.00  0.00    -0.333 N 
ATOM     25  C   UNL     1       7.067   3.785  -0.059  1.00  0.00     0.153 C 
ATOM     26  C   UNL     1       5.116   3.003   0.277  1.00  0.00     0.153 C 
ATOM     27  C   UNL     1       5.648   4.316  -0.324  1.00  0.00     0.153 C 
ATOM     28  O   UNL     1       7.888   1.236  -1.192  1.00  0.00    -0.269 OA
BRANCH  27  29
ATOM     29  O   UNL     1       5.264   5.532   0.354  1.00  0.00    -0.389 OA
ATOM     30  H   UNL     1       5.770   6.236  -0.086  1.00  0.00     0.211 HD
ENDBRANCH  27  29
ENDBRANCH  18  23
ENDBRANCH   8  17
ENDBRANCH   1   7
BRANCH   4  31
ATOM     31  C   UNL     1      -0.651   1.864   1.769  1.00  0.00     0.120 C 
BRANCH  31  32
ATOM     32  N   UNL     1      -2.030   2.080   1.337  1.00  0.00    -0.299 NA
ATOM     33  C   UNL     1      -2.236   2.206  -0.097  1.00  0.00     0.087 C 
ATOM     34  C   UNL     1      -3.059   1.377   2.094  1.00  0.00     0.087 C 
ATOM     35  C   UNL     1      -3.696   2.517  -0.395  1.00  0.00     0.041 C 
ATOM     36  C   UNL     1      -4.035   0.568   1.239  1.00  0.00     0.041 C 
ATOM     37  C   UNL     1      -4.584   1.341   0.028  1.00  0.00     0.095 C 
BRANCH  37  38
ATOM     38  N   UNL     1      -5.982   1.736   0.149  1.00  0.00    -0.291 N 
ATOM     39  C   UNL     1      -6.537   2.510   1.129  1.00  0.00     0.295 A 
ATOM     40  C   UNL     1      -6.997   1.433  -0.738  1.00  0.00     0.072 A 
ATOM     41  N   UNL     1      -7.814   2.725   0.964  1.00  0.00    -0.195 NA
ATOM     42  C   UNL     1      -7.053   0.696  -1.929  1.00  0.00     0.029 A 
ATOM     43  C   UNL     1      -8.121   2.063  -0.198  1.00  0.00     0.092 A 
ATOM     44  C   UNL     1      -8.293   0.607  -2.571  1.00  0.00     0.002 A 
ATOM     45  C   UNL     1      -9.354   1.961  -0.859  1.00  0.00     0.031 A 
ATOM     46  C   UNL     1      -9.428   1.228  -2.049  1.00  0.00     0.002 A 
BRANCH  39  47
ATOM     47  O   UNL     1      -5.883   3.013   2.153  1.00  0.00    -0.480 OA
ATOM     48  H   UNL     1      -6.587   3.520   2.599  1.00  0.00     0.296 HD
ENDBRANCH  39  47
ENDBRANCH  37  38
ENDBRANCH  31  32
ENDBRANCH   4  31
TORSDOF 8
