REMARK SMILES O=C(c1ccc(-c2nc3ccccc3nc2-c2ccc(CN3CCC(n4c(O)nc5ccccc54)CC3)cc2)cc1)N1CCS(=O)(=O)CC1
REMARK SMILES IDX 17 1 18 2 19 3 20 4 38 5 39 6 16 7 7 8 8 9 9 10 15 11 10 12
REMARK SMILES IDX 14 13 11 14 13 15 12 16 6 17 3 18 4 19 41 20 5 21 40 22 2 23
REMARK SMILES IDX 42 24 43 25 49 26 44 27 48 28 45 29 1 30 46 31 47 32 21 33
REMARK SMILES IDX 22 34 23 35 37 36 24 37 36 38 25 39 26 40 27 41 35 42 29 43
REMARK SMILES IDX 34 44 30 45 33 46 31 47 32 48 28 49
REMARK H PARENT 28 50
ROOT
ATOM      1  C   UNL     1      -0.427   2.698   1.040  1.00  0.00     0.002 A 
ATOM      2  C   UNL     1       0.822   2.904   0.425  1.00  0.00     0.011 A 
ATOM      3  C   UNL     1       1.940   2.134   0.760  1.00  0.00     0.006 A 
ATOM      4  C   UNL     1       1.846   1.127   1.726  1.00  0.00    -0.034 A 
ATOM      5  C   UNL     1       0.615   0.919   2.355  1.00  0.00     0.006 A 
ATOM      6  C   UNL     1      -0.499   1.702   2.027  1.00  0.00     0.011 A 
ENDROOT
BRANCH   1   7
ATOM      7  C   UNL     1      -1.584   3.538   0.663  1.00  0.00     0.097 A 
ATOM      8  C   UNL     1      -2.897   3.087   0.454  1.00  0.00     0.097 A 
ATOM      9  N   UNL     1      -3.899   3.953   0.128  1.00  0.00    -0.244 NA
ATOM     10  C   UNL     1      -3.585   5.253  -0.003  1.00  0.00     0.089 A 
ATOM     11  N   UNL     1      -1.276   4.862   0.523  1.00  0.00    -0.244 NA
ATOM     12  C   UNL     1      -4.573   6.165  -0.348  1.00  0.00     0.030 A 
ATOM     13  C   UNL     1      -2.266   5.711   0.198  1.00  0.00     0.089 A 
ATOM     14  C   UNL     1      -4.288   7.524  -0.491  1.00  0.00     0.002 A 
ATOM     15  C   UNL     1      -1.992   7.066   0.058  1.00  0.00     0.030 A 
ATOM     16  C   UNL     1      -2.991   7.978  -0.284  1.00  0.00     0.002 A 
BRANCH   8  17
ATOM     17  C   UNL     1      -3.358   1.689   0.529  1.00  0.00     0.002 A 
ATOM     18  C   UNL     1      -4.344  -0.937   0.647  1.00  0.00     0.040 A 
ATOM     19  C   UNL     1      -4.902   0.044   1.468  1.00  0.00     0.014 A 
ATOM     20  C   UNL     1      -3.289  -0.636  -0.216  1.00  0.00     0.014 A 
ATOM     21  C   UNL     1      -4.414   1.349   1.398  1.00  0.00     0.011 A 
ATOM     22  C   UNL     1      -2.808   0.676  -0.278  1.00  0.00     0.011 A 
BRANCH  18  23
ATOM     23  C   UNL     1      -4.885  -2.307   0.714  1.00  0.00     0.253 C 
ATOM     24  N   UNL     1      -5.877  -2.668  -0.203  1.00  0.00    -0.337 N 
ATOM     25  C   UNL     1      -6.506  -3.984  -0.051  1.00  0.00     0.136 C 
ATOM     26  C   UNL     1      -6.476  -1.718  -1.152  1.00  0.00     0.136 C 
ATOM     27  C   UNL     1      -8.007  -3.871   0.078  1.00  0.00     0.158 C 
ATOM     28  C   UNL     1      -7.338  -2.381  -2.204  1.00  0.00     0.158 C 
ATOM     29  S   UNL     1      -8.697  -3.231  -1.433  1.00  0.00     0.153 S 
ATOM     30  O   UNL     1      -4.461  -3.045   1.598  1.00  0.00    -0.269 OA
ATOM     31  O   UNL     1      -9.037  -4.359  -2.279  1.00  0.00    -0.229 OA
ATOM     32  O   UNL     1      -9.696  -2.241  -1.079  1.00  0.00    -0.229 OA
ENDBRANCH  18  23
ENDBRANCH   8  17
ENDBRANCH   1   7
BRANCH   4  33
ATOM     33  C   UNL     1       3.047   0.278   2.087  1.00  0.00     0.120 C 
BRANCH  33  34
ATOM     34  N   UNL     1       2.963  -1.094   1.554  1.00  0.00    -0.299 NA
ATOM     35  C   UNL     1       3.098  -1.166   0.092  1.00  0.00     0.087 C 
ATOM     36  C   UNL     1       3.921  -1.993   2.210  1.00  0.00     0.087 C 
ATOM     37  C   UNL     1       4.510  -0.871  -0.416  1.00  0.00     0.041 C 
ATOM     38  C   UNL     1       5.375  -1.742   1.809  1.00  0.00     0.041 C 
ATOM     39  C   UNL     1       5.533  -1.774   0.284  1.00  0.00     0.095 C 
BRANCH  39  40
ATOM     40  N   UNL     1       6.896  -1.495  -0.150  1.00  0.00    -0.291 N 
ATOM     41  C   UNL     1       7.605  -0.347   0.072  1.00  0.00     0.295 A 
ATOM     42  C   UNL     1       7.719  -2.340  -0.868  1.00  0.00     0.072 A 
ATOM     43  N   UNL     1       8.809  -0.374  -0.433  1.00  0.00    -0.195 NA
ATOM     44  C   UNL     1       7.566  -3.636  -1.383  1.00  0.00     0.029 A 
ATOM     45  C   UNL     1       8.901  -1.609  -1.024  1.00  0.00     0.092 A 
ATOM     46  C   UNL     1       8.657  -4.186  -2.068  1.00  0.00     0.002 A 
ATOM     47  C   UNL     1       9.982  -2.179  -1.715  1.00  0.00     0.031 A 
ATOM     48  C   UNL     1       9.846  -3.473  -2.232  1.00  0.00     0.002 A 
BRANCH  41  49
ATOM     49  O   UNL     1       7.164   0.701   0.736  1.00  0.00    -0.480 OA
ATOM     50  H   UNL     1       7.944   1.286   0.700  1.00  0.00     0.296 HD
ENDBRANCH  41  49
ENDBRANCH  39  40
ENDBRANCH  33  34
ENDBRANCH   4  33
TORSDOF 7
