REMARK SMILES O=C(NCCN1CCOCC1)c1ccc(-c2nc3ccccc3nc2-c2ccc(CN3CCC(n4c(O)nc5ccccc54)CC3)cc2)cc1
REMARK SMILES IDX 16 1 17 2 18 3 19 4 20 5 21 6 22 7 23 8 24 9 25 10 15 11
REMARK SMILES IDX 12 12 13 13 50 14 14 15 49 16 2 17 3 18 1 19 4 21 5 22 6 23
REMARK SMILES IDX 7 24 11 25 8 26 10 27 9 28 26 29 27 30 48 31 28 32 47 33
REMARK SMILES IDX 29 34 30 35 31 36 32 37 46 38 33 39 45 40 34 41 35 42 36 43
REMARK SMILES IDX 44 44 38 45 43 46 39 47 42 48 40 49 41 50 37 51
REMARK H PARENT 3 20 37 52
ROOT
ATOM      1  C   UNL     1       1.539  -4.491  -0.066  1.00  0.00     0.097 A 
ATOM      2  N   UNL     1       2.484  -5.410  -0.414  1.00  0.00    -0.244 NA
ATOM      3  C   UNL     1       2.114  -6.703  -0.433  1.00  0.00     0.089 A 
ATOM      4  C   UNL     1       3.038  -7.676  -0.798  1.00  0.00     0.030 A 
ATOM      5  C   UNL     1       2.691  -9.027  -0.845  1.00  0.00     0.002 A 
ATOM      6  C   UNL     1       1.398  -9.413  -0.518  1.00  0.00     0.002 A 
ATOM      7  C   UNL     1       0.464  -8.445  -0.147  1.00  0.00     0.030 A 
ATOM      8  C   UNL     1       0.800  -7.098  -0.098  1.00  0.00     0.089 A 
ATOM      9  N   UNL     1      -0.129  -6.197   0.268  1.00  0.00    -0.244 NA
ATOM     10  C   UNL     1       0.242  -4.886   0.302  1.00  0.00     0.097 A 
ENDROOT
BRANCH   1  11
ATOM     11  C   UNL     1       2.007  -3.094  -0.151  1.00  0.00     0.002 A 
ATOM     12  C   UNL     1       2.917  -0.415  -0.271  1.00  0.00     0.039 A 
ATOM     13  C   UNL     1       3.632  -1.369   0.461  1.00  0.00     0.014 A 
ATOM     14  C   UNL     1       1.752  -0.798  -0.942  1.00  0.00     0.014 A 
ATOM     15  C   UNL     1       3.183  -2.695   0.510  1.00  0.00     0.011 A 
ATOM     16  C   UNL     1       1.310  -2.124  -0.892  1.00  0.00     0.011 A 
BRANCH  12  17
ATOM     17  C   UNL     1       3.329   1.017  -0.335  1.00  0.00     0.251 C 
ATOM     18  N   UNL     1       4.669   1.286  -0.129  1.00  0.00    -0.351 N 
ATOM     19  O   UNL     1       2.498   1.881  -0.585  1.00  0.00    -0.269 OA
ATOM     20  H   UNL     1       5.321   0.523  -0.252  1.00  0.00     0.163 HD
BRANCH  18  21
ATOM     21  C   UNL     1       5.178   2.639  -0.297  1.00  0.00     0.131 C 
BRANCH  21  22
ATOM     22  C   UNL     1       6.482   2.861   0.489  1.00  0.00     0.106 C 
BRANCH  22  23
ATOM     23  N   UNL     1       6.983   4.239   0.399  1.00  0.00    -0.297 NA
ATOM     24  C   UNL     1       7.573   4.576  -0.914  1.00  0.00     0.113 C 
ATOM     25  C   UNL     1       7.932   4.532   1.493  1.00  0.00     0.113 C 
ATOM     26  C   UNL     1       9.109   4.661  -0.899  1.00  0.00     0.175 C 
ATOM     27  C   UNL     1       8.770   5.782   1.187  1.00  0.00     0.175 C 
ATOM     28  O   UNL     1       9.618   5.615   0.043  1.00  0.00    -0.379 OA
ENDBRANCH  22  23
ENDBRANCH  21  22
ENDBRANCH  18  21
ENDBRANCH  12  17
ENDBRANCH   1  11
BRANCH  10  29
ATOM     29  C   UNL     1      -0.823  -3.974   0.756  1.00  0.00     0.002 A 
ATOM     30  C   UNL     1      -0.616  -3.051   1.795  1.00  0.00     0.011 A 
ATOM     31  C   UNL     1      -2.092  -4.008   0.155  1.00  0.00     0.011 A 
ATOM     32  C   UNL     1      -1.621  -2.160   2.181  1.00  0.00     0.006 A 
ATOM     33  C   UNL     1      -3.103  -3.123   0.543  1.00  0.00     0.006 A 
ATOM     34  C   UNL     1      -2.870  -2.178   1.549  1.00  0.00    -0.034 A 
BRANCH  34  35
ATOM     35  C   UNL     1      -3.949  -1.193   1.951  1.00  0.00     0.120 C 
BRANCH  35  36
ATOM     36  N   UNL     1      -3.538   0.211   1.786  1.00  0.00    -0.299 NA
ATOM     37  C   UNL     1      -3.267   0.572   0.385  1.00  0.00     0.087 C 
ATOM     38  C   UNL     1      -4.438   1.143   2.468  1.00  0.00     0.087 C 
ATOM     39  C   UNL     1      -4.020   1.808  -0.110  1.00  0.00     0.041 C 
ATOM     40  C   UNL     1      -5.745   1.395   1.719  1.00  0.00     0.041 C 
ATOM     41  C   UNL     1      -5.509   1.663   0.222  1.00  0.00     0.095 C 
BRANCH  41  42
ATOM     42  N   UNL     1      -6.310   2.764  -0.291  1.00  0.00    -0.291 N 
ATOM     43  C   UNL     1      -6.209   4.079   0.070  1.00  0.00     0.295 A 
ATOM     44  C   UNL     1      -7.314   2.683  -1.234  1.00  0.00     0.072 A 
ATOM     45  N   UNL     1      -7.049   4.854  -0.558  1.00  0.00    -0.195 NA
ATOM     46  C   UNL     1      -7.875   1.623  -1.960  1.00  0.00     0.029 A 
ATOM     47  C   UNL     1      -7.749   4.002  -1.378  1.00  0.00     0.092 A 
ATOM     48  C   UNL     1      -8.905   1.934  -2.856  1.00  0.00     0.002 A 
ATOM     49  C   UNL     1      -8.783   4.292  -2.282  1.00  0.00     0.031 A 
ATOM     50  C   UNL     1      -9.353   3.245  -3.018  1.00  0.00     0.002 A 
BRANCH  43  51
ATOM     51  O   UNL     1      -5.367   4.547   0.968  1.00  0.00    -0.480 OA
ATOM     52  H   UNL     1      -5.576   5.499   0.947  1.00  0.00     0.296 HD
ENDBRANCH  43  51
ENDBRANCH  41  42
ENDBRANCH  35  36
ENDBRANCH  34  35
ENDBRANCH  10  29
TORSDOF 10
