MODEL        8USER    Run = 8USERUSER    Estimated Free Energy of Binding    = -12.74 kcal/mol  [=(1)+(2)+(3)-(4)]USERUSER    (1) Final Intermolecular Energy     = -15.13 kcal/molUSER        vdW + Hbond + desolv Energy     = -14.86 kcal/molUSER        Electrostatic Energy            =  -0.27 kcal/molUSER        Moving Ligand-Fixed Receptor    = -15.13 kcal/molUSER        Moving Ligand-Moving Receptor   =  +0.00 kcal/molUSER    (2) Final Total Internal Energy     =  -2.47 kcal/molUSER    (3) Torsional Free Energy           =  +2.39 kcal/molUSER    (4) Unbound System's Energy         =  -2.47 kcal/molUSERUSERREMARK SMILES O=C(c1ccc(-c2nc3ccccc3nc2-c2ccc(CN3CCC(n4c(O)nc5ccccc54)CC3)cc2)cc1)N1CC(O)C1REMARK SMILES IDX 17 1 18 2 19 3 20 4 38 5 39 6 16 7 7 8 8 9 9 10 15 11 10 12REMARK SMILES IDX 14 13 11 14 13 15 12 16 6 17 3 18 4 19 41 20 5 21 40 22 2 23REMARK SMILES IDX 42 24 43 25 46 26 44 27 1 28 45 29 21 31 22 32 23 33 37 34REMARK SMILES IDX 24 35 36 36 25 37 26 38 27 39 35 40 29 41 34 42 30 43 33 44REMARK SMILES IDX 31 45 32 46 28 47REMARK H PARENT 45 30 28 48USER                              x       y       z     vdW  Elec       q    TypeUSER                           _______ _______ _______ _____ _____    ______ ____ROOTATOM      1  C   UNL     1      39.634  44.234  22.537 -0.25 +0.00    +0.002 A  ATOM      2  C   UNL     1      40.674  43.552  21.884 -0.26 +0.00    +0.011 A  ATOM      3  C   UNL     1      41.453  44.178  20.905 -0.34 +0.00    +0.006 A  ATOM      4  C   UNL     1      41.218  45.511  20.555 -0.34 -0.00    -0.034 A  ATOM      5  C   UNL     1      40.199  46.208  21.220 +0.11 +0.00    +0.006 A  ATOM      6  C   UNL     1      39.428  45.583  22.203 -0.31 +0.00    +0.011 A  ENDROOTBRANCH   1   7ATOM      7  C   UNL     1      38.797  43.537  23.531 -0.21 +0.01    +0.097 A  ATOM      8  C   UNL     1      37.545  42.956  23.262 -0.32 +0.01    +0.097 A  ATOM      9  N   UNL     1      36.820  42.357  24.248 -0.27 -0.01    -0.244 NA ATOM     10  C   UNL     1      37.360  42.318  25.479 -0.30 -0.00    +0.089 A  ATOM     11  N   UNL     1      39.341  43.490  24.780 -0.09 -0.01    -0.244 NA ATOM     12  C   UNL     1      36.664  41.702  26.514 -0.44 -0.01    +0.030 A  ATOM     13  C   UNL     1      38.626  42.888  25.747 -0.19 -0.00    +0.089 A  ATOM     14  C   UNL     1      37.188  41.638  27.805 -0.44 -0.00    +0.002 A  ATOM     15  C   UNL     1      39.137  42.823  27.037 -0.24 -0.00    +0.030 A  ATOM     16  C   UNL     1      38.430  42.204  28.070 -0.38 -0.00    +0.002 A  BRANCH   8  17ATOM     17  C   UNL     1      36.896  42.921  21.939 -0.44 +0.00    +0.002 A  ATOM     18  C   UNL     1      35.769  42.848  19.352 -0.38 -0.00    +0.040 A  ATOM     19  C   UNL     1      35.663  41.737  20.193 -0.22 -0.00    +0.014 A  ATOM     20  C   UNL     1      36.382  44.013  19.818 -0.39 -0.00    +0.014 A  ATOM     21  C   UNL     1      36.219  41.777  21.476 -0.54 +0.00    +0.011 A  ATOM     22  C   UNL     1      36.941  44.047  21.098 -0.40 +0.00    +0.011 A  BRANCH  18  23ATOM     23  C   UNL     1      35.222  42.829  17.972 -0.25 -0.07    +0.254 C  ATOM     24  N   UNL     1      34.605  43.980  17.524 -0.07 +0.12    -0.333 N  ATOM     25  C   UNL     1      33.796  44.087  16.314 -0.28 -0.08    +0.153 C  ATOM     26  C   UNL     1      33.761  44.906  18.278 -0.34 -0.06    +0.153 C  ATOM     27  C   UNL     1      32.692  44.703  17.190 -0.26 -0.06    +0.153 C  ATOM     28  O   UNL     1      35.314  41.810  17.296 -0.36 +0.12    -0.269 OA BRANCH  27  29ATOM     29  O   UNL     1      32.049  45.897  16.694 -0.39 +0.20    -0.389 OA ATOM     30  H   UNL     1      32.768  46.434  16.321 -0.35 -0.38    +0.211 HD ENDBRANCH  27  29ENDBRANCH  18  23ENDBRANCH   8  17ENDBRANCH   1   7BRANCH   4  31ATOM     31  C   UNL     1      42.037  46.194  19.480 -0.39 +0.02    +0.120 C  BRANCH  31  32ATOM     32  N   UNL     1      41.337  46.483  18.231 -0.29 +0.01    -0.299 NA ATOM     33  C   UNL     1      41.341  45.421  17.237 -0.12 +0.00    +0.087 C  ATOM     34  C   UNL     1      40.119  47.277  18.345 +0.07 -0.01    +0.087 C  ATOM     35  C   UNL     1      40.659  45.891  15.960 -0.17 -0.00    +0.041 C  ATOM     36  C   UNL     1      38.897  46.668  17.656 -0.37 -0.01    +0.041 C  ATOM     37  C   UNL     1      39.175  46.173  16.227 -0.40 -0.02    +0.095 C  BRANCH  37  38ATOM     38  N   UNL     1      38.585  46.996  15.178 -0.21 +0.11    -0.291 N  ATOM     39  C   UNL     1      38.773  48.335  14.980 -0.28 -0.14    +0.295 A  ATOM     40  C   UNL     1      37.759  46.557  14.162 -0.39 -0.03    +0.072 A  ATOM     41  N   UNL     1      38.137  48.803  13.939 -0.41 +0.09    -0.195 NA ATOM     42  C   UNL     1      37.224  45.307  13.821 -0.42 -0.01    +0.029 A  ATOM     43  C   UNL     1      37.499  47.708  13.413 -0.48 -0.03    +0.092 A  ATOM     44  C   UNL     1      36.405  45.246  12.688 -0.42 -0.00    +0.002 A  ATOM     45  C   UNL     1      36.676  47.623  12.280 -0.60 -0.01    +0.031 A  ATOM     46  C   UNL     1      36.133  46.383  11.926 -0.65 -0.00    +0.002 A  BRANCH  39  47ATOM     47  O   UNL     1      39.516  49.112  15.736 -0.20 +0.24    -0.480 OA ATOM     48  H   UNL     1      39.241  49.997  15.430 -0.20 -0.24    +0.296 HD ENDBRANCH  39  47ENDBRANCH  37  38ENDBRANCH  31  32ENDBRANCH   4  31TORSDOF 8TERENDMDL