MODEL        4USER    Run = 4USERUSER    Estimated Free Energy of Binding    = -10.84 kcal/mol  [=(1)+(2)+(3)-(4)]USERUSER    (1) Final Intermolecular Energy     = -12.92 kcal/molUSER        vdW + Hbond + desolv Energy     = -12.79 kcal/molUSER        Electrostatic Energy            =  -0.13 kcal/molUSER        Moving Ligand-Fixed Receptor    = -12.92 kcal/molUSER        Moving Ligand-Moving Receptor   =  +0.00 kcal/molUSER    (2) Final Total Internal Energy     =  -1.46 kcal/molUSER    (3) Torsional Free Energy           =  +2.09 kcal/molUSER    (4) Unbound System's Energy         =  -1.46 kcal/molUSERUSERREMARK SMILES Nc1nccc(-c2ccc(C(=O)CN3CCC(Nc4nc5ccccc5o4)CC3)cc2)n1REMARK SMILES IDX 11 1 12 2 10 3 7 4 8 5 31 6 9 7 30 8 6 9 2 10 3 11 32 12REMARK SMILES IDX 4 13 5 14 1 15 13 18 14 19 15 20 29 21 16 22 28 23 17 24REMARK SMILES IDX 18 25 19 27 20 28 27 29 21 30 26 31 22 32 25 33 23 34 24 35REMARK H PARENT 1 16 1 17 18 26USER                              x       y       z     vdW  Elec       q    TypeUSER                           _______ _______ _______ _____ _____    ______ ____ROOTATOM      1  C   UNL     1      37.471  47.694  13.458 -0.48 -0.06    +0.176 C  ATOM      2  O   UNL     1      36.924  47.765  12.357 -1.09 +0.08    -0.293 OA ENDROOTBRANCH   1   3ATOM      3  C   UNL     1      36.879  46.777  14.484 -0.42 -0.01    +0.019 A  ATOM      4  C   UNL     1      35.743  45.121  16.503 -0.33 -0.00    +0.000 A  ATOM      5  C   UNL     1      36.139  44.596  15.260 -0.36 -0.00    +0.011 A  ATOM      6  C   UNL     1      35.924  46.500  16.703 -0.34 -0.01    +0.011 A  ATOM      7  C   UNL     1      36.700  45.408  14.262 -0.40 -0.01    +0.012 A  ATOM      8  C   UNL     1      36.487  47.317  15.713 -0.33 -0.01    +0.012 A  BRANCH   4   9ATOM      9  C   UNL     1      35.148  44.278  17.562 -0.25 -0.03    +0.076 A  ATOM     10  C   UNL     1      34.050  42.323  18.065 -0.25 -0.06    +0.220 A  ATOM     11  N   UNL     1      33.997  42.592  19.370 -0.40 +0.01    -0.222 NA ATOM     12  N   UNL     1      34.582  43.125  17.140 -0.22 +0.08    -0.213 NA ATOM     13  C   UNL     1      34.556  43.748  19.762 -0.32 -0.01    +0.117 A  ATOM     14  C   UNL     1      35.152  44.633  18.897 -0.34 -0.01    +0.049 A  BRANCH  10  15ATOM     15  N   UNL     1      33.470  41.148  17.634 -0.18 +0.15    -0.368 N  ATOM     16  H   UNL     1      32.869  41.334  16.844 -0.40 -0.10    +0.159 HD ATOM     17  H   UNL     1      34.177  40.434  17.527 -0.47 -0.11    +0.159 HD ENDBRANCH  10  15ENDBRANCH   4   9ENDBRANCH   1   3BRANCH   1  18ATOM     18  C   UNL     1      38.721  48.493  13.848 -0.31 -0.06    +0.165 C  BRANCH  18  19ATOM     19  N   UNL     1      39.348  48.105  15.125 -0.27 +0.11    -0.296 NA ATOM     20  C   UNL     1      39.922  46.764  15.125 -0.47 -0.01    +0.087 C  ATOM     21  C   UNL     1      40.253  49.127  15.662 -0.60 -0.03    +0.087 C  ATOM     22  C   UNL     1      40.181  46.303  16.564 -0.49 -0.01    +0.040 C  ATOM     23  C   UNL     1      41.294  48.568  16.637 -0.51 -0.00    +0.040 C  ATOM     24  C   UNL     1      40.698  47.432  17.469 -0.52 -0.01    +0.086 C  BRANCH  24  25ATOM     25  N   UNL     1      41.715  46.934  18.390 -0.31 +0.01    -0.337 N  ATOM     26  H   UNL     1      42.635  46.778  17.995 -0.41 -0.02    +0.165 HD BRANCH  25  27ATOM     27  C   UNL     1      41.353  46.101  19.378 -0.24 +0.02    +0.295 A  ATOM     28  N   UNL     1      42.095  45.410  20.215 -0.20 -0.04    -0.194 NA ATOM     29  O   UNL     1      40.004  45.958  19.549 -0.19 +0.01    -0.424 OA ATOM     30  C   UNL     1      41.179  44.754  20.995 -0.27 +0.01    +0.111 A  ATOM     31  C   UNL     1      39.897  45.085  20.592 -0.26 +0.00    +0.156 A  ATOM     32  C   UNL     1      41.346  43.863  22.063 -0.28 +0.00    +0.032 A  ATOM     33  C   UNL     1      38.732  44.598  21.170 -0.32 +0.00    +0.049 A  ATOM     34  C   UNL     1      40.193  43.346  22.677 -0.27 +0.00    +0.003 A  ATOM     35  C   UNL     1      38.913  43.708  22.237 -0.29 +0.00    +0.004 A  ENDBRANCH  25  27ENDBRANCH  24  25ENDBRANCH  18  19ENDBRANCH   1  18TORSDOF 7TERENDMDL