MODEL        7USER    Run = 7USERUSER    Estimated Free Energy of Binding    = -13.07 kcal/mol  [=(1)+(2)+(3)-(4)]USERUSER    (1) Final Intermolecular Energy     = -15.16 kcal/molUSER        vdW + Hbond + desolv Energy     = -15.01 kcal/molUSER        Electrostatic Energy            =  -0.15 kcal/molUSER        Moving Ligand-Fixed Receptor    = -15.16 kcal/molUSER        Moving Ligand-Moving Receptor   =  +0.00 kcal/molUSER    (2) Final Total Internal Energy     =  -2.17 kcal/molUSER    (3) Torsional Free Energy           =  +2.09 kcal/molUSER    (4) Unbound System's Energy         =  -2.17 kcal/molUSERUSERREMARK SMILES CN1CCN(c2ccc(-c3nc4ccccc4nc3-c3ccc(CN4CCC(n5c(O)nc6ccccc65)CC4)cc3)cn2)CC1REMARK SMILES IDX 20 1 21 2 22 3 23 4 41 5 42 6 19 7 10 8 11 9 12 10 18 11REMARK SMILES IDX 13 12 17 13 14 14 16 15 15 16 9 17 6 18 7 19 44 20 8 21REMARK SMILES IDX 43 22 5 23 2 24 3 25 46 26 4 27 45 28 1 29 24 30 25 31 26 32REMARK SMILES IDX 40 33 27 34 39 35 28 36 29 37 30 38 38 39 32 40 37 41 33 42REMARK SMILES IDX 36 43 34 44 35 45 31 46REMARK H PARENT 31 47USER                              x       y       z     vdW  Elec       q    TypeUSER                           _______ _______ _______ _____ _____    ______ ____ROOTATOM      1  C   UNL     1      39.654  44.091  23.209 -0.22 +0.00    +0.002 A  ATOM      2  C   UNL     1      40.675  43.411  22.523 -0.28 +0.00    +0.011 A  ATOM      3  C   UNL     1      41.588  44.096  21.714 -0.31 +0.00    +0.006 A  ATOM      4  C   UNL     1      41.500  45.484  21.562 -0.27 -0.00    -0.034 A  ATOM      5  C   UNL     1      40.473  46.168  22.222 -0.22 +0.00    +0.006 A  ATOM      6  C   UNL     1      39.559  45.480  23.027 -0.26 +0.00    +0.011 A  ENDROOTBRANCH   1   7ATOM      7  C   UNL     1      38.717  43.345  24.072 -0.20 +0.00    +0.097 A  ATOM      8  C   UNL     1      37.474  42.832  23.668 -0.32 +0.01    +0.099 A  ATOM      9  N   UNL     1      36.702  42.107  24.525 -0.28 +0.00    -0.244 NA ATOM     10  C   UNL     1      37.156  41.925  25.778 -0.31 -0.01    +0.089 A  ATOM     11  N   UNL     1      39.167  43.168  25.347 -0.10 -0.00    -0.244 NA ATOM     12  C   UNL     1      36.395  41.200  26.686 -0.34 -0.01    +0.030 A  ATOM     13  C   UNL     1      38.394  42.462  26.191 -0.23 -0.00    +0.089 A  ATOM     14  C   UNL     1      36.829  40.993  27.995 -0.47 -0.00    +0.002 A  ATOM     15  C   UNL     1      38.819  42.250  27.499 -0.32 -0.00    +0.030 A  ATOM     16  C   UNL     1      38.047  41.520  28.404 -0.29 -0.00    +0.002 A  BRANCH   8  17ATOM     17  C   UNL     1      36.868  43.013  22.342 -0.40 +0.00    +0.021 A  ATOM     18  C   UNL     1      35.744  43.518  19.822 -0.33 -0.01    +0.128 A  ATOM     19  C   UNL     1      35.630  42.256  20.403 -0.43 -0.00    +0.047 A  ATOM     20  N   UNL     1      36.393  44.505  20.473 -0.20 +0.01    -0.239 NA ATOM     21  C   UNL     1      36.200  42.000  21.656 -0.51 +0.00    +0.016 A  ATOM     22  C   UNL     1      36.945  44.235  21.684 -0.27 +0.01    +0.124 A  BRANCH  18  23ATOM     23  N   UNL     1      35.155  43.794  18.592 -0.10 +0.08    -0.354 N  ATOM     24  N   UNL     1      33.075  44.077  16.459 -0.12 +0.14    -0.303 NA ATOM     25  C   UNL     1      33.028  44.813  17.738 -0.32 -0.04    +0.105 C  ATOM     26  C   UNL     1      34.171  43.079  16.450 -0.37 -0.05    +0.105 C  ATOM     27  C   UNL     1      34.390  45.044  18.441 -0.37 -0.05    +0.133 C  ATOM     28  C   UNL     1      34.635  42.631  17.854 -0.36 -0.04    +0.133 C  ATOM     29  C   UNL     1      33.191  44.978  15.315 -0.27 -0.07    +0.105 C  ENDBRANCH  18  23ENDBRANCH   8  17ENDBRANCH   1   7BRANCH   4  30ATOM     30  C   UNL     1      42.483  46.231  20.684 -0.32 +0.03    +0.120 C  BRANCH  30  31ATOM     31  N   UNL     1      42.305  45.972  19.245 -0.12 -0.06    -0.299 NA ATOM     32  C   UNL     1      41.038  45.289  18.949 -0.45 +0.00    +0.087 C  ATOM     33  C   UNL     1      42.553  47.169  18.435 -0.37 +0.00    +0.087 C  ATOM     34  C   UNL     1      40.473  45.638  17.575 -0.46 -0.00    +0.041 C  ATOM     35  C   UNL     1      41.306  47.994  18.121 -0.22 -0.00    +0.041 C  ATOM     36  C   UNL     1      40.167  47.140  17.535 -0.47 -0.02    +0.095 C  BRANCH  36  37ATOM     37  N   UNL     1      39.701  47.590  16.232 -0.27 +0.08    -0.291 N  ATOM     38  C   UNL     1      40.334  48.530  15.462 -0.33 -0.08    +0.295 A  ATOM     39  C   UNL     1      38.588  47.183  15.526 -0.40 -0.03    +0.072 A  ATOM     40  N   UNL     1      39.736  48.760  14.327 -0.35 +0.07    -0.195 NA ATOM     41  C   UNL     1      37.558  46.267  15.775 -0.36 -0.01    +0.029 A  ATOM     42  C   UNL     1      38.644  47.928  14.344 -0.44 -0.03    +0.092 A  ATOM     43  C   UNL     1      36.577  46.110  14.787 -0.40 -0.00    +0.002 A  ATOM     44  C   UNL     1      37.649  47.759  13.368 -0.50 -0.01    +0.031 A  ATOM     45  C   UNL     1      36.619  46.842  13.601 -0.53 -0.00    +0.002 A  BRANCH  38  46ATOM     46  O   UNL     1      41.438  49.163  15.803 -0.77 +0.01    -0.480 OA ATOM     47  H   UNL     1      41.146  50.092  15.758 +0.21 -0.07    +0.296 HD ENDBRANCH  38  46ENDBRANCH  36  37ENDBRANCH  30  31ENDBRANCH   4  30TORSDOF 7TERENDMDL