MODEL        4USER    Run = 4USERUSER    Estimated Free Energy of Binding    = -10.82 kcal/mol  [=(1)+(2)+(3)-(4)]USERUSER    (1) Final Intermolecular Energy     = -13.80 kcal/molUSER        vdW + Hbond + desolv Energy     = -13.47 kcal/molUSER        Electrostatic Energy            =  -0.33 kcal/molUSER        Moving Ligand-Fixed Receptor    = -13.80 kcal/molUSER        Moving Ligand-Moving Receptor   =  +0.00 kcal/molUSER    (2) Final Total Internal Energy     =  -2.33 kcal/molUSER    (3) Torsional Free Energy           =  +2.98 kcal/molUSER    (4) Unbound System's Energy         =  -2.33 kcal/molUSERUSERREMARK SMILES COc1ccc(O)c(C(=O)c2ccc(C(=O)N[C@H]3CCN(CC(=O)N4CCOCC4)C[C@@H]3NC(=O)c3ccncc3)cc2)c1FREMARK SMILES IDX 11 1 12 2 13 3 14 4 42 5 43 6 9 7 10 8 8 9 3 10 4 11 44 12REMARK SMILES IDX 5 13 6 14 45 15 2 16 1 17 7 18 15 20 17 21 16 22 18 24 19 25REMARK SMILES IDX 32 26 20 27 31 28 21 29 33 30 34 31 35 33 36 34 37 35 41 36REMARK SMILES IDX 38 37 40 38 39 39 22 40 23 41 25 42 26 43 30 44 27 45 29 46REMARK SMILES IDX 28 47 24 48REMARK H PARENT 7 19 17 23 33 32USER                              x       y       z     vdW  Elec       q    TypeUSER                           _______ _______ _______ _____ _____    ______ ____ROOTATOM      1  C   UNL     1      41.029  46.057  20.214 -0.34 +0.00    +0.023 A  ATOM      2  C   UNL     1      40.154  45.567  21.190 -0.31 +0.00    +0.013 A  ATOM      3  C   UNL     1      38.922  45.026  20.810 -0.35 +0.00    +0.014 A  ATOM      4  C   UNL     1      38.562  44.962  19.457 -0.35 -0.00    +0.039 A  ATOM      5  C   UNL     1      39.458  45.411  18.480 -0.42 -0.00    +0.014 A  ATOM      6  C   UNL     1      40.690  45.954  18.859 -0.46 -0.00    +0.013 A  ENDROOTBRANCH   1   7ATOM      7  C   UNL     1      42.353  46.621  20.572 -0.32 +0.04    +0.199 C  ATOM      8  O   UNL     1      42.903  47.396  19.788 -0.40 -0.05    -0.288 OA BRANCH   7   9ATOM      9  C   UNL     1      43.077  46.253  21.809 -0.24 +0.03    +0.104 A  ATOM     10  C   UNL     1      44.024  44.589  23.318 -0.09 +0.03    +0.155 A  ATOM     11  C   UNL     1      44.478  45.610  24.154 -0.06 +0.01    +0.053 A  ATOM     12  C   UNL     1      43.318  44.922  22.152 -0.13 +0.06    +0.179 A  ATOM     13  C   UNL     1      44.212  46.945  23.838 -0.14 +0.01    +0.051 A  ATOM     14  C   UNL     1      43.504  47.260  22.681 -0.24 +0.03    +0.130 A  ATOM     15  F   UNL     1      42.852  43.931  21.376 -0.07 -0.05    -0.202 F  BRANCH  10  16ATOM     16  O   UNL     1      44.205  43.248  23.530 -0.04 -0.04    -0.494 OA ATOM     17  C   UNL     1      43.103  42.516  24.053 -0.13 -0.02    +0.278 C  ENDBRANCH  10  16BRANCH  14  18ATOM     18  O   UNL     1      43.259  48.589  22.459 -0.51 -0.09    -0.507 OA ATOM     19  H   UNL     1      43.243  48.734  21.485 -0.39 -0.06    +0.293 HD ENDBRANCH  14  18ENDBRANCH   7   9ENDBRANCH   1   7BRANCH   4  20ATOM     20  C   UNL     1      37.233  44.386  19.118 -0.25 -0.03    +0.251 C  ATOM     21  N   UNL     1      37.059  43.918  17.835 -0.07 +0.08    -0.347 N  ATOM     22  O   UNL     1      36.343  44.353  19.964 -0.29 +0.02    -0.269 OA ATOM     23  H   UNL     1      37.830  43.924  17.180 +0.10 -0.03    +0.164 HD BRANCH  21  24ATOM     24  C   UNL     1      35.799  43.307  17.394 -0.34 -0.03    +0.107 C  ATOM     25  C   UNL     1      35.337  42.259  18.406 -0.41 -0.01    +0.042 C  ATOM     26  C   UNL     1      34.685  44.354  17.141 -0.28 -0.05    +0.118 C  ATOM     27  C   UNL     1      34.030  41.609  17.960 -0.37 -0.03    +0.087 C  ATOM     28  C   UNL     1      33.362  43.629  16.796 -0.30 -0.05    +0.112 C  ATOM     29  N   UNL     1      32.977  42.621  17.802 -0.13 +0.08    -0.292 NA BRANCH  26  30ATOM     30  N   UNL     1      35.071  45.292  16.080 -0.10 +0.24    -0.346 N  ATOM     31  C   UNL     1      36.057  45.003  15.164 -0.24 -0.12    +0.251 C  ATOM     32  H   UNL     1      34.516  46.142  16.008 +0.01 -0.21    +0.164 HD ATOM     33  O   UNL     1      36.716  43.968  15.211 -0.28 +0.09    -0.269 OA BRANCH  31  34ATOM     34  C   UNL     1      36.335  46.004  14.094 -0.41 -0.02    +0.042 A  ATOM     35  C   UNL     1      36.441  47.376  14.330 -0.42 -0.02    +0.034 A  ATOM     36  C   UNL     1      36.484  45.530  12.788 -0.50 -0.01    +0.034 A  ATOM     37  C   UNL     1      36.707  48.205  13.254 -0.47 -0.05    +0.112 A  ATOM     38  C   UNL     1      36.747  46.440  11.781 -0.55 -0.04    +0.112 A  ATOM     39  N   UNL     1      36.867  47.768  11.987 -1.00 +0.08    -0.265 NA ENDBRANCH  31  34ENDBRANCH  26  30BRANCH  29  40ATOM     40  C   UNL     1      31.682  42.006  17.425 -0.25 -0.06    +0.185 C  BRANCH  40  41ATOM     41  C   UNL     1      31.284  40.806  18.315 -0.25 -0.02    +0.236 C  ATOM     42  N   UNL     1      29.977  40.347  18.168 -0.09 -0.00    -0.337 N  ATOM     43  C   UNL     1      28.984  40.894  17.239 -0.24 -0.01    +0.148 C  ATOM     44  C   UNL     1      29.498  39.265  19.032 -0.26 +0.02    +0.148 C  ATOM     45  C   UNL     1      27.888  39.867  16.936 -0.15 +0.05    +0.181 C  ATOM     46  C   UNL     1      27.995  39.400  19.295 -0.19 +0.01    +0.181 C  ATOM     47  O   UNL     1      27.195  39.406  18.102 -0.11 -0.08    -0.378 OA ATOM     48  O   UNL     1      32.057  40.268  19.111 -0.64 -0.03    -0.273 OA ENDBRANCH  40  41ENDBRANCH  29  40ENDBRANCH  21  24ENDBRANCH   4  20TORSDOF 10TERENDMDL