MODEL        5USER    Run = 5USERUSER    Estimated Free Energy of Binding    =  -8.56 kcal/mol  [=(1)+(2)+(3)-(4)]USERUSER    (1) Final Intermolecular Energy     = -10.06 kcal/molUSER        vdW + Hbond + desolv Energy     =  -9.99 kcal/molUSER        Electrostatic Energy            =  -0.06 kcal/molUSER        Moving Ligand-Fixed Receptor    = -10.06 kcal/molUSER        Moving Ligand-Moving Receptor   =  +0.00 kcal/molUSER    (2) Final Total Internal Energy     =  -1.18 kcal/molUSER    (3) Torsional Free Energy           =  +1.49 kcal/molUSER    (4) Unbound System's Energy         =  -1.18 kcal/molUSERUSERREMARK SMILES O=C(C(F)F)N1CCN(CCc2c(F)cccc2-c2cn3ccccc3n2)CC1REMARK SMILES IDX 10 1 9 2 2 3 6 4 7 5 29 6 8 7 28 8 1 9 3 10 4 11 5 12 11 13REMARK SMILES IDX 12 14 13 15 18 16 15 17 17 18 16 19 14 20 19 21 20 22 27 23REMARK SMILES IDX 21 24 26 25 22 26 25 27 23 28 24 29REMARK H PARENTUSER                              x       y       z     vdW  Elec       q    TypeUSER                           _______ _______ _______ _____ _____    ______ ____ROOTATOM      1  C   UNL     1      40.528  47.462  17.437 -0.50 -0.01    +0.089 C  ENDROOTBRANCH   1   2ATOM      2  N   UNL     1      40.491  47.605  15.968 -0.27 +0.05    -0.299 NA ATOM      3  C   UNL     1      37.189  47.184  13.117 -0.41 -0.11    +0.289 C  ATOM      4  N   UNL     1      38.262  47.257  14.001 -0.22 +0.11    -0.335 N  ATOM      5  C   UNL     1      38.708  46.159  14.864 -0.38 -0.04    +0.135 C  ATOM      6  C   UNL     1      39.010  48.511  14.123 -0.38 -0.05    +0.135 C  ATOM      7  C   UNL     1      40.174  46.322  15.309 -0.41 -0.01    +0.106 C  ATOM      8  C   UNL     1      39.584  48.694  15.541 -0.53 -0.04    +0.106 C  ATOM      9  O   UNL     1      36.919  48.128  12.366 -1.08 +0.06    -0.268 OA BRANCH   3  10ATOM     10  C   UNL     1      36.393  45.873  13.057 -0.25 -0.19    +0.430 C  ATOM     11  F   UNL     1      35.128  45.985  13.560 -0.12 +0.13    -0.199 F  ATOM     12  F   UNL     1      36.240  45.402  11.785 -0.19 +0.08    -0.199 F  ENDBRANCH   3  10ENDBRANCH   1   2BRANCH   1  13ATOM     13  C   UNL     1      41.415  46.302  17.920 -0.47 -0.00    +0.055 C  BRANCH  13  14ATOM     14  C   UNL     1      41.408  46.174  19.429 -0.46 -0.00    -0.001 A  ATOM     15  C   UNL     1      42.508  46.680  20.140 -0.34 +0.03    +0.127 A  ATOM     16  C   UNL     1      40.360  45.580  20.160 -0.38 +0.00    +0.008 A  ATOM     17  C   UNL     1      42.595  46.598  21.526 -0.31 +0.01    +0.039 A  ATOM     18  C   UNL     1      40.455  45.498  21.563 -0.30 +0.00    +0.011 A  ATOM     19  C   UNL     1      41.565  46.002  22.243 -0.24 +0.00    +0.004 A  ATOM     20  F   UNL     1      43.516  47.265  19.474 -0.20 -0.07    -0.207 F  BRANCH  16  21ATOM     21  C   UNL     1      39.169  45.061  19.515 -0.34 -0.00    +0.090 A  ATOM     22  C   UNL     1      38.028  44.637  20.166 -0.27 -0.00    +0.121 A  ATOM     23  N   UNL     1      39.035  44.934  18.153 -0.25 +0.03    -0.229 NA ATOM     24  N   UNL     1      37.176  44.224  19.174 -0.16 +0.04    -0.306 N  ATOM     25  C   UNL     1      37.836  44.424  17.966 -0.25 -0.03    +0.137 A  ATOM     26  C   UNL     1      35.890  43.698  19.271 -0.32 -0.01    +0.093 A  ATOM     27  C   UNL     1      37.139  44.061  16.778 -0.30 -0.01    +0.048 A  ATOM     28  C   UNL     1      35.237  43.358  18.147 -0.33 -0.00    +0.018 A  ATOM     29  C   UNL     1      35.896  43.551  16.862 -0.37 -0.00    +0.005 A  ENDBRANCH  16  21ENDBRANCH  13  14ENDBRANCH   1  13TORSDOF 5TERENDMDL