REMARK SMILES O=C(C(F)F)N1CCN(CCc2c(F)cccc2-c2cn3ccccc3n2)CC1
REMARK SMILES IDX 10 1 9 2 2 3 6 4 7 5 29 6 8 7 28 8 1 9 3 10 4 11 5 12 11 13
REMARK SMILES IDX 12 14 13 15 18 16 15 17 17 18 16 19 14 20 19 21 20 22 27 23
REMARK SMILES IDX 21 24 26 25 22 26 25 27 23 28 24 29
REMARK H PARENT
ROOT
ATOM      1  C   UNL     1       0.672   0.396   0.106  1.00  0.00     0.089 C 
ENDROOT
BRANCH   1   2
ATOM      2  N   UNL     1       1.370  -0.852   0.477  1.00  0.00    -0.299 NA
ATOM      3  C   UNL     1       5.635  -1.861   0.518  1.00  0.00     0.289 C 
ATOM      4  N   UNL     1       4.273  -1.579   0.448  1.00  0.00    -0.335 N 
ATOM      5  C   UNL     1       3.565  -1.183  -0.773  1.00  0.00     0.135 C 
ATOM      6  C   UNL     1       3.460  -1.649   1.665  1.00  0.00     0.135 C 
ATOM      7  C   UNL     1       2.051  -1.455  -0.686  1.00  0.00     0.106 C 
ATOM      8  C   UNL     1       2.286  -0.653   1.622  1.00  0.00     0.106 C 
ATOM      9  O   UNL     1       6.147  -2.262   1.569  1.00  0.00    -0.268 OA
BRANCH   3  10
ATOM     10  C   UNL     1       6.466  -1.721  -0.765  1.00  0.00     0.430 C 
ATOM     11  F   UNL     1       6.137  -0.621  -1.504  1.00  0.00    -0.199 F 
ATOM     12  F   UNL     1       7.804  -1.611  -0.521  1.00  0.00    -0.199 F 
ENDBRANCH   3  10
ENDBRANCH   1   2
BRANCH   1  13
ATOM     13  C   UNL     1      -0.251   0.936   1.212  1.00  0.00     0.055 C 
BRANCH  13  14
ATOM     14  C   UNL     1      -0.919   2.234   0.808  1.00  0.00    -0.001 A 
ATOM     15  C   UNL     1      -0.194   3.426   0.964  1.00  0.00     0.127 A 
ATOM     16  C   UNL     1      -2.224   2.312   0.282  1.00  0.00     0.008 A 
ATOM     17  C   UNL     1      -0.729   4.666   0.631  1.00  0.00     0.039 A 
ATOM     18  C   UNL     1      -2.761   3.571  -0.051  1.00  0.00     0.011 A 
ATOM     19  C   UNL     1      -2.020   4.742   0.123  1.00  0.00     0.004 A 
ATOM     20  F   UNL     1       1.057   3.383   1.448  1.00  0.00    -0.207 F 
BRANCH  16  21
ATOM     21  C   UNL     1      -3.035   1.131   0.054  1.00  0.00     0.090 A 
ATOM     22  C   UNL     1      -4.341   0.967   0.468  1.00  0.00     0.121 A 
ATOM     23  N   UNL     1      -2.588   0.020  -0.619  1.00  0.00    -0.229 NA
ATOM     24  N   UNL     1      -4.700  -0.289   0.049  1.00  0.00    -0.306 N 
ATOM     25  C   UNL     1      -3.597  -0.825  -0.607  1.00  0.00     0.137 A 
ATOM     26  C   UNL     1      -5.907  -0.966   0.207  1.00  0.00     0.093 A 
ATOM     27  C   UNL     1      -3.733  -2.141  -1.134  1.00  0.00     0.048 A 
ATOM     28  C   UNL     1      -6.030  -2.207  -0.293  1.00  0.00     0.018 A 
ATOM     29  C   UNL     1      -4.896  -2.804  -0.985  1.00  0.00     0.005 A 
ENDBRANCH  16  21
ENDBRANCH  13  14
ENDBRANCH   1  13
TORSDOF 5
