REMARK SMILES O=C(C1=CC=C(c2ccncc2NCCc2ccc(F)cc2-c2nnn[nH]2)[C@@H]1F)N1CCOCC1
REMARK SMILES IDX 13 1 12 3 7 4 8 5 9 6 11 7 10 8 6 9 3 10 4 11 28 12 5 13
REMARK SMILES IDX 29 14 2 15 30 16 31 17 35 18 32 19 34 20 33 21 1 22 14 23
REMARK SMILES IDX 15 24 16 25 17 26 22 27 18 28 21 29 19 30 20 31 23 32 24 33
REMARK SMILES IDX 27 34 25 35 26 36
REMARK H PARENT 13 2 27 37
ROOT
ATOM      1  N   UNL     1      -1.492  -0.978  -0.040  1.00  0.00    -0.383 N 
ATOM      2  H   UNL     1      -0.837  -0.489  -0.649  1.00  0.00     0.160 HD
ENDROOT
BRANCH   1   3
ATOM      3  C   UNL     1      -0.982  -2.190   0.435  1.00  0.00     0.060 A 
ATOM      4  C   UNL     1       0.409  -2.360   0.646  1.00  0.00     0.007 A 
ATOM      5  C   UNL     1       0.884  -3.582   1.143  1.00  0.00     0.031 A 
ATOM      6  C   UNL     1      -0.019  -4.581   1.459  1.00  0.00     0.112 A 
ATOM      7  C   UNL     1      -1.788  -3.262   0.835  1.00  0.00     0.137 A 
ATOM      8  N   UNL     1      -1.349  -4.448   1.325  1.00  0.00    -0.263 NA
BRANCH   4   9
ATOM      9  C   UNL     1       1.390  -1.303   0.360  1.00  0.00     0.000 C 
ATOM     10  C   UNL     1       3.253  -0.156  -0.428  1.00  0.00     0.056 C 
ATOM     11  C   UNL     1       2.472   0.698   0.252  1.00  0.00     0.013 C 
ATOM     12  C   UNL     1       2.655  -1.526  -0.439  1.00  0.00     0.233 C 
ATOM     13  C   UNL     1       1.335  -0.021   0.766  1.00  0.00     0.008 C 
ATOM     14  F   UNL     1       3.483  -2.412   0.182  1.00  0.00    -0.237 F 
BRANCH  10  15
ATOM     15  C   UNL     1       4.456   0.138  -1.214  1.00  0.00     0.253 C 
ATOM     16  N   UNL     1       5.447   0.899  -0.629  1.00  0.00    -0.334 N 
ATOM     17  C   UNL     1       6.604   1.284  -1.437  1.00  0.00     0.148 C 
ATOM     18  C   UNL     1       5.549   1.217   0.800  1.00  0.00     0.148 C 
ATOM     19  C   UNL     1       7.277   2.536  -0.868  1.00  0.00     0.181 C 
ATOM     20  C   UNL     1       7.011   1.388   1.230  1.00  0.00     0.181 C 
ATOM     21  O   UNL     1       7.703   2.405   0.496  1.00  0.00    -0.378 OA
ATOM     22  O   UNL     1       4.535  -0.306  -2.358  1.00  0.00    -0.269 OA
ENDBRANCH  10  15
ENDBRANCH   4   9
ENDBRANCH   1   3
BRANCH   1  23
ATOM     23  C   UNL     1      -2.881  -0.806  -0.456  1.00  0.00     0.118 C 
BRANCH  23  24
ATOM     24  C   UNL     1      -3.735  -0.309   0.716  1.00  0.00     0.057 C 
BRANCH  24  25
ATOM     25  C   UNL     1      -5.177  -0.063   0.314  1.00  0.00    -0.035 A 
ATOM     26  C   UNL     1      -6.068  -1.155   0.375  1.00  0.00     0.007 A 
ATOM     27  C   UNL     1      -5.653   1.198  -0.116  1.00  0.00     0.027 A 
ATOM     28  C   UNL     1      -7.407  -1.004   0.024  1.00  0.00     0.039 A 
ATOM     29  C   UNL     1      -7.006   1.328  -0.469  1.00  0.00     0.051 A 
ATOM     30  C   UNL     1      -7.863   0.235  -0.395  1.00  0.00     0.123 A 
ATOM     31  F   UNL     1      -9.148   0.385  -0.739  1.00  0.00    -0.207 F 
BRANCH  27  32
ATOM     32  C   UNL     1      -4.782   2.366  -0.215  1.00  0.00     0.179 A 
ATOM     33  N   UNL     1      -3.555   2.434  -0.697  1.00  0.00    -0.109 NA
ATOM     34  N   UNL     1      -5.114   3.625   0.211  1.00  0.00    -0.239 N 
ATOM     35  N   UNL     1      -3.154   3.741  -0.567  1.00  0.00    -0.024 NA
ATOM     36  N   UNL     1      -4.105   4.476  -0.011  1.00  0.00    -0.048 NA
ATOM     37  H   UNL     1      -5.962   3.958   0.652  1.00  0.00     0.194 HD
ENDBRANCH  27  32
ENDBRANCH  24  25
ENDBRANCH  23  24
ENDBRANCH   1  23
TORSDOF 7
