MODEL        10USER    Run = 10USERUSER    Estimated Free Energy of Binding    = -12.80 kcal/mol  [=(1)+(2)+(3)-(4)]USERUSER    (1) Final Intermolecular Energy     = -16.08 kcal/molUSER        vdW + Hbond + desolv Energy     = -15.78 kcal/molUSER        Electrostatic Energy            =  -0.30 kcal/molUSER        Moving Ligand-Fixed Receptor    = -16.08 kcal/molUSER        Moving Ligand-Moving Receptor   =  +0.00 kcal/molUSER    (2) Final Total Internal Energy     =  -2.28 kcal/molUSER    (3) Torsional Free Energy           =  +3.28 kcal/molUSER    (4) Unbound System's Energy         =  -2.28 kcal/molUSERUSERREMARK SMILES C[C@@H](O)[C@H](CCC=Cc1cc(-c2c[nH]c3ccccc23)ccc1C(=O)N1CCOCC1)c1ccc(-c2nnn[nH]2)cc1REMARK SMILES IDX 6 1 5 2 4 3 2 4 1 5 3 6 32 8 33 9 42 10 34 11 41 12 35 13REMARK SMILES IDX 36 14 37 15 40 16 38 17 39 18 7 20 8 21 9 22 10 23 23 24REMARK SMILES IDX 11 25 22 26 21 27 24 28 26 29 27 30 31 31 28 32 30 33 29 34REMARK SMILES IDX 25 35 12 36 13 37 20 38 14 39 19 40 15 41 18 42 16 43 17 44REMARK H PARENT 3 7 40 19 14 45USER                              x       y       z     vdW  Elec       q    TypeUSER                           _______ _______ _______ _____ _____    ______ ____ROOTATOM      1  C   UNL     1      37.024  43.021  20.166 -0.37 -0.00    +0.028 C  ENDROOTBRANCH   1   2ATOM      2  C   UNL     1      35.585  43.564  20.212 -0.48 -0.00    +0.015 C  BRANCH   2   3ATOM      3  C   UNL     1      34.769  43.309  18.913 -0.40 -0.01    +0.048 C  BRANCH   3   4ATOM      4  C   UNL     1      33.242  43.473  19.153 -0.39 -0.01    +0.118 C  ATOM      5  C   UNL     1      32.486  42.148  19.063 -0.41 -0.00    +0.039 C  BRANCH   4   6ATOM      6  O   UNL     1      33.005  43.976  20.472 -0.60 -0.02    -0.393 OA ATOM      7  H   UNL     1      32.972  44.948  20.417 -0.35 -0.07    +0.210 HD ENDBRANCH   4   6ENDBRANCH   3   4BRANCH   3   8ATOM      8  C   UNL     1      35.272  44.193  17.777 -0.28 +0.01    -0.042 A  ATOM      9  C   UNL     1      34.954  45.555  17.702 -0.38 -0.00    +0.005 A  ATOM     10  C   UNL     1      36.084  43.643  16.777 -0.37 -0.00    +0.005 A  ATOM     11  C   UNL     1      35.437  46.349  16.653 -0.33 -0.01    +0.012 A  ATOM     12  C   UNL     1      36.565  44.436  15.731 -0.36 -0.00    +0.012 A  ATOM     13  C   UNL     1      36.252  45.799  15.654 -0.35 -0.01    +0.021 A  BRANCH  13  14ATOM     14  C   UNL     1      36.783  46.593  14.546 -0.29 -0.10    +0.179 A  ATOM     15  N   UNL     1      38.005  47.077  14.417 -0.36 +0.04    -0.109 NA ATOM     16  N   UNL     1      36.084  46.992  13.438 -0.35 +0.14    -0.239 N  ATOM     17  N   UNL     1      38.038  47.760  13.226 -0.91 +0.01    -0.024 NA ATOM     18  N   UNL     1      36.863  47.710  12.620 -1.12 +0.02    -0.048 NA ATOM     19  H   UNL     1      35.119  46.831  13.187 +0.07 -0.14    +0.194 HD ENDBRANCH  13  14ENDBRANCH   3   8ENDBRANCH   2   3ENDBRANCH   1   2BRANCH   1  20ATOM     20  C   UNL     1      37.486  42.519  21.507 -0.38 -0.00    -0.026 C  BRANCH  20  21ATOM     21  C   UNL     1      38.531  43.035  22.171 -0.33 +0.00    +0.004 C  BRANCH  21  22ATOM     22  C   UNL     1      38.526  44.335  22.863 -0.30 -0.00    -0.013 A  ATOM     23  C   UNL     1      37.879  44.377  24.113 -0.29 +0.00    +0.017 A  ATOM     24  C   UNL     1      39.082  45.528  22.371 -0.30 +0.00    +0.047 A  ATOM     25  C   UNL     1      37.801  45.563  24.859 -0.28 -0.00    -0.016 A  ATOM     26  C   UNL     1      38.999  46.722  23.105 -0.24 +0.00    +0.015 A  ATOM     27  C   UNL     1      38.366  46.734  24.348 -0.30 +0.00    +0.009 A  BRANCH  24  28ATOM     28  C   UNL     1      39.724  45.615  21.042 -0.20 +0.01    +0.254 C  ATOM     29  N   UNL     1      41.063  45.986  20.991 -0.13 -0.03    -0.334 N  ATOM     30  C   UNL     1      41.692  46.189  19.688 -0.39 +0.02    +0.148 C  ATOM     31  C   UNL     1      41.954  46.117  22.151 -0.22 +0.02    +0.148 C  ATOM     32  C   UNL     1      42.898  47.125  19.803 -0.41 +0.04    +0.181 C  ATOM     33  C   UNL     1      43.406  45.816  21.761 -0.18 +0.08    +0.181 C  ATOM     34  O   UNL     1      43.905  46.657  20.713 -0.33 -0.29    -0.378 OA ATOM     35  O   UNL     1      39.041  45.402  20.045 -0.27 +0.00    -0.269 OA ENDBRANCH  24  28BRANCH  25  36ATOM     36  C   UNL     1      37.130  45.582  26.148 -0.32 -0.00    +0.007 A  ATOM     37  C   UNL     1      37.334  46.578  27.083 -0.29 -0.01    +0.092 A  ATOM     38  C   UNL     1      36.210  44.645  26.721 -0.24 -0.00    +0.007 A  ATOM     39  N   UNL     1      36.586  46.281  28.191 -0.18 +0.09    -0.361 N  ATOM     40  C   UNL     1      35.608  43.450  26.273 -0.36 -0.00    +0.011 A  ATOM     41  C   UNL     1      35.891  45.109  27.998 -0.33 -0.01    +0.046 A  ATOM     42  C   UNL     1      34.727  42.761  27.115 -0.54 -0.00    +0.001 A  ATOM     43  C   UNL     1      35.013  44.432  28.854 -0.47 -0.01    +0.027 A  ATOM     44  C   UNL     1      34.436  43.248  28.387 -0.46 -0.00    +0.002 A  ATOM     45  H   UNL     1      36.550  46.836  29.035 -0.02 -0.05    +0.166 HD ENDBRANCH  25  36ENDBRANCH  21  22ENDBRANCH  20  21ENDBRANCH   1  20TORSDOF 11TERENDMDL