REMARK SMILES CSc1cc(C(=O)N2CCOCC2)ccc1[C@@H](CCC=Cc1c(C)[nH]c2ccccc12)[C@@H](C)O
REMARK SMILES IDX 18 1 17 2 16 3 3 4 4 5 5 6 15 7 14 8 2 9 1 10 6 11 8 12 9 13
REMARK SMILES IDX 13 14 10 15 12 16 11 17 7 18 32 19 33 20 34 21 19 23 20 24
REMARK SMILES IDX 21 25 22 26 23 27 31 28 25 29 30 30 26 31 29 32 27 33 28 34
REMARK SMILES IDX 24 35
REMARK H PARENT 34 22 25 36
ROOT
ATOM      1  C   UNL     1       1.113  -0.192   0.989  1.00  0.00     0.015 C 
ENDROOT
BRANCH   1   2
ATOM      2  C   UNL     1      -0.196  -0.519   1.763  1.00  0.00     0.049 C 
BRANCH   2   3
ATOM      3  C   UNL     1      -1.401  -0.407   0.816  1.00  0.00    -0.029 A 
ATOM      4  C   UNL     1      -2.309  -1.470   0.601  1.00  0.00     0.011 A 
ATOM      5  C   UNL     1      -3.420  -1.281  -0.233  1.00  0.00     0.029 A 
ATOM      6  C   UNL     1      -3.618  -0.057  -0.869  1.00  0.00     0.041 A 
ATOM      7  C   UNL     1      -1.623   0.817   0.143  1.00  0.00     0.006 A 
ATOM      8  C   UNL     1      -2.716   0.990  -0.704  1.00  0.00     0.014 A 
BRANCH   4   9
ATOM      9  S   UNL     1      -2.154  -3.088   1.354  1.00  0.00    -0.129 SA
ATOM     10  C   UNL     1      -0.987  -3.821   0.175  1.00  0.00     0.091 C 
ENDBRANCH   4   9
BRANCH   6  11
ATOM     11  C   UNL     1      -4.789   0.120  -1.744  1.00  0.00     0.254 C 
ATOM     12  N   UNL     1      -5.970   0.551  -1.159  1.00  0.00    -0.334 N 
ATOM     13  C   UNL     1      -7.178   0.641  -1.980  1.00  0.00     0.148 C 
ATOM     14  C   UNL     1      -6.143   0.891   0.258  1.00  0.00     0.148 C 
ATOM     15  C   UNL     1      -8.431   0.380  -1.136  1.00  0.00     0.181 C 
ATOM     16  C   UNL     1      -7.343   1.822   0.456  1.00  0.00     0.181 C 
ATOM     17  O   UNL     1      -8.579   1.275  -0.022  1.00  0.00    -0.378 OA
ATOM     18  O   UNL     1      -4.660  -0.141  -2.936  1.00  0.00    -0.269 OA
ENDBRANCH   6  11
ENDBRANCH   2   3
BRANCH   2  19
ATOM     19  C   UNL     1      -0.396   0.374   3.022  1.00  0.00     0.118 C 
ATOM     20  C   UNL     1      -1.613  -0.033   3.852  1.00  0.00     0.039 C 
BRANCH  19  21
ATOM     21  O   UNL     1       0.750   0.290   3.869  1.00  0.00    -0.393 OA
ATOM     22  H   UNL     1       0.581   0.836   4.656  1.00  0.00     0.210 HD
ENDBRANCH  19  21
ENDBRANCH   2  19
ENDBRANCH   1   2
BRANCH   1  23
ATOM     23  C   UNL     1       2.352  -0.919   1.536  1.00  0.00     0.028 C 
BRANCH  23  24
ATOM     24  C   UNL     1       3.651  -0.674   0.808  1.00  0.00    -0.026 C 
BRANCH  24  25
ATOM     25  C   UNL     1       3.859   0.127  -0.250  1.00  0.00     0.006 C 
BRANCH  25  26
ATOM     26  C   UNL     1       5.114   0.322  -0.908  1.00  0.00     0.002 A 
ATOM     27  C   UNL     1       5.232   0.484  -2.278  1.00  0.00     0.020 A 
ATOM     28  C   UNL     1       6.426   0.412  -0.341  1.00  0.00     0.007 A 
ATOM     29  N   UNL     1       6.569   0.638  -2.555  1.00  0.00    -0.358 N 
ATOM     30  C   UNL     1       6.956   0.370   0.968  1.00  0.00     0.011 A 
ATOM     31  C   UNL     1       7.314   0.600  -1.401  1.00  0.00     0.046 A 
ATOM     32  C   UNL     1       8.337   0.492   1.165  1.00  0.00     0.001 A 
ATOM     33  C   UNL     1       8.699   0.723  -1.223  1.00  0.00     0.027 A 
ATOM     34  C   UNL     1       9.195   0.662   0.082  1.00  0.00     0.002 A 
ATOM     35  C   UNL     1       4.214   0.490  -3.360  1.00  0.00     0.065 C 
ATOM     36  H   UNL     1       6.960   0.767  -3.478  1.00  0.00     0.166 HD
ENDBRANCH  25  26
ENDBRANCH  24  25
ENDBRANCH  23  24
ENDBRANCH   1  23
TORSDOF 10
