MODEL        1USER    Run = 1USERUSER    Estimated Free Energy of Binding    =  -9.87 kcal/mol  [=(1)+(2)+(3)-(4)]USERUSER    (1) Final Intermolecular Energy     = -12.26 kcal/molUSER        vdW + Hbond + desolv Energy     = -11.96 kcal/molUSER        Electrostatic Energy            =  -0.30 kcal/molUSER        Moving Ligand-Fixed Receptor    = -12.26 kcal/molUSER        Moving Ligand-Moving Receptor   =  +0.00 kcal/molUSER    (2) Final Total Internal Energy     =  -3.70 kcal/molUSER    (3) Torsional Free Energy           =  +2.39 kcal/molUSER    (4) Unbound System's Energy         =  -3.70 kcal/molUSERUSERREMARK SMILES C[C@@H](O)c1cc(-c2ccc3ncccc3c2)ccc1CC(=O)CCC1N=NN=N1REMARK SMILES IDX 20 1 19 2 4 3 5 4 6 5 18 6 17 7 2 8 1 9 3 10 7 12 8 13 16 14REMARK SMILES IDX 9 15 15 16 10 17 14 18 11 19 13 20 12 21 21 22 22 23 23 24REMARK SMILES IDX 24 25 25 26 26 27 29 28 27 29 28 30REMARK H PARENT 3 11USER                              x       y       z     vdW  Elec       q    TypeUSER                           _______ _______ _______ _____ _____    ______ ____ROOTATOM      1  C   UNL     1      37.187  46.454  15.920 -0.37 -0.06    +0.111 C  ENDROOTBRANCH   1   2ATOM      2  C   UNL     1      38.407  46.561  16.810 -0.38 +0.01    -0.035 A  ATOM      3  C   UNL     1      39.500  47.419  16.558 -0.47 +0.00    -0.016 A  ATOM      4  C   UNL     1      40.590  47.408  17.460 -0.50 -0.00    +0.015 A  ATOM      5  C   UNL     1      40.625  46.579  18.593 -0.46 +0.00    -0.018 A  ATOM      6  C   UNL     1      38.447  45.727  17.944 -0.39 -0.00    +0.005 A  ATOM      7  C   UNL     1      39.534  45.738  18.820 -0.42 -0.00    +0.009 A  BRANCH   3   8ATOM      8  C   UNL     1      39.595  48.371  15.377 -0.50 -0.05    +0.141 C  ATOM      9  C   UNL     1      40.542  49.544  15.593 -0.66 -0.01    +0.043 C  BRANCH   8  10ATOM     10  O   UNL     1      39.961  47.665  14.195 -0.19 +0.07    -0.389 OA ATOM     11  H   UNL     1      39.134  47.337  13.803 +0.16 -0.04    +0.211 HD ENDBRANCH   8  10ENDBRANCH   3   8BRANCH   5  12ATOM     12  C   UNL     1      41.777  46.594  19.509 -0.45 -0.00    -0.018 A  ATOM     13  C   UNL     1      42.931  47.330  19.210 -0.54 +0.00    +0.011 A  ATOM     14  C   UNL     1      41.758  45.871  20.711 -0.34 +0.00    +0.019 A  ATOM     15  C   UNL     1      44.023  47.342  20.085 +0.05 +0.02    +0.029 A  ATOM     16  C   UNL     1      42.858  45.885  21.591 -0.28 +0.00    +0.001 A  ATOM     17  C   UNL     1      44.011  46.632  21.277 -0.22 +0.05    +0.070 A  ATOM     18  C   UNL     1      42.848  45.169  22.796 -0.17 +0.00    +0.012 A  ATOM     19  N   UNL     1      45.084  46.676  22.086 -0.69 -0.24    -0.256 NA ATOM     20  C   UNL     1      43.955  45.212  23.634 -0.10 +0.00    +0.021 A  ATOM     21  C   UNL     1      45.039  45.973  23.238 -0.11 +0.05    +0.112 A  ENDBRANCH   5  12ENDBRANCH   1   2BRANCH   1  22ATOM     22  C   UNL     1      37.397  45.631  14.656 -0.36 -0.05    +0.137 C  ATOM     23  O   UNL     1      38.507  45.322  14.224 -0.25 +0.08    -0.299 OA BRANCH  22  24ATOM     24  C   UNL     1      36.125  45.196  13.945 -0.35 -0.04    +0.080 C  BRANCH  24  25ATOM     25  C   UNL     1      35.171  46.351  13.637 -0.45 -0.05    +0.063 C  BRANCH  25  26ATOM     26  C   UNL     1      35.760  47.406  12.701 -0.41 -0.16    +0.270 C  ATOM     27  N   UNL     1      36.781  46.795  11.861 -0.68 +0.05    -0.138 NA ATOM     28  N   UNL     1      36.493  48.408  13.462 -0.55 +0.08    -0.138 NA ATOM     29  N   UNL     1      37.861  47.376  12.104 -1.02 +0.00    -0.027 NA ATOM     30  N   UNL     1      37.684  48.367  13.088 -0.86 +0.00    -0.027 NA ENDBRANCH  25  26ENDBRANCH  24  25ENDBRANCH  22  24ENDBRANCH   1  22TORSDOF 8TERENDMDL