MODEL        6USER    Run = 6USERUSER    Estimated Free Energy of Binding    = -10.67 kcal/mol  [=(1)+(2)+(3)-(4)]USERUSER    (1) Final Intermolecular Energy     = -12.76 kcal/molUSER        vdW + Hbond + desolv Energy     = -12.56 kcal/molUSER        Electrostatic Energy            =  -0.19 kcal/molUSER        Moving Ligand-Fixed Receptor    = -12.76 kcal/molUSER        Moving Ligand-Moving Receptor   =  +0.00 kcal/molUSER    (2) Final Total Internal Energy     =  -2.82 kcal/molUSER    (3) Torsional Free Energy           =  +2.09 kcal/molUSER    (4) Unbound System's Energy         =  -2.82 kcal/molUSERUSERREMARK SMILES O=C(C1=CC=C(c2ccncc2NCCc2ccc(F)cc2-c2nnn[nH]2)[C@@H]1F)N1CCOCC1REMARK SMILES IDX 13 1 12 3 7 4 8 5 9 6 11 7 10 8 6 9 3 10 4 11 28 12 5 13REMARK SMILES IDX 29 14 2 15 30 16 31 17 35 18 32 19 34 20 33 21 1 22 14 23REMARK SMILES IDX 15 24 16 25 17 26 22 27 18 28 21 29 19 30 20 31 23 32 24 33REMARK SMILES IDX 27 34 25 35 26 36REMARK H PARENT 13 2 27 37USER                              x       y       z     vdW  Elec       q    TypeUSER                           _______ _______ _______ _____ _____    ______ ____ROOTATOM      1  N   UNL     1      34.702  44.490  18.176 -0.07 +0.13    -0.383 N  ATOM      2  H   UNL     1      35.274  45.287  18.454 +0.10 -0.06    +0.160 HD ENDROOTBRANCH   1   3ATOM      3  C   UNL     1      33.735  44.828  17.225 -0.28 -0.03    +0.060 A  ATOM      4  C   UNL     1      34.111  45.279  15.935 -0.31 -0.01    +0.007 A  ATOM      5  C   UNL     1      33.114  45.590  14.999 -0.23 -0.03    +0.031 A  ATOM      6  C   UNL     1      31.786  45.408  15.339 -0.34 -0.07    +0.112 A  ATOM      7  C   UNL     1      32.361  44.648  17.424 -0.18 -0.04    +0.137 A  ATOM      8  N   UNL     1      31.383  44.935  16.530 -0.64 +0.07    -0.263 NA BRANCH   4   9ATOM      9  C   UNL     1      35.514  45.442  15.529 -0.41 -0.00    +0.000 C  ATOM     10  C   UNL     1      37.492  46.317  14.675 -0.43 -0.02    +0.056 C  ATOM     11  C   UNL     1      37.737  45.096  15.177 -0.39 -0.00    +0.013 C  ATOM     12  C   UNL     1      36.051  46.678  14.842 -0.28 -0.19    +0.233 C  ATOM     13  C   UNL     1      36.505  44.543  15.676 -0.42 -0.00    +0.008 C  ATOM     14  F   UNL     1      35.463  46.864  13.627 -0.12 +0.18    -0.237 F  BRANCH  10  15ATOM     15  C   UNL     1      38.451  47.299  14.158 -0.35 -0.08    +0.253 C  ATOM     16  N   UNL     1      39.356  47.854  15.039 -0.24 +0.11    -0.334 N  ATOM     17  C   UNL     1      40.248  48.908  14.557 -0.47 -0.05    +0.148 C  ATOM     18  C   UNL     1      39.645  47.360  16.391 -0.44 -0.04    +0.148 C  ATOM     19  C   UNL     1      40.744  49.777  15.716 -0.55 -0.05    +0.181 C  ATOM     20  C   UNL     1      41.095  47.655  16.794 -0.34 -0.02    +0.181 C  ATOM     21  O   UNL     1      41.424  49.048  16.747 -0.93 -0.01    -0.378 OA ATOM     22  O   UNL     1      38.413  47.586  12.963 -0.66 +0.03    -0.269 OA ENDBRANCH  10  15ENDBRANCH   4   9ENDBRANCH   1   3BRANCH   1  23ATOM     23  C   UNL     1      34.447  43.570  19.280 -0.37 -0.02    +0.118 C  BRANCH  23  24ATOM     24  C   UNL     1      35.527  42.483  19.335 -0.44 -0.01    +0.057 C  BRANCH  24  25ATOM     25  C   UNL     1      36.290  42.496  20.646 -0.45 +0.00    -0.035 A  ATOM     26  C   UNL     1      35.853  41.624  21.666 -0.44 +0.00    +0.007 A  ATOM     27  C   UNL     1      37.402  43.338  20.883 -0.35 +0.00    +0.027 A  ATOM     28  C   UNL     1      36.506  41.579  22.895 -0.48 +0.00    +0.039 A  ATOM     29  C   UNL     1      38.044  43.279  22.130 -0.32 +0.00    +0.051 A  ATOM     30  C   UNL     1      37.594  42.407  23.116 -0.33 +0.01    +0.123 A  ATOM     31  F   UNL     1      38.222  42.372  24.297 -0.06 -0.02    -0.207 F  BRANCH  27  32ATOM     32  C   UNL     1      37.898  44.273  19.877 -0.24 -0.01    +0.179 A  ATOM     33  N   UNL     1      37.203  45.045  19.062 -0.27 +0.02    -0.109 NA ATOM     34  N   UNL     1      39.222  44.491  19.600 -0.22 +0.01    -0.239 N  ATOM     35  N   UNL     1      38.114  45.734  18.301 -0.38 +0.00    -0.024 NA ATOM     36  N   UNL     1      39.354  45.399  18.625 -0.39 +0.00    -0.048 NA ATOM     37  H   UNL     1      40.048  44.068  20.005 +0.12 +0.00    +0.194 HD ENDBRANCH  27  32ENDBRANCH  24  25ENDBRANCH  23  24ENDBRANCH   1  23TORSDOF 7TERENDMDL