REMARK SMILES C[C@@H](O)c1cc(-c2ccc3ncccc3c2)ccc1CC(=O)CCC1N=NN=N1
REMARK SMILES IDX 20 1 19 2 4 3 5 4 6 5 18 6 17 7 2 8 1 9 3 10 7 12 8 13 16 14
REMARK SMILES IDX 9 15 15 16 10 17 14 18 11 19 13 20 12 21 21 22 22 23 23 24
REMARK SMILES IDX 24 25 25 26 26 27 29 28 27 29 28 30
REMARK H PARENT 3 11
ROOT
ATOM      1  C   UNL     1      -2.459  -1.434   0.312  1.00  0.00     0.111 C 
ENDROOT
BRANCH   1   2
ATOM      2  C   UNL     1      -0.990  -1.087   0.187  1.00  0.00    -0.035 A 
ATOM      3  C   UNL     1      -0.090  -1.044   1.275  1.00  0.00    -0.016 A 
ATOM      4  C   UNL     1       1.255  -0.685   1.025  1.00  0.00     0.015 A 
ATOM      5  C   UNL     1       1.728  -0.372  -0.260  1.00  0.00    -0.018 A 
ATOM      6  C   UNL     1      -0.515  -0.767  -1.099  1.00  0.00     0.005 A 
ATOM      7  C   UNL     1       0.819  -0.419  -1.319  1.00  0.00     0.009 A 
BRANCH   3   8
ATOM      8  C   UNL     1      -0.460  -1.363   2.714  1.00  0.00     0.141 C 
ATOM      9  C   UNL     1      -1.389  -0.346   3.362  1.00  0.00     0.043 C 
BRANCH   8  10
ATOM     10  O   UNL     1      -1.030  -2.666   2.806  1.00  0.00    -0.389 OA
ATOM     11  H   UNL     1      -0.509  -3.237   2.215  1.00  0.00     0.211 HD
ENDBRANCH   8  10
ENDBRANCH   3   8
BRANCH   5  12
ATOM     12  C   UNL     1       3.135  -0.001  -0.481  1.00  0.00    -0.018 A 
ATOM     13  C   UNL     1       3.727   1.051   0.228  1.00  0.00     0.011 A 
ATOM     14  C   UNL     1       3.929  -0.690  -1.410  1.00  0.00     0.019 A 
ATOM     15  C   UNL     1       5.066   1.398   0.015  1.00  0.00     0.029 A 
ATOM     16  C   UNL     1       5.277  -0.340  -1.623  1.00  0.00     0.001 A 
ATOM     17  C   UNL     1       5.859   0.721  -0.900  1.00  0.00     0.070 A 
ATOM     18  C   UNL     1       6.080  -1.023  -2.546  1.00  0.00     0.012 A 
ATOM     19  N   UNL     1       7.141   1.090  -1.068  1.00  0.00    -0.256 NA
ATOM     20  C   UNL     1       7.405  -0.644  -2.723  1.00  0.00     0.021 A 
ATOM     21  C   UNL     1       7.884   0.409  -1.967  1.00  0.00     0.112 A 
ENDBRANCH   5  12
ENDBRANCH   1   2
BRANCH   1  22
ATOM     22  C   UNL     1      -3.388  -0.230   0.391  1.00  0.00     0.137 C 
ATOM     23  O   UNL     1      -3.002   0.933   0.279  1.00  0.00    -0.299 OA
BRANCH  22  24
ATOM     24  C   UNL     1      -4.856  -0.556   0.615  1.00  0.00     0.080 C 
BRANCH  24  25
ATOM     25  C   UNL     1      -5.760   0.677   0.642  1.00  0.00     0.063 C 
BRANCH  25  26
ATOM     26  C   UNL     1      -5.879   1.385  -0.707  1.00  0.00     0.270 C 
ATOM     27  N   UNL     1      -6.834   2.479  -0.600  1.00  0.00    -0.138 NA
ATOM     28  N   UNL     1      -6.479   0.499  -1.695  1.00  0.00    -0.138 NA
ATOM     29  N   UNL     1      -7.765   2.243  -1.399  1.00  0.00    -0.027 NA
ATOM     30  N   UNL     1      -7.547   1.026  -2.072  1.00  0.00    -0.027 NA
ENDBRANCH  25  26
ENDBRANCH  24  25
ENDBRANCH  22  24
ENDBRANCH   1  22
TORSDOF 8
