REMARK SMILES C[C@@H](O)[C@H](CCC=Cc1cc(-c2c[nH]c3ccccc23)ccc1C(=O)N1CCOCC1)c1ccc(-c2nnn[nH]2)cc1
REMARK SMILES IDX 6 1 5 2 4 3 2 4 1 5 3 6 32 8 33 9 42 10 34 11 41 12 35 13
REMARK SMILES IDX 36 14 37 15 40 16 38 17 39 18 7 20 8 21 9 22 10 23 23 24
REMARK SMILES IDX 11 25 22 26 21 27 24 28 26 29 27 30 31 31 28 32 30 33 29 34
REMARK SMILES IDX 25 35 12 36 13 37 20 38 14 39 19 40 15 41 18 42 16 43 17 44
REMARK H PARENT 3 7 40 19 14 45
ROOT
ATOM      1  C   UNL     1       1.730  -0.571  -1.803  1.00  0.00     0.028 C 
ENDROOT
BRANCH   1   2
ATOM      2  C   UNL     1       2.679  -1.343  -0.870  1.00  0.00     0.015 C 
BRANCH   2   3
ATOM      3  C   UNL     1       3.263  -0.488   0.290  1.00  0.00     0.048 C 
BRANCH   3   4
ATOM      4  C   UNL     1       3.951  -1.373   1.366  1.00  0.00     0.118 C 
ATOM      5  C   UNL     1       4.462  -0.564   2.557  1.00  0.00     0.039 C 
BRANCH   4   6
ATOM      6  O   UNL     1       3.013  -2.314   1.899  1.00  0.00    -0.393 OA
ATOM      7  H   UNL     1       2.994  -3.084   1.304  1.00  0.00     0.210 HD
ENDBRANCH   4   6
ENDBRANCH   3   4
BRANCH   3   8
ATOM      8  C   UNL     1       4.195   0.591  -0.251  1.00  0.00    -0.042 A 
ATOM      9  C   UNL     1       5.398   0.275  -0.895  1.00  0.00     0.005 A 
ATOM     10  C   UNL     1       3.847   1.941  -0.115  1.00  0.00     0.005 A 
ATOM     11  C   UNL     1       6.233   1.285  -1.393  1.00  0.00     0.012 A 
ATOM     12  C   UNL     1       4.681   2.947  -0.612  1.00  0.00     0.012 A 
ATOM     13  C   UNL     1       5.883   2.636  -1.260  1.00  0.00     0.021 A 
BRANCH  13  14
ATOM     14  C   UNL     1       6.721   3.720  -1.770  1.00  0.00     0.179 A 
ATOM     15  N   UNL     1       6.553   5.018  -1.591  1.00  0.00    -0.109 NA
ATOM     16  N   UNL     1       7.836   3.573  -2.551  1.00  0.00    -0.239 N 
ATOM     17  N   UNL     1       7.575   5.646  -2.260  1.00  0.00    -0.024 NA
ATOM     18  N   UNL     1       8.366   4.765  -2.850  1.00  0.00    -0.048 NA
ATOM     19  H   UNL     1       8.270   2.735  -2.912  1.00  0.00     0.194 HD
ENDBRANCH  13  14
ENDBRANCH   3   8
ENDBRANCH   2   3
ENDBRANCH   1   2
BRANCH   1  20
ATOM     20  C   UNL     1       0.382  -0.336  -1.177  1.00  0.00    -0.026 C 
BRANCH  20  21
ATOM     21  C   UNL     1      -0.777  -0.496  -1.833  1.00  0.00     0.004 C 
BRANCH  21  22
ATOM     22  C   UNL     1      -2.111  -0.310  -1.236  1.00  0.00    -0.013 A 
ATOM     23  C   UNL     1      -3.074  -1.292  -1.534  1.00  0.00     0.017 A 
ATOM     24  C   UNL     1      -2.503   0.770  -0.426  1.00  0.00     0.047 A 
ATOM     25  C   UNL     1      -4.382  -1.214  -1.031  1.00  0.00    -0.016 A 
ATOM     26  C   UNL     1      -3.812   0.862   0.073  1.00  0.00     0.015 A 
ATOM     27  C   UNL     1      -4.744  -0.132  -0.224  1.00  0.00     0.009 A 
BRANCH  24  28
ATOM     28  C   UNL     1      -1.594   1.891  -0.105  1.00  0.00     0.254 C 
ATOM     29  N   UNL     1      -1.121   1.990   1.199  1.00  0.00    -0.334 N 
ATOM     30  C   UNL     1      -0.313   3.149   1.572  1.00  0.00     0.148 C 
ATOM     31  C   UNL     1      -1.289   0.972   2.244  1.00  0.00     0.148 C 
ATOM     32  C   UNL     1      -0.386   3.402   3.080  1.00  0.00     0.181 C 
ATOM     33  C   UNL     1      -0.122   1.013   3.238  1.00  0.00     0.181 C 
ATOM     34  O   UNL     1       0.047   2.287   3.873  1.00  0.00    -0.378 OA
ATOM     35  O   UNL     1      -1.335   2.707  -0.984  1.00  0.00    -0.269 OA
ENDBRANCH  24  28
BRANCH  25  36
ATOM     36  C   UNL     1      -5.359  -2.241  -1.351  1.00  0.00     0.007 A 
ATOM     37  C   UNL     1      -5.620  -2.647  -2.645  1.00  0.00     0.092 A 
ATOM     38  C   UNL     1      -6.229  -2.984  -0.490  1.00  0.00     0.007 A 
ATOM     39  N   UNL     1      -6.609  -3.594  -2.602  1.00  0.00    -0.361 N 
ATOM     40  C   UNL     1      -6.432  -3.036   0.906  1.00  0.00     0.011 A 
ATOM     41  C   UNL     1      -6.999  -3.819  -1.302  1.00  0.00     0.046 A 
ATOM     42  C   UNL     1      -7.396  -3.903   1.433  1.00  0.00     0.001 A 
ATOM     43  C   UNL     1      -7.968  -4.691  -0.791  1.00  0.00     0.027 A 
ATOM     44  C   UNL     1      -8.152  -4.717   0.594  1.00  0.00     0.002 A 
ATOM     45  H   UNL     1      -7.004  -4.060  -3.407  1.00  0.00     0.166 HD
ENDBRANCH  25  36
ENDBRANCH  21  22
ENDBRANCH  20  21
ENDBRANCH   1  20
TORSDOF 11
