MODEL        2USER    Run = 2USERUSER    Estimated Free Energy of Binding    =  -9.95 kcal/mol  [=(1)+(2)+(3)-(4)]USERUSER    (1) Final Intermolecular Energy     = -12.93 kcal/molUSER        vdW + Hbond + desolv Energy     = -12.72 kcal/molUSER        Electrostatic Energy            =  -0.21 kcal/molUSER        Moving Ligand-Fixed Receptor    = -12.93 kcal/molUSER        Moving Ligand-Moving Receptor   =  +0.00 kcal/molUSER    (2) Final Total Internal Energy     =  -2.62 kcal/molUSER    (3) Torsional Free Energy           =  +2.98 kcal/molUSER    (4) Unbound System's Energy         =  -2.62 kcal/molUSERUSERREMARK SMILES CSc1cc(C(=O)N2CCOCC2)ccc1[C@@H](CCC=Cc1c(C)[nH]c2ccccc12)[C@@H](C)OREMARK SMILES IDX 18 1 17 2 16 3 3 4 4 5 5 6 15 7 14 8 2 9 1 10 6 11 8 12 9 13REMARK SMILES IDX 13 14 10 15 12 16 11 17 7 18 32 19 33 20 34 21 19 23 20 24REMARK SMILES IDX 21 25 22 26 23 27 31 28 25 29 30 30 26 31 29 32 27 33 28 34REMARK SMILES IDX 24 35REMARK H PARENT 34 22 25 36USER                              x       y       z     vdW  Elec       q    TypeUSER                           _______ _______ _______ _____ _____    ______ ____ROOTATOM      1  C   UNL     1      38.967  45.887  15.634 -0.41 -0.00    +0.015 C  ENDROOTBRANCH   1   2ATOM      2  C   UNL     1      37.894  47.009  15.725 -0.44 -0.02    +0.049 C  BRANCH   2   3ATOM      3  C   UNL     1      36.508  46.385  15.955 -0.36 +0.02    -0.029 A  ATOM      4  C   UNL     1      35.868  45.565  14.997 -0.36 -0.01    +0.011 A  ATOM      5  C   UNL     1      34.629  44.981  15.294 -0.26 -0.02    +0.029 A  ATOM      6  C   UNL     1      34.016  45.226  16.521 -0.29 -0.03    +0.041 A  ATOM      7  C   UNL     1      35.851  46.626  17.184 -0.26 -0.01    +0.006 A  ATOM      8  C   UNL     1      34.608  46.062  17.463 -0.39 -0.01    +0.014 A  BRANCH   4   9ATOM      9  S   UNL     1      36.552  45.186  13.385 -0.54 +0.05    -0.129 SA ATOM     10  C   UNL     1      35.785  46.534  12.445 -0.61 -0.05    +0.091 C  ENDBRANCH   4   9BRANCH   6  11ATOM     11  C   UNL     1      32.712  44.606  16.813 -0.19 -0.12    +0.254 C  ATOM     12  N   UNL     1      32.712  43.402  17.500 -0.08 +0.10    -0.334 N  ATOM     13  C   UNL     1      31.442  42.709  17.718 -0.25 -0.03    +0.148 C  ATOM     14  C   UNL     1      33.904  42.709  18.003 -0.33 -0.04    +0.148 C  ATOM     15  C   UNL     1      31.650  41.191  17.765 -0.29 -0.04    +0.181 C  ATOM     16  C   UNL     1      33.542  41.754  19.144 -0.27 -0.00    +0.181 C  ATOM     17  O   UNL     1      32.574  40.761  18.777 -0.37 +0.00    -0.378 OA ATOM     18  O   UNL     1      31.702  45.180  16.417 -0.74 +0.10    -0.269 OA ENDBRANCH   6  11ENDBRANCH   2   3BRANCH   2  19ATOM     19  C   UNL     1      37.882  47.941  14.478 -0.50 -0.06    +0.118 C  ATOM     20  C   UNL     1      36.917  49.117  14.624 -0.43 -0.04    +0.039 C  BRANCH  19  21ATOM     21  O   UNL     1      39.185  48.478  14.256 -0.29 +0.15    -0.393 OA ATOM     22  H   UNL     1      39.154  49.430  14.455 -0.23 -0.15    +0.210 HD ENDBRANCH  19  21ENDBRANCH   2  19ENDBRANCH   1   2BRANCH   1  23ATOM     23  C   UNL     1      40.392  46.368  15.953 -0.46 -0.00    +0.028 C  BRANCH  23  24ATOM     24  C   UNL     1      40.757  46.464  17.414 -0.53 +0.00    -0.026 C  BRANCH  24  25ATOM     25  C   UNL     1      40.922  45.456  18.286 -0.53 -0.00    +0.006 C  BRANCH  25  26ATOM     26  C   UNL     1      40.147  45.249  19.470 -0.42 -0.00    +0.002 A  ATOM     27  C   UNL     1      40.612  45.547  20.739 -0.34 +0.00    +0.020 A  ATOM     28  C   UNL     1      38.811  44.749  19.598 -0.38 -0.00    +0.007 A  ATOM     29  N   UNL     1      39.614  45.217  21.625 -0.12 -0.02    -0.358 N  ATOM     30  C   UNL     1      37.811  44.321  18.696 -0.33 -0.00    +0.011 A  ATOM     31  C   UNL     1      38.513  44.733  20.961 -0.33 +0.00    +0.046 A  ATOM     32  C   UNL     1      36.576  43.877  19.184 -0.36 -0.00    +0.001 A  ATOM     33  C   UNL     1      37.283  44.291  21.468 -0.37 +0.00    +0.027 A  ATOM     34  C   UNL     1      36.319  43.859  20.552 -0.42 -0.00    +0.002 A  ATOM     35  C   UNL     1      41.910  46.096  21.209 -0.33 +0.01    +0.065 C  ATOM     36  H   UNL     1      39.672  45.317  22.629 +0.09 +0.01    +0.166 HD ENDBRANCH  25  26ENDBRANCH  24  25ENDBRANCH  23  24ENDBRANCH   1  23TORSDOF 10TERENDMDL