MODEL        3USER    Run = 3USERUSER    Estimated Free Energy of Binding    = -10.62 kcal/mol  [=(1)+(2)+(3)-(4)]USERUSER    (1) Final Intermolecular Energy     = -12.41 kcal/molUSER        vdW + Hbond + desolv Energy     = -12.29 kcal/molUSER        Electrostatic Energy            =  -0.12 kcal/molUSER        Moving Ligand-Fixed Receptor    = -12.41 kcal/molUSER        Moving Ligand-Moving Receptor   =  +0.00 kcal/molUSER    (2) Final Total Internal Energy     =  -1.20 kcal/molUSER    (3) Torsional Free Energy           =  +1.79 kcal/molUSER    (4) Unbound System's Energy         =  -1.20 kcal/molUSERUSERREMARK SMILES C[C@H]1N=C(CCc2ccc(C(=O)N3CCN(S(=O)(=O)c4ccc(F)cc4)CC3)cc2)c2cccc(F)c2N1CREMARK SMILES IDX 7 1 8 2 9 3 10 4 29 5 30 6 6 7 5 8 4 9 2 10 3 11 38 12 37 13REMARK SMILES IDX 31 14 35 15 32 16 34 17 33 18 1 19 39 20 36 21 11 22 13 23REMARK SMILES IDX 14 24 28 25 15 26 27 27 16 28 12 29 17 30 18 31 19 32 20 33REMARK SMILES IDX 21 34 26 35 22 36 25 37 23 38 24 39REMARK H PARENTUSER                              x       y       z     vdW  Elec       q    TypeUSER                           _______ _______ _______ _____ _____    ______ ____ROOTATOM      1  C   UNL     1      36.055  45.927  16.982 -0.33 +0.03    -0.048 A  ATOM      2  C   UNL     1      35.093  46.323  17.925 -0.38 -0.00    +0.004 A  ATOM      3  C   UNL     1      33.740  46.057  17.707 -0.37 -0.01    +0.014 A  ATOM      4  C   UNL     1      33.350  45.394  16.539 -0.27 -0.03    +0.040 A  ATOM      5  C   UNL     1      34.293  45.018  15.578 -0.30 -0.01    +0.014 A  ATOM      6  C   UNL     1      35.645  45.280  15.803 -0.34 -0.00    +0.004 A  ENDROOTBRANCH   1   7ATOM      7  C   UNL     1      37.514  46.236  17.209 -0.38 -0.02    +0.042 C  BRANCH   7   8ATOM      8  C   UNL     1      38.327  44.964  17.447 -0.38 -0.01    +0.061 C  BRANCH   8   9ATOM      9  C   UNL     1      39.189  45.120  18.688 -0.44 -0.00    +0.047 C  ATOM     10  C   UNL     1      39.712  44.497  20.889 -0.25 +0.01    +0.197 C  ATOM     11  N   UNL     1      38.886  44.369  19.691 -0.19 +0.01    -0.265 NA ATOM     12  N   UNL     1      41.092  44.920  20.678 -0.14 -0.03    -0.350 N  ATOM     13  C   UNL     1      41.279  45.923  19.725 -0.37 +0.01    +0.084 A  ATOM     14  C   UNL     1      40.337  46.072  18.687 -0.45 -0.00    +0.022 A  ATOM     15  C   UNL     1      42.387  46.792  19.694 -0.36 +0.03    +0.147 A  ATOM     16  C   UNL     1      40.490  47.053  17.691 -0.50 -0.00    +0.012 A  ATOM     17  C   UNL     1      42.546  47.766  18.708 -0.50 +0.00    +0.041 A  ATOM     18  C   UNL     1      41.595  47.901  17.706 -0.45 -0.00    +0.004 A  ATOM     19  C   UNL     1      38.988  45.423  21.873 -0.35 +0.00    +0.057 C  ATOM     20  C   UNL     1      42.020  44.762  21.793 -0.24 +0.02    +0.146 C  ATOM     21  F   UNL     1      43.340  46.731  20.641 -0.12 -0.09    -0.205 F  ENDBRANCH   8   9ENDBRANCH   7   8ENDBRANCH   1   7BRANCH   4  22ATOM     22  C   UNL     1      31.925  45.112  16.287 -0.19 -0.12    +0.253 C  ATOM     23  N   UNL     1      31.382  43.941  16.805 -0.09 +0.10    -0.336 N  ATOM     24  C   UNL     1      32.136  42.907  17.526 -0.28 -0.04    +0.136 C  ATOM     25  C   UNL     1      29.957  43.684  16.594 -0.25 -0.04    +0.136 C  ATOM     26  C   UNL     1      31.494  41.519  17.387 -0.29 -0.04    +0.124 C  ATOM     27  C   UNL     1      29.348  42.804  17.689 -0.13 -0.02    +0.124 C  ATOM     28  N   UNL     1      30.081  41.517  17.857 -0.13 +0.02    -0.194 NA ATOM     29  O   UNL     1      31.283  45.929  15.630 -0.61 +0.14    -0.269 OA BRANCH  28  30ATOM     30  S   UNL     1      29.213  40.075  17.686 -0.31 +0.02    +0.243 S  ATOM     31  O   UNL     1      27.884  40.289  18.220 -0.17 -0.01    -0.207 OA ATOM     32  O   UNL     1      29.410  39.580  16.341 -0.30 -0.05    -0.207 OA BRANCH  30  33ATOM     33  C   UNL     1      30.053  38.953  18.792 -0.31 +0.01    +0.082 A  ATOM     34  C   UNL     1      31.319  38.463  18.448 -0.44 +0.00    +0.025 A  ATOM     35  C   UNL     1      29.476  38.636  20.028 -0.29 +0.00    +0.025 A  ATOM     36  C   UNL     1      31.993  37.620  19.333 -0.51 +0.01    +0.040 A  ATOM     37  C   UNL     1      30.155  37.787  20.904 -0.36 +0.00    +0.040 A  ATOM     38  C   UNL     1      31.404  37.287  20.548 -0.43 +0.02    +0.123 A  ATOM     39  F   UNL     1      32.062  36.490  21.403 -0.10 -0.03    -0.207 F  ENDBRANCH  30  33ENDBRANCH  28  30ENDBRANCH   4  22TORSDOF 6TERENDMDL