MODEL        8USER    Run = 8USERUSER    Estimated Free Energy of Binding    =  -8.45 kcal/mol  [=(1)+(2)+(3)-(4)]USERUSER    (1) Final Intermolecular Energy     = -10.24 kcal/molUSER        vdW + Hbond + desolv Energy     =  -9.70 kcal/molUSER        Electrostatic Energy            =  -0.54 kcal/molUSER        Moving Ligand-Fixed Receptor    = -10.24 kcal/molUSER        Moving Ligand-Moving Receptor   =  +0.00 kcal/molUSER    (2) Final Total Internal Energy     =  -1.97 kcal/molUSER    (3) Torsional Free Energy           =  +1.79 kcal/molUSER    (4) Unbound System's Energy         =  -1.97 kcal/molUSERUSERREMARK SMILES OCc1cccc(-c2n[nH]c3cc(-c4ccncc4)ccc23)c1COREMARK SMILES IDX 3 1 4 2 5 3 6 4 7 5 23 6 2 7 1 8 24 10 25 11 8 13 9 14 22 15REMARK SMILES IDX 10 16 21 17 11 18 20 19 12 20 13 21 14 23 15 24 19 25 16 26REMARK SMILES IDX 18 27 17 28REMARK H PARENT 1 9 25 12 10 22USER                              x       y       z     vdW  Elec       q    TypeUSER                           _______ _______ _______ _____ _____    ______ ____ROOTATOM      1  C   UNL     1      33.553  44.252  16.657 -0.31 +0.01    -0.016 A  ATOM      2  C   UNL     1      33.203  42.892  16.556 -0.33 -0.00    +0.006 A  ATOM      3  C   UNL     1      33.791  41.938  17.378 -0.40 -0.00    +0.001 A  ATOM      4  C   UNL     1      34.740  42.328  18.315 -0.40 -0.00    +0.011 A  ATOM      5  C   UNL     1      35.126  43.673  18.430 -0.33 -0.00    +0.008 A  ATOM      6  C   UNL     1      34.553  44.654  17.583 -0.31 +0.00    -0.008 A  ENDROOTBRANCH   1   7ATOM      7  C   UNL     1      32.855  45.228  15.740 -0.26 -0.15    +0.192 C  BRANCH   7   8ATOM      8  O   UNL     1      31.900  45.988  16.465 -0.45 +0.22    -0.392 OA ATOM      9  H   UNL     1      32.389  46.784  16.764 -0.40 -0.35    +0.211 HD ENDBRANCH   7   8ENDBRANCH   1   7BRANCH   6  10ATOM     10  C   UNL     1      34.981  46.103  17.676 -0.34 -0.14    +0.192 C  BRANCH  10  11ATOM     11  O   UNL     1      33.949  46.872  18.297 -0.65 +0.37    -0.392 OA ATOM     12  H   UNL     1      33.375  47.179  17.572 -0.43 -0.40    +0.211 HD ENDBRANCH  10  11ENDBRANCH   6  10BRANCH   5  13ATOM     13  C   UNL     1      36.119  44.001  19.453 -0.32 -0.01    +0.100 A  ATOM     14  N   UNL     1      35.887  43.751  20.753 -0.30 -0.00    -0.174 NA ATOM     15  C   UNL     1      37.410  44.580  19.258 -0.33 -0.00    +0.028 A  ATOM     16  N   UNL     1      37.019  44.134  21.364 -0.24 -0.01    -0.277 N  ATOM     17  C   UNL     1      38.158  45.046  18.161 -0.38 -0.00    +0.013 A  ATOM     18  C   UNL     1      37.967  44.655  20.527 -0.30 -0.00    +0.066 A  ATOM     19  C   UNL     1      39.442  45.563  18.387 -0.43 -0.00    +0.009 A  ATOM     20  C   UNL     1      39.246  45.168  20.773 -0.34 +0.00    +0.037 A  ATOM     21  C   UNL     1      39.999  45.631  19.676 -0.39 +0.00    -0.016 A  ATOM     22  H   UNL     1      37.083  44.018  22.369 +0.10 +0.02    +0.190 HD BRANCH  21  23ATOM     23  C   UNL     1      41.350  46.178  19.878 -0.40 -0.00    -0.015 A  ATOM     24  C   UNL     1      42.010  46.872  18.857 -0.51 +0.00    +0.029 A  ATOM     25  C   UNL     1      42.019  46.020  21.096 -0.31 +0.01    +0.029 A  ATOM     26  C   UNL     1      43.284  47.364  19.093 -0.41 +0.02    +0.111 A  ATOM     27  C   UNL     1      43.292  46.552  21.239 -0.27 +0.05    +0.111 A  ATOM     28  N   UNL     1      43.940  47.219  20.263 -0.28 -0.15    -0.265 NA ENDBRANCH  21  23ENDBRANCH   5  13TORSDOF 6TERENDMDL