REMARK SMILES OCc1cccc(-c2n[nH]c3cc(-c4ccncc4)ccc23)c1CO
REMARK SMILES IDX 3 1 4 2 5 3 6 4 7 5 23 6 2 7 1 8 24 10 25 11 8 13 9 14 22 15
REMARK SMILES IDX 10 16 21 17 11 18 20 19 12 20 13 21 14 23 15 24 19 25 16 26
REMARK SMILES IDX 18 27 17 28
REMARK H PARENT 1 9 25 12 10 22
ROOT
ATOM      1  C   UNL     1       4.489   0.520   0.324  1.00  0.00    -0.016 A 
ATOM      2  C   UNL     1       4.623   0.416   1.721  1.00  0.00     0.006 A 
ATOM      3  C   UNL     1       3.613  -0.138   2.499  1.00  0.00     0.001 A 
ATOM      4  C   UNL     1       2.451  -0.599   1.891  1.00  0.00     0.011 A 
ATOM      5  C   UNL     1       2.277  -0.494   0.501  1.00  0.00     0.008 A 
ATOM      6  C   UNL     1       3.287   0.090  -0.302  1.00  0.00    -0.008 A 
ENDROOT
BRANCH   1   7
ATOM      7  C   UNL     1       5.640   1.118  -0.451  1.00  0.00     0.192 C 
BRANCH   7   8
ATOM      8  O   UNL     1       5.379   2.481  -0.747  1.00  0.00    -0.392 OA
ATOM      9  H   UNL     1       4.500   2.478  -1.184  1.00  0.00     0.211 HD
ENDBRANCH   7   8
ENDBRANCH   1   7
BRANCH   6  10
ATOM     10  C   UNL     1       3.101   0.236  -1.797  1.00  0.00     0.192 C 
BRANCH  10  11
ATOM     11  O   UNL     1       3.317   1.596  -2.179  1.00  0.00    -0.392 OA
ATOM     12  H   UNL     1       3.075   1.648  -3.121  1.00  0.00     0.211 HD
ENDBRANCH  10  11
ENDBRANCH   6  10
BRANCH   5  13
ATOM     13  C   UNL     1       1.032  -1.018  -0.060  1.00  0.00     0.100 A 
ATOM     14  N   UNL     1       1.036  -2.054  -0.916  1.00  0.00    -0.174 NA
ATOM     15  C   UNL     1      -0.297  -0.565   0.200  1.00  0.00     0.028 A 
ATOM     16  N   UNL     1      -0.264  -2.273  -1.168  1.00  0.00    -0.277 N 
ATOM     17  C   UNL     1      -0.890   0.452   0.970  1.00  0.00     0.013 A 
ATOM     18  C   UNL     1      -1.116  -1.405  -0.542  1.00  0.00     0.066 A 
ATOM     19  C   UNL     1      -2.287   0.578   0.966  1.00  0.00     0.009 A 
ATOM     20  C   UNL     1      -2.512  -1.295  -0.559  1.00  0.00     0.037 A 
ATOM     21  C   UNL     1      -3.108  -0.280   0.214  1.00  0.00    -0.016 A 
ATOM     22  H   UNL     1      -0.509  -3.037  -1.787  1.00  0.00     0.190 HD
BRANCH  21  23
ATOM     23  C   UNL     1      -4.571  -0.122   0.234  1.00  0.00    -0.015 A 
ATOM     24  C   UNL     1      -5.287  -0.165   1.436  1.00  0.00     0.029 A 
ATOM     25  C   UNL     1      -5.293   0.074  -0.948  1.00  0.00     0.029 A 
ATOM     26  C   UNL     1      -6.665  -0.016   1.404  1.00  0.00     0.111 A 
ATOM     27  C   UNL     1      -6.671   0.217  -0.879  1.00  0.00     0.111 A 
ATOM     28  N   UNL     1      -7.373   0.174   0.272  1.00  0.00    -0.265 NA
ENDBRANCH  21  23
ENDBRANCH   5  13
TORSDOF 6
