
     RDKit          3D

 57 60  0  0  0  0  0  0  0  0999 V2000
    4.0774   -2.1924    2.5405 C   0  0  0  0  0  0  0  0  0  0  0  0
    3.3457   -1.6067    1.4507 N   0  0  0  0  0  0  0  0  0  0  0  0
    3.4543   -2.1154    0.1687 C   0  0  0  0  0  0  0  0  0  0  0  0
    4.0356   -3.1614   -0.1035 O   0  0  0  0  0  0  0  0  0  0  0  0
    2.7126   -1.2777   -0.8925 C   0  0  0  0  0  0  0  0  0  0  0  0
    1.2227   -1.7481   -0.8541 C   0  0  0  0  0  0  0  0  0  0  0  0
    0.1787   -0.7012   -0.9575 N   0  0  0  0  0  0  0  0  0  0  0  0
   -0.1666   -0.1737    0.3762 C   0  0  0  0  0  0  0  0  0  0  0  0
   -1.3996    0.6677    0.3760 C   0  0  0  0  0  0  0  0  0  0  0  0
   -2.7057    0.3231    0.3135 C   0  0  0  0  0  0  0  0  0  0  0  0
   -3.1725   -1.0572    0.1832 C   0  0  0  0  0  0  0  0  0  0  0  0
   -3.2650   -1.8880    1.3065 C   0  0  0  0  0  0  0  0  0  0  0  0
   -3.7108   -3.2033    1.1708 C   0  0  0  0  0  0  0  0  0  0  0  0
   -4.0682   -3.6933   -0.0853 C   0  0  0  0  0  0  0  0  0  0  0  0
   -3.9793   -2.8699   -1.2077 C   0  0  0  0  0  0  0  0  0  0  0  0
   -3.5316   -1.5555   -1.0745 C   0  0  0  0  0  0  0  0  0  0  0  0
   -3.5126    1.5421    0.3656 C   0  0  0  0  0  0  0  0  0  0  0  0
   -4.8856    1.7188    0.3176 C   0  0  0  0  0  0  0  0  0  0  0  0
   -5.3918    3.0231    0.4008 C   0  0  0  0  0  0  0  0  0  0  0  0
   -4.5288    4.1271    0.5341 C   0  0  0  0  0  0  0  0  0  0  0  0
   -3.1468    3.9433    0.5808 C   0  0  0  0  0  0  0  0  0  0  0  0
   -2.6806    2.6442    0.4910 C   0  0  0  0  0  0  0  0  0  0  0  0
   -1.3142    2.1423    0.5125 C   0  0  0  0  0  0  0  0  0  0  0  0
   -0.3068    2.8128    0.6239 O   0  0  0  0  0  0  0  0  0  0  0  0
    0.6595    0.3436   -1.8761 C   0  0  0  0  0  0  0  0  0  0  0  0
    2.0130    0.9942   -1.4965 C   0  0  0  0  0  0  0  0  0  0  0  0
    2.9073    0.1850   -0.6317 N   0  0  0  0  0  0  0  0  0  0  0  0
    4.3185    0.5917   -0.8227 C   0  0  0  0  0  0  0  0  0  0  0  0
    4.6049    2.0370   -0.3868 C   0  0  0  0  0  0  0  0  0  0  0  0
    6.0006    2.3014   -0.4977 O   0  0  0  0  0  0  0  0  0  0  0  0
    3.8769   -1.6174    3.4482 H   0  0  0  0  0  0  0  0  0  0  0  0
    5.1455   -2.1777    2.3132 H   0  0  0  0  0  0  0  0  0  0  0  0
    3.7484   -3.2257    2.6740 H   0  0  0  0  0  0  0  0  0  0  0  0
    3.1074   -0.6169    1.4810 H   0  0  0  0  0  0  0  0  0  0  0  0
    3.1365   -1.5204   -1.8770 H   0  0  0  0  0  0  0  0  0  0  0  0
    1.0174   -2.3907    0.0135 H   0  0  0  0  0  0  0  0  0  0  0  0
    1.0787   -2.4142   -1.7178 H   0  0  0  0  0  0  0  0  0  0  0  0
   -0.3599   -1.0181    1.0518 H   0  0  0  0  0  0  0  0  0  0  0  0
    0.6651    0.3684    0.8381 H   0  0  0  0  0  0  0  0  0  0  0  0
   -2.9887   -1.5189    2.2912 H   0  0  0  0  0  0  0  0  0  0  0  0
   -3.7755   -3.8475    2.0443 H   0  0  0  0  0  0  0  0  0  0  0  0
   -4.4113   -4.7192   -0.1914 H   0  0  0  0  0  0  0  0  0  0  0  0
   -4.2513   -3.2526   -2.1884 H   0  0  0  0  0  0  0  0  0  0  0  0
   -3.4525   -0.9262   -1.9582 H   0  0  0  0  0  0  0  0  0  0  0  0
   -5.5584    0.8724    0.2220 H   0  0  0  0  0  0  0  0  0  0  0  0
   -6.4670    3.1846    0.3669 H   0  0  0  0  0  0  0  0  0  0  0  0
   -4.9445    5.1306    0.6032 H   0  0  0  0  0  0  0  0  0  0  0  0
   -2.4626    4.7789    0.6895 H   0  0  0  0  0  0  0  0  0  0  0  0
    0.7721   -0.1230   -2.8666 H   0  0  0  0  0  0  0  0  0  0  0  0
   -0.0972    1.1236   -2.0209 H   0  0  0  0  0  0  0  0  0  0  0  0
    2.5131    1.2662   -2.4375 H   0  0  0  0  0  0  0  0  0  0  0  0
    1.8041    1.9304   -0.9613 H   0  0  0  0  0  0  0  0  0  0  0  0
    4.6298    0.4561   -1.8668 H   0  0  0  0  0  0  0  0  0  0  0  0
    4.9865   -0.0527   -0.2378 H   0  0  0  0  0  0  0  0  0  0  0  0
    4.0752    2.7573   -1.0172 H   0  0  0  0  0  0  0  0  0  0  0  0
    4.3082    2.1894    0.6562 H   0  0  0  0  0  0  0  0  0  0  0  0
    6.1395    3.2095   -0.1782 H   0  0  0  0  0  0  0  0  0  0  0  0
  1  2  1  0
  2  3  1  0
  3  4  2  0
  3  5  1  0
  5  6  1  0
  6  7  1  0
  7  8  1  0
  8  9  1  0
  9 10  2  0
 10 11  1  0
 11 12  2  0
 12 13  1  0
 13 14  2  0
 14 15  1  0
 15 16  2  0
 10 17  1  0
 17 18  2  0
 18 19  1  0
 19 20  2  0
 20 21  1  0
 21 22  2  0
 22 23  1  0
 23 24  2  0
  7 25  1  0
 25 26  1  0
 26 27  1  0
 27 28  1  0
 28 29  1  0
 29 30  1  0
 27  5  1  0
 23  9  1  0
 16 11  1  0
 22 17  1  0
  1 31  1  0
  1 32  1  0
  1 33  1  0
  2 34  1  0
  5 35  1  0
  6 36  1  0
  6 37  1  0
  8 38  1  0
  8 39  1  0
 12 40  1  0
 13 41  1  0
 14 42  1  0
 15 43  1  0
 16 44  1  0
 18 45  1  0
 19 46  1  0
 20 47  1  0
 21 48  1  0
 25 49  1  0
 25 50  1  0
 26 51  1  0
 26 52  1  0
 28 53  1  0
 28 54  1  0
 29 55  1  0
 29 56  1  0
 30 57  1  0
M  END
$$$$
