
     RDKit          3D

 47 50  0  0  0  0  0  0  0  0999 V2000
    1.8893    2.0507   -0.0182 C   0  0  0  0  0  0  0  0  0  0  0  0
    2.8590    1.2502    0.8816 C   0  0  0  0  0  0  0  0  0  0  0  0
    2.0352    0.6743    2.0587 C   0  0  0  0  0  0  0  0  0  0  0  0
    1.3041   -0.6144    1.7581 C   0  0  0  0  0  0  0  0  0  0  0  0
   -0.0710   -0.6679    1.1567 C   0  0  0  0  0  0  0  0  0  0  0  0
   -0.4668   -1.6937    0.6075 O   0  0  0  0  0  0  0  0  0  0  0  0
   -0.8035    0.4832    1.2798 N   0  0  0  0  0  0  0  0  0  0  0  0
   -2.0667    0.6807    0.7776 C   0  0  0  0  0  0  0  0  0  0  0  0
   -2.8988   -0.1854    0.0383 C   0  0  0  0  0  0  0  0  0  0  0  0
   -4.0628    0.5189   -0.2096 C   0  0  0  0  0  0  0  0  0  0  0  0
   -5.2795    0.1565   -0.9348 C   0  0  0  0  0  0  0  0  0  0  0  0
   -6.5151    0.7305   -0.6245 C   0  0  0  0  0  0  0  0  0  0  0  0
   -7.6310    0.3431   -1.3513 C   0  0  0  0  0  0  0  0  0  0  0  0
   -7.6002   -0.5603   -2.3516 N   0  0  0  0  0  0  0  0  0  0  0  0
   -6.4007   -1.1101   -2.6317 C   0  0  0  0  0  0  0  0  0  0  0  0
   -5.2310   -0.7905   -1.9608 C   0  0  0  0  0  0  0  0  0  0  0  0
   -3.8439    1.7417    0.3711 N   0  0  0  0  0  0  0  0  0  0  0  0
   -2.6536    1.8614    0.9817 N   0  0  0  0  0  0  0  0  0  0  0  0
    1.8784   -1.8043    2.0265 C   0  0  0  0  0  0  0  0  0  0  0  0
    3.2088   -1.9053    2.5777 C   0  0  0  0  0  0  0  0  0  0  0  0
    4.3164   -1.4042    2.0083 C   0  0  0  0  0  0  0  0  0  0  0  0
    4.4285   -0.8521    0.6442 C   0  0  0  0  0  0  0  0  0  0  0  0
    5.3070   -1.6094   -0.1672 C   0  0  0  0  0  0  0  0  0  0  0  0
    5.5824   -1.2580   -1.4840 C   0  0  0  0  0  0  0  0  0  0  0  0
    4.9911   -0.1281   -2.0148 C   0  0  0  0  0  0  0  0  0  0  0  0
    4.1229    0.6352   -1.2296 C   0  0  0  0  0  0  0  0  0  0  0  0
    3.7936    0.2966    0.1088 C   0  0  0  0  0  0  0  0  0  0  0  0
    1.1897    2.6462    0.5789 H   0  0  0  0  0  0  0  0  0  0  0  0
    2.4243    2.7720   -0.6445 H   0  0  0  0  0  0  0  0  0  0  0  0
    1.3073    1.3925   -0.6718 H   0  0  0  0  0  0  0  0  0  0  0  0
    3.5328    1.9968    1.3277 H   0  0  0  0  0  0  0  0  0  0  0  0
    1.3489    1.4331    2.4499 H   0  0  0  0  0  0  0  0  0  0  0  0
    2.7106    0.5400    2.9144 H   0  0  0  0  0  0  0  0  0  0  0  0
   -0.4679    1.2879    1.7806 H   0  0  0  0  0  0  0  0  0  0  0  0
   -2.6845   -1.1998   -0.2682 H   0  0  0  0  0  0  0  0  0  0  0  0
   -6.6339    1.4497    0.1775 H   0  0  0  0  0  0  0  0  0  0  0  0
   -8.6109    0.7608   -1.1371 H   0  0  0  0  0  0  0  0  0  0  0  0
   -6.4010   -1.8391   -3.4372 H   0  0  0  0  0  0  0  0  0  0  0  0
   -4.3023   -1.2722   -2.2484 H   0  0  0  0  0  0  0  0  0  0  0  0
   -4.4627    2.5443    0.3743 H   0  0  0  0  0  0  0  0  0  0  0  0
    1.3561   -2.7436    1.8555 H   0  0  0  0  0  0  0  0  0  0  0  0
    3.2841   -2.4095    3.5387 H   0  0  0  0  0  0  0  0  0  0  0  0
    5.2649   -1.5227    2.5296 H   0  0  0  0  0  0  0  0  0  0  0  0
    5.7850   -2.5030    0.2330 H   0  0  0  0  0  0  0  0  0  0  0  0
    6.2561   -1.8624   -2.0839 H   0  0  0  0  0  0  0  0  0  0  0  0
    5.2008    0.1692   -3.0389 H   0  0  0  0  0  0  0  0  0  0  0  0
    3.7103    1.5205   -1.7056 H   0  0  0  0  0  0  0  0  0  0  0  0
  1  2  1  0
  2  3  1  0
  3  4  1  0
  4  5  1  0
  5  6  2  0
  5  7  1  0
  7  8  1  0
  8  9  1  0
  9 10  2  0
 10 11  1  0
 11 12  2  0
 12 13  1  0
 13 14  2  0
 14 15  1  0
 15 16  2  0
 10 17  1  0
 17 18  1  0
  4 19  2  3
 19 20  1  0
 20 21  2  3
 21 22  1  0
 22 23  2  0
 23 24  1  0
 24 25  2  0
 25 26  1  0
 26 27  2  0
 27  2  1  0
 18  8  2  0
 27 22  1  0
 16 11  1  0
  1 28  1  0
  1 29  1  0
  1 30  1  0
  2 31  1  0
  3 32  1  0
  3 33  1  0
  7 34  1  0
  9 35  1  0
 12 36  1  0
 13 37  1  0
 15 38  1  0
 16 39  1  0
 17 40  1  0
 19 41  1  0
 20 42  1  0
 21 43  1  0
 23 44  1  0
 24 45  1  0
 25 46  1  0
 26 47  1  0
M  END
$$$$
