
     RDKit          3D

 48 52  0  0  0  0  0  0  0  0999 V2000
    8.1021   -2.9404    0.5084 O   0  0  0  0  0  0  0  0  0  0  0  0
    6.9660   -2.1911    0.5916 C   0  0  0  0  0  0  0  0  0  0  0  0
    6.7066   -1.1654   -0.3109 C   0  0  0  0  0  0  0  0  0  0  0  0
    5.5290   -0.4250   -0.1868 C   0  0  0  0  0  0  0  0  0  0  0  0
    4.6112   -0.7054    0.8388 C   0  0  0  0  0  0  0  0  0  0  0  0
    3.3364    0.0949    0.9602 C   0  0  0  0  0  0  0  0  0  0  0  0
    2.4634   -0.2088   -0.1604 N   0  0  0  0  0  0  0  0  0  0  0  0
    1.1980    0.3253   -0.3194 C   0  0  0  0  0  0  0  0  0  0  0  0
    0.2220   -0.3631   -0.9683 C   0  0  0  0  0  0  0  0  0  0  0  0
   -1.0753    0.0726   -1.1726 N   0  0  0  0  0  0  0  0  0  0  0  0
   -1.3392    1.2732   -0.7319 C   0  0  0  0  0  0  0  0  0  0  0  0
   -0.3199    2.1796   -0.1219 C   0  0  0  0  0  0  0  0  0  0  0  0
   -0.6487    3.4661    0.0072 C   0  0  0  0  0  0  0  0  0  0  0  0
   -1.9507    4.0519   -0.4191 C   0  0  0  0  0  0  0  0  0  0  0  0
   -2.9957    3.0976   -0.7666 N   0  0  0  0  0  0  0  0  0  0  0  0
   -2.7348    1.8364   -0.8654 C   0  0  0  0  0  0  0  0  0  0  0  0
   -3.8401    0.8989   -1.1419 C   0  0  0  0  0  0  0  0  0  0  0  0
   -4.5618    1.0739   -2.3322 C   0  0  0  0  0  0  0  0  0  0  0  0
   -5.5980    0.2028   -2.6388 C   0  0  0  0  0  0  0  0  0  0  0  0
   -5.9105   -0.8256   -1.7529 C   0  0  0  0  0  0  0  0  0  0  0  0
   -5.1986   -0.9799   -0.5478 C   0  0  0  0  0  0  0  0  0  0  0  0
   -5.5267   -2.0026    0.3529 C   0  0  0  0  0  0  0  0  0  0  0  0
   -4.8276   -2.1307    1.5457 C   0  0  0  0  0  0  0  0  0  0  0  0
   -3.8225   -1.2224    1.8043 C   0  0  0  0  0  0  0  0  0  0  0  0
   -3.4807   -0.2229    0.9645 N   0  0  0  0  0  0  0  0  0  0  0  0
   -4.1425   -0.1029   -0.2129 C   0  0  0  0  0  0  0  0  0  0  0  0
    0.8899    1.5874    0.1534 N   0  0  0  0  0  0  0  0  0  0  0  0
    4.8908   -1.7485    1.7337 C   0  0  0  0  0  0  0  0  0  0  0  0
    6.0685   -2.4878    1.6102 C   0  0  0  0  0  0  0  0  0  0  0  0
    8.6230   -2.6277   -0.2492 H   0  0  0  0  0  0  0  0  0  0  0  0
    7.3990   -0.9305   -1.1129 H   0  0  0  0  0  0  0  0  0  0  0  0
    5.3183    0.3708   -0.8991 H   0  0  0  0  0  0  0  0  0  0  0  0
    3.5908    1.1613    0.9814 H   0  0  0  0  0  0  0  0  0  0  0  0
    2.8287   -0.1390    1.9037 H   0  0  0  0  0  0  0  0  0  0  0  0
    2.5050   -1.1907   -0.4253 H   0  0  0  0  0  0  0  0  0  0  0  0
    0.4268   -1.3521   -1.3666 H   0  0  0  0  0  0  0  0  0  0  0  0
    0.0770    4.1635    0.4128 H   0  0  0  0  0  0  0  0  0  0  0  0
   -2.3276    4.6735    0.4011 H   0  0  0  0  0  0  0  0  0  0  0  0
   -1.7809    4.7193   -1.2712 H   0  0  0  0  0  0  0  0  0  0  0  0
   -4.3049    1.8816   -3.0129 H   0  0  0  0  0  0  0  0  0  0  0  0
   -6.1589    0.3218   -3.5620 H   0  0  0  0  0  0  0  0  0  0  0  0
   -6.7230   -1.5051   -2.0024 H   0  0  0  0  0  0  0  0  0  0  0  0
   -6.3287   -2.7019    0.1305 H   0  0  0  0  0  0  0  0  0  0  0  0
   -5.0637   -2.9156    2.2546 H   0  0  0  0  0  0  0  0  0  0  0  0
   -3.2433   -1.2711    2.7218 H   0  0  0  0  0  0  0  0  0  0  0  0
    1.6738    2.1925    0.3426 H   0  0  0  0  0  0  0  0  0  0  0  0
    4.1940   -1.9944    2.5319 H   0  0  0  0  0  0  0  0  0  0  0  0
    6.2841   -3.2945    2.3051 H   0  0  0  0  0  0  0  0  0  0  0  0
  1  2  1  0
  2  3  2  0
  3  4  1  0
  4  5  2  0
  5  6  1  0
  6  7  1  0
  7  8  1  0
  8  9  2  0
  9 10  1  0
 10 11  2  0
 11 12  1  0
 12 13  2  0
 13 14  1  0
 14 15  1  0
 15 16  2  0
 16 17  1  0
 17 18  2  0
 18 19  1  0
 19 20  2  0
 20 21  1  0
 21 22  2  0
 22 23  1  0
 23 24  2  0
 24 25  1  0
 25 26  2  0
 12 27  1  0
  5 28  1  0
 28 29  2  0
 29  2  1  0
 27  8  1  0
 16 11  1  0
 26 17  1  0
 26 21  1  0
  1 30  1  0
  3 31  1  0
  4 32  1  0
  6 33  1  0
  6 34  1  0
  7 35  1  0
  9 36  1  0
 13 37  1  0
 14 38  1  0
 14 39  1  0
 18 40  1  0
 19 41  1  0
 20 42  1  0
 22 43  1  0
 23 44  1  0
 24 45  1  0
 27 46  1  0
 28 47  1  0
 29 48  1  0
M  END
$$$$
