MODEL        2USER    Run = 2USERUSER    Estimated Free Energy of Binding    = -10.71 kcal/mol  [=(1)+(2)+(3)-(4)]USERUSER    (1) Final Intermolecular Energy     = -13.39 kcal/molUSER        vdW + Hbond + desolv Energy     = -13.02 kcal/molUSER        Electrostatic Energy            =  -0.37 kcal/molUSER        Moving Ligand-Fixed Receptor    = -13.39 kcal/molUSER        Moving Ligand-Moving Receptor   =  +0.00 kcal/molUSER    (2) Final Total Internal Energy     =  -1.27 kcal/molUSER    (3) Torsional Free Energy           =  +2.68 kcal/molUSER    (4) Unbound System's Energy         =  -1.27 kcal/molUSERUSERREMARK SMILES CC(C)C(=O)Sc1[nH]nccc(N2CCC(C(F)(F)F)CC2)ccc1C=CS(N)(=O)=OREMARK SMILES IDX 7 1 8 2 9 3 10 4 11 5 12 6 23 7 24 8 25 9 6 11 4 12 5 13REMARK SMILES IDX 2 14 1 15 3 16 26 17 27 18 28 19 30 20 31 21 29 22 13 25REMARK SMILES IDX 14 26 22 27 15 28 21 29 16 30 17 31 18 32 19 33 20 34REMARK H PARENT 8 10 29 23 29 24USER                              x       y       z     vdW  Elec       q    TypeUSER                           _______ _______ _______ _____ _____    ______ ____ROOTATOM      1  C   UNL     1      37.961  47.657  15.076 -0.40 -0.06    +0.104 A  ATOM      2  N   UNL     1      39.312  47.615  14.796 -0.28 +0.08    -0.271 N  ATOM      3  N   UNL     1      40.036  48.844  14.965 -0.41 +0.06    -0.183 NA ATOM      4  C   UNL     1      40.783  48.827  16.076 -0.48 -0.02    +0.135 A  ATOM      5  C   UNL     1      41.006  48.058  17.156 -0.49 -0.01    +0.048 A  ATOM      6  C   UNL     1      40.494  46.984  17.797 -0.47 -0.00    +0.038 A  ATOM      7  C   UNL     1      39.281  46.387  17.721 -0.41 -0.01    +0.026 A  ATOM      8  C   UNL     1      38.071  46.422  17.144 -0.35 -0.00    +0.013 A  ATOM      9  C   UNL     1      37.405  47.016  16.136 -0.38 -0.00    +0.007 A  ATOM     10  H   UNL     1      39.781  46.873  15.310 +0.14 -0.04    +0.191 HD ENDROOTBRANCH   1  11ATOM     11  S   UNL     1      36.896  48.485  13.903 -0.78 +0.02    -0.032 SA BRANCH  11  12ATOM     12  C   UNL     1      37.001  47.310  12.599 -0.55 -0.07    +0.197 C  ATOM     13  O   UNL     1      37.914  47.369  11.771 -0.83 +0.00    -0.286 OA BRANCH  12  14ATOM     14  C   UNL     1      36.027  46.145  12.677 -0.60 -0.03    +0.062 C  ATOM     15  C   UNL     1      34.770  46.610  13.409 -0.38 -0.01    +0.016 C  ATOM     16  C   UNL     1      36.672  44.966  13.402 -0.47 -0.01    +0.016 C  ENDBRANCH  12  14ENDBRANCH  11  12ENDBRANCH   1  11BRANCH   9  17ATOM     17  C   UNL     1      35.940  46.870  16.205 -0.32 -0.03    +0.024 C  BRANCH  17  18ATOM     18  C   UNL     1      35.331  45.736  16.584 -0.32 -0.09    +0.123 C  BRANCH  18  19ATOM     19  S   UNL     1      34.448  45.700  18.059 -0.47 -0.14    +0.231 S  ATOM     20  O   UNL     1      33.092  45.241  17.832 -0.30 +0.10    -0.208 OA ATOM     21  O   UNL     1      35.251  45.096  19.103 -0.33 +0.06    -0.208 OA BRANCH  19  22ATOM     22  N   UNL     1      34.273  47.309  18.524 -0.94 +0.19    -0.225 NA ATOM     23  H   UNL     1      33.873  47.341  19.458 -0.41 -0.04    +0.137 HD ATOM     24  H   UNL     1      33.669  47.792  17.855 -0.49 -0.28    +0.137 HD ENDBRANCH  19  22ENDBRANCH  18  19ENDBRANCH  17  18ENDBRANCH   9  17BRANCH   6  25ATOM     25  N   UNL     1      41.405  46.436  18.792 -0.24 -0.01    -0.371 N  ATOM     26  C   UNL     1      41.110  45.242  19.596 -0.39 +0.01    +0.117 C  ATOM     27  C   UNL     1      42.784  46.932  18.874 -0.44 +0.02    +0.117 C  ATOM     28  C   UNL     1      42.122  45.046  20.724 -0.26 +0.01    +0.034 C  ATOM     29  C   UNL     1      43.078  47.364  20.307 -0.39 +0.01    +0.034 C  ATOM     30  C   UNL     1      42.547  46.374  21.361 -0.33 +0.02    +0.098 C  BRANCH  30  31ATOM     31  C   UNL     1      43.585  46.141  22.441 -0.10 +0.14    +0.391 C  ATOM     32  F   UNL     1      43.347  44.998  23.122 -0.02 -0.03    -0.171 F  ATOM     33  F   UNL     1      44.830  46.053  21.917 -0.06 -0.18    -0.171 F  ATOM     34  F   UNL     1      43.596  47.154  23.338 -0.05 -0.04    -0.171 F  ENDBRANCH  30  31ENDBRANCH   6  25TORSDOF 9TERENDMDL