MODEL        8USER    Run = 8USERUSER    Estimated Free Energy of Binding    =  -9.21 kcal/mol  [=(1)+(2)+(3)-(4)]USERUSER    (1) Final Intermolecular Energy     = -12.20 kcal/molUSER        vdW + Hbond + desolv Energy     = -11.80 kcal/molUSER        Electrostatic Energy            =  -0.39 kcal/molUSER        Moving Ligand-Fixed Receptor    = -12.20 kcal/molUSER        Moving Ligand-Moving Receptor   =  +0.00 kcal/molUSER    (2) Final Total Internal Energy     =  -2.61 kcal/molUSER    (3) Torsional Free Energy           =  +2.98 kcal/molUSER    (4) Unbound System's Energy         =  -2.61 kcal/molUSERUSERREMARK SMILES NCCSc1[nH]nccc(N2CCC(C(F)(F)F)CC2)ccc1C=CS(N)(=O)=OREMARK SMILES IDX 5 1 6 2 7 3 8 4 9 5 10 6 21 7 22 8 23 9 4 11 3 12 2 13 1 14REMARK SMILES IDX 24 17 25 18 26 19 28 20 29 21 27 22 11 25 12 26 20 27 13 28REMARK SMILES IDX 19 29 14 30 15 31 16 32 17 33 18 34REMARK H PARENT 6 10 1 15 1 16 27 23 27 24USER                              x       y       z     vdW  Elec       q    TypeUSER                           _______ _______ _______ _____ _____    ______ ____ROOTATOM      1  C   UNL     1      37.721  45.781  14.826 -0.32 -0.04    +0.096 A  ATOM      2  N   UNL     1      38.920  46.405  14.562 -0.24 +0.07    -0.271 N  ATOM      3  N   UNL     1      38.948  47.851  14.742 -0.35 +0.07    -0.183 NA ATOM      4  C   UNL     1      40.013  48.134  15.495 -0.45 -0.04    +0.135 A  ATOM      5  C   UNL     1      40.530  47.685  16.647 -0.50 -0.01    +0.048 A  ATOM      6  C   UNL     1      40.099  46.883  17.643 -0.45 -0.01    +0.038 A  ATOM      7  C   UNL     1      38.917  46.252  17.818 -0.39 -0.01    +0.026 A  ATOM      8  C   UNL     1      37.772  45.839  17.259 -0.37 -0.00    +0.013 A  ATOM      9  C   UNL     1      37.178  45.628  16.063 -0.35 -0.00    +0.007 A  ATOM     10  H   UNL     1      39.161  46.263  13.587 +0.14 -0.03    +0.191 HD ENDROOTBRANCH   1  11ATOM     11  S   UNL     1      36.904  45.032  13.418 -0.57 +0.04    -0.105 SA BRANCH  11  12ATOM     12  C   UNL     1      35.669  46.315  13.020 -0.53 -0.05    +0.091 C  BRANCH  12  13ATOM     13  C   UNL     1      36.221  47.618  12.414 -0.67 -0.04    +0.089 C  BRANCH  13  14ATOM     14  N   UNL     1      37.679  47.741  12.359 -0.83 +0.01    -0.330 NA ATOM     15  H   UNL     1      37.968  48.539  12.952 +0.05 +0.00    +0.118 HD ATOM     16  H   UNL     1      38.088  46.984  12.918 +0.07 -0.02    +0.118 HD ENDBRANCH  13  14ENDBRANCH  12  13ENDBRANCH  11  12ENDBRANCH   1  11BRANCH   9  17ATOM     17  C   UNL     1      35.827  45.038  16.179 -0.37 -0.01    +0.024 C  BRANCH  17  18ATOM     18  C   UNL     1      34.724  45.747  16.465 -0.28 -0.11    +0.123 C  BRANCH  18  19ATOM     19  S   UNL     1      34.108  45.766  18.070 -0.49 -0.15    +0.231 S  ATOM     20  O   UNL     1      32.801  45.142  18.089 -0.31 +0.07    -0.208 OA ATOM     21  O   UNL     1      35.127  45.355  19.008 -0.34 +0.07    -0.208 OA BRANCH  19  22ATOM     22  N   UNL     1      33.795  47.373  18.454 -0.92 +0.23    -0.225 NA ATOM     23  H   UNL     1      33.920  47.953  17.628 -0.45 -0.36    +0.137 HD ATOM     24  H   UNL     1      32.873  47.449  18.879 -0.47 -0.12    +0.137 HD ENDBRANCH  19  22ENDBRANCH  18  19ENDBRANCH  17  18ENDBRANCH   9  17BRANCH   6  25ATOM     25  N   UNL     1      40.999  46.750  18.772 -0.22 +0.01    -0.371 N  ATOM     26  C   UNL     1      40.578  45.942  19.928 -0.34 +0.00    +0.117 C  ATOM     27  C   UNL     1      42.410  47.138  18.689 -0.51 +0.01    +0.117 C  ATOM     28  C   UNL     1      41.758  45.165  20.500 -0.36 +0.01    +0.034 C  ATOM     29  C   UNL     1      42.965  47.373  20.087 -0.45 +0.01    +0.034 C  ATOM     30  C   UNL     1      42.904  46.093  20.936 -0.24 +0.04    +0.098 C  BRANCH  30  31ATOM     31  C   UNL     1      42.803  46.444  22.410 -0.11 +0.09    +0.391 C  ATOM     32  F   UNL     1      41.620  46.076  22.947 -0.04 -0.02    -0.171 F  ATOM     33  F   UNL     1      43.782  45.837  23.120 -0.03 -0.05    -0.171 F  ATOM     34  F   UNL     1      42.946  47.776  22.598 -0.12 -0.03    -0.171 F  ENDBRANCH  30  31ENDBRANCH   6  25TORSDOF 10TERENDMDL