MODEL        6USER    Run = 6USERUSER    Estimated Free Energy of Binding    =  -7.96 kcal/mol  [=(1)+(2)+(3)-(4)]USERUSER    (1) Final Intermolecular Energy     = -10.65 kcal/molUSER        vdW + Hbond + desolv Energy     = -10.47 kcal/molUSER        Electrostatic Energy            =  -0.18 kcal/molUSER        Moving Ligand-Fixed Receptor    = -10.65 kcal/molUSER        Moving Ligand-Moving Receptor   =  +0.00 kcal/molUSER    (2) Final Total Internal Energy     =  -3.79 kcal/molUSER    (3) Torsional Free Energy           =  +2.68 kcal/molUSER    (4) Unbound System's Energy         =  -3.79 kcal/molUSERUSERREMARK SMILES NS(=O)(=O)C=Cc1ccc(N2CCC(C(F)(F)F)CC2)ccn[nH]c1SC(=O)OREMARK SMILES IDX 7 1 8 2 9 3 10 4 21 5 22 6 23 7 24 8 25 9 6 11 5 12 2 13REMARK SMILES IDX 3 14 4 15 1 16 26 19 27 20 28 21 29 22 11 24 12 25 20 26REMARK SMILES IDX 13 27 19 28 14 29 15 30 16 31 17 32 18 33REMARK H PARENT 24 10 1 17 1 18 29 23USER                              x       y       z     vdW  Elec       q    TypeUSER                           _______ _______ _______ _____ _____    ______ ____ROOTATOM      1  C   UNL     1      38.409  45.881  16.150 -0.37 -0.00    +0.007 A  ATOM      2  C   UNL     1      38.816  45.560  17.398 -0.39 -0.00    +0.013 A  ATOM      3  C   UNL     1      38.386  45.031  18.551 -0.38 -0.00    +0.026 A  ATOM      4  C   UNL     1      37.415  44.335  19.182 -0.33 -0.00    +0.038 A  ATOM      5  C   UNL     1      36.357  43.640  18.712 -0.29 -0.01    +0.048 A  ATOM      6  C   UNL     1      35.788  43.409  17.520 -0.25 -0.04    +0.135 A  ATOM      7  N   UNL     1      35.866  43.899  16.279 -0.25 +0.07    -0.183 NA ATOM      8  N   UNL     1      36.073  45.331  16.370 -0.15 +0.15    -0.271 N  ATOM      9  C   UNL     1      37.144  45.823  15.657 -0.29 -0.05    +0.107 A  ATOM     10  H   UNL     1      35.217  45.755  16.024 +0.13 -0.16    +0.191 HD ENDROOTBRANCH   1  11ATOM     11  C   UNL     1      39.487  46.410  15.289 -0.49 -0.00    +0.024 C  BRANCH  11  12ATOM     12  C   UNL     1      40.549  47.058  15.793 -0.44 -0.01    +0.123 C  BRANCH  12  13ATOM     13  S   UNL     1      40.715  48.748  15.550 -0.64 -0.05    +0.231 S  ATOM     14  O   UNL     1      40.774  49.053  14.133 -0.47 +0.05    -0.208 OA ATOM     15  O   UNL     1      41.675  49.328  16.468 -1.10 -0.03    -0.208 OA BRANCH  13  16ATOM     16  N   UNL     1      39.240  49.396  16.057 -0.17 +0.13    -0.225 NA ATOM     17  H   UNL     1      38.697  48.661  16.513 +0.08 -0.09    +0.137 HD ATOM     18  H   UNL     1      38.765  49.807  15.251 -0.41 -0.12    +0.137 HD ENDBRANCH  13  16ENDBRANCH  12  13ENDBRANCH  11  12ENDBRANCH   1  11BRANCH   9  19ATOM     19  S   UNL     1      36.789  46.487  14.036 -0.64 -0.01    +0.013 SA BRANCH  19  20ATOM     20  C   UNL     1      37.214  48.146  14.357 -0.29 -0.24    +0.371 C  ATOM     21  O   UNL     1      36.869  48.756  15.363 -0.36 +0.28    -0.238 OA BRANCH  20  22ATOM     22  O   UNL     1      38.026  48.762  13.466 -0.33 +0.15    -0.473 OA ATOM     23  H   UNL     1      38.630  49.272  14.039 -0.24 -0.19    +0.297 HD ENDBRANCH  20  22ENDBRANCH  19  20ENDBRANCH   9  19BRANCH   4  24ATOM     24  N   UNL     1      37.618  44.247  20.617 -0.15 +0.00    -0.371 N  ATOM     25  C   UNL     1      36.838  43.262  21.384 -0.40 +0.00    +0.117 C  ATOM     26  C   UNL     1      38.760  44.882  21.281 -0.33 +0.00    +0.117 C  ATOM     27  C   UNL     1      37.679  42.657  22.502 -0.44 +0.00    +0.034 C  ATOM     28  C   UNL     1      38.441  45.081  22.758 -0.36 +0.00    +0.034 C  ATOM     29  C   UNL     1      38.221  43.730  23.464 -0.29 +0.01    +0.098 C  BRANCH  29  30ATOM     30  C   UNL     1      37.307  43.915  24.665 -0.15 +0.02    +0.391 C  ATOM     31  F   UNL     1      36.909  45.204  24.772 -0.13 -0.03    -0.171 F  ATOM     32  F   UNL     1      37.947  43.597  25.819 -0.04 +0.01    -0.171 F  ATOM     33  F   UNL     1      36.197  43.149  24.591 -0.10 -0.02    -0.171 F  ENDBRANCH  29  30ENDBRANCH   4  24TORSDOF 9TERENDMDL