REMARK SMILES NCCSc1[nH]nccc(N2CCC(C(F)(F)F)CC2)ccc1C=CS(N)(=O)=O
REMARK SMILES IDX 5 1 6 2 7 3 8 4 9 5 10 6 21 7 22 8 23 9 4 11 3 12 2 13 1 14
REMARK SMILES IDX 24 17 25 18 26 19 28 20 29 21 27 22 11 25 12 26 20 27 13 28
REMARK SMILES IDX 19 29 14 30 15 31 16 32 17 33 18 34
REMARK H PARENT 6 10 1 15 1 16 27 23 27 24
ROOT
ATOM      1  C   UNL     1      -2.725   0.621   0.679  1.00  0.00     0.096 A 
ATOM      2  N   UNL     1      -2.135   1.832   0.394  1.00  0.00    -0.271 N 
ATOM      3  N   UNL     1      -1.716   2.630   1.539  1.00  0.00    -0.183 NA
ATOM      4  C   UNL     1      -0.452   2.999   1.321  1.00  0.00     0.135 A 
ATOM      5  C   UNL     1       0.685   2.389   0.957  1.00  0.00     0.048 A 
ATOM      6  C   UNL     1       1.088   1.107   0.836  1.00  0.00     0.038 A 
ATOM      7  C   UNL     1       0.436  -0.050   1.084  1.00  0.00     0.026 A 
ATOM      8  C   UNL     1      -0.742  -0.650   1.296  1.00  0.00     0.013 A 
ATOM      9  C   UNL     1      -2.076  -0.462   1.185  1.00  0.00     0.007 A 
ATOM     10  H   UNL     1      -2.801   2.418  -0.098  1.00  0.00     0.191 HD
ENDROOT
BRANCH   1  11
ATOM     11  S   UNL     1      -4.453   0.469   0.230  1.00  0.00    -0.105 SA
BRANCH  11  12
ATOM     12  C   UNL     1      -4.381   0.890  -1.545  1.00  0.00     0.091 C 
BRANCH  12  13
ATOM     13  C   UNL     1      -3.572  -0.071  -2.434  1.00  0.00     0.089 C 
BRANCH  13  14
ATOM     14  N   UNL     1      -2.114   0.035  -2.344  1.00  0.00    -0.330 NA
ATOM     15  H   UNL     1      -1.869   0.994  -2.040  1.00  0.00     0.118 HD
ATOM     16  H   UNL     1      -1.804  -0.470  -1.507  1.00  0.00     0.118 HD
ENDBRANCH  13  14
ENDBRANCH  12  13
ENDBRANCH  11  12
ENDBRANCH   1  11
BRANCH   9  17
ATOM     17  C   UNL     1      -2.866  -1.659   1.549  1.00  0.00     0.024 C 
BRANCH  17  18
ATOM     18  C   UNL     1      -3.027  -2.721   0.745  1.00  0.00     0.123 C 
BRANCH  18  19
ATOM     19  S   UNL     1      -4.009  -4.038   1.249  1.00  0.00     0.231 S 
ATOM     20  O   UNL     1      -4.511  -4.735   0.083  1.00  0.00    -0.208 OA
ATOM     21  O   UNL     1      -3.365  -4.770   2.316  1.00  0.00    -0.208 OA
BRANCH  19  22
ATOM     22  N   UNL     1      -5.387  -3.380   1.952  1.00  0.00    -0.225 NA
ATOM     23  H   UNL     1      -6.155  -3.401   1.285  1.00  0.00     0.137 HD
ATOM     24  H   UNL     1      -5.586  -3.859   2.828  1.00  0.00     0.137 HD
ENDBRANCH  19  22
ENDBRANCH  18  19
ENDBRANCH  17  18
ENDBRANCH   9  17
BRANCH   6  25
ATOM     25  N   UNL     1       2.483   0.922   0.486  1.00  0.00    -0.371 N 
ATOM     26  C   UNL     1       2.818   0.181  -0.741  1.00  0.00     0.117 C 
ATOM     27  C   UNL     1       3.554   1.683   1.136  1.00  0.00     0.117 C 
ATOM     28  C   UNL     1       4.025   0.803  -1.433  1.00  0.00     0.034 C 
ATOM     29  C   UNL     1       4.882   0.958   0.963  1.00  0.00     0.034 C 
ATOM     30  C   UNL     1       5.262   0.833  -0.521  1.00  0.00     0.098 C 
BRANCH  30  31
ATOM     31  C   UNL     1       6.140  -0.387  -0.737  1.00  0.00     0.391 C 
ATOM     32  F   UNL     1       5.499  -1.540  -0.452  1.00  0.00    -0.171 F 
ATOM     33  F   UNL     1       6.561  -0.459  -2.022  1.00  0.00    -0.171 F 
ATOM     34  F   UNL     1       7.247  -0.327   0.039  1.00  0.00    -0.171 F 
ENDBRANCH  30  31
ENDBRANCH   6  25
TORSDOF 10
