MODEL        1USER    Run = 1USERUSER    Estimated Free Energy of Binding    = -12.63 kcal/mol  [=(1)+(2)+(3)-(4)]USERUSER    (1) Final Intermolecular Energy     = -15.02 kcal/molUSER        vdW + Hbond + desolv Energy     = -14.88 kcal/molUSER        Electrostatic Energy            =  -0.13 kcal/molUSER        Moving Ligand-Fixed Receptor    = -15.02 kcal/molUSER        Moving Ligand-Moving Receptor   =  +0.00 kcal/molUSER    (2) Final Total Internal Energy     =  -2.48 kcal/molUSER    (3) Torsional Free Energy           =  +2.39 kcal/molUSER    (4) Unbound System's Energy         =  -2.48 kcal/molUSERUSERREMARK SMILES N#Cc1cnc(-c2ccc(CNCc3ccc(-c4csnn4)cc3)cc2)c(-c2ccccc2)c1REMARK SMILES IDX 11 1 10 2 7 3 8 4 26 5 9 6 25 7 6 8 3 9 4 10 34 11 5 12REMARK SMILES IDX 27 13 2 14 1 15 28 16 29 17 33 18 30 19 32 20 31 21 12 22REMARK SMILES IDX 13 24 14 25 15 26 24 27 16 28 23 29 17 30 18 31 19 32 22 33REMARK SMILES IDX 20 34 21 35REMARK H PARENT 12 23USER                              x       y       z     vdW  Elec       q    TypeUSER                           _______ _______ _______ _____ _____    ______ ____ROOTATOM      1  C   UNL     1      36.114  43.367  20.423 -0.41 -0.00    +0.117 C  ENDROOTBRANCH   1   2ATOM      2  C   UNL     1      35.264  43.878  19.284 -0.36 +0.01    -0.034 A  ATOM      3  C   UNL     1      33.688  44.817  17.116 -0.32 -0.00    +0.001 A  ATOM      4  C   UNL     1      34.367  45.709  17.965 -0.44 -0.01    +0.011 A  ATOM      5  C   UNL     1      33.803  43.445  17.388 -0.32 -0.00    +0.011 A  ATOM      6  C   UNL     1      35.149  45.249  19.030 -0.27 -0.00    +0.006 A  ATOM      7  C   UNL     1      34.586  42.980  18.450 -0.37 -0.00    +0.006 A  BRANCH   3   8ATOM      8  C   UNL     1      32.871  45.330  15.997 -0.25 -0.06    +0.078 A  ATOM      9  C   UNL     1      31.099  46.193  14.056 -0.52 -0.04    +0.071 A  ATOM     10  C   UNL     1      30.683  45.731  15.289 -0.37 -0.06    +0.131 A  ATOM     11  C   UNL     1      32.469  46.230  13.802 -0.13 -0.03    +0.032 A  ATOM     12  N   UNL     1      31.530  45.309  16.255 -0.68 +0.09    -0.254 NA ATOM     13  C   UNL     1      33.394  45.800  14.775 -0.14 -0.01    +0.009 A  BRANCH   9  14ATOM     14  C   UNL     1      30.149  46.626  13.082 -0.58 -0.06    +0.101 C  ATOM     15  N   UNL     1      29.378  46.979  12.292 -0.76 +0.09    -0.192 NA ENDBRANCH   9  14BRANCH  13  16ATOM     16  C   UNL     1      34.833  45.901  14.477 -0.34 +0.01    -0.016 A  ATOM     17  C   UNL     1      35.742  44.965  15.001 -0.34 -0.00    +0.009 A  ATOM     18  C   UNL     1      35.334  46.920  13.650 -0.41 -0.01    +0.009 A  ATOM     19  C   UNL     1      37.107  45.052  14.717 -0.38 -0.00    +0.001 A  ATOM     20  C   UNL     1      36.699  47.009  13.368 -0.57 -0.00    +0.001 A  ATOM     21  C   UNL     1      37.585  46.076  13.901 -0.45 -0.00    +0.000 A  ENDBRANCH  13  16ENDBRANCH   3   8ENDBRANCH   1   2BRANCH   1  22ATOM     22  N   UNL     1      37.493  43.159  19.980 -0.05 +0.01    -0.309 NA ATOM     23  H   UNL     1      37.515  43.235  18.964 +0.08 -0.01    +0.123 HD BRANCH  22  24ATOM     24  C   UNL     1      38.410  44.147  20.550 -0.31 -0.00    +0.117 C  BRANCH  24  25ATOM     25  C   UNL     1      38.977  45.102  19.526 -0.37 +0.00    -0.034 A  ATOM     26  C   UNL     1      40.254  45.653  19.689 -0.40 +0.00    +0.006 A  ATOM     27  C   UNL     1      38.226  45.469  18.403 -0.38 -0.00    +0.006 A  ATOM     28  C   UNL     1      40.772  46.545  18.743 -0.46 -0.00    +0.011 A  ATOM     29  C   UNL     1      38.743  46.360  17.458 -0.39 -0.00    +0.011 A  ATOM     30  C   UNL     1      40.026  46.905  17.612 -0.48 -0.00    +0.003 A  BRANCH  30  31ATOM     31  C   UNL     1      40.537  47.832  16.606 -0.46 -0.02    +0.105 A  ATOM     32  C   UNL     1      40.180  47.818  15.268 -0.44 -0.02    +0.118 A  ATOM     33  N   UNL     1      41.435  48.841  16.949 -0.97 -0.00    -0.138 NA ATOM     34  S   UNL     1      41.027  49.096  14.495 -0.83 +0.00    -0.020 S  ATOM     35  N   UNL     1      41.777  49.579  15.907 -1.04 -0.01    -0.091 NA ENDBRANCH  30  31ENDBRANCH  24  25ENDBRANCH  22  24ENDBRANCH   1  22TORSDOF 8TERENDMDL