MODEL        3USER    Run = 3USERUSER    Estimated Free Energy of Binding    = -13.56 kcal/mol  [=(1)+(2)+(3)-(4)]USERUSER    (1) Final Intermolecular Energy     = -15.35 kcal/molUSER        vdW + Hbond + desolv Energy     = -15.21 kcal/molUSER        Electrostatic Energy            =  -0.14 kcal/molUSER        Moving Ligand-Fixed Receptor    = -15.35 kcal/molUSER        Moving Ligand-Moving Receptor   =  +0.00 kcal/molUSER    (2) Final Total Internal Energy     =  -2.70 kcal/molUSER    (3) Torsional Free Energy           =  +1.79 kcal/molUSER    (4) Unbound System's Energy         =  -2.70 kcal/molUSERUSERREMARK SMILES Oc1nc2ccccc2n1C1CCN(Cc2ccc(-c3nc4ccccc4nc3-c3ccccc3)cc2)CC1REMARK SMILES IDX 11 1 12 2 13 3 14 4 38 5 39 6 10 7 2 8 3 9 4 10 9 11 5 12REMARK SMILES IDX 8 13 6 14 7 15 1 16 15 18 16 19 17 20 37 21 18 22 36 23REMARK SMILES IDX 19 24 20 25 21 26 29 27 22 28 28 29 23 30 27 31 24 32 26 33REMARK SMILES IDX 25 34 30 35 31 36 35 37 32 38 34 39 33 40REMARK H PARENT 1 17USER                              x       y       z     vdW  Elec       q    TypeUSER                           _______ _______ _______ _____ _____    ______ ____ROOTATOM      1  C   UNL     1      38.554  47.249  15.377 -0.45 -0.04    +0.095 C  ATOM      2  C   UNL     1      37.651  48.443  15.023 -0.57 -0.03    +0.041 C  ATOM      3  C   UNL     1      37.096  48.336  13.603 -0.56 -0.04    +0.087 C  ATOM      4  N   UNL     1      36.618  46.995  13.254 -0.33 +0.14    -0.299 NA ATOM      5  C   UNL     1      37.651  45.959  13.420 -0.43 -0.03    +0.087 C  ATOM      6  C   UNL     1      38.922  46.424  14.139 -0.41 -0.01    +0.041 C  ENDROOTBRANCH   1   7ATOM      7  N   UNL     1      39.713  47.639  16.165 -0.28 +0.08    -0.291 N  ATOM      8  C   UNL     1      40.509  48.730  15.955 -0.33 -0.07    +0.295 A  ATOM      9  N   UNL     1      41.476  48.842  16.823 -0.94 -0.01    -0.195 NA ATOM     10  C   UNL     1      41.303  47.768  17.663 -0.44 -0.01    +0.092 A  ATOM     11  C   UNL     1      40.203  46.995  17.283 -0.45 -0.01    +0.072 A  ATOM     12  C   UNL     1      42.055  47.392  18.787 -0.50 +0.00    +0.031 A  ATOM     13  C   UNL     1      39.811  45.849  17.988 -0.43 -0.00    +0.029 A  ATOM     14  C   UNL     1      41.678  46.249  19.502 -0.46 +0.00    +0.002 A  ATOM     15  C   UNL     1      40.575  45.493  19.107 -0.45 +0.00    +0.002 A  BRANCH   8  16ATOM     16  O   UNL     1      40.339  49.610  14.989 -0.21 +0.21    -0.480 OA ATOM     17  H   UNL     1      39.563  50.103  15.312 -0.20 -0.24    +0.296 HD ENDBRANCH   8  16ENDBRANCH   1   7BRANCH   4  18ATOM     18  C   UNL     1      35.358  46.615  13.916 -0.43 -0.09    +0.120 C  BRANCH  18  19ATOM     19  C   UNL     1      35.550  45.933  15.253 -0.34 +0.03    -0.034 A  ATOM     20  C   UNL     1      35.563  46.675  16.439 -0.23 -0.01    +0.006 A  ATOM     21  C   UNL     1      35.734  44.546  15.323 -0.34 -0.00    +0.006 A  ATOM     22  C   UNL     1      35.736  46.037  17.672 -0.33 -0.01    +0.011 A  ATOM     23  C   UNL     1      35.906  43.912  16.556 -0.35 -0.00    +0.011 A  ATOM     24  C   UNL     1      35.894  44.644  17.755 -0.32 -0.00    +0.002 A  BRANCH  24  25ATOM     25  C   UNL     1      36.056  43.990  19.064 -0.30 -0.02    +0.097 A  ATOM     26  N   UNL     1      37.214  44.324  19.705 -0.22 +0.02    -0.244 NA ATOM     27  C   UNL     1      35.146  43.085  19.633 -0.36 -0.01    +0.097 A  ATOM     28  C   UNL     1      37.465  43.726  20.884 -0.32 +0.00    +0.089 A  ATOM     29  N   UNL     1      35.414  42.475  20.823 -0.30 -0.01    -0.244 NA ATOM     30  C   UNL     1      38.637  44.026  21.567 -0.31 +0.00    +0.030 A  ATOM     31  C   UNL     1      36.562  42.796  21.443 -0.39 +0.00    +0.089 A  ATOM     32  C   UNL     1      38.938  43.427  22.791 -0.28 +0.00    +0.002 A  ATOM     33  C   UNL     1      36.870  42.204  22.662 -0.47 +0.00    +0.030 A  ATOM     34  C   UNL     1      38.050  42.512  23.341 -0.35 +0.00    +0.002 A  BRANCH  27  35ATOM     35  C   UNL     1      33.840  42.716  19.055 -0.40 -0.00    +0.002 A  ATOM     36  C   UNL     1      32.735  43.574  19.191 -0.41 -0.00    +0.010 A  ATOM     37  C   UNL     1      33.657  41.525  18.329 -0.35 -0.00    +0.010 A  ATOM     38  C   UNL     1      31.489  43.245  18.648 -0.28 -0.00    +0.001 A  ATOM     39  C   UNL     1      32.412  41.192  17.788 -0.38 -0.00    +0.001 A  ATOM     40  C   UNL     1      31.327  42.051  17.950 -0.30 -0.00    +0.000 A  ENDBRANCH  27  35ENDBRANCH  24  25ENDBRANCH  18  19ENDBRANCH   4  18TORSDOF 6TERENDMDL