MODEL        10USER    Run = 10USERUSER    Estimated Free Energy of Binding    =  -6.96 kcal/mol  [=(1)+(2)+(3)-(4)]USERUSER    (1) Final Intermolecular Energy     = -11.43 kcal/molUSER        vdW + Hbond + desolv Energy     = -11.23 kcal/molUSER        Electrostatic Energy            =  -0.25 kcal/molUSER        Moving Ligand-Fixed Receptor    = -11.48 kcal/molUSER        Moving Ligand-Moving Receptor   =  +0.05 kcal/molUSER    (2) Final Total Internal Energy     =  -3.32 kcal/molUSER    (3) Torsional Free Energy           =  +4.47 kcal/molUSER    (4) Unbound System's Energy         =  -3.32 kcal/molUSERUSERREMARK SMILES COc1ccc(O)c(C(=O)c2ccc(CN[C@@H]3CCCNC[C@H]3NC(=O)c3ccncc3)cc2)c1FREMARK SMILES IDX 16 1 15 3 14 4 11 5 12 6 34 7 13 8 33 9 9 10 10 11 8 12 3 13REMARK SMILES IDX 4 14 35 15 5 16 6 17 36 18 2 19 1 20 7 21 17 23 18 24 23 26REMARK SMILES IDX 22 27 21 28 20 30 19 31 24 33 25 34 26 36 27 37 28 38 32 39REMARK SMILES IDX 29 40 31 41 30 42REMARK H PARENT 16 2 7 22 21 29 24 35REMARK Flexibility Score:   99.900USER                              x       y       z     vdW  Elec       q    TypeUSER                           _______ _______ _______ _____ _____    ______ ____ROOTATOM      1  N   UNL     1      37.159  44.353  23.380 -0.17 -0.05    -0.308 NA ATOM      2  H   UNL     1      37.233  45.292  22.983 +0.05 +0.02    +0.123 HD ENDROOTBRANCH   1   3ATOM      3  C   UNL     1      38.002  43.446  22.599 -0.33 +0.01    +0.117 C  BRANCH   3   4ATOM      4  C   UNL     1      38.757  44.129  21.485 -0.30 -0.00    -0.034 A  ATOM      5  C   UNL     1      40.180  45.388  19.411 -0.41 -0.00    +0.023 A  ATOM      6  C   UNL     1      40.837  44.505  20.274 -0.36 +0.00    +0.012 A  ATOM      7  C   UNL     1      38.821  45.661  19.601 -0.26 -0.00    +0.012 A  ATOM      8  C   UNL     1      40.125  43.875  21.299 -0.18 +0.00    +0.006 A  ATOM      9  C   UNL     1      38.113  45.031  20.627 -0.19 +0.00    +0.006 A  BRANCH   5  10ATOM     10  C   UNL     1      40.900  46.112  18.335 -0.41 -0.01    +0.199 C  ATOM     11  O   UNL     1      42.128  46.193  18.388 -0.33 -0.01    -0.288 OA BRANCH  10  12ATOM     12  C   UNL     1      40.223  46.698  17.158 -0.42 -0.02    +0.104 A  ATOM     13  C   UNL     1      38.511  46.639  15.423 -0.31 -0.05    +0.155 A  ATOM     14  C   UNL     1      38.986  47.851  14.918 -0.48 -0.02    +0.053 A  ATOM     15  C   UNL     1      39.134  46.076  16.547 -0.28 -0.04    +0.179 A  ATOM     16  C   UNL     1      40.054  48.501  15.543 -0.53 -0.02    +0.051 A  ATOM     17  C   UNL     1      40.655  47.935  16.664 -0.44 -0.02    +0.130 A  ATOM     18  F   UNL     1      38.643  44.930  17.048 -0.07 +0.04    -0.202 F  BRANCH  13  19ATOM     19  O   UNL     1      37.461  45.924  14.911 -0.06 +0.21    -0.494 OA ATOM     20  C   UNL     1      36.158  46.264  15.366 -0.24 -0.20    +0.278 C  ENDBRANCH  13  19BRANCH  17  21ATOM     21  O   UNL     1      41.671  48.652  17.238 -0.64 -0.03    -0.507 OA ATOM     22  H   UNL     1      42.390  48.020  17.472 -0.15 -0.00    +0.293 HD ENDBRANCH  17  21ENDBRANCH  10  12ENDBRANCH   5  10ENDBRANCH   3   4ENDBRANCH   1   3BRANCH   1  23ATOM     23  C   UNL     1      37.530  44.425  24.820 -0.32 +0.00    +0.077 C  BRANCH  23  24ATOM     24  C   UNL     1      36.586  43.485  25.580 -0.42 -0.00    +0.022 CG0ATOM     25  G   UNL     1      37.157  42.886  26.865 +0.00 +0.00    +0.000 G0 ENDBRANCH  23  24BRANCH  23  26ATOM     26  C   UNL     1      37.463  45.905  25.312 -0.26 +0.01    +0.113 C  BRANCH  26  27ATOM     27  C   UNL     1      36.989  46.003  26.783 -0.31 -0.02    +0.107 C  BRANCH  27  28ATOM     28  N   UNL     1      37.652  45.183  27.791 -0.14 +0.05    -0.315 NA ATOM     29  H   UNL     1      37.674  45.696  28.676 +0.06 -0.02    +0.122 HD BRANCH  28  30ATOM     30  C   UNL     1      37.111  43.855  28.043 -0.37 -0.02    +0.081 C  BRANCH  30  31ATOM     31  C   UNL     1      37.157  42.886  26.865 -0.40 -0.00    +0.017 CG0ATOM     32  G   UNL     1      36.586  43.485  25.580 +0.00 +0.00    +0.000 G0 ENDBRANCH  30  31ENDBRANCH  28  30ENDBRANCH  27  28ENDBRANCH  26  27BRANCH  26  33ATOM     33  N   UNL     1      38.794  46.530  25.179 -0.09 -0.02    -0.346 N  ATOM     34  C   UNL     1      39.220  47.070  23.986 -0.25 +0.03    +0.251 C  ATOM     35  H   UNL     1      39.349  46.628  26.017 +0.07 +0.01    +0.164 HD ATOM     36  O   UNL     1      38.581  46.989  22.944 -0.22 -0.05    -0.269 OA BRANCH  34  37ATOM     37  C   UNL     1      40.540  47.753  23.993 -0.28 +0.00    +0.042 A  ATOM     38  C   UNL     1      41.506  47.324  23.082 -0.22 +0.00    +0.034 A  ATOM     39  C   UNL     1      40.824  48.816  24.851 -0.28 +0.01    +0.034 A  ATOM     40  C   UNL     1      42.733  47.959  23.087 -0.29 +0.02    +0.112 A  ATOM     41  C   UNL     1      42.082  49.387  24.775 -0.24 +0.03    +0.112 A  ATOM     42  N   UNL     1      43.043  48.976  23.922 -0.78 -0.08    -0.265 NA ENDBRANCH  34  37ENDBRANCH  26  33ENDBRANCH  23  26ENDBRANCH   1  23TORSDOF 9TERENDMDL