MODEL        10USER    Run = 10USERUSER    Estimated Free Energy of Binding    =  -6.49 kcal/mol  [=(1)+(2)+(3)-(4)]USERUSER    (1) Final Intermolecular Energy     = -10.97 kcal/molUSER        vdW + Hbond + desolv Energy     = -12.02 kcal/molUSER        Electrostatic Energy            =  -0.10 kcal/molUSER        Moving Ligand-Fixed Receptor    = -12.13 kcal/molUSER        Moving Ligand-Moving Receptor   =  +1.16 kcal/molUSER    (2) Final Total Internal Energy     =  -3.19 kcal/molUSER    (3) Torsional Free Energy           =  +4.47 kcal/molUSER    (4) Unbound System's Energy         =  -3.19 kcal/molUSERUSERREMARK SMILES COc1ccc(O)c(C(=O)c2ccc(C(=O)O[C@@H]3CCCNC[C@H]3NC(=O)c3ccncc3)cc2)c1FREMARK SMILES IDX 17 1 15 2 16 3 14 4 11 5 12 6 35 7 13 8 34 9 9 10 10 11 8 12REMARK SMILES IDX 3 13 4 14 36 15 5 16 6 17 37 18 2 19 1 20 7 21 18 23 24 25REMARK SMILES IDX 23 26 22 27 21 29 20 30 19 31 25 33 26 34 27 36 28 37 29 38REMARK SMILES IDX 33 39 30 40 32 41 31 42REMARK H PARENT 7 22 22 28 25 35REMARK Flexibility Score:   99.900USER                              x       y       z     vdW  Elec       q    TypeUSER                           _______ _______ _______ _____ _____    ______ ____ROOTATOM      1  O   UNL     1      39.922  46.092  19.576 -0.16 +0.01    -0.457 OA ENDROOTBRANCH   1   2ATOM      2  C   UNL     1      40.070  44.853  20.111 -0.22 +0.01    +0.338 C  ATOM      3  O   UNL     1      40.749  43.939  19.665 -0.26 -0.01    -0.246 OA BRANCH   2   4ATOM      4  C   UNL     1      39.309  44.765  21.382 -0.29 +0.00    +0.060 A  ATOM      5  C   UNL     1      37.908  44.661  23.812 -0.30 +0.00    +0.023 A  ATOM      6  C   UNL     1      37.842  43.586  22.916 -0.34 +0.00    +0.013 A  ATOM      7  C   UNL     1      38.682  45.785  23.488 -0.30 +0.00    +0.013 A  ATOM      8  C   UNL     1      38.541  43.638  21.704 -0.30 +0.00    +0.016 A  ATOM      9  C   UNL     1      39.388  45.833  22.283 -0.30 +0.00    +0.016 A  BRANCH   5  10ATOM     10  C   UNL     1      37.163  44.668  25.101 -0.26 +0.01    +0.199 C  ATOM     11  O   UNL     1      36.585  45.678  25.491 -0.71 -0.00    -0.288 OA BRANCH  10  12ATOM     12  C   UNL     1      37.108  43.465  25.940 -0.27 -0.01    +0.104 A  ATOM     13  C   UNL     1      38.243  41.531  26.863 -0.29 -0.01    +0.155 A  ATOM     14  C   UNL     1      37.045  41.137  27.472 -0.47 -0.01    +0.053 A  ATOM     15  C   UNL     1      38.261  42.698  26.090 -0.17 -0.01    +0.179 A  ATOM     16  C   UNL     1      35.889  41.917  27.333 -0.53 -0.02    +0.051 A  ATOM     17  C   UNL     1      35.925  43.084  26.574 -0.36 -0.02    +0.130 A  ATOM     18  F   UNL     1      39.411  43.103  25.529 -0.03 -0.00    -0.202 F  BRANCH  13  19ATOM     19  O   UNL     1      39.442  40.878  26.973 -0.14 +0.03    -0.494 OA ATOM     20  C   UNL     1      40.303  41.266  28.036 -0.19 -0.01    +0.278 C  ENDBRANCH  13  19BRANCH  17  21ATOM     21  O   UNL     1      34.809  43.860  26.452 -0.04 +0.07    -0.507 OA ATOM     22  H   UNL     1      35.059  44.779  26.265 -0.20 -0.14    +0.293 HD ENDBRANCH  17  21ENDBRANCH  10  12ENDBRANCH   5  10ENDBRANCH   2   4ENDBRANCH   1   2BRANCH   1  23ATOM     23  C   UNL     1      40.072  46.201  18.136 -0.39 -0.02    +0.200 CG0ATOM     24  G   UNL     1      41.115  47.288  17.874 +0.00 +0.00    +0.000 G0 BRANCH  23  25ATOM     25  C   UNL     1      38.676  46.507  17.556 -0.33 -0.04    +0.137 C  BRANCH  25  26ATOM     26  C   UNL     1      38.552  46.287  16.035 -0.38 -0.04    +0.109 C  BRANCH  26  27ATOM     27  N   UNL     1      39.831  46.267  15.322 -0.22 +0.05    -0.315 NA ATOM     28  H   UNL     1      39.651  45.999  14.354 +0.07 -0.02    +0.122 HD BRANCH  27  29ATOM     29  C   UNL     1      40.588  47.522  15.326 -0.51 -0.01    +0.081 C  BRANCH  29  30ATOM     30  C   UNL     1      40.832  48.215  16.673 -0.60 -0.00    +0.019 C  BRANCH  30  31ATOM     31  C   UNL     1      41.100  47.300  17.875 -0.56 -0.00    +0.049 CG0ATOM     32  G   UNL     1      40.069  46.203  18.137 +0.00 +0.00    +0.000 G0 ENDBRANCH  30  31ENDBRANCH  29  30ENDBRANCH  27  29ENDBRANCH  26  27ENDBRANCH  25  26BRANCH  25  33ATOM     33  N   UNL     1      37.673  45.702  18.267 -0.13 +0.08    -0.344 N  ATOM     34  C   UNL     1      36.348  45.696  17.907 -0.19 -0.10    +0.251 C  ATOM     35  H   UNL     1      38.034  44.933  18.815 +0.10 -0.02    +0.164 HD ATOM     36  O   UNL     1      35.880  46.383  17.009 -0.28 +0.21    -0.269 OA BRANCH  34  37ATOM     37  C   UNL     1      35.475  44.776  18.673 -0.34 -0.01    +0.042 A  ATOM     38  C   UNL     1      34.101  45.011  18.681 -0.40 -0.01    +0.034 A  ATOM     39  C   UNL     1      36.005  43.717  19.408 -0.36 -0.00    +0.034 A  ATOM     40  C   UNL     1      33.303  44.150  19.411 -0.36 -0.02    +0.112 A  ATOM     41  C   UNL     1      35.121  42.919  20.111 -0.35 -0.00    +0.112 A  ATOM     42  N   UNL     1      33.784  43.108  20.123 -0.68 -0.03    -0.265 NA ENDBRANCH  34  37ENDBRANCH  25  33ENDBRANCH  23  25ENDBRANCH   1  23TORSDOF 9TERENDMDL