MODEL        10USER    Run = 10USERUSER    Estimated Free Energy of Binding    = -12.85 kcal/mol  [=(1)+(2)+(3)-(4)]USERUSER    (1) Final Intermolecular Energy     = -14.64 kcal/molUSER        vdW + Hbond + desolv Energy     = -14.33 kcal/molUSER        Electrostatic Energy            =  -0.31 kcal/molUSER        Moving Ligand-Fixed Receptor    = -14.64 kcal/molUSER        Moving Ligand-Moving Receptor   =  +0.00 kcal/molUSER    (2) Final Total Internal Energy     =  -1.37 kcal/molUSER    (3) Torsional Free Energy           =  +1.79 kcal/molUSER    (4) Unbound System's Energy         =  -1.37 kcal/molUSERUSERREMARK SMILES Cn1ccc2ccc3c4[nH]c5c(CCCN[C@H]6CC[C@H](O)CC6)cccc5c4c4c(c3c21)C(=O)NC4=OREMARK SMILES IDX 15 1 14 2 13 3 12 4 2 5 3 6 32 7 4 8 31 9 5 10 30 11 8 12REMARK SMILES IDX 6 13 29 14 33 15 7 16 9 17 28 18 36 19 35 20 10 21 27 22REMARK SMILES IDX 11 23 26 24 25 25 24 26 1 27 34 28 37 29 16 32 17 34 23 35REMARK SMILES IDX 18 36 22 37 19 38 20 39 21 40REMARK H PARENT 35 30 10 31 16 33 21 41USER                              x       y       z     vdW  Elec       q    TypeUSER                           _______ _______ _______ _____ _____    ______ ____ROOTATOM      1  C   UNL     1      36.069  42.128  19.905 -0.41 -0.00    +0.081 C  ENDROOTBRANCH   1   2ATOM      2  C   UNL     1      36.812  41.513  21.095 -0.55 -0.00    +0.020 C  BRANCH   2   3ATOM      3  C   UNL     1      37.097  42.524  22.212 -0.49 +0.00    +0.039 C  BRANCH   3   4ATOM      4  C   UNL     1      38.442  43.198  22.104 -0.29 -0.00    -0.024 A  ATOM      5  N   UNL     1      39.593  47.940  14.934 -0.23 +0.10    -0.350 N  ATOM      6  C   UNL     1      38.695  48.434  14.018 -0.37 -0.03    +0.086 A  ATOM      7  C   UNL     1      38.927  47.382  16.019 -0.42 -0.02    +0.057 A  ATOM      8  C   UNL     1      37.447  48.010  14.386 -0.51 -0.02    +0.028 A  ATOM      9  C   UNL     1      39.348  46.874  17.305 -0.42 -0.01    +0.022 A  ATOM     10  C   UNL     1      37.588  47.283  15.596 -0.43 -0.00    +0.000 A  ATOM     11  C   UNL     1      40.564  47.085  17.975 -0.44 -0.01    +0.063 A  ATOM     12  C   UNL     1      38.391  46.062  17.990 -0.33 -0.00    +0.009 A  ATOM     13  C   UNL     1      36.661  46.558  16.363 -0.37 -0.01    +0.011 A  ATOM     14  C   UNL     1      40.895  46.422  19.163 -0.38 +0.00    +0.063 A  ATOM     15  C   UNL     1      41.645  48.064  17.764 -0.29 -0.01    +0.259 C  ATOM     16  C   UNL     1      37.077  45.911  17.522 -0.33 -0.00    +0.012 A  ATOM     17  C   UNL     1      38.764  45.394  19.198 -0.35 -0.00    +0.055 A  ATOM     18  C   UNL     1      40.022  45.537  19.799 -0.38 +0.00    +0.022 A  ATOM     19  C   UNL     1      42.214  46.889  19.588 -0.34 +0.03    +0.259 C  ATOM     20  N   UNL     1      42.636  47.761  18.640 -0.39 -0.01    -0.288 N  ATOM     21  N   UNL     1      38.052  44.531  20.002 -0.15 +0.01    -0.354 N  ATOM     22  C   UNL     1      40.041  44.710  20.974 -0.33 +0.00    +0.008 A  ATOM     23  C   UNL     1      38.795  44.091  21.072 -0.27 +0.00    +0.050 A  ATOM     24  C   UNL     1      41.000  44.424  21.968 -0.26 +0.00    +0.011 A  ATOM     25  C   UNL     1      40.685  43.544  23.008 -0.25 +0.00    +0.001 A  ATOM     26  C   UNL     1      39.431  42.946  23.072 -0.27 +0.00    +0.006 A  ATOM     27  C   UNL     1      40.997  47.822  14.595 -0.26 -0.01    +0.149 C  ATOM     28  O   UNL     1      41.628  49.034  17.035 -0.94 -0.03    -0.269 OA ATOM     29  O   UNL     1      42.806  46.614  20.611 -0.30 -0.08    -0.269 OA ATOM     30  H   UNL     1      43.427  48.368  18.791 -0.31 -0.00    +0.173 HD ATOM     31  H   UNL     1      37.107  44.231  19.821 +0.11 -0.01    +0.167 HD ENDBRANCH   3   4ENDBRANCH   2   3ENDBRANCH   1   2BRANCH   1  32ATOM     32  N   UNL     1      34.631  42.122  20.180 -0.31 -0.02    -0.314 NA ATOM     33  H   UNL     1      34.340  41.200  20.502 +0.07 +0.02    +0.122 HD BRANCH  32  34ATOM     34  C   UNL     1      33.827  42.525  19.018 -0.43 -0.00    +0.053 C  ATOM     35  C   UNL     1      32.842  43.671  19.333 -0.48 -0.00    +0.021 C  ATOM     36  C   UNL     1      34.815  42.904  17.896 -0.41 -0.01    +0.021 C  ATOM     37  C   UNL     1      33.422  45.045  19.002 -0.44 -0.01    +0.033 C  ATOM     38  C   UNL     1      34.163  43.827  16.875 -0.36 -0.01    +0.033 C  ATOM     39  C   UNL     1      33.761  45.161  17.511 -0.33 -0.06    +0.114 C  BRANCH  39  40ATOM     40  O   UNL     1      32.630  45.659  16.797 -0.29 +0.28    -0.393 OA ATOM     41  H   UNL     1      32.743  46.620  16.701 -0.39 -0.38    +0.210 HD ENDBRANCH  39  40ENDBRANCH  32  34ENDBRANCH   1  32TORSDOF 6TERENDMDL