MODEL        8USER    Run = 8USERUSER    Estimated Free Energy of Binding    =  -7.58 kcal/mol  [=(1)+(2)+(3)-(4)]USERUSER    (1) Final Intermolecular Energy     = -11.75 kcal/molUSER        vdW + Hbond + desolv Energy     = -11.77 kcal/molUSER        Electrostatic Energy            =  -0.16 kcal/molUSER        Moving Ligand-Fixed Receptor    = -11.93 kcal/molUSER        Moving Ligand-Moving Receptor   =  +0.18 kcal/molUSER    (2) Final Total Internal Energy     =  -3.13 kcal/molUSER    (3) Torsional Free Energy           =  +4.18 kcal/molUSER    (4) Unbound System's Energy         =  -3.13 kcal/molUSERUSERREMARK SMILES COc1ccc(O)c(C(=O)c2ccc(C(=O)N[C@@H]3CCCNC[C@H]3NC(=O)c3ccncc3)cc2)c1FREMARK SMILES IDX 15 1 16 2 17 3 14 5 11 6 12 7 35 8 13 9 34 10 9 11 10 12REMARK SMILES IDX 8 13 3 14 4 15 36 16 5 17 6 18 37 19 2 20 1 21 7 22 18 24REMARK SMILES IDX 19 25 24 27 23 28 22 29 21 31 20 32 25 34 26 35 27 37 28 38REMARK SMILES IDX 29 39 33 40 30 41 32 42 31 43REMARK H PARENT 17 4 7 23 22 30 25 36REMARK Flexibility Score:   88.900USER                              x       y       z     vdW  Elec       q    TypeUSER                           _______ _______ _______ _____ _____    ______ ____ROOTATOM      1  C   UNL     1      38.273  45.312  17.912 -0.28 -0.05    +0.251 C  ATOM      2  O   UNL     1      37.968  45.799  16.829 -0.24 +0.09    -0.269 OA ATOM      3  N   UNL     1      37.486  44.394  18.578 -0.13 +0.06    -0.347 N  ATOM      4  H   UNL     1      37.700  44.202  19.547 +0.10 -0.01    +0.164 HD ENDROOTBRANCH   1   5ATOM      5  C   UNL     1      39.507  45.759  18.617 -0.41 -0.00    +0.039 A  ATOM      6  C   UNL     1      41.824  46.481  20.020 -0.39 +0.00    +0.023 A  ATOM      7  C   UNL     1      40.772  45.844  20.686 -0.33 +0.00    +0.013 A  ATOM      8  C   UNL     1      41.718  46.759  18.653 -0.52 +0.00    +0.013 A  ATOM      9  C   UNL     1      39.612  45.495  19.988 -0.37 -0.00    +0.014 A  ATOM     10  C   UNL     1      40.555  46.408  17.952 -0.49 -0.00    +0.014 A  BRANCH   6  11ATOM     11  C   UNL     1      43.061  46.758  20.783 -0.30 +0.07    +0.199 C  ATOM     12  O   UNL     1      43.994  47.306  20.194 -0.39 -0.16    -0.288 OA BRANCH  11  13ATOM     13  C   UNL     1      43.231  46.462  22.225 -0.23 +0.03    +0.104 A  ATOM     14  C   UNL     1      43.424  44.898  24.089 -0.04 +0.02    +0.155 A  ATOM     15  C   UNL     1      43.570  45.970  24.974 -0.04 +0.01    +0.053 A  ATOM     16  C   UNL     1      43.259  45.157  22.717 -0.11 +0.04    +0.179 A  ATOM     17  C   UNL     1      43.572  47.280  24.490 -0.13 +0.01    +0.051 A  ATOM     18  C   UNL     1      43.418  47.520  23.127 -0.23 +0.03    +0.130 A  ATOM     19  F   UNL     1      43.157  44.115  21.876 -0.08 -0.05    -0.202 F  BRANCH  14  20ATOM     20  O   UNL     1      43.423  43.575  24.441 -0.00 -0.01    -0.494 OA ATOM     21  C   UNL     1      42.167  42.903  24.436 -0.12 -0.01    +0.278 C  ENDBRANCH  14  20BRANCH  18  22ATOM     22  O   UNL     1      43.464  48.834  22.740 -0.59 -0.14    -0.507 OA ATOM     23  H   UNL     1      43.722  48.852  21.788 -0.44 -0.05    +0.293 HD ENDBRANCH  18  22ENDBRANCH  11  13ENDBRANCH   6  11ENDBRANCH   1   5BRANCH   3  24ATOM     24  C   UNL     1      36.125  44.095  18.118 -0.31 -0.03    +0.106 C  BRANCH  24  25ATOM     25  C   UNL     1      35.330  43.429  19.249 -0.43 -0.00    +0.028 CG0ATOM     26  G   UNL     1      33.817  43.293  19.009 +0.00 +0.00    +0.000 G0 ENDBRANCH  24  25BRANCH  24  27ATOM     27  C   UNL     1      36.168  43.265  16.803 -0.34 -0.04    +0.118 C  BRANCH  27  28ATOM     28  C   UNL     1      34.886  42.453  16.502 -0.41 -0.05    +0.108 C  BRANCH  28  29ATOM     29  N   UNL     1      33.616  43.187  16.487 -0.15 +0.14    -0.315 NA ATOM     30  H   UNL     1      33.600  43.835  15.703 +0.07 -0.06    +0.122 HD BRANCH  29  31ATOM     31  C   UNL     1      33.265  43.891  17.715 -0.31 -0.03    +0.081 C  BRANCH  31  32ATOM     32  C   UNL     1      33.816  43.293  19.008 -0.43 -0.00    +0.017 CG0ATOM     33  G   UNL     1      35.329  43.431  19.248 +0.00 +0.00    +0.000 G0 ENDBRANCH  31  32ENDBRANCH  29  31ENDBRANCH  28  29ENDBRANCH  27  28BRANCH  27  34ATOM     34  N   UNL     1      36.521  44.131  15.670 -0.16 +0.13    -0.346 N  ATOM     35  C   UNL     1      35.683  45.133  15.241 -0.23 -0.14    +0.251 C  ATOM     36  H   UNL     1      37.491  44.158  15.399 +0.10 -0.05    +0.164 HD ATOM     37  O   UNL     1      34.562  45.322  15.695 -0.22 +0.21    -0.269 OA BRANCH  35  38ATOM     38  C   UNL     1      36.215  46.030  14.187 -0.40 -0.02    +0.042 A  ATOM     39  C   UNL     1      37.576  46.338  14.205 -0.41 -0.01    +0.034 A  ATOM     40  C   UNL     1      35.394  46.589  13.206 -0.50 -0.02    +0.034 A  ATOM     41  C   UNL     1      38.065  47.178  13.224 -0.36 -0.03    +0.112 A  ATOM     42  C   UNL     1      35.981  47.420  12.269 -0.52 -0.06    +0.112 A  ATOM     43  N   UNL     1      37.299  47.721  12.253 -1.00 +0.04    -0.265 NA ENDBRANCH  35  38ENDBRANCH  27  34ENDBRANCH  24  27ENDBRANCH   3  24TORSDOF 8TERENDMDL