MODEL        2USER    Run = 2USERUSER    Estimated Free Energy of Binding    = -11.96 kcal/mol  [=(1)+(2)+(3)-(4)]USERUSER    (1) Final Intermolecular Energy     = -13.75 kcal/molUSER        vdW + Hbond + desolv Energy     = -13.74 kcal/molUSER        Electrostatic Energy            =  -0.01 kcal/molUSER        Moving Ligand-Fixed Receptor    = -13.75 kcal/molUSER        Moving Ligand-Moving Receptor   =  +0.00 kcal/molUSER    (2) Final Total Internal Energy     =  -1.83 kcal/molUSER    (3) Torsional Free Energy           =  +1.79 kcal/molUSER    (4) Unbound System's Energy         =  -1.83 kcal/molUSERUSERREMARK SMILES Oc1nc2ccccc2n1C1CCN(Cc2ccc(-c3cc4ccccc4nc3-c3ccccc3)cc2)CC1REMARK SMILES IDX 11 1 12 2 13 3 14 4 38 5 39 6 10 7 2 8 3 9 4 10 9 11 5 12REMARK SMILES IDX 8 13 6 14 7 15 1 16 15 18 16 19 17 20 37 21 18 22 36 23REMARK SMILES IDX 19 24 20 25 21 26 29 27 22 28 28 29 23 30 27 31 24 32 26 33REMARK SMILES IDX 25 34 30 35 31 36 35 37 32 38 34 39 33 40REMARK H PARENT 1 17USER                              x       y       z     vdW  Elec       q    TypeUSER                           _______ _______ _______ _____ _____    ______ ____ROOTATOM      1  C   UNL     1      38.117  43.799  23.763 -0.29 +0.01    +0.095 C  ATOM      2  C   UNL     1      39.614  43.583  24.027 -0.22 +0.00    +0.041 C  ATOM      3  C   UNL     1      40.497  44.783  23.701 -0.15 +0.00    +0.087 C  ATOM      4  N   UNL     1      40.200  45.414  22.413 -0.10 -0.02    -0.299 NA ATOM      5  C   UNL     1      38.803  45.855  22.362 -0.32 +0.01    +0.087 C  ATOM      6  C   UNL     1      37.782  44.746  22.601 -0.37 +0.00    +0.041 C  ENDROOTBRANCH   1   7ATOM      7  N   UNL     1      37.322  44.019  24.969 -0.16 -0.01    -0.291 N  ATOM      8  C   UNL     1      37.180  45.249  25.566 -0.16 +0.00    +0.295 A  ATOM      9  N   UNL     1      36.453  45.226  26.647 -0.14 +0.04    -0.195 NA ATOM     10  C   UNL     1      36.086  43.914  26.777 -0.36 -0.02    +0.092 A  ATOM     11  C   UNL     1      36.603  43.126  25.738 -0.34 -0.00    +0.072 A  ATOM     12  C   UNL     1      35.296  43.326  27.779 -0.53 -0.01    +0.031 A  ATOM     13  C   UNL     1      36.335  41.753  25.672 -0.38 -0.01    +0.029 A  ATOM     14  C   UNL     1      35.032  41.956  27.719 -0.60 -0.00    +0.002 A  ATOM     15  C   UNL     1      35.544  41.186  26.679 -0.55 -0.00    +0.002 A  BRANCH   8  16ATOM     16  O   UNL     1      37.709  46.370  25.122 -0.62 -0.06    -0.480 OA ATOM     17  H   UNL     1      38.415  46.516  25.778 +0.14 +0.01    +0.296 HD ENDBRANCH   8  16ENDBRANCH   1   7BRANCH   4  18ATOM     18  C   UNL     1      40.601  44.570  21.274 -0.29 +0.01    +0.120 C  BRANCH  18  19ATOM     19  C   UNL     1      39.790  44.832  20.023 -0.36 -0.00    -0.034 A  ATOM     20  C   UNL     1      38.729  43.993  19.664 -0.21 -0.00    +0.006 A  ATOM     21  C   UNL     1      40.093  45.926  19.202 -0.42 -0.00    +0.006 A  ATOM     22  C   UNL     1      37.987  44.242  18.506 -0.28 -0.00    +0.009 A  ATOM     23  C   UNL     1      39.357  46.168  18.039 -0.43 -0.00    +0.009 A  ATOM     24  C   UNL     1      38.297  45.327  17.672 -0.37 +0.00    -0.016 A  BRANCH  24  25ATOM     25  C   UNL     1      37.517  45.589  16.453 -0.36 -0.00    +0.009 A  ATOM     26  C   UNL     1      38.125  46.263  15.383 -0.38 -0.01    +0.021 A  ATOM     27  C   UNL     1      36.189  45.171  16.269 -0.29 -0.04    +0.079 A  ATOM     28  C   UNL     1      37.431  46.491  14.188 -0.44 -0.00    +0.001 A  ATOM     29  N   UNL     1      35.506  45.374  15.105 -0.19 +0.15    -0.247 NA ATOM     30  C   UNL     1      38.023  47.161  13.103 -0.45 -0.00    +0.010 A  ATOM     31  C   UNL     1      36.111  46.019  14.095 -0.39 -0.04    +0.071 A  ATOM     32  C   UNL     1      37.307  47.366  11.926 -0.48 -0.00    +0.001 A  ATOM     33  C   UNL     1      35.418  46.234  12.911 -0.44 -0.02    +0.029 A  ATOM     34  C   UNL     1      36.000  46.900  11.828 -0.56 -0.00    +0.002 A  BRANCH  27  35ATOM     35  C   UNL     1      35.392  44.477  17.299 -0.31 -0.00    +0.001 A  ATOM     36  C   UNL     1      34.874  45.187  18.397 -0.39 -0.00    +0.010 A  ATOM     37  C   UNL     1      35.144  43.095  17.235 -0.38 -0.00    +0.010 A  ATOM     38  C   UNL     1      34.116  44.544  19.379 -0.37 -0.00    +0.001 A  ATOM     39  C   UNL     1      34.386  42.451  18.217 -0.40 -0.00    +0.001 A  ATOM     40  C   UNL     1      33.868  43.177  19.287 -0.41 -0.00    +0.000 A  ENDBRANCH  27  35ENDBRANCH  24  25ENDBRANCH  18  19ENDBRANCH   4  18TORSDOF 6TERENDMDL