MODEL        3USER    Run = 3USERUSER    Estimated Free Energy of Binding    =  -6.81 kcal/mol  [=(1)+(2)+(3)-(4)]USERUSER    (1) Final Intermolecular Energy     = -11.29 kcal/molUSER        vdW + Hbond + desolv Energy     = -11.46 kcal/molUSER        Electrostatic Energy            =  +0.01 kcal/molUSER        Moving Ligand-Fixed Receptor    = -11.45 kcal/molUSER        Moving Ligand-Moving Receptor   =  +0.16 kcal/molUSER    (2) Final Total Internal Energy     =  -2.88 kcal/molUSER    (3) Torsional Free Energy           =  +4.47 kcal/molUSER    (4) Unbound System's Energy         =  -2.88 kcal/molUSERUSERREMARK SMILES COc1ccc(O)c(C(=O)c2ccc(/C=C/[C@@H]3CCCNC[C@H]3NC(=O)c3ccncc3)cc2)c1FREMARK SMILES IDX 16 1 15 2 14 3 11 4 12 5 34 6 13 7 33 8 9 9 10 10 8 11 3 12REMARK SMILES IDX 4 13 35 14 5 15 6 16 36 17 2 18 1 19 7 20 17 22 18 23 23 25REMARK SMILES IDX 22 26 21 27 20 29 19 30 24 32 25 33 26 35 27 36 28 37 32 38REMARK SMILES IDX 29 39 31 40 30 41REMARK H PARENT 7 21 21 28 24 34REMARK Flexibility Score:   99.900USER                              x       y       z     vdW  Elec       q    TypeUSER                           _______ _______ _______ _____ _____    ______ ____ROOTATOM      1  C   UNL     1      40.766  43.679  21.530 -0.30 -0.00    -0.021 C  ENDROOTBRANCH   1   2ATOM      2  C   UNL     1      41.749  44.311  20.870 -0.37 +0.00    +0.004 C  BRANCH   2   3ATOM      3  C   UNL     1      41.511  45.230  19.750 -0.35 -0.00    -0.026 A  ATOM      4  C   UNL     1      40.975  46.972  17.615 -0.50 -0.00    +0.023 A  ATOM      5  C   UNL     1      40.190  45.830  17.797 -0.45 -0.00    +0.013 A  ATOM      6  C   UNL     1      42.000  47.268  18.519 -0.52 -0.00    +0.013 A  ATOM      7  C   UNL     1      40.458  44.966  18.866 -0.44 +0.00    +0.009 A  ATOM      8  C   UNL     1      42.270  46.395  19.575 -0.41 +0.00    +0.009 A  BRANCH   4   9ATOM      9  C   UNL     1      40.703  47.924  16.517 -0.45 -0.03    +0.199 C  ATOM     10  O   UNL     1      41.446  48.897  16.377 -0.98 -0.00    -0.288 OA BRANCH   9  11ATOM     11  C   UNL     1      39.544  47.791  15.607 -0.44 -0.03    +0.104 A  ATOM     12  C   UNL     1      38.184  46.489  14.056 -0.32 -0.05    +0.155 A  ATOM     13  C   UNL     1      37.333  47.584  13.889 -0.49 -0.03    +0.053 A  ATOM     14  C   UNL     1      39.287  46.605  14.915 -0.31 -0.04    +0.179 A  ATOM     15  C   UNL     1      37.598  48.784  14.555 -0.46 -0.04    +0.051 A  ATOM     16  C   UNL     1      38.702  48.889  15.395 -0.35 -0.08    +0.130 A  ATOM     17  F   UNL     1      40.119  45.559  15.037 +0.00 +0.02    -0.202 F  BRANCH  12  18ATOM     18  O   UNL     1      38.039  45.273  13.445 -0.09 +0.14    -0.494 OA ATOM     19  C   UNL     1      36.942  45.116  12.554 -0.36 -0.09    +0.278 C  ENDBRANCH  12  18BRANCH  16  20ATOM     20  O   UNL     1      38.904  50.109  15.983 +0.29 +0.38    -0.507 OA ATOM     21  H   UNL     1      39.828  50.388  15.786 -0.13 -0.19    +0.293 HD ENDBRANCH  16  20ENDBRANCH   9  11ENDBRANCH   4   9ENDBRANCH   2   3ENDBRANCH   1   2BRANCH   1  22ATOM     22  C   UNL     1      39.719  44.334  22.427 -0.28 +0.00    +0.035 C  BRANCH  22  23ATOM     23  C   UNL     1      40.192  44.140  23.881 -0.20 +0.00    +0.011 CG0ATOM     24  G   UNL     1      39.590  45.027  24.964 +0.00 +0.00    +0.000 G0 ENDBRANCH  22  23BRANCH  22  25ATOM     25  C   UNL     1      38.234  43.928  22.178 -0.33 +0.01    +0.103 C  BRANCH  25  26ATOM     26  C   UNL     1      37.317  44.404  23.343 -0.31 +0.01    +0.106 C  BRANCH  26  27ATOM     27  N   UNL     1      37.482  43.774  24.648 -0.14 -0.02    -0.315 NA ATOM     28  H   UNL     1      37.845  42.828  24.523 +0.07 +0.00    +0.122 HD BRANCH  27  29ATOM     29  C   UNL     1      38.303  44.513  25.594 -0.22 +0.00    +0.081 C  BRANCH  29  30ATOM     30  C   UNL     1      39.588  45.028  24.964 -0.17 +0.00    +0.016 CG0ATOM     31  G   UNL     1      40.191  44.140  23.881 +0.00 +0.00    +0.000 G0 ENDBRANCH  29  30ENDBRANCH  27  29ENDBRANCH  26  27ENDBRANCH  25  26BRANCH  25  32ATOM     32  N   UNL     1      37.727  44.501  20.923 -0.17 -0.00    -0.347 N  ATOM     33  C   UNL     1      36.759  43.869  20.175 -0.28 -0.01    +0.251 C  ATOM     34  H   UNL     1      37.963  45.463  20.717 +0.08 +0.01    +0.164 HD ATOM     35  O   UNL     1      36.254  42.797  20.484 -0.30 +0.00    -0.269 OA BRANCH  33  36ATOM     36  C   UNL     1      36.312  44.580  18.951 -0.32 -0.01    +0.042 A  ATOM     37  C   UNL     1      37.140  44.716  17.837 -0.33 -0.01    +0.034 A  ATOM     38  C   UNL     1      35.015  45.090  18.916 -0.36 -0.01    +0.034 A  ATOM     39  C   UNL     1      36.637  45.387  16.738 -0.27 -0.05    +0.112 A  ATOM     40  C   UNL     1      34.608  45.747  17.771 -0.34 -0.07    +0.112 A  ATOM     41  N   UNL     1      35.395  45.915  16.685 -0.18 +0.21    -0.265 NA ENDBRANCH  33  36ENDBRANCH  25  32ENDBRANCH  22  25ENDBRANCH   1  22TORSDOF 9TERENDMDL