MODEL        2USER    Run = 2USERUSER    Estimated Free Energy of Binding    =  -6.97 kcal/mol  [=(1)+(2)+(3)-(4)]USERUSER    (1) Final Intermolecular Energy     = -11.45 kcal/molUSER        vdW + Hbond + desolv Energy     = -12.06 kcal/molUSER        Electrostatic Energy            =  -0.10 kcal/molUSER        Moving Ligand-Fixed Receptor    = -12.16 kcal/molUSER        Moving Ligand-Moving Receptor   =  +0.71 kcal/molUSER    (2) Final Total Internal Energy     =  -2.09 kcal/molUSER    (3) Torsional Free Energy           =  +4.47 kcal/molUSER    (4) Unbound System's Energy         =  -2.09 kcal/molUSERUSERREMARK SMILES COc1ccc(O)c(C(=O)c2ccc(NC[C@@H]3CCCNC[C@@H]3NC(=O)c3ccncc3)cc2)c1FREMARK SMILES IDX 16 1 15 2 14 4 11 5 12 6 34 7 13 8 33 9 9 10 10 11 8 12 3 13REMARK SMILES IDX 4 14 35 15 5 16 6 17 36 18 2 19 1 20 7 21 17 23 18 24 23 26REMARK SMILES IDX 22 27 21 28 20 30 19 31 24 33 25 34 26 36 27 37 28 38 32 39REMARK SMILES IDX 29 40 31 41 30 42REMARK H PARENT 15 3 7 22 21 29 24 35REMARK Flexibility Score:   99.900USER                              x       y       z     vdW  Elec       q    TypeUSER                           _______ _______ _______ _____ _____    ______ ____ROOTATOM      1  C   UNL     1      36.806  45.450  16.341 -0.33 -0.05    +0.118 C  ENDROOTBRANCH   1   2ATOM      2  N   UNL     1      35.855  45.373  17.454 -0.08 +0.18    -0.385 N  ATOM      3  H   UNL     1      35.254  46.189  17.526 +0.09 -0.12    +0.160 HD BRANCH   2   4ATOM      4  C   UNL     1      36.184  44.811  18.684 -0.32 -0.01    +0.034 A  ATOM      5  C   UNL     1      36.772  43.518  21.133 -0.41 +0.00    +0.023 A  ATOM      6  C   UNL     1      37.734  44.310  20.501 -0.37 -0.00    +0.014 A  ATOM      7  C   UNL     1      35.536  43.323  20.517 -0.37 +0.00    +0.014 A  ATOM      8  C   UNL     1      37.441  44.941  19.286 -0.21 -0.00    +0.026 A  ATOM      9  C   UNL     1      35.255  43.962  19.302 -0.37 -0.00    +0.026 A  BRANCH   5  10ATOM     10  C   UNL     1      37.136  42.841  22.400 -0.35 +0.01    +0.199 C  ATOM     11  O   UNL     1      37.551  41.681  22.363 -0.35 -0.02    -0.288 OA BRANCH  10  12ATOM     12  C   UNL     1      36.974  43.468  23.731 -0.28 +0.01    +0.104 A  ATOM     13  C   UNL     1      37.164  45.377  25.237 -0.20 +0.01    +0.155 A  ATOM     14  C   UNL     1      36.632  44.607  26.274 -0.32 -0.01    +0.053 A  ATOM     15  C   UNL     1      37.338  44.794  23.972 -0.15 +0.03    +0.179 A  ATOM     16  C   UNL     1      36.296  43.270  26.052 -0.36 -0.00    +0.051 A  ATOM     17  C   UNL     1      36.481  42.703  24.794 -0.25 +0.00    +0.130 A  ATOM     18  F   UNL     1      37.889  45.531  22.995 -0.09 -0.03    -0.202 F  BRANCH  13  19ATOM     19  O   UNL     1      37.545  46.688  25.339 -0.60 -0.05    -0.494 OA ATOM     20  C   UNL     1      36.793  47.521  26.213 -0.22 -0.03    +0.278 C  ENDBRANCH  13  19BRANCH  17  21ATOM     21  O   UNL     1      36.158  41.378  24.671 -0.12 +0.10    -0.507 OA ATOM     22  H   UNL     1      36.807  40.965  24.057 +0.16 -0.03    +0.293 HD ENDBRANCH  17  21ENDBRANCH  10  12ENDBRANCH   5  10ENDBRANCH   2   4ENDBRANCH   1   2BRANCH   1  23ATOM     23  C   UNL     1      36.805  46.847  15.672 -0.44 -0.02    +0.032 C  BRANCH  23  24ATOM     24  C   UNL     1      35.858  46.851  14.455 -0.45 -0.01    +0.009 CG0ATOM     25  G   UNL     1      36.169  45.922  13.281 +0.00 +0.00    +0.000 G0 ENDBRANCH  23  24BRANCH  23  26ATOM     26  C   UNL     1      38.253  47.308  15.388 -0.44 -0.05    +0.101 C  BRANCH  26  27ATOM     27  C   UNL     1      38.781  46.736  14.052 -0.39 -0.03    +0.106 C  BRANCH  27  28ATOM     28  N   UNL     1      38.176  47.315  12.844 -0.56 +0.05    -0.315 NA ATOM     29  H   UNL     1      37.723  48.189  13.119 +0.06 -0.02    +0.122 HD BRANCH  28  30ATOM     30  C   UNL     1      37.159  46.450  12.244 -0.59 -0.03    +0.081 C  BRANCH  30  31ATOM     31  C   UNL     1      36.177  45.923  13.283 -0.57 -0.01    +0.016 CG0ATOM     32  G   UNL     1      35.861  46.848  14.459 +0.00 +0.00    +0.000 G0 ENDBRANCH  30  31ENDBRANCH  28  30ENDBRANCH  27  28ENDBRANCH  26  27BRANCH  26  33ATOM     33  N   UNL     1      39.183  46.974  16.464 -0.20 +0.10    -0.348 N  ATOM     34  C   UNL     1      40.166  47.827  16.904 -0.34 -0.06    +0.251 C  ATOM     35  H   UNL     1      39.132  46.015  16.787 +0.11 -0.04    +0.164 HD ATOM     36  O   UNL     1      40.347  48.940  16.425 -0.44 +0.07    -0.269 OA BRANCH  34  37ATOM     37  C   UNL     1      41.045  47.332  17.997 -0.50 -0.00    +0.042 A  ATOM     38  C   UNL     1      40.641  46.196  18.700 -0.46 -0.00    +0.034 A  ATOM     39  C   UNL     1      42.258  47.942  18.319 -0.40 -0.00    +0.034 A  ATOM     40  C   UNL     1      41.457  45.730  19.713 -0.34 +0.01    +0.112 A  ATOM     41  C   UNL     1      43.003  47.397  19.350 -0.43 +0.02    +0.112 A  ATOM     42  N   UNL     1      42.628  46.311  20.056 -0.20 -0.08    -0.265 NA ENDBRANCH  34  37ENDBRANCH  26  33ENDBRANCH  23  26ENDBRANCH   1  23TORSDOF 9TERENDMDL