MODEL        2USER    Run = 2USERUSER    Estimated Free Energy of Binding    =  -6.34 kcal/mol  [=(1)+(2)+(3)-(4)]USERUSER    (1) Final Intermolecular Energy     = -10.81 kcal/molUSER        vdW + Hbond + desolv Energy     = -11.15 kcal/molUSER        Electrostatic Energy            =  -0.33 kcal/molUSER        Moving Ligand-Fixed Receptor    = -11.48 kcal/molUSER        Moving Ligand-Moving Receptor   =  +0.67 kcal/molUSER    (2) Final Total Internal Energy     =  -3.26 kcal/molUSER    (3) Torsional Free Energy           =  +4.47 kcal/molUSER    (4) Unbound System's Energy         =  -3.26 kcal/molUSERUSERREMARK SMILES COc1ccc(O)c(C(=O)c2ccc(CO[C@@H]3CCCNC[C@@H]3NC(=O)c3ccncc3)cc2)c1FREMARK SMILES IDX 16 1 15 2 14 3 11 4 12 5 34 6 13 7 33 8 9 9 10 10 8 11 3 12REMARK SMILES IDX 4 13 35 14 5 15 6 16 36 17 2 18 1 19 7 20 17 22 18 23 23 25REMARK SMILES IDX 22 26 21 27 20 29 19 30 24 32 25 33 26 35 27 36 28 37 32 38REMARK SMILES IDX 29 39 31 40 30 41REMARK H PARENT 7 21 21 28 24 34REMARK Flexibility Score:   99.900USER                              x       y       z     vdW  Elec       q    TypeUSER                           _______ _______ _______ _____ _____    ______ ____ROOTATOM      1  O   UNL     1      29.620  43.190  15.435 -0.13 +0.26    -0.371 OA ENDROOTBRANCH   1   2ATOM      2  C   UNL     1      30.115  44.522  15.552 -0.26 -0.11    +0.196 C  BRANCH   2   3ATOM      3  C   UNL     1      31.618  44.461  15.637 -0.35 +0.01    -0.022 A  ATOM      4  C   UNL     1      34.419  44.335  15.828 -0.29 -0.01    +0.023 A  ATOM      5  C   UNL     1      33.645  43.219  16.158 -0.33 -0.01    +0.012 A  ATOM      6  C   UNL     1      33.796  45.501  15.371 -0.30 -0.01    +0.012 A  ATOM      7  C   UNL     1      32.253  43.286  16.069 -0.33 -0.00    +0.007 A  ATOM      8  C   UNL     1      32.404  45.566  15.282 -0.35 -0.01    +0.007 A  BRANCH   4   9ATOM      9  C   UNL     1      35.900  44.300  15.875 -0.28 -0.08    +0.199 C  ATOM     10  O   UNL     1      36.464  43.265  16.240 -0.29 +0.09    -0.288 OA BRANCH   9  11ATOM     11  C   UNL     1      36.749  45.469  15.564 -0.29 -0.05    +0.104 A  ATOM     12  C   UNL     1      37.553  47.185  14.028 -0.37 -0.07    +0.155 A  ATOM     13  C   UNL     1      38.373  47.699  15.036 -0.46 -0.02    +0.053 A  ATOM     14  C   UNL     1      36.753  46.066  14.302 -0.29 -0.09    +0.179 A  ATOM     15  C   UNL     1      38.403  47.089  16.292 -0.38 -0.02    +0.051 A  ATOM     16  C   UNL     1      37.608  45.975  16.548 -0.28 -0.05    +0.130 A  ATOM     17  F   UNL     1      35.996  45.559  13.315 -0.12 +0.10    -0.202 F  BRANCH  12  18ATOM     18  O   UNL     1      37.451  47.685  12.758 -0.79 +0.10    -0.494 OA ATOM     19  C   UNL     1      36.177  48.158  12.342 -0.38 -0.13    +0.278 C  ENDBRANCH  12  18BRANCH  16  20ATOM     20  O   UNL     1      37.721  45.420  17.794 -0.09 +0.13    -0.507 OA ATOM     21  H   UNL     1      37.467  44.470  17.726 +0.19 -0.07    +0.293 HD ENDBRANCH  16  20ENDBRANCH   9  11ENDBRANCH   4   9ENDBRANCH   2   3ENDBRANCH   1   2BRANCH   1  22ATOM     22  C   UNL     1      28.703  42.825  16.490 -0.21 -0.05    +0.142 C  BRANCH  22  23ATOM     23  C   UNL     1      28.225  41.414  16.116 -0.33 -0.01    +0.035 CG0ATOM     24  G   UNL     1      26.905  40.900  16.680 +0.00 +0.00    +0.000 G0 ENDBRANCH  22  23BRANCH  22  25ATOM     25  C   UNL     1      27.601  43.904  16.607 -0.24 -0.03    +0.125 C  BRANCH  25  26ATOM     26  C   UNL     1      26.530  43.494  17.648 -0.30 -0.01    +0.108 C  BRANCH  26  27ATOM     27  N   UNL     1      25.356  42.787  17.142 -0.14 +0.02    -0.315 NA ATOM     28  H   UNL     1      24.748  43.464  16.677 +0.06 +0.01    +0.122 HD BRANCH  27  29ATOM     29  C   UNL     1      25.656  41.672  16.256 -0.30 -0.01    +0.081 C  BRANCH  29  30ATOM     30  C   UNL     1      26.903  40.908  16.677 -0.31 -0.00    +0.018 CG0ATOM     31  G   UNL     1      28.224  41.416  16.112 +0.00 +0.00    +0.000 G0 ENDBRANCH  29  30ENDBRANCH  27  29ENDBRANCH  26  27ENDBRANCH  25  26BRANCH  25  32ATOM     32  N   UNL     1      27.055  44.252  15.286 -0.09 +0.20    -0.345 N  ATOM     33  C   UNL     1      25.961  45.083  15.159 -0.12 -0.02    +0.251 C  ATOM     34  H   UNL     1      27.747  44.320  14.551 -0.18 -0.24    +0.164 HD ATOM     35  O   UNL     1      25.309  45.499  16.108 -0.90 -0.10    -0.269 OA BRANCH  33  36ATOM     36  C   UNL     1      25.614  45.505  13.776 -0.29 -0.01    +0.042 A  ATOM     37  C   UNL     1      24.297  45.340  13.344 -0.24 +0.00    +0.034 A  ATOM     38  C   UNL     1      26.566  46.022  12.898 -0.28 -0.02    +0.034 A  ATOM     39  C   UNL     1      23.984  45.717  12.051 -0.12 +0.02    +0.112 A  ATOM     40  C   UNL     1      26.151  46.368  11.623 -0.30 -0.03    +0.112 A  ATOM     41  N   UNL     1      24.882  46.232  11.185 -0.69 -0.01    -0.265 NA ENDBRANCH  33  36ENDBRANCH  25  32ENDBRANCH  22  25ENDBRANCH   1  22TORSDOF 9TERENDMDL