REMARK SMILES CNCc1cc(C=C2SC(=O)NC2=O)ccc1-c1ccc(NCC2CCOCC2)nc1C
REMARK SMILES IDX 4 1 5 2 6 3 15 4 16 5 17 6 3 7 2 8 1 9 18 11 19 12 31 13
REMARK SMILES IDX 20 14 30 15 21 16 32 17 22 18 23 20 24 21 25 22 29 23 26 24
REMARK SMILES IDX 28 25 27 26 7 27 8 28 9 29 13 30 10 31 12 32 14 33 11 34
REMARK H PARENT 2 10 22 19 12 35
ROOT
ATOM      1  C   UNL     1      -2.664  -0.130  -0.978  1.00  0.00    -0.026 A 
ATOM      2  C   UNL     1      -4.072  -0.053  -1.037  1.00  0.00     0.013 A 
ATOM      3  C   UNL     1      -4.817   0.518  -0.001  1.00  0.00    -0.024 A 
ATOM      4  C   UNL     1      -4.150   1.038   1.107  1.00  0.00     0.009 A 
ATOM      5  C   UNL     1      -2.758   0.967   1.185  1.00  0.00     0.010 A 
ATOM      6  C   UNL     1      -1.996   0.381   0.157  1.00  0.00    -0.012 A 
ENDROOT
BRANCH   1   7
ATOM      7  C   UNL     1      -1.933  -0.790  -2.132  1.00  0.00     0.117 C 
BRANCH   7   8
ATOM      8  N   UNL     1      -2.223  -0.179  -3.436  1.00  0.00    -0.316 NA
ATOM      9  C   UNL     1      -1.601   1.134  -3.570  1.00  0.00     0.101 C 
ATOM     10  H   UNL     1      -1.846  -0.788  -4.162  1.00  0.00     0.122 HD
ENDBRANCH   7   8
ENDBRANCH   1   7
BRANCH   6  11
ATOM     11  C   UNL     1      -0.535   0.336   0.305  1.00  0.00     0.003 A 
ATOM     12  C   UNL     1       0.242   1.419  -0.121  1.00  0.00     0.014 A 
ATOM     13  C   UNL     1       0.147  -0.751   0.870  1.00  0.00     0.048 A 
ATOM     14  C   UNL     1       1.627   1.382   0.009  1.00  0.00     0.047 A 
ATOM     15  N   UNL     1       1.502  -0.794   0.992  1.00  0.00    -0.236 NA
ATOM     16  C   UNL     1       2.221   0.256   0.557  1.00  0.00     0.126 A 
ATOM     17  C   UNL     1      -0.588  -1.958   1.382  1.00  0.00     0.067 C 
BRANCH  16  18
ATOM     18  N   UNL     1       3.601   0.144   0.731  1.00  0.00    -0.370 N 
ATOM     19  H   UNL     1       3.697  -0.776   1.161  1.00  0.00     0.162 HD
BRANCH  18  20
ATOM     20  C   UNL     1       4.371   0.253  -0.506  1.00  0.00     0.118 C 
BRANCH  20  21
ATOM     21  C   UNL     1       5.871   0.033  -0.256  1.00  0.00     0.013 C 
ATOM     22  C   UNL     1       6.215  -1.426   0.095  1.00  0.00     0.034 C 
ATOM     23  C   UNL     1       6.452   0.984   0.793  1.00  0.00     0.034 C 
ATOM     24  C   UNL     1       7.493  -1.530   0.924  1.00  0.00     0.160 C 
ATOM     25  C   UNL     1       7.965   0.794   0.922  1.00  0.00     0.160 C 
ATOM     26  O   UNL     1       8.408  -0.510   0.541  1.00  0.00    -0.381 OA
ENDBRANCH  20  21
ENDBRANCH  18  20
ENDBRANCH  16  18
ENDBRANCH   6  11
BRANCH   3  27
ATOM     27  C   UNL     1      -6.276   0.592  -0.123  1.00  0.00     0.029 C 
BRANCH  27  28
ATOM     28  C   UNL     1      -7.167  -0.006   0.679  1.00  0.00     0.083 C 
ATOM     29  S   UNL     1      -6.871  -1.021   2.043  1.00  0.00    -0.022 SA
ATOM     30  C   UNL     1      -8.631   0.123   0.458  1.00  0.00     0.265 C 
ATOM     31  C   UNL     1      -8.581  -1.273   2.327  1.00  0.00     0.290 C 
ATOM     32  N   UNL     1      -9.305  -0.597   1.400  1.00  0.00    -0.282 N 
ATOM     33  O   UNL     1      -9.160   0.774  -0.428  1.00  0.00    -0.268 OA
ATOM     34  O   UNL     1      -9.035  -1.957   3.228  1.00  0.00    -0.261 OA
ATOM     35  H   UNL     1     -10.311  -0.629   1.409  1.00  0.00     0.174 HD
ENDBRANCH  27  28
ENDBRANCH   3  27
TORSDOF 8
