REMARK SMILES O=C1NC(=O)C(=Cc2ccc(-c3cnc(NCC4CCOCC4)nc3)c(F)c2)S1
REMARK SMILES IDX 8 1 9 2 10 3 11 4 26 5 27 6 28 7 7 8 6 9 2 10 3 11 29 12
REMARK SMILES IDX 4 13 1 14 5 16 12 17 13 18 25 19 14 20 24 21 15 22 16 23
REMARK SMILES IDX 17 25 18 26 19 27 23 28 20 29 22 30 21 31
REMARK H PARENT 3 15 16 24
ROOT
ATOM      1  C   UNL     1       4.600  -0.423   1.083  1.00  0.00    -0.021 A 
ATOM      2  C   UNL     1       3.682   0.631   1.042  1.00  0.00     0.009 A 
ATOM      3  C   UNL     1       2.366   0.411   0.614  1.00  0.00     0.012 A 
ATOM      4  C   UNL     1       1.929  -0.867   0.223  1.00  0.00     0.021 A 
ATOM      5  C   UNL     1       2.868  -1.909   0.291  1.00  0.00     0.131 A 
ATOM      6  F   UNL     1       2.518  -3.154  -0.070  1.00  0.00    -0.206 F 
ATOM      7  C   UNL     1       4.181  -1.701   0.714  1.00  0.00     0.048 A 
ENDROOT
BRANCH   1   8
ATOM      8  C   UNL     1       5.978  -0.218   1.538  1.00  0.00     0.029 C 
BRANCH   8   9
ATOM      9  C   UNL     1       6.908   0.523   0.920  1.00  0.00     0.083 C 
ATOM     10  C   UNL     1       8.434   1.945  -0.482  1.00  0.00     0.290 C 
ATOM     11  N   UNL     1       9.030   1.445   0.629  1.00  0.00    -0.282 N 
ATOM     12  S   UNL     1       6.765   1.417  -0.548  1.00  0.00    -0.022 SA
ATOM     13  C   UNL     1       8.289   0.655   1.456  1.00  0.00     0.265 C 
ATOM     14  O   UNL     1       8.964   2.657  -1.319  1.00  0.00    -0.261 OA
ATOM     15  H   UNL     1       9.997   1.644   0.828  1.00  0.00     0.174 HD
ATOM     16  O   UNL     1       8.701   0.136   2.481  1.00  0.00    -0.268 OA
ENDBRANCH   8   9
ENDBRANCH   1   8
BRANCH   4  17
ATOM     17  C   UNL     1       0.550  -1.094  -0.230  1.00  0.00     0.021 A 
ATOM     18  C   UNL     1      -0.118  -0.243  -1.090  1.00  0.00     0.125 A 
ATOM     19  C   UNL     1      -0.219  -2.174   0.158  1.00  0.00     0.125 A 
ATOM     20  N   UNL     1      -1.389  -0.416  -1.515  1.00  0.00    -0.221 NA
ATOM     21  N   UNL     1      -1.494  -2.395  -0.236  1.00  0.00    -0.221 NA
ATOM     22  C   UNL     1      -2.032  -1.504  -1.075  1.00  0.00     0.222 A 
BRANCH  22  23
ATOM     23  N   UNL     1      -3.331  -1.764  -1.467  1.00  0.00    -0.354 N 
ATOM     24  H   UNL     1      -3.701  -2.465  -0.836  1.00  0.00     0.163 HD
BRANCH  23  25
ATOM     25  C   UNL     1      -4.182  -0.631  -1.780  1.00  0.00     0.119 C 
BRANCH  25  26
ATOM     26  C   UNL     1      -4.605   0.161  -0.527  1.00  0.00     0.013 C 
ATOM     27  C   UNL     1      -5.568  -0.629   0.381  1.00  0.00     0.034 C 
ATOM     28  C   UNL     1      -5.234   1.500  -0.951  1.00  0.00     0.034 C 
ATOM     29  C   UNL     1      -7.017  -0.246   0.114  1.00  0.00     0.160 C 
ATOM     30  C   UNL     1      -6.176   2.015   0.127  1.00  0.00     0.160 C 
ATOM     31  O   UNL     1      -7.279   1.137   0.352  1.00  0.00    -0.381 OA
ENDBRANCH  25  26
ENDBRANCH  23  25
ENDBRANCH  22  23
ENDBRANCH   4  17
TORSDOF 6
