MODEL        7USER    Run = 7USERUSER    Estimated Free Energy of Binding    = -10.29 kcal/mol  [=(1)+(2)+(3)-(4)]USERUSER    (1) Final Intermolecular Energy     = -12.38 kcal/molUSER        vdW + Hbond + desolv Energy     = -12.22 kcal/molUSER        Electrostatic Energy            =  -0.16 kcal/molUSER        Moving Ligand-Fixed Receptor    = -12.38 kcal/molUSER        Moving Ligand-Moving Receptor   =  +0.00 kcal/molUSER    (2) Final Total Internal Energy     =  -0.86 kcal/molUSER    (3) Torsional Free Energy           =  +2.09 kcal/molUSER    (4) Unbound System's Energy         =  -0.86 kcal/molUSERUSERREMARK SMILES Nc1nc(NCC2CCCC2)ncc1-c1ccc(C=C2SC(=O)NC2=O)cc1REMARK SMILES IDX 2 1 3 2 4 3 12 4 13 5 14 6 1 7 15 10 16 11 28 12 17 13 27 14REMARK SMILES IDX 18 15 19 16 20 17 21 18 25 19 22 20 24 21 26 22 23 23 5 25REMARK SMILES IDX 6 27 7 28 8 29 11 30 9 31 10 32REMARK H PARENT 1 8 1 9 24 24 5 26USER                              x       y       z     vdW  Elec       q    TypeUSER                           _______ _______ _______ _____ _____    ______ ____ROOTATOM      1  C   UNL     1      37.949  44.384  23.037 -0.25 +0.01    +0.136 A  ATOM      2  N   UNL     1      37.306  43.759  24.038 -0.24 -0.02    -0.196 NA ATOM      3  C   UNL     1      36.848  42.523  23.809 -0.26 +0.02    +0.224 A  ATOM      4  N   UNL     1      37.006  41.870  22.654 -0.36 -0.01    -0.221 NA ATOM      5  C   UNL     1      37.645  42.534  21.670 -0.25 +0.01    +0.127 A  ATOM      6  C   UNL     1      38.152  43.815  21.784 -0.32 +0.00    +0.042 A  ENDROOTBRANCH   1   7ATOM      7  N   UNL     1      38.379  45.681  23.338 -0.13 -0.05    -0.383 N  ATOM      8  H   UNL     1      38.087  46.347  22.630 +0.06 +0.03    +0.158 HD ATOM      9  H   UNL     1      39.387  45.650  23.457 +0.08 +0.01    +0.158 HD ENDBRANCH   1   7BRANCH   6  10ATOM     10  C   UNL     1      38.841  44.475  20.667 -0.34 -0.00    -0.013 A  ATOM     11  C   UNL     1      40.173  44.901  20.785 -0.34 +0.00    +0.009 A  ATOM     12  C   UNL     1      38.182  44.701  19.446 -0.36 -0.00    +0.009 A  ATOM     13  C   UNL     1      40.831  45.521  19.717 -0.41 +0.00    +0.009 A  ATOM     14  C   UNL     1      38.838  45.321  18.377 -0.40 -0.00    +0.009 A  ATOM     15  C   UNL     1      40.169  45.726  18.505 -0.44 +0.00    -0.024 A  BRANCH  15  16ATOM     16  C   UNL     1      40.869  46.381  17.399 -0.51 -0.00    +0.029 C  BRANCH  16  17ATOM     17  C   UNL     1      40.294  47.091  16.419 -0.51 -0.01    +0.083 C  ATOM     18  S   UNL     1      39.022  46.450  15.428 -0.58 +0.01    -0.022 SA ATOM     19  C   UNL     1      40.584  48.493  16.001 -0.43 -0.05    +0.265 C  ATOM     20  C   UNL     1      38.872  47.933  14.513 -0.35 -0.11    +0.290 C  ATOM     21  N   UNL     1      39.765  48.845  14.968 -0.32 +0.11    -0.282 N  ATOM     22  O   UNL     1      41.418  49.241  16.484 -1.09 -0.00    -0.268 OA ATOM     23  O   UNL     1      38.077  48.103  13.604 -0.66 +0.08    -0.261 OA ATOM     24  H   UNL     1      39.819  49.762  14.557 -0.15 -0.12    +0.174 HD ENDBRANCH  16  17ENDBRANCH  15  16ENDBRANCH   6  10BRANCH   3  25ATOM     25  N   UNL     1      36.169  41.822  24.798 -0.19 +0.03    -0.354 N  ATOM     26  H   UNL     1      36.192  40.851  24.504 -0.12 -0.06    +0.163 HD BRANCH  25  27ATOM     27  C   UNL     1      36.626  42.088  26.149 -0.41 -0.02    +0.119 C  BRANCH  27  28ATOM     28  C   UNL     1      35.815  43.235  26.756 -0.53 -0.00    +0.008 C  ATOM     29  C   UNL     1      34.700  42.780  27.696 -0.66 -0.00    +0.005 C  ATOM     30  C   UNL     1      36.655  44.128  27.666 -0.48 -0.00    +0.005 C  ATOM     31  C   UNL     1      34.386  44.012  28.543 -0.72 -0.00    +0.000 C  ATOM     32  C   UNL     1      35.619  44.911  28.464 -0.52 -0.00    +0.000 C  ENDBRANCH  27  28ENDBRANCH  25  27ENDBRANCH   3  25TORSDOF 7TERENDMDL