REMARK SMILES Nc1nc(NCC2CCCC2)ncc1-c1ccc(C=C2SC(=O)NC2=O)cc1
REMARK SMILES IDX 2 1 3 2 4 3 12 4 13 5 14 6 1 7 15 10 16 11 28 12 17 13 27 14
REMARK SMILES IDX 18 15 19 16 20 17 21 18 25 19 22 20 24 21 26 22 23 23 5 25
REMARK SMILES IDX 6 27 7 28 8 29 11 30 9 31 10 32
REMARK H PARENT 1 8 1 9 24 24 5 26
ROOT
ATOM      1  C   UNL     1      -0.028   0.110   0.976  1.00  0.00     0.136 A 
ATOM      2  N   UNL     1      -1.370   0.161   0.939  1.00  0.00    -0.196 NA
ATOM      3  C   UNL     1      -1.937   1.063   0.129  1.00  0.00     0.224 A 
ATOM      4  N   UNL     1      -1.250   1.901  -0.653  1.00  0.00    -0.221 NA
ATOM      5  C   UNL     1       0.094   1.828  -0.578  1.00  0.00     0.127 A 
ATOM      6  C   UNL     1       0.792   0.947   0.227  1.00  0.00     0.042 A 
ENDROOT
BRANCH   1   7
ATOM      7  N   UNL     1       0.497  -0.838   1.861  1.00  0.00    -0.383 N 
ATOM      8  H   UNL     1       1.199  -1.420   1.416  1.00  0.00     0.158 HD
ATOM      9  H   UNL     1      -0.281  -1.375   2.233  1.00  0.00     0.158 HD
ENDBRANCH   1   7
BRANCH   6  10
ATOM     10  C   UNL     1       2.261   0.924   0.253  1.00  0.00    -0.013 A 
ATOM     11  C   UNL     1       2.969   1.107   1.451  1.00  0.00     0.009 A 
ATOM     12  C   UNL     1       3.000   0.721  -0.925  1.00  0.00     0.009 A 
ATOM     13  C   UNL     1       4.367   1.076   1.477  1.00  0.00     0.009 A 
ATOM     14  C   UNL     1       4.399   0.690  -0.902  1.00  0.00     0.009 A 
ATOM     15  C   UNL     1       5.088   0.859   0.301  1.00  0.00    -0.024 A 
BRANCH  15  16
ATOM     16  C   UNL     1       6.551   0.835   0.343  1.00  0.00     0.029 C 
BRANCH  16  17
ATOM     17  C   UNL     1       7.321  -0.252   0.198  1.00  0.00     0.083 C 
ATOM     18  S   UNL     1       9.053  -0.183   0.271  1.00  0.00    -0.022 SA
ATOM     19  C   UNL     1       6.894  -1.664  -0.025  1.00  0.00     0.265 C 
ATOM     20  C   UNL     1       9.218  -1.907   0.024  1.00  0.00     0.290 C 
ATOM     21  N   UNL     1       7.992  -2.470  -0.106  1.00  0.00    -0.282 N 
ATOM     22  O   UNL     1       5.749  -2.073  -0.125  1.00  0.00    -0.268 OA
ATOM     23  O   UNL     1      10.284  -2.496  -0.023  1.00  0.00    -0.261 OA
ATOM     24  H   UNL     1       7.894  -3.461  -0.252  1.00  0.00     0.174 HD
ENDBRANCH  16  17
ENDBRANCH  15  16
ENDBRANCH   6  10
BRANCH   3  25
ATOM     25  N   UNL     1      -3.319   1.174   0.046  1.00  0.00    -0.354 N 
ATOM     26  H   UNL     1      -3.497   1.688  -0.810  1.00  0.00     0.163 HD
BRANCH  25  27
ATOM     27  C   UNL     1      -4.036  -0.079   0.195  1.00  0.00     0.119 C 
BRANCH  27  28
ATOM     28  C   UNL     1      -5.537   0.157   0.014  1.00  0.00     0.008 C 
ATOM     29  C   UNL     1      -5.944   0.514  -1.415  1.00  0.00     0.005 C 
ATOM     30  C   UNL     1      -6.363  -1.101   0.276  1.00  0.00     0.005 C 
ATOM     31  C   UNL     1      -7.438   0.204  -1.478  1.00  0.00     0.000 C 
ATOM     32  C   UNL     1      -7.718  -0.781  -0.343  1.00  0.00     0.000 C 
ENDBRANCH  27  28
ENDBRANCH  25  27
ENDBRANCH   3  25
TORSDOF 7
