REMARK SMILES O=C1NC(=O)C(=Cc2ccc(-c3ccc(NCC4CCCC4)nc3)cc2)S1
REMARK SMILES IDX 8 1 9 2 10 3 11 4 25 5 26 6 7 7 6 8 2 9 3 10 27 11 4 12 1 13
REMARK SMILES IDX 5 15 12 16 13 17 24 18 14 19 23 20 15 21 16 22 17 24 18 25
REMARK SMILES IDX 19 26 22 27 20 28 21 29
REMARK H PARENT 3 14 16 23
ROOT
ATOM      1  C   UNL     1       5.075   0.687  -0.237  1.00  0.00    -0.024 A 
ATOM      2  C   UNL     1       4.370   0.247  -1.360  1.00  0.00     0.009 A 
ATOM      3  C   UNL     1       2.980   0.096  -1.308  1.00  0.00     0.009 A 
ATOM      4  C   UNL     1       2.262   0.388  -0.137  1.00  0.00    -0.017 A 
ATOM      5  C   UNL     1       2.983   0.837   0.981  1.00  0.00     0.009 A 
ATOM      6  C   UNL     1       4.373   0.989   0.932  1.00  0.00     0.009 A 
ENDROOT
BRANCH   1   7
ATOM      7  C   UNL     1       6.526   0.864  -0.321  1.00  0.00     0.029 C 
BRANCH   7   8
ATOM      8  C   UNL     1       7.451   0.140   0.325  1.00  0.00     0.083 C 
ATOM      9  C   UNL     1       9.579  -0.868   1.235  1.00  0.00     0.290 C 
ATOM     10  N   UNL     1       8.453  -1.467   1.694  1.00  0.00    -0.282 N 
ATOM     11  S   UNL     1       9.152   0.436   0.150  1.00  0.00    -0.022 SA
ATOM     12  C   UNL     1       7.246  -1.010   1.253  1.00  0.00     0.265 C 
ATOM     13  O   UNL     1      10.722  -1.178   1.520  1.00  0.00    -0.261 OA
ATOM     14  H   UNL     1       8.508  -2.250   2.324  1.00  0.00     0.174 HD
ATOM     15  O   UNL     1       6.179  -1.497   1.586  1.00  0.00    -0.268 OA
ENDBRANCH   7   8
ENDBRANCH   1   7
BRANCH   4  16
ATOM     16  C   UNL     1       0.803   0.227  -0.084  1.00  0.00     0.000 A 
ATOM     17  C   UNL     1       0.174  -0.964  -0.457  1.00  0.00     0.014 A 
ATOM     18  C   UNL     1      -0.040   1.250   0.347  1.00  0.00     0.122 A 
ATOM     19  C   UNL     1      -1.215  -1.076  -0.388  1.00  0.00     0.047 A 
ATOM     20  N   UNL     1      -1.393   1.168   0.421  1.00  0.00    -0.239 NA
ATOM     21  C   UNL     1      -1.964   0.011   0.045  1.00  0.00     0.125 A 
BRANCH  21  22
ATOM     22  N   UNL     1      -3.355  -0.035   0.153  1.00  0.00    -0.370 N 
ATOM     23  H   UNL     1      -3.582   0.891   0.515  1.00  0.00     0.162 HD
BRANCH  22  24
ATOM     24  C   UNL     1      -4.041  -0.297  -1.110  1.00  0.00     0.118 C 
BRANCH  24  25
ATOM     25  C   UNL     1      -5.564  -0.309  -0.944  1.00  0.00     0.008 C 
ATOM     26  C   UNL     1      -6.095  -1.324   0.067  1.00  0.00     0.005 C 
ATOM     27  C   UNL     1      -6.185   0.998  -0.456  1.00  0.00     0.005 C 
ATOM     28  C   UNL     1      -7.529  -0.873   0.341  1.00  0.00     0.000 C 
ATOM     29  C   UNL     1      -7.608   0.594  -0.087  1.00  0.00     0.000 C 
ENDBRANCH  24  25
ENDBRANCH  22  24
ENDBRANCH  21  22
ENDBRANCH   4  16
TORSDOF 6
