MODEL        6USER    Run = 6USERUSER    Estimated Free Energy of Binding    = -10.25 kcal/mol  [=(1)+(2)+(3)-(4)]USERUSER    (1) Final Intermolecular Energy     = -12.04 kcal/molUSER        vdW + Hbond + desolv Energy     = -11.87 kcal/molUSER        Electrostatic Energy            =  -0.17 kcal/molUSER        Moving Ligand-Fixed Receptor    = -12.04 kcal/molUSER        Moving Ligand-Moving Receptor   =  +0.00 kcal/molUSER    (2) Final Total Internal Energy     =  -0.89 kcal/molUSER    (3) Torsional Free Energy           =  +1.79 kcal/molUSER    (4) Unbound System's Energy         =  -0.89 kcal/molUSERUSERREMARK SMILES O=C1NC(=O)C(=Cc2ccc(-c3cnc(NCC4CCOCC4)nc3)c(F)c2)S1REMARK SMILES IDX 8 1 9 2 10 3 11 4 26 5 27 6 28 7 7 8 6 9 2 10 3 11 29 12REMARK SMILES IDX 4 13 1 14 5 16 12 17 13 18 25 19 14 20 24 21 15 22 16 23REMARK SMILES IDX 17 25 18 26 19 27 23 28 20 29 22 30 21 31REMARK H PARENT 3 15 16 24USER                              x       y       z     vdW  Elec       q    TypeUSER                           _______ _______ _______ _____ _____    ______ ____ROOTATOM      1  C   UNL     1      38.439  45.518  17.439 -0.38 +0.00    -0.021 A  ATOM      2  C   UNL     1      39.448  45.231  18.364 -0.42 -0.00    +0.009 A  ATOM      3  C   UNL     1      39.139  44.616  19.585 -0.36 -0.00    +0.012 A  ATOM      4  C   UNL     1      37.818  44.264  19.912 -0.35 -0.00    +0.021 A  ATOM      5  C   UNL     1      36.828  44.549  18.957 -0.26 -0.02    +0.131 A  ATOM      6  F   UNL     1      35.545  44.241  19.206 -0.07 +0.04    -0.206 F  ATOM      7  C   UNL     1      37.124  45.162  17.739 -0.32 -0.01    +0.048 A  ENDROOTBRANCH   1   8ATOM      8  C   UNL     1      38.740  46.150  16.152 -0.44 -0.01    +0.029 C  BRANCH   8   9ATOM      9  C   UNL     1      39.465  47.263  15.973 -0.49 -0.02    +0.083 C  ATOM     10  C   UNL     1      40.958  49.284  15.930 -0.44 -0.05    +0.290 C  ATOM     11  N   UNL     1      40.081  49.237  14.896 -0.30 +0.12    -0.282 N  ATOM     12  S   UNL     1      40.741  47.880  16.955 -0.74 +0.00    -0.022 SA ATOM     13  C   UNL     1      39.222  48.182  14.829 -0.39 -0.10    +0.265 C  ATOM     14  O   UNL     1      41.780  50.163  16.131 -1.00 -0.01    -0.261 OA ATOM     15  H   UNL     1      40.061  49.969  14.205 -0.04 -0.13    +0.174 HD ATOM     16  O   UNL     1      38.381  48.019  13.960 -0.46 +0.09    -0.268 OA ENDBRANCH   8   9ENDBRANCH   1   8BRANCH   4  17ATOM     17  C   UNL     1      37.496  43.624  21.195 -0.37 +0.00    +0.021 A  ATOM     18  C   UNL     1      37.866  44.147  22.419 -0.28 +0.01    +0.125 A  ATOM     19  C   UNL     1      36.798  42.438  21.308 -0.38 +0.00    +0.125 A  ATOM     20  N   UNL     1      37.598  43.577  23.615 -0.21 -0.02    -0.221 NA ATOM     21  N   UNL     1      36.503  41.825  22.478 -0.38 -0.01    -0.221 NA ATOM     22  C   UNL     1      36.909  42.430  23.598 -0.28 +0.02    +0.222 A  BRANCH  22  23ATOM     23  N   UNL     1      36.583  41.784  24.775 -0.20 +0.03    -0.354 N  ATOM     24  H   UNL     1      36.158  40.899  24.525 -0.13 -0.06    +0.163 HD BRANCH  23  25ATOM     25  C   UNL     1      37.573  41.773  25.837 -0.32 -0.01    +0.119 C  BRANCH  25  26ATOM     26  C   UNL     1      37.004  42.251  27.187 -0.48 -0.00    +0.013 C  ATOM     27  C   UNL     1      35.860  41.356  27.703 -0.66 -0.01    +0.034 C  ATOM     28  C   UNL     1      36.536  43.712  27.063 -0.44 -0.01    +0.034 C  ATOM     29  C   UNL     1      34.500  41.943  27.353 -0.40 -0.05    +0.160 C  ATOM     30  C   UNL     1      35.467  44.023  28.099 -0.49 -0.05    +0.160 C  ATOM     31  O   UNL     1      34.290  43.235  27.921 -0.37 +0.07    -0.381 OA ENDBRANCH  25  26ENDBRANCH  23  25ENDBRANCH  22  23ENDBRANCH   4  17TORSDOF 6TERENDMDL