REMARK SMILES O=C1Nc2ccc(I)cc2/C1=C/N1C[C@H](O)c2ccc(F)cc2O1
REMARK SMILES IDX 13 1 14 2 15 3 17 4 18 5 19 6 20 7 21 8 22 9 23 10 24 11
REMARK SMILES IDX 12 12 11 13 2 14 3 15 4 16 10 17 5 18 9 19 6 20 7 21 1 22
REMARK SMILES IDX 8 24 16 25
REMARK H PARENT 3 23 16 26
ROOT
ATOM      1  N   UNL     1       0.578   0.069   0.850  1.00  0.00    -0.213 N 
ATOM      2  C   UNL     1       1.259   0.129   2.145  1.00  0.00     0.198 C 
ATOM      3  C   UNL     1       2.493  -0.783   2.090  1.00  0.00     0.171 C 
ATOM      4  C   UNL     1       3.245  -0.566   0.802  1.00  0.00     0.028 A 
ATOM      5  C   UNL     1       4.543  -1.068   0.618  1.00  0.00     0.013 A 
ATOM      6  C   UNL     1       5.199  -0.889  -0.600  1.00  0.00     0.040 A 
ATOM      7  C   UNL     1       4.556  -0.217  -1.635  1.00  0.00     0.127 A 
ATOM      8  F   UNL     1       5.193  -0.048  -2.802  1.00  0.00    -0.207 F 
ATOM      9  C   UNL     1       3.271   0.282  -1.477  1.00  0.00     0.089 A 
ATOM     10  C   UNL     1       2.613   0.099  -0.262  1.00  0.00     0.164 A 
ATOM     11  O   UNL     1       1.355   0.660  -0.161  1.00  0.00    -0.380 OA
ENDROOT
BRANCH   1  12
ATOM     12  C   UNL     1      -0.798   0.165   0.721  1.00  0.00     0.138 C 
BRANCH  12  13
ATOM     13  C   UNL     1      -1.603   0.243  -0.348  1.00  0.00     0.068 C 
ATOM     14  C   UNL     1      -1.237   0.208  -1.814  1.00  0.00     0.257 C 
ATOM     15  N   UNL     1      -2.449   0.324  -2.484  1.00  0.00    -0.321 N 
ATOM     16  C   UNL     1      -3.518   0.410  -1.603  1.00  0.00     0.049 A 
ATOM     17  C   UNL     1      -3.069   0.363  -0.280  1.00  0.00     0.013 A 
ATOM     18  C   UNL     1      -4.854   0.525  -1.934  1.00  0.00     0.028 A 
ATOM     19  C   UNL     1      -3.972   0.434   0.768  1.00  0.00     0.026 A 
ATOM     20  C   UNL     1      -5.772   0.596  -0.883  1.00  0.00     0.017 A 
ATOM     21  C   UNL     1      -5.330   0.550   0.453  1.00  0.00     0.014 A 
ATOM     22  O   UNL     1      -0.152   0.089  -2.346  1.00  0.00    -0.269 OA
ATOM     23  H   UNL     1      -2.505   0.324  -3.491  1.00  0.00     0.170 HD
ATOM     24  I   UNL     1      -6.729   0.659   1.992  1.00  0.00    -0.044 I 
ENDBRANCH  12  13
ENDBRANCH   1  12
BRANCH   3  25
ATOM     25  O   UNL     1       3.348  -0.543   3.208  1.00  0.00    -0.386 OA
ATOM     26  H   UNL     1       2.892  -0.880   3.997  1.00  0.00     0.211 HD
ENDBRANCH   3  25
TORSDOF 3
