MODEL        6USER    Run = 6USERUSER    Estimated Free Energy of Binding    =  -9.86 kcal/mol  [=(1)+(2)+(3)-(4)]USERUSER    (1) Final Intermolecular Energy     = -10.75 kcal/molUSER        vdW + Hbond + desolv Energy     = -10.58 kcal/molUSER        Electrostatic Energy            =  -0.17 kcal/molUSER        Moving Ligand-Fixed Receptor    = -10.75 kcal/molUSER        Moving Ligand-Moving Receptor   =  +0.00 kcal/molUSER    (2) Final Total Internal Energy     =  -0.93 kcal/molUSER    (3) Torsional Free Energy           =  +0.89 kcal/molUSER    (4) Unbound System's Energy         =  -0.93 kcal/molUSERUSERREMARK SMILES O=C1Nc2ccc(I)cc2/C1=C/N1C[C@H](O)c2ccc(F)cc2O1REMARK SMILES IDX 13 1 14 2 15 3 17 4 18 5 19 6 20 7 21 8 22 9 23 10 24 11REMARK SMILES IDX 12 12 11 13 2 14 3 15 4 16 10 17 5 18 9 19 6 20 7 21 1 22REMARK SMILES IDX 8 24 16 25REMARK H PARENT 3 23 16 26USER                              x       y       z     vdW  Elec       q    TypeUSER                           _______ _______ _______ _____ _____    ______ ____ROOTATOM      1  N   UNL     1      39.395  47.540  14.708 -0.33 +0.06    -0.213 N  ATOM      2  C   UNL     1      40.334  48.661  14.634 -0.45 -0.05    +0.198 C  ATOM      3  C   UNL     1      40.683  49.101  16.063 -0.52 -0.04    +0.171 C  ATOM      4  C   UNL     1      40.971  47.897  16.923 -0.51 -0.00    +0.028 A  ATOM      5  C   UNL     1      41.573  48.026  18.185 -0.25 -0.00    +0.013 A  ATOM      6  C   UNL     1      41.790  46.899  18.978 -0.49 +0.00    +0.040 A  ATOM      7  C   UNL     1      41.398  45.647  18.515 -0.37 +0.01    +0.127 A  ATOM      8  F   UNL     1      41.610  44.568  19.282 -0.06 -0.03    -0.207 F  ATOM      9  C   UNL     1      40.796  45.497  17.274 -0.24 -0.00    +0.089 A  ATOM     10  C   UNL     1      40.574  46.624  16.483 -0.32 -0.02    +0.164 A  ATOM     11  O   UNL     1      40.012  46.395  15.243 -0.24 +0.05    -0.380 OA ENDROOTBRANCH   1  12ATOM     12  C   UNL     1      38.396  47.334  13.771 -0.43 -0.04    +0.138 C  BRANCH  12  13ATOM     13  C   UNL     1      37.109  46.978  13.885 -0.51 -0.03    +0.068 C  ATOM     14  C   UNL     1      35.975  47.202  12.911 -0.47 -0.15    +0.257 C  ATOM     15  N   UNL     1      34.864  46.635  13.525 -0.26 +0.26    -0.321 N  ATOM     16  C   UNL     1      35.185  46.075  14.754 -0.34 -0.04    +0.049 A  ATOM     17  C   UNL     1      36.544  46.248  15.032 -0.38 -0.01    +0.013 A  ATOM     18  C   UNL     1      34.324  45.427  15.617 -0.30 -0.02    +0.028 A  ATOM     19  C   UNL     1      37.084  45.764  16.213 -0.34 -0.01    +0.026 A  ATOM     20  C   UNL     1      34.859  44.934  16.810 -0.30 -0.01    +0.017 A  ATOM     21  C   UNL     1      36.227  45.104  17.100 -0.32 -0.01    +0.014 A  ATOM     22  O   UNL     1      35.975  47.732  11.819 -0.55 +0.16    -0.269 OA ATOM     23  H   UNL     1      33.955  46.635  13.090 -0.41 -0.16    +0.170 HD ATOM     24  I   UNL     1      36.988  44.356  18.888 -0.90 +0.01    -0.044 I  ENDBRANCH  12  13ENDBRANCH   1  12BRANCH   3  25ATOM     25  O   UNL     1      41.803  49.986  16.059 -0.88 -0.03    -0.386 OA ATOM     26  H   UNL     1      41.527  50.803  16.507 -0.42 -0.06    +0.211 HD ENDBRANCH   3  25TORSDOF 3TERENDMDL