MODEL        7USER    Run = 7USERUSER    Estimated Free Energy of Binding    = -10.51 kcal/mol  [=(1)+(2)+(3)-(4)]USERUSER    (1) Final Intermolecular Energy     = -12.60 kcal/molUSER        vdW + Hbond + desolv Energy     = -12.44 kcal/molUSER        Electrostatic Energy            =  -0.16 kcal/molUSER        Moving Ligand-Fixed Receptor    = -12.60 kcal/molUSER        Moving Ligand-Moving Receptor   =  +0.00 kcal/molUSER    (2) Final Total Internal Energy     =  -1.13 kcal/molUSER    (3) Torsional Free Energy           =  +2.09 kcal/molUSER    (4) Unbound System's Energy         =  -1.13 kcal/molUSERUSERREMARK SMILES Cc1nc(NCC2CCCC2)ccc1-c1ccc(C=C2SC(=O)NC2=O)cc1OREMARK SMILES IDX 1 1 2 2 3 3 4 4 12 5 13 6 14 7 15 8 16 9 28 10 17 11 27 12REMARK SMILES IDX 18 13 29 14 19 16 20 17 21 18 25 19 22 20 24 21 26 22 23 23REMARK SMILES IDX 5 25 6 27 7 28 8 29 11 30 9 31 10 32REMARK H PARENT 29 15 24 24 5 26USER                              x       y       z     vdW  Elec       q    TypeUSER                           _______ _______ _______ _____ _____    ______ ____ROOTATOM      1  C   UNL     1      38.135  45.481  23.035 -0.28 +0.01    +0.067 C  ATOM      2  C   UNL     1      37.574  44.086  23.035 -0.32 +0.00    +0.048 A  ATOM      3  N   UNL     1      37.434  43.517  24.264 -0.20 -0.02    -0.236 NA ATOM      4  C   UNL     1      36.931  42.275  24.351 -0.33 +0.00    +0.126 A  ATOM      5  C   UNL     1      36.559  41.557  23.221 -0.42 +0.00    +0.047 A  ATOM      6  C   UNL     1      36.712  42.139  21.963 -0.51 +0.00    +0.014 A  ATOM      7  C   UNL     1      37.228  43.434  21.845 -0.40 +0.00    +0.007 A  ENDROOTBRANCH   7   8ATOM      8  C   UNL     1      37.395  44.037  20.516 -0.37 -0.00    +0.025 A  ATOM      9  C   UNL     1      38.685  44.266  20.011 -0.31 -0.00    +0.013 A  ATOM     10  C   UNL     1      36.301  44.399  19.714 -0.28 -0.01    +0.124 A  ATOM     11  C   UNL     1      38.873  44.838  18.750 -0.39 -0.00    +0.009 A  ATOM     12  C   UNL     1      36.481  44.974  18.453 -0.29 -0.01    +0.055 A  ATOM     13  C   UNL     1      37.773  45.186  17.959 -0.36 +0.00    -0.021 A  BRANCH  10  14ATOM     14  O   UNL     1      35.034  44.184  20.186 -0.14 +0.05    -0.507 OA ATOM     15  H   UNL     1      34.509  44.995  20.085 +0.04 -0.10    +0.293 HD ENDBRANCH  10  14BRANCH  13  16ATOM     16  C   UNL     1      38.004  45.806  16.650 -0.41 -0.01    +0.029 C  BRANCH  16  17ATOM     17  C   UNL     1      38.783  46.866  16.398 -0.43 -0.03    +0.083 C  ATOM     18  S   UNL     1      40.395  47.165  16.932 -0.68 +0.00    -0.022 SA ATOM     19  C   UNL     1      38.304  48.014  15.584 -0.34 -0.15    +0.265 C  ATOM     20  C   UNL     1      40.460  48.719  16.126 -0.39 -0.07    +0.290 C  ATOM     21  N   UNL     1      39.281  48.960  15.500 -0.30 +0.15    -0.282 N  ATOM     22  O   UNL     1      37.203  48.103  15.065 -0.35 +0.22    -0.268 OA ATOM     23  O   UNL     1      41.429  49.460  16.135 -1.09 +0.01    -0.261 OA ATOM     24  H   UNL     1      39.137  49.812  14.982 -0.32 -0.16    +0.174 HD ENDBRANCH  16  17ENDBRANCH  13  16ENDBRANCH   7   8BRANCH   4  25ATOM     25  N   UNL     1      36.765  41.728  25.631 -0.15 +0.06    -0.370 N  ATOM     26  H   UNL     1      36.910  40.724  25.562 -0.26 -0.08    +0.162 HD BRANCH  25  27ATOM     27  C   UNL     1      35.463  42.029  26.227 -0.40 -0.02    +0.118 C  BRANCH  27  28ATOM     28  C   UNL     1      35.607  42.921  27.463 -0.59 -0.00    +0.008 C  ATOM     29  C   UNL     1      36.594  44.084  27.305 -0.47 -0.00    +0.005 C  ATOM     30  C   UNL     1      34.294  43.622  27.821 -0.62 -0.00    +0.005 C  ATOM     31  C   UNL     1      36.041  45.234  28.152 -0.45 -0.00    +0.000 C  ATOM     32  C   UNL     1      34.745  44.722  28.766 -0.64 -0.00    +0.000 C  ENDBRANCH  27  28ENDBRANCH  25  27ENDBRANCH   4  25TORSDOF 7TERENDMDL