MODEL        4USER    Run = 4USERUSER    Estimated Free Energy of Binding    =  -9.92 kcal/mol  [=(1)+(2)+(3)-(4)]USERUSER    (1) Final Intermolecular Energy     = -12.01 kcal/molUSER        vdW + Hbond + desolv Energy     = -11.86 kcal/molUSER        Electrostatic Energy            =  -0.15 kcal/molUSER        Moving Ligand-Fixed Receptor    = -12.01 kcal/molUSER        Moving Ligand-Moving Receptor   =  +0.00 kcal/molUSER    (2) Final Total Internal Energy     =  -0.96 kcal/molUSER    (3) Torsional Free Energy           =  +2.09 kcal/molUSER    (4) Unbound System's Energy         =  -0.96 kcal/molUSERUSERREMARK SMILES Nc1nc(NCC2CCOCC2)ncc1-c1ccc(C=C2SC(=O)NC2=O)cc1FREMARK SMILES IDX 2 1 3 2 4 3 13 4 14 5 15 6 1 7 16 10 17 11 29 12 18 13 28 14REMARK SMILES IDX 19 15 30 16 20 17 21 18 22 19 26 20 23 21 25 22 27 23 24 24REMARK SMILES IDX 5 26 6 28 7 29 8 30 12 31 9 32 11 33 10 34REMARK H PARENT 1 8 1 9 25 25 5 27USER                              x       y       z     vdW  Elec       q    TypeUSER                           _______ _______ _______ _____ _____    ______ ____ROOTATOM      1  C   UNL     1      40.703  46.117  19.787 -0.26 +0.00    +0.137 A  ATOM      2  N   UNL     1      41.144  46.758  18.691 -0.36 +0.00    -0.196 NA ATOM      3  C   UNL     1      40.401  46.697  17.584 -0.33 -0.03    +0.224 A  ATOM      4  N   UNL     1      39.239  46.045  17.499 -0.28 +0.04    -0.221 NA ATOM      5  C   UNL     1      38.825  45.410  18.612 -0.32 -0.02    +0.127 A  ATOM      6  C   UNL     1      39.514  45.392  19.811 -0.36 -0.00    +0.045 A  ENDROOTBRANCH   1   7ATOM      7  N   UNL     1      41.527  46.217  20.922 -0.12 -0.05    -0.383 N  ATOM      8  H   UNL     1      40.944  46.208  21.757 +0.08 +0.01    +0.158 HD ATOM      9  H   UNL     1      42.140  45.407  20.976 +0.08 +0.03    +0.158 HD ENDBRANCH   1   7BRANCH   6  10ATOM     10  C   UNL     1      39.012  44.640  20.968 -0.33 +0.00    +0.023 A  ATOM     11  C   UNL     1      37.661  44.725  21.346 -0.32 +0.00    +0.012 A  ATOM     12  C   UNL     1      39.849  43.815  21.732 -0.16 +0.01    +0.131 A  ATOM     13  C   UNL     1      37.171  43.996  22.436 -0.36 +0.00    +0.009 A  ATOM     14  C   UNL     1      39.373  43.087  22.822 -0.25 +0.00    +0.048 A  ATOM     15  C   UNL     1      38.025  43.170  23.173 -0.33 -0.00    -0.021 A  ATOM     16  F   UNL     1      41.147  43.696  21.411 -0.08 -0.01    -0.206 F  BRANCH  15  17ATOM     17  C   UNL     1      37.496  42.379  24.285 -0.40 +0.00    +0.029 C  BRANCH  17  18ATOM     18  C   UNL     1      36.785  42.880  25.305 -0.39 -0.00    +0.083 C  ATOM     19  S   UNL     1      35.944  41.883  26.445 -0.70 +0.01    -0.022 SA ATOM     20  C   UNL     1      36.579  44.315  25.659 -0.22 -0.01    +0.265 C  ATOM     21  C   UNL     1      35.351  43.262  27.345 -0.38 -0.07    +0.290 C  ATOM     22  N   UNL     1      35.779  44.407  26.760 -0.15 +0.07    -0.282 N  ATOM     23  O   UNL     1      37.042  45.280  25.073 -0.62 -0.03    -0.268 OA ATOM     24  O   UNL     1      34.665  43.185  28.349 -0.50 +0.08    -0.261 OA ATOM     25  H   UNL     1      35.548  45.302  27.157 -0.36 -0.09    +0.174 HD ENDBRANCH  17  18ENDBRANCH  15  17ENDBRANCH   6  10BRANCH   3  26ATOM     26  N   UNL     1      40.939  47.323  16.471 -0.20 +0.04    -0.354 N  ATOM     27  H   UNL     1      41.932  47.394  16.671 -0.42 -0.04    +0.163 HD BRANCH  26  28ATOM     28  C   UNL     1      40.314  48.580  16.092 -0.55 -0.03    +0.119 C  BRANCH  28  29ATOM     29  C   UNL     1      39.382  48.387  14.887 -0.61 -0.01    +0.013 C  ATOM     30  C   UNL     1      39.367  46.942  14.357 -0.46 -0.01    +0.034 C  ATOM     31  C   UNL     1      37.953  48.861  15.172 -0.53 -0.03    +0.034 C  ATOM     32  C   UNL     1      38.053  46.601  13.660 -0.38 -0.05    +0.160 C  ATOM     33  C   UNL     1      37.081  48.746  13.921 -0.44 -0.10    +0.160 C  ATOM     34  O   UNL     1      37.537  47.752  13.000 -0.84 +0.09    -0.381 OA ENDBRANCH  28  29ENDBRANCH  26  28ENDBRANCH   3  26TORSDOF 7TERENDMDL