REMARK SMILES O=C(O)C=CC1=C(c2n[nH]c3cc(NCC4CC4)ncc23)C=C1F
REMARK SMILES IDX 6 1 7 2 22 3 23 4 24 5 5 6 4 7 2 8 1 9 3 10 8 12 9 13 21 14
REMARK SMILES IDX 10 15 20 16 11 17 19 18 12 19 13 20 14 22 15 24 16 25 17 26
REMARK SMILES IDX 18 27
REMARK H PARENT 3 11 10 21 14 23
ROOT
ATOM      1  C   UNL     1       4.272  -0.052  -0.138  1.00  0.00     0.020 C 
ATOM      2  C   UNL     1       2.944  -0.214  -0.152  1.00  0.00     0.016 C 
ATOM      3  C   UNL     1       3.014  -0.759  -1.468  1.00  0.00     0.051 C 
ATOM      4  C   UNL     1       4.352  -0.594  -1.456  1.00  0.00     0.131 C 
ATOM      5  F   UNL     1       5.345  -0.862  -2.316  1.00  0.00    -0.206 F 
ENDROOT
BRANCH   1   6
ATOM      6  C   UNL     1       5.338   0.461   0.842  1.00  0.00     0.019 C 
BRANCH   6   7
ATOM      7  C   UNL     1       6.662   0.578   0.688  1.00  0.00     0.094 C 
BRANCH   7   8
ATOM      8  C   UNL     1       7.407   0.292  -0.534  1.00  0.00     0.328 C 
ATOM      9  O   UNL     1       8.334  -0.488  -0.632  1.00  0.00    -0.247 OA
BRANCH   8  10
ATOM     10  O   UNL     1       7.025   1.092  -1.542  1.00  0.00    -0.478 OA
ATOM     11  H   UNL     1       7.570   0.793  -2.299  1.00  0.00     0.297 HD
ENDBRANCH   8  10
ENDBRANCH   7   8
ENDBRANCH   6   7
ENDBRANCH   1   6
BRANCH   2  12
ATOM     12  C   UNL     1       1.739  -0.000   0.769  1.00  0.00     0.102 A 
ATOM     13  N   UNL     1       1.901   0.208   2.081  1.00  0.00    -0.174 NA
ATOM     14  C   UNL     1       0.376   0.006   0.387  1.00  0.00     0.046 A 
ATOM     15  N   UNL     1       0.644   0.320   2.542  1.00  0.00    -0.277 N 
ATOM     16  C   UNL     1      -0.366  -0.126  -0.786  1.00  0.00     0.126 A 
ATOM     17  C   UNL     1      -0.315   0.221   1.573  1.00  0.00     0.071 A 
ATOM     18  N   UNL     1      -1.724  -0.060  -0.753  1.00  0.00    -0.239 NA
ATOM     19  C   UNL     1      -1.705   0.294   1.625  1.00  0.00     0.075 A 
ATOM     20  C   UNL     1      -2.374   0.149   0.410  1.00  0.00     0.128 A 
ATOM     21  H   UNL     1       0.506   0.467   3.536  1.00  0.00     0.190 HD
BRANCH  20  22
ATOM     22  N   UNL     1      -3.779   0.182   0.440  1.00  0.00    -0.370 N 
ATOM     23  H   UNL     1      -4.080   1.021   0.925  1.00  0.00     0.162 HD
BRANCH  22  24
ATOM     24  C   UNL     1      -4.418   0.076  -0.865  1.00  0.00     0.118 C 
BRANCH  24  25
ATOM     25  C   UNL     1      -5.920   0.043  -0.731  1.00  0.00     0.008 C 
ATOM     26  C   UNL     1      -6.598  -1.234  -0.291  1.00  0.00     0.006 C 
ATOM     27  C   UNL     1      -6.662  -0.021   0.589  1.00  0.00     0.006 C 
ENDBRANCH  24  25
ENDBRANCH  22  24
ENDBRANCH  20  22
ENDBRANCH   2  12
TORSDOF 8
