REMARK SMILES Cc1nc(NCC2CCCC2)ccc1-c1ccc(C=C2SC(=O)NC2=O)cc1O
REMARK SMILES IDX 1 1 2 2 3 3 4 4 12 5 13 6 14 7 15 8 16 9 28 10 17 11 27 12
REMARK SMILES IDX 18 13 29 14 19 16 20 17 21 18 25 19 22 20 24 21 26 22 23 23
REMARK SMILES IDX 5 25 6 27 7 28 8 29 11 30 9 31 10 32
REMARK H PARENT 29 15 24 24 5 26
ROOT
ATOM      1  C   UNL     1      -0.359   2.502   0.753  1.00  0.00     0.067 C 
ATOM      2  C   UNL     1      -0.642   1.093   1.194  1.00  0.00     0.048 A 
ATOM      3  N   UNL     1      -1.913   0.864   1.625  1.00  0.00    -0.236 NA
ATOM      4  C   UNL     1      -2.250  -0.372   2.028  1.00  0.00     0.126 A 
ATOM      5  C   UNL     1      -1.333  -1.417   2.022  1.00  0.00     0.047 A 
ATOM      6  C   UNL     1      -0.030  -1.177   1.589  1.00  0.00     0.014 A 
ATOM      7  C   UNL     1       0.345   0.100   1.159  1.00  0.00     0.007 A 
ENDROOT
BRANCH   7   8
ATOM      8  C   UNL     1       1.723   0.347   0.712  1.00  0.00     0.025 A 
ATOM      9  C   UNL     1       2.734   0.569   1.661  1.00  0.00     0.013 A 
ATOM     10  C   UNL     1       2.078   0.369  -0.646  1.00  0.00     0.124 A 
ATOM     11  C   UNL     1       4.053   0.806   1.264  1.00  0.00     0.009 A 
ATOM     12  C   UNL     1       3.394   0.608  -1.050  1.00  0.00     0.055 A 
ATOM     13  C   UNL     1       4.393   0.817  -0.092  1.00  0.00    -0.021 A 
BRANCH  10  14
ATOM     14  O   UNL     1       1.108   0.154  -1.588  1.00  0.00    -0.507 OA
ATOM     15  H   UNL     1       1.508   0.169  -2.473  1.00  0.00     0.293 HD
ENDBRANCH  10  14
BRANCH  13  16
ATOM     16  C   UNL     1       5.782   1.092  -0.477  1.00  0.00     0.029 C 
BRANCH  16  17
ATOM     17  C   UNL     1       6.593   0.277  -1.165  1.00  0.00     0.083 C 
ATOM     18  S   UNL     1       6.261  -1.299  -1.781  1.00  0.00    -0.022 SA
ATOM     19  C   UNL     1       7.996   0.654  -1.482  1.00  0.00     0.265 C 
ATOM     20  C   UNL     1       7.876  -1.470  -2.438  1.00  0.00     0.290 C 
ATOM     21  N   UNL     1       8.601  -0.356  -2.167  1.00  0.00    -0.282 N 
ATOM     22  O   UNL     1       8.531   1.708  -1.179  1.00  0.00    -0.268 OA
ATOM     23  O   UNL     1       8.271  -2.450  -3.048  1.00  0.00    -0.261 OA
ATOM     24  H   UNL     1       9.558  -0.278  -2.471  1.00  0.00     0.174 HD
ENDBRANCH  16  17
ENDBRANCH  13  16
ENDBRANCH   7   8
BRANCH   4  25
ATOM     25  N   UNL     1      -3.575  -0.587   2.433  1.00  0.00    -0.370 N 
ATOM     26  H   UNL     1      -3.553  -1.116   3.300  1.00  0.00     0.162 HD
BRANCH  25  27
ATOM     27  C   UNL     1      -4.387  -1.268   1.424  1.00  0.00     0.118 C 
BRANCH  27  28
ATOM     28  C   UNL     1      -5.199  -0.271   0.593  1.00  0.00     0.008 C 
ATOM     29  C   UNL     1      -4.394   0.481  -0.474  1.00  0.00     0.005 C 
ATOM     30  C   UNL     1      -6.297  -0.961  -0.219  1.00  0.00     0.005 C 
ATOM     31  C   UNL     1      -5.353   0.725  -1.642  1.00  0.00     0.000 C 
ATOM     32  C   UNL     1      -6.681   0.099  -1.237  1.00  0.00     0.000 C 
ENDBRANCH  27  28
ENDBRANCH  25  27
ENDBRANCH   4  25
TORSDOF 7
