MODEL        8USER    Run = 8USERUSER    Estimated Free Energy of Binding    =  -9.84 kcal/mol  [=(1)+(2)+(3)-(4)]USERUSER    (1) Final Intermolecular Energy     = -11.33 kcal/molUSER        vdW + Hbond + desolv Energy     = -11.13 kcal/molUSER        Electrostatic Energy            =  -0.20 kcal/molUSER        Moving Ligand-Fixed Receptor    = -11.33 kcal/molUSER        Moving Ligand-Moving Receptor   =  +0.00 kcal/molUSER    (2) Final Total Internal Energy     =  -1.05 kcal/molUSER    (3) Torsional Free Energy           =  +1.49 kcal/molUSER    (4) Unbound System's Energy         =  -1.05 kcal/molUSERUSERREMARK SMILES CO[C@H]1CC=C(c2nc(NCc3cccnc3)c3ncn(C)c3n2)N=N1REMARK SMILES IDX 7 1 8 2 9 3 18 4 19 5 20 6 21 7 22 8 23 9 24 10 6 11 3 12REMARK SMILES IDX 4 13 26 14 5 15 25 16 2 17 1 18 10 19 11 21 12 22 13 23REMARK SMILES IDX 17 24 14 25 16 26 15 27REMARK H PARENT 10 20USER                              x       y       z     vdW  Elec       q    TypeUSER                           _______ _______ _______ _____ _____    ______ ____ROOTATOM      1  C   UNL     1      39.421  46.994  16.899 -0.33 -0.05    +0.183 A  ATOM      2  N   UNL     1      38.307  46.563  16.248 -0.25 +0.08    -0.207 NA ATOM      3  C   UNL     1      37.488  45.654  16.840 -0.26 -0.06    +0.158 A  ATOM      4  C   UNL     1      37.845  45.185  18.115 -0.27 -0.03    +0.150 A  ATOM      5  N   UNL     1      37.262  44.266  18.966 -0.21 +0.03    -0.231 NA ATOM      6  C   UNL     1      38.053  44.237  20.020 -0.22 -0.01    +0.201 A  ATOM      7  N   UNL     1      39.116  45.086  19.881 -0.19 +0.01    -0.318 N  ATOM      8  C   UNL     1      40.172  45.303  20.835 -0.30 +0.01    +0.153 C  ATOM      9  C   UNL     1      39.004  45.700  18.666 -0.30 -0.02    +0.165 A  ATOM     10  N   UNL     1      39.835  46.600  18.125 -0.32 +0.03    -0.206 NA ENDROOTBRANCH   1  11ATOM     11  C   UNL     1      40.272  48.008  16.200 -0.52 -0.03    +0.126 C  ATOM     12  C   UNL     1      41.399  50.301  15.194 -0.50 -0.06    +0.260 C  ATOM     13  C   UNL     1      41.077  49.177  14.204 -0.54 -0.02    +0.088 C  ATOM     14  N   UNL     1      41.789  49.728  16.504 -0.98 -0.03    -0.156 NA ATOM     15  C   UNL     1      40.228  48.141  14.859 -0.60 -0.00    +0.012 C  ATOM     16  N   UNL     1      41.148  48.753  16.968 -0.73 +0.01    -0.150 NA BRANCH  12  17ATOM     17  O   UNL     1      42.368  51.150  14.555 -0.42 +0.07    -0.358 OA ATOM     18  C   UNL     1      42.770  50.634  13.294 -0.54 -0.07    +0.198 C  ENDBRANCH  12  17ENDBRANCH   1  11BRANCH   3  19ATOM     19  N   UNL     1      36.325  45.212  16.199 -0.09 +0.18    -0.364 N  ATOM     20  H   UNL     1      36.533  44.380  15.647 +0.11 -0.06    +0.162 HD BRANCH  19  21ATOM     21  C   UNL     1      35.591  46.246  15.493 -0.31 -0.14    +0.152 C  BRANCH  21  22ATOM     22  C   UNL     1      36.187  46.457  14.127 -0.45 +0.01    -0.010 A  ATOM     23  C   UNL     1      36.373  45.396  13.234 -0.44 -0.00    +0.009 A  ATOM     24  C   UNL     1      36.542  47.728  13.688 -0.46 -0.07    +0.116 A  ATOM     25  C   UNL     1      36.908  45.639  11.972 -0.57 -0.01    +0.020 A  ATOM     26  N   UNL     1      37.062  47.995  12.468 -0.95 +0.06    -0.264 NA ATOM     27  C   UNL     1      37.233  46.942  11.639 -0.51 -0.03    +0.111 A  ENDBRANCH  21  22ENDBRANCH  19  21ENDBRANCH   3  19TORSDOF 5TERENDMDL