MODEL        8USER    Run = 8USERUSER    Estimated Free Energy of Binding    =  -8.13 kcal/mol  [=(1)+(2)+(3)-(4)]USERUSER    (1) Final Intermolecular Energy     = -10.52 kcal/molUSER        vdW + Hbond + desolv Energy     = -10.29 kcal/molUSER        Electrostatic Energy            =  -0.23 kcal/molUSER        Moving Ligand-Fixed Receptor    = -10.52 kcal/molUSER        Moving Ligand-Moving Receptor   =  +0.00 kcal/molUSER    (2) Final Total Internal Energy     =  -1.58 kcal/molUSER    (3) Torsional Free Energy           =  +2.39 kcal/molUSER    (4) Unbound System's Energy         =  -1.58 kcal/molUSERUSERREMARK SMILES O=C(O)C=CC1=C(c2n[nH]c3cc(NCC4CC4)ncc23)C=C1FREMARK SMILES IDX 6 1 7 2 22 3 23 4 24 5 5 6 4 7 2 8 1 9 3 10 8 12 9 13 21 14REMARK SMILES IDX 10 15 20 16 11 17 19 18 12 19 13 20 14 22 15 24 16 25 17 26REMARK SMILES IDX 18 27REMARK H PARENT 3 11 10 21 14 23USER                              x       y       z     vdW  Elec       q    TypeUSER                           _______ _______ _______ _____ _____    ______ ____ROOTATOM      1  C   UNL     1      41.407  45.746  20.458 -0.41 +0.00    +0.020 C  ATOM      2  C   UNL     1      41.131  45.937  19.163 -0.51 +0.00    +0.016 C  ATOM      3  C   UNL     1      40.879  44.542  19.001 -0.42 +0.00    +0.051 C  ATOM      4  C   UNL     1      41.159  44.349  20.306 -0.32 +0.01    +0.131 C  ATOM      5  F   UNL     1      41.167  43.286  21.123 -0.07 -0.01    -0.206 F  ENDROOTBRANCH   1   6ATOM      6  C   UNL     1      41.801  46.607  21.668 -0.31 +0.00    +0.019 C  BRANCH   6   7ATOM      7  C   UNL     1      42.881  47.373  21.863 -0.33 +0.02    +0.094 C  BRANCH   7   8ATOM      8  C   UNL     1      44.159  47.236  21.173 -0.05 +0.19    +0.328 C  ATOM      9  O   UNL     1      45.244  47.121  21.708 -0.82 -0.28    -0.247 OA BRANCH   8  10ATOM     10  O   UNL     1      44.019  47.372  19.845 -0.25 -0.25    -0.478 OA ATOM     11  H   UNL     1      43.413  48.136  19.750 -0.40 -0.03    +0.297 HD ENDBRANCH   8  10ENDBRANCH   7   8ENDBRANCH   6   7ENDBRANCH   1   6BRANCH   2  12ATOM     12  C   UNL     1      41.038  47.084  18.153 -0.44 -0.01    +0.102 A  ATOM     13  N   UNL     1      41.981  48.031  18.095 -0.52 +0.00    -0.174 NA ATOM     14  C   UNL     1      40.009  47.290  17.202 -0.45 -0.01    +0.046 A  ATOM     15  N   UNL     1      41.544  48.856  17.129 -0.19 -0.01    -0.277 N  ATOM     16  C   UNL     1      38.837  46.652  16.798 -0.33 -0.04    +0.126 A  ATOM     17  C   UNL     1      40.373  48.459  16.546 -0.42 -0.02    +0.071 A  ATOM     18  N   UNL     1      38.076  47.178  15.801 -0.24 +0.12    -0.239 NA ATOM     19  C   UNL     1      39.607  49.010  15.521 -0.45 -0.04    +0.075 A  ATOM     20  C   UNL     1      38.449  48.314  15.178 -0.42 -0.07    +0.128 A  ATOM     21  H   UNL     1      42.096  49.679  16.911 +0.13 +0.09    +0.190 HD BRANCH  20  22ATOM     22  N   UNL     1      37.638  48.869  14.172 -0.24 +0.23    -0.370 N  ATOM     23  H   UNL     1      38.231  49.247  13.440 -0.32 -0.07    +0.162 HD BRANCH  22  24ATOM     24  C   UNL     1      36.645  47.957  13.619 -0.53 -0.07    +0.118 C  BRANCH  24  25ATOM     25  C   UNL     1      37.284  46.967  12.677 -0.68 -0.00    +0.008 C  ATOM     26  C   UNL     1      36.974  45.495  12.825 -0.59 -0.00    +0.006 C  ATOM     27  C   UNL     1      36.543  46.221  11.585 -0.68 -0.00    +0.006 C  ENDBRANCH  24  25ENDBRANCH  22  24ENDBRANCH  20  22ENDBRANCH   2  12TORSDOF 8TERENDMDL