REMARK SMILES CC(C)c1nnc2ccc(-c3ccc(Nc4cnc(O)cn4)cc3)cn12
REMARK SMILES IDX 11 1 12 2 13 3 14 4 23 5 24 6 10 7 4 8 5 9 26 10 6 11 25 12
REMARK SMILES IDX 7 13 8 14 9 15 2 16 1 17 3 18 15 19 16 21 17 22 22 23 18 24
REMARK SMILES IDX 21 25 19 26 20 27
REMARK H PARENT 15 20 20 28
ROOT
ATOM      1  C   UNL     1       0.224  -1.348  -0.186  1.00  0.00    -0.017 A 
ATOM      2  C   UNL     1       0.900  -1.906   0.900  1.00  0.00     0.011 A 
ATOM      3  C   UNL     1       2.249  -1.606   1.119  1.00  0.00     0.027 A 
ATOM      4  C   UNL     1       2.953  -0.750   0.260  1.00  0.00     0.040 A 
ATOM      5  C   UNL     1       2.266  -0.199  -0.827  1.00  0.00     0.027 A 
ATOM      6  C   UNL     1       0.916  -0.496  -1.052  1.00  0.00     0.011 A 
ENDROOT
BRANCH   1   7
ATOM      7  C   UNL     1      -1.193  -1.668  -0.419  1.00  0.00    -0.001 A 
ATOM      8  C   UNL     1      -4.614  -0.252  -0.234  1.00  0.00     0.139 A 
ATOM      9  N   UNL     1      -5.667  -0.987  -0.542  1.00  0.00    -0.134 NA
ATOM     10  N   UNL     1      -3.472  -1.013  -0.392  1.00  0.00    -0.286 N 
ATOM     11  N   UNL     1      -5.234  -2.235  -0.920  1.00  0.00    -0.130 NA
ATOM     12  C   UNL     1      -2.124  -0.720  -0.184  1.00  0.00     0.103 A 
ATOM     13  C   UNL     1      -3.924  -2.249  -0.829  1.00  0.00     0.160 A 
ATOM     14  C   UNL     1      -2.953  -3.253  -1.083  1.00  0.00     0.050 A 
ATOM     15  C   UNL     1      -1.649  -2.979  -0.888  1.00  0.00     0.014 A 
BRANCH   8  16
ATOM     16  C   UNL     1      -4.630   1.171   0.233  1.00  0.00     0.052 C 
ATOM     17  C   UNL     1      -5.787   1.947  -0.402  1.00  0.00     0.016 C 
ATOM     18  C   UNL     1      -4.724   1.230   1.757  1.00  0.00     0.016 C 
ENDBRANCH   8  16
ENDBRANCH   1   7
BRANCH   4  19
ATOM     19  N   UNL     1       4.297  -0.470   0.558  1.00  0.00    -0.339 N 
ATOM     20  H   UNL     1       4.840  -1.303   0.770  1.00  0.00     0.168 HD
BRANCH  19  21
ATOM     21  C   UNL     1       5.170   0.511   0.087  1.00  0.00     0.149 A 
ATOM     22  C   UNL     1       4.775   1.817  -0.225  1.00  0.00     0.162 A 
ATOM     23  N   UNL     1       6.472   0.155  -0.005  1.00  0.00    -0.232 NA
ATOM     24  N   UNL     1       5.622   2.784  -0.668  1.00  0.00    -0.217 NA
ATOM     25  C   UNL     1       7.326   1.113  -0.444  1.00  0.00     0.181 A 
ATOM     26  C   UNL     1       6.898   2.386  -0.766  1.00  0.00     0.229 A 
BRANCH  26  27
ATOM     27  O   UNL     1       7.750   3.342  -1.205  1.00  0.00    -0.492 OA
ATOM     28  H   UNL     1       7.129   4.085  -1.321  1.00  0.00     0.295 HD
ENDBRANCH  26  27
ENDBRANCH  19  21
ENDBRANCH   4  19
TORSDOF 5
