MODEL        2USER    Run = 2USERUSER    Estimated Free Energy of Binding    =  -9.06 kcal/mol  [=(1)+(2)+(3)-(4)]USERUSER    (1) Final Intermolecular Energy     = -10.55 kcal/molUSER        vdW + Hbond + desolv Energy     = -10.16 kcal/molUSER        Electrostatic Energy            =  -0.39 kcal/molUSER        Moving Ligand-Fixed Receptor    = -10.55 kcal/molUSER        Moving Ligand-Moving Receptor   =  +0.00 kcal/molUSER    (2) Final Total Internal Energy     =  -0.68 kcal/molUSER    (3) Torsional Free Energy           =  +1.49 kcal/molUSER    (4) Unbound System's Energy         =  -0.68 kcal/molUSERUSERREMARK SMILES CC(C)c1nnc2ccc(-c3ccc(Nc4cnc(O)cn4)cc3)cn12REMARK SMILES IDX 11 1 12 2 13 3 14 4 23 5 24 6 10 7 4 8 5 9 26 10 6 11 25 12REMARK SMILES IDX 7 13 8 14 9 15 2 16 1 17 3 18 15 19 16 21 17 22 22 23 18 24REMARK SMILES IDX 21 25 19 26 20 27REMARK H PARENT 15 20 20 28USER                              x       y       z     vdW  Elec       q    TypeUSER                           _______ _______ _______ _____ _____    ______ ____ROOTATOM      1  C   UNL     1      37.251  44.846  17.180 -0.34 +0.01    -0.017 A  ATOM      2  C   UNL     1      36.669  45.170  15.954 -0.34 -0.00    +0.011 A  ATOM      3  C   UNL     1      35.475  44.559  15.557 -0.32 -0.01    +0.027 A  ATOM      4  C   UNL     1      34.838  43.610  16.369 -0.35 -0.02    +0.040 A  ATOM      5  C   UNL     1      35.432  43.290  17.595 -0.33 -0.01    +0.027 A  ATOM      6  C   UNL     1      36.628  43.898  17.997 -0.28 -0.00    +0.011 A  ENDROOTBRANCH   1   7ATOM      7  C   UNL     1      38.509  45.485  17.594 -0.39 +0.00    -0.001 A  ATOM      8  C   UNL     1      40.769  48.327  16.847 -0.38 -0.02    +0.139 A  ATOM      9  N   UNL     1      41.892  48.493  17.522 -0.71 -0.01    -0.134 NA ATOM     10  N   UNL     1      40.118  47.206  17.325 -0.30 +0.05    -0.286 N  ATOM     11  N   UNL     1      41.990  47.494  18.461 -0.49 +0.00    -0.130 NA ATOM     12  C   UNL     1      38.922  46.595  16.948 -0.35 -0.03    +0.103 A  ATOM     13  C   UNL     1      40.931  46.727  18.341 -0.39 -0.01    +0.160 A  ATOM     14  C   UNL     1      40.505  45.561  19.030 -0.42 -0.00    +0.050 A  ATOM     15  C   UNL     1      39.350  44.966  18.676 -0.41 -0.00    +0.014 A  BRANCH   8  16ATOM     16  C   UNL     1      40.270  49.188  15.728 -0.64 -0.02    +0.052 C  ATOM     17  C   UNL     1      41.341  50.186  15.280 -0.74 -0.00    +0.016 C  ATOM     18  C   UNL     1      39.822  48.324  14.550 -0.57 -0.00    +0.016 C  ENDBRANCH   8  16ENDBRANCH   1   7BRANCH   4  19ATOM     19  N   UNL     1      33.627  43.059  15.920 -0.12 +0.17    -0.339 N  ATOM     20  H   UNL     1      33.549  42.062  16.106 -0.46 -0.11    +0.168 HD BRANCH  19  21ATOM     21  C   UNL     1      32.338  43.588  15.836 -0.24 -0.07    +0.149 A  ATOM     22  C   UNL     1      32.034  44.933  16.075 -0.23 -0.08    +0.162 A  ATOM     23  N   UNL     1      31.368  42.731  15.442 -0.23 +0.14    -0.232 NA ATOM     24  N   UNL     1      30.785  45.460  15.978 -0.66 +0.06    -0.217 NA ATOM     25  C   UNL     1      30.118  43.248  15.340 -0.13 -0.12    +0.181 A  ATOM     26  C   UNL     1      29.848  44.576  15.607 -0.17 -0.12    +0.229 A  BRANCH  26  27ATOM     27  O   UNL     1      28.601  45.092  15.506 -0.04 +0.22    -0.492 OA ATOM     28  H   UNL     1      28.381  44.830  14.592 -0.14 -0.38    +0.295 HD ENDBRANCH  26  27ENDBRANCH  19  21ENDBRANCH   4  19TORSDOF 5TERENDMDL