MODEL        2USER    Run = 2USERUSER    Estimated Free Energy of Binding    =  -9.86 kcal/mol  [=(1)+(2)+(3)-(4)]USERUSER    (1) Final Intermolecular Energy     = -11.65 kcal/molUSER        vdW + Hbond + desolv Energy     = -11.63 kcal/molUSER        Electrostatic Energy            =  -0.02 kcal/molUSER        Moving Ligand-Fixed Receptor    = -11.65 kcal/molUSER        Moving Ligand-Moving Receptor   =  +0.00 kcal/molUSER    (2) Final Total Internal Energy     =  -1.15 kcal/molUSER    (3) Torsional Free Energy           =  +1.79 kcal/molUSER    (4) Unbound System's Energy         =  -1.15 kcal/molUSERUSERREMARK SMILES Cc1cc(-c2nnc3ccc(-c4cnn(CCN5CCO[C@@H](F)C5)c4F)cn23)ccc1OREMARK SMILES IDX 12 1 13 2 14 3 15 4 25 5 26 6 11 7 5 8 6 9 28 10 7 11 27 12REMARK SMILES IDX 8 13 9 14 10 15 4 16 2 17 3 18 31 19 30 20 29 21 1 22 32 23REMARK SMILES IDX 16 25 17 26 18 27 19 28 24 29 20 30 22 31 21 32 23 33REMARK H PARENT 32 24USER                              x       y       z     vdW  Elec       q    TypeUSER                           _______ _______ _______ _____ _____    ______ ____ROOTATOM      1  C   UNL     1      39.138  44.959  19.976 -0.34 -0.00    +0.058 A  ATOM      2  C   UNL     1      39.645  44.352  21.153 -0.22 +0.00    +0.147 A  ATOM      3  N   UNL     1      38.762  43.539  21.744 -0.19 -0.01    -0.178 NA ATOM      4  N   UNL     1      37.679  43.623  20.944 -0.22 -0.00    -0.238 N  ATOM      5  C   UNL     1      37.862  44.457  19.883 -0.21 -0.01    +0.219 A  ATOM      6  F   UNL     1      36.950  44.733  18.940 -0.09 +0.03    -0.185 F  ENDROOTBRANCH   1   7ATOM      7  C   UNL     1      39.786  45.883  19.091 -0.42 -0.00    +0.005 A  ATOM      8  C   UNL     1      39.570  47.688  15.839 -0.38 -0.05    +0.168 A  ATOM      9  N   UNL     1      40.491  48.576  15.500 -0.49 +0.03    -0.129 NA ATOM     10  N   UNL     1      39.901  47.159  17.076 -0.29 +0.06    -0.282 N  ATOM     11  N   UNL     1      41.464  48.598  16.471 -0.94 +0.00    -0.130 NA ATOM     12  C   UNL     1      39.240  46.256  17.911 -0.36 -0.02    +0.104 A  ATOM     13  C   UNL     1      41.111  47.748  17.406 -0.39 -0.02    +0.161 A  ATOM     14  C   UNL     1      41.711  47.369  18.632 -0.47 -0.00    +0.050 A  ATOM     15  C   UNL     1      41.086  46.484  19.432 -0.37 +0.00    +0.014 A  BRANCH   8  16ATOM     16  C   UNL     1      38.382  47.366  15.053 -0.45 -0.01    +0.020 A  ATOM     17  C   UNL     1      36.350  46.020  14.787 -0.39 +0.01    -0.009 A  ATOM     18  C   UNL     1      37.506  46.366  15.507 -0.37 -0.01    +0.019 A  ATOM     19  C   UNL     1      36.080  46.711  13.601 -0.43 -0.07    +0.118 A  ATOM     20  C   UNL     1      36.927  47.719  13.148 -0.58 -0.02    +0.047 A  ATOM     21  C   UNL     1      38.071  48.053  13.874 -0.52 -0.01    +0.016 A  ATOM     22  C   UNL     1      35.451  44.940  15.314 -0.37 -0.03    +0.048 C  BRANCH  19  23ATOM     23  O   UNL     1      34.984  46.457  12.827 -0.14 +0.36    -0.508 OA ATOM     24  H   UNL     1      34.283  47.092  13.042 -0.22 -0.28    +0.293 HD ENDBRANCH  19  23ENDBRANCH   8  16ENDBRANCH   1   7BRANCH   4  25ATOM     25  C   UNL     1      36.475  42.876  21.252 -0.39 +0.01    +0.163 C  BRANCH  25  26ATOM     26  C   UNL     1      35.751  42.436  19.974 -0.44 -0.00    +0.108 C  BRANCH  26  27ATOM     27  N   UNL     1      34.334  42.857  19.918 -0.50 -0.01    -0.294 NA ATOM     28  C   UNL     1      34.199  44.253  19.434 -0.39 -0.02    +0.113 C  ATOM     29  C   UNL     1      33.540  41.943  19.049 -0.34 -0.01    +0.152 C  ATOM     30  C   UNL     1      32.816  44.516  18.818 -0.30 -0.04    +0.179 C  ATOM     31  C   UNL     1      33.245  42.489  17.636 -0.20 -0.10    +0.311 C  ATOM     32  O   UNL     1      32.572  43.748  17.634 -0.12 +0.10    -0.346 OA ATOM     33  F   UNL     1      34.416  42.669  16.966 -0.09 +0.09    -0.215 F  ENDBRANCH  26  27ENDBRANCH  25  26ENDBRANCH   4  25TORSDOF 6TERENDMDL