REMARK SMILES Cc1cc(-c2nnc3ccc(-c4cnn(CCN5CCO[C@@H](F)C5)c4F)cn23)ccc1O
REMARK SMILES IDX 12 1 13 2 14 3 15 4 25 5 26 6 11 7 5 8 6 9 28 10 7 11 27 12
REMARK SMILES IDX 8 13 9 14 10 15 4 16 2 17 3 18 31 19 30 20 29 21 1 22 32 23
REMARK SMILES IDX 16 25 17 26 18 27 19 28 24 29 20 30 22 31 21 32 23 33
REMARK H PARENT 32 24
ROOT
ATOM      1  C   UNL     1       0.214  -0.311   0.053  1.00  0.00     0.058 A 
ATOM      2  C   UNL     1       0.207   0.967   0.668  1.00  0.00     0.147 A 
ATOM      3  N   UNL     1       1.388   1.297   1.203  1.00  0.00    -0.178 NA
ATOM      4  N   UNL     1       2.161   0.225   0.933  1.00  0.00    -0.238 N 
ATOM      5  C   UNL     1       1.501  -0.752   0.251  1.00  0.00     0.219 A 
ATOM      6  F   UNL     1       2.023  -1.925  -0.134  1.00  0.00    -0.185 F 
ENDROOT
BRANCH   1   7
ATOM      7  C   UNL     1      -0.857  -0.995  -0.611  1.00  0.00     0.005 A 
ATOM      8  C   UNL     1      -4.550  -1.424  -0.847  1.00  0.00     0.168 A 
ATOM      9  N   UNL     1      -5.079  -2.202  -1.778  1.00  0.00    -0.129 NA
ATOM     10  N   UNL     1      -3.171  -1.460  -0.973  1.00  0.00    -0.282 N 
ATOM     11  N   UNL     1      -4.063  -2.803  -2.483  1.00  0.00    -0.130 NA
ATOM     12  C   UNL     1      -2.155  -0.774  -0.303  1.00  0.00     0.104 A 
ATOM     13  C   UNL     1      -2.927  -2.362  -1.996  1.00  0.00     0.161 A 
ATOM     14  C   UNL     1      -1.576  -2.620  -2.334  1.00  0.00     0.050 A 
ATOM     15  C   UNL     1      -0.592  -1.975  -1.678  1.00  0.00     0.014 A 
BRANCH   8  16
ATOM     16  C   UNL     1      -5.308  -0.628   0.115  1.00  0.00     0.020 A 
ATOM     17  C   UNL     1      -7.134   0.949   0.549  1.00  0.00    -0.009 A 
ATOM     18  C   UNL     1      -6.375   0.166  -0.337  1.00  0.00     0.019 A 
ATOM     19  C   UNL     1      -6.810   0.909   1.909  1.00  0.00     0.118 A 
ATOM     20  C   UNL     1      -5.768   0.111   2.376  1.00  0.00     0.047 A 
ATOM     21  C   UNL     1      -5.023  -0.662   1.485  1.00  0.00     0.016 A 
ATOM     22  C   UNL     1      -8.260   1.784   0.013  1.00  0.00     0.048 C 
BRANCH  19  23
ATOM     23  O   UNL     1      -7.484   1.627   2.855  1.00  0.00    -0.508 OA
ATOM     24  H   UNL     1      -8.225   2.094   2.438  1.00  0.00     0.293 HD
ENDBRANCH  19  23
ENDBRANCH   8  16
ENDBRANCH   1   7
BRANCH   4  25
ATOM     25  C   UNL     1       3.546   0.187   1.363  1.00  0.00     0.163 C 
BRANCH  25  26
ATOM     26  C   UNL     1       4.458   0.913   0.367  1.00  0.00     0.108 C 
BRANCH  26  27
ATOM     27  N   UNL     1       5.885   0.910   0.756  1.00  0.00    -0.294 NA
ATOM     28  C   UNL     1       6.446  -0.463   0.763  1.00  0.00     0.113 C 
ATOM     29  C   UNL     1       6.687   1.777  -0.153  1.00  0.00     0.152 C 
ATOM     30  C   UNL     1       7.971  -0.462   0.577  1.00  0.00     0.179 C 
ATOM     31  C   UNL     1       7.489   1.018  -1.230  1.00  0.00     0.311 C 
ATOM     32  O   UNL     1       8.382   0.039  -0.700  1.00  0.00    -0.346 OA
ATOM     33  F   UNL     1       6.629   0.359  -2.055  1.00  0.00    -0.215 F 
ENDBRANCH  26  27
ENDBRANCH  25  26
ENDBRANCH   4  25
TORSDOF 6
