REMARK SMILES Cc1nc(-c2ccc3nnc(C(C)C)n3c2)ccc1O
REMARK SMILES IDX 5 1 6 2 7 3 8 4 9 5 10 6 11 7 15 8 16 9 4 10 2 11 3 12 19 13
REMARK SMILES IDX 18 14 17 15 1 16 20 17 12 19 13 20 14 21
REMARK H PARENT 20 18
ROOT
ATOM      1  C   UNL     1       0.522  -1.339   0.064  1.00  0.00     0.017 A 
ATOM      2  C   UNL     1       0.420  -2.794   0.254  1.00  0.00     0.016 A 
ATOM      3  C   UNL     1      -0.766  -3.428   0.324  1.00  0.00     0.050 A 
ATOM      4  C   UNL     1      -1.967  -2.681   0.221  1.00  0.00     0.160 A 
ATOM      5  N   UNL     1      -3.231  -3.035   0.248  1.00  0.00    -0.130 NA
ATOM      6  N   UNL     1      -3.984  -1.896   0.119  1.00  0.00    -0.134 NA
ATOM      7  C   UNL     1      -3.171  -0.858   0.015  1.00  0.00     0.139 A 
ATOM      8  N   UNL     1      -1.863  -1.306   0.068  1.00  0.00    -0.286 N 
ATOM      9  C   UNL     1      -0.638  -0.647  -0.009  1.00  0.00     0.105 A 
ENDROOT
BRANCH   1  10
ATOM     10  C   UNL     1       1.805  -0.595  -0.019  1.00  0.00     0.072 A 
ATOM     11  C   UNL     1       2.948   1.395   0.396  1.00  0.00     0.080 A 
ATOM     12  N   UNL     1       1.796   0.677   0.453  1.00  0.00    -0.249 NA
ATOM     13  C   UNL     1       4.125   0.875  -0.136  1.00  0.00     0.136 A 
ATOM     14  C   UNL     1       4.125  -0.423  -0.627  1.00  0.00     0.050 A 
ATOM     15  C   UNL     1       2.948  -1.170  -0.570  1.00  0.00     0.033 A 
ATOM     16  C   UNL     1       2.901   2.794   0.936  1.00  0.00     0.071 C 
BRANCH  13  17
ATOM     17  O   UNL     1       5.256   1.636  -0.173  1.00  0.00    -0.506 OA
ATOM     18  H   UNL     1       5.976   1.117  -0.568  1.00  0.00     0.293 HD
ENDBRANCH  13  17
ENDBRANCH   1  10
BRANCH   7  19
ATOM     19  C   UNL     1      -3.637   0.560  -0.134  1.00  0.00     0.052 C 
ATOM     20  C   UNL     1      -3.239   1.171  -1.476  1.00  0.00     0.016 C 
ATOM     21  C   UNL     1      -3.228   1.440   1.045  1.00  0.00     0.016 C 
ENDBRANCH   7  19
TORSDOF 3
