MODEL        5USER    Run = 5USERUSER    Estimated Free Energy of Binding    =  -8.08 kcal/mol  [=(1)+(2)+(3)-(4)]USERUSER    (1) Final Intermolecular Energy     =  -8.98 kcal/molUSER        vdW + Hbond + desolv Energy     =  -8.80 kcal/molUSER        Electrostatic Energy            =  -0.18 kcal/molUSER        Moving Ligand-Fixed Receptor    =  -8.98 kcal/molUSER        Moving Ligand-Moving Receptor   =  +0.00 kcal/molUSER    (2) Final Total Internal Energy     =  -0.44 kcal/molUSER    (3) Torsional Free Energy           =  +0.89 kcal/molUSER    (4) Unbound System's Energy         =  -0.44 kcal/molUSERUSERREMARK SMILES Cc1nc(-c2ccc3nnc(C(C)C)n3c2)ccc1OREMARK SMILES IDX 5 1 6 2 7 3 8 4 9 5 10 6 11 7 15 8 16 9 4 10 2 11 3 12 19 13REMARK SMILES IDX 18 14 17 15 1 16 20 17 12 19 13 20 14 21REMARK H PARENT 20 18USER                              x       y       z     vdW  Elec       q    TypeUSER                           _______ _______ _______ _____ _____    ______ ____ROOTATOM      1  C   UNL     1      35.441  45.995  15.718 -0.34 -0.01    +0.017 A  ATOM      2  C   UNL     1      34.903  45.969  14.350 -0.34 -0.01    +0.016 A  ATOM      3  C   UNL     1      35.555  46.525  13.311 -0.48 -0.03    +0.050 A  ATOM      4  C   UNL     1      36.800  47.168  13.528 -0.42 -0.08    +0.160 A  ATOM      5  N   UNL     1      37.634  47.773  12.714 -1.02 +0.02    -0.130 NA ATOM      6  N   UNL     1      38.687  48.232  13.464 -0.51 +0.03    -0.134 NA ATOM      7  C   UNL     1      38.483  47.902  14.729 -0.41 -0.06    +0.139 A  ATOM      8  N   UNL     1      37.289  47.211  14.826 -0.21 +0.17    -0.286 N  ATOM      9  C   UNL     1      36.619  46.633  15.902 -0.31 -0.08    +0.105 A  ENDROOTBRANCH   1  10ATOM     10  C   UNL     1      34.760  45.396  16.895 -0.28 -0.05    +0.072 A  ATOM     11  C   UNL     1      34.980  44.440  19.011 -0.32 -0.02    +0.080 A  ATOM     12  N   UNL     1      35.561  44.994  17.914 -0.17 +0.10    -0.249 NA ATOM     13  C   UNL     1      33.603  44.265  19.117 -0.32 -0.03    +0.136 A  ATOM     14  C   UNL     1      32.791  44.669  18.067 -0.29 -0.01    +0.050 A  ATOM     15  C   UNL     1      33.377  45.242  16.938 -0.30 -0.02    +0.033 A  ATOM     16  C   UNL     1      35.897  44.016  20.120 -0.42 -0.01    +0.071 C  BRANCH  13  17ATOM     17  O   UNL     1      33.068  43.702  20.238 -0.69 -0.03    -0.506 OA ATOM     18  H   UNL     1      32.993  44.379  20.930 -0.16 -0.01    +0.293 HD ENDBRANCH  13  17ENDBRANCH   1  10BRANCH   7  19ATOM     19  C   UNL     1      39.425  48.243  15.846 -0.54 -0.02    +0.052 C  ATOM     20  C   UNL     1      40.535  49.196  15.407 -0.69 -0.00    +0.016 C  ATOM     21  C   UNL     1      39.971  47.006  16.553 -0.55 -0.00    +0.016 C  ENDBRANCH   7  19TORSDOF 3TERENDMDL