MODEL        9USER    Run = 9USERUSER    Estimated Free Energy of Binding    =  -6.65 kcal/mol  [=(1)+(2)+(3)-(4)]USERUSER    (1) Final Intermolecular Energy     =  -8.74 kcal/molUSER        vdW + Hbond + desolv Energy     =  -8.77 kcal/molUSER        Electrostatic Energy            =  -0.05 kcal/molUSER        Moving Ligand-Fixed Receptor    =  -8.82 kcal/molUSER        Moving Ligand-Moving Receptor   =  +0.08 kcal/molUSER    (2) Final Total Internal Energy     =  -0.46 kcal/molUSER    (3) Torsional Free Energy           =  +2.09 kcal/molUSER    (4) Unbound System's Energy         =  -0.46 kcal/molUSERUSERREMARK SMILES Fc1ccc2cc(C3=NCC=CC=C3)ccc2c1REMARK SMILES IDX 8 1 7 2 2 3 3 4 18 5 4 6 17 7 5 8 16 9 6 10 15 11 1 12 9 13REMARK SMILES IDX 10 14 11 15 14 17 13 18 12 19REMARK H PARENTREMARK Flexibility Score:    8.900USER                              x       y       z     vdW  Elec       q    TypeUSER                           _______ _______ _______ _____ _____    ______ ____ROOTATOM      1  C   UNL     1      37.407  47.312  14.326 -0.50 -0.03    +0.065 C  ENDROOTBRANCH   1   2ATOM      2  C   UNL     1      38.582  47.485  15.241 -0.48 -0.00    +0.000 A  ATOM      3  C   UNL     1      42.037  46.927  18.890 -0.44 +0.01    +0.123 A  ATOM      4  C   UNL     1      41.153  45.871  19.056 -0.44 +0.00    +0.040 A  ATOM      5  C   UNL     1      41.863  47.858  17.872 -0.38 -0.00    +0.048 A  ATOM      6  C   UNL     1      40.069  45.740  18.188 -0.45 -0.00    +0.012 A  ATOM      7  C   UNL     1      40.778  47.741  16.990 -0.52 +0.00    -0.015 A  ATOM      8  C   UNL     1      39.867  46.668  17.150 -0.47 +0.00    -0.018 A  ATOM      9  C   UNL     1      40.580  48.661  15.950 -0.59 -0.00    +0.009 A  ATOM     10  C   UNL     1      38.782  46.551  16.269 -0.41 -0.01    +0.019 A  ATOM     11  C   UNL     1      39.494  48.533  15.079 -0.54 -0.00    +0.011 A  ATOM     12  F   UNL     1      43.078  47.052  19.725 -0.18 -0.06    -0.207 F  ENDBRANCH   1   2BRANCH   1  13ATOM     13  N   UNL     1      37.143  48.261  13.496 -0.61 +0.12    -0.281 NA BRANCH  13  14ATOM     14  C   UNL     1      36.479  47.953  12.235 -0.44 -0.07    +0.170 C  BRANCH  14  15ATOM     15  C   UNL     1      37.026  46.708  11.610 -0.72 +0.00    -0.004 CG0ATOM     16  G   UNL     1      36.728  45.473  12.040 +0.00 +0.00    +0.000 G0 ENDBRANCH  14  15ENDBRANCH  13  14ENDBRANCH   1  13BRANCH   1  17ATOM     17  C   UNL     1      36.698  45.997  14.457 -0.45 -0.01    +0.028 C  BRANCH  17  18ATOM     18  C   UNL     1      36.497  45.160  13.428 -0.49 -0.00    +0.002 C  BRANCH  18  19ATOM     19  C   UNL     1      36.728  45.473  12.040 -0.66 +0.00    -0.002 CG0ATOM     20  G   UNL     1      37.026  46.707  11.610 +0.00 +0.00    +0.000 G0 ENDBRANCH  18  19ENDBRANCH  17  18ENDBRANCH   1  17TORSDOF 1TERENDMDL