REMARK SMILES Fc1ccc2cc(C3=NCC=CC=C3)ccc2c1
REMARK SMILES IDX 8 1 7 2 2 3 3 4 18 5 4 6 17 7 5 8 16 9 6 10 15 11 1 12 9 13
REMARK SMILES IDX 10 14 11 15 14 17 13 18 12 19
REMARK H PARENT
REMARK Flexibility Score:    8.900
ROOT
ATOM      1  C   UNL     1       1.553   0.283   0.041  1.00  0.00     0.065 C 
ENDROOT
BRANCH   1   2
ATOM      2  C   UNL     1       0.077   0.078   0.207  1.00  0.00     0.000 A 
ATOM      3  C   UNL     1      -4.846  -0.745  -0.596  1.00  0.00     0.123 A 
ATOM      4  C   UNL     1      -4.259  -0.771  -1.853  1.00  0.00     0.040 A 
ATOM      5  C   UNL     1      -4.087  -0.528   0.548  1.00  0.00     0.048 A 
ATOM      6  C   UNL     1      -2.883  -0.575  -1.972  1.00  0.00     0.012 A 
ATOM      7  C   UNL     1      -2.702  -0.329   0.446  1.00  0.00    -0.015 A 
ATOM      8  C   UNL     1      -2.091  -0.352  -0.832  1.00  0.00    -0.018 A 
ATOM      9  C   UNL     1      -1.909  -0.114   1.583  1.00  0.00     0.009 A 
ATOM     10  C   UNL     1      -0.706  -0.152  -0.934  1.00  0.00     0.019 A 
ATOM     11  C   UNL     1      -0.530   0.084   1.467  1.00  0.00     0.011 A 
ATOM     12  F   UNL     1      -6.168  -0.933  -0.483  1.00  0.00    -0.207 F 
ENDBRANCH   1   2
BRANCH   1  13
ATOM     13  N   UNL     1       2.132  -0.279  -0.963  1.00  0.00    -0.281 NA
BRANCH  13  14
ATOM     14  C   UNL     1       3.554  -0.056  -1.194  1.00  0.00     0.170 C 
BRANCH  14  15
ATOM     15  C   UNL     1       4.386  -0.560  -0.057  1.00  0.00    -0.004 CG0
ATOM     16  G   UNL     1       4.305  -0.075   1.190  1.00  0.00     0.000 G0
ENDBRANCH  14  15
ENDBRANCH  13  14
ENDBRANCH   1  13
BRANCH   1  17
ATOM     17  C   UNL     1       2.180   1.185   1.062  1.00  0.00     0.028 C 
BRANCH  17  18
ATOM     18  C   UNL     1       3.411   0.995   1.559  1.00  0.00     0.002 C 
BRANCH  18  19
ATOM     19  C   UNL     1       4.305  -0.075   1.190  1.00  0.00    -0.002 CG0
ATOM     20  G   UNL     1       4.386  -0.560  -0.057  1.00  0.00     0.000 G0
ENDBRANCH  18  19
ENDBRANCH  17  18
ENDBRANCH   1  17
TORSDOF 1
