MODEL        2USER    Run = 2USERUSER    Estimated Free Energy of Binding    =  -8.88 kcal/mol  [=(1)+(2)+(3)-(4)]USERUSER    (1) Final Intermolecular Energy     = -10.07 kcal/molUSER        vdW + Hbond + desolv Energy     =  -9.97 kcal/molUSER        Electrostatic Energy            =  -0.10 kcal/molUSER        Moving Ligand-Fixed Receptor    = -10.07 kcal/molUSER        Moving Ligand-Moving Receptor   =  +0.00 kcal/molUSER    (2) Final Total Internal Energy     =  -0.82 kcal/molUSER    (3) Torsional Free Energy           =  +1.19 kcal/molUSER    (4) Unbound System's Energy         =  -0.82 kcal/molUSERUSERREMARK SMILES Cc1c(CO)cccc1-c1n[nH]c2cc(-c3ccncc3)ccc12REMARK SMILES IDX 1 1 2 2 3 3 6 4 7 5 8 6 9 7 4 8 5 9 10 11 11 12 24 13 12 14REMARK SMILES IDX 23 15 13 16 22 17 14 18 15 19 16 21 17 22 21 23 18 24 20 25REMARK SMILES IDX 19 26REMARK H PARENT 5 10 12 20USER                              x       y       z     vdW  Elec       q    TypeUSER                           _______ _______ _______ _____ _____    ______ ____ROOTATOM      1  C   UNL     1      34.494  46.237  14.196 -0.36 -0.04    +0.045 C  ATOM      2  C   UNL     1      35.877  46.625  14.664 -0.38 +0.03    -0.036 A  ATOM      3  C   UNL     1      36.811  47.208  13.769 -0.51 +0.01    -0.019 A  ATOM      4  C   UNL     1      38.084  47.577  14.239 -0.50 -0.00    +0.006 A  ATOM      5  C   UNL     1      38.440  47.390  15.570 -0.46 -0.00    +0.001 A  ATOM      6  C   UNL     1      37.522  46.841  16.459 -0.35 -0.01    +0.011 A  ATOM      7  C   UNL     1      36.241  46.464  16.024 -0.37 -0.00    +0.006 A  ENDROOTBRANCH   3   8ATOM      8  C   UNL     1      36.480  47.479  12.318 -0.59 -0.08    +0.192 C  BRANCH   8   9ATOM      9  O   UNL     1      37.640  47.386  11.501 -0.84 +0.04    -0.392 OA ATOM     10  H   UNL     1      37.465  47.888  10.685 -0.26 -0.06    +0.211 HD ENDBRANCH   8   9ENDBRANCH   3   8BRANCH   7  11ATOM     11  C   UNL     1      35.317  45.921  17.018 -0.29 -0.08    +0.100 A  ATOM     12  N   UNL     1      34.839  46.682  18.016 -0.44 +0.15    -0.174 NA ATOM     13  C   UNL     1      34.820  44.585  17.103 -0.29 -0.01    +0.028 A  ATOM     14  N   UNL     1      34.058  45.847  18.719 -0.33 +0.15    -0.277 N  ATOM     15  C   UNL     1      34.966  43.398  16.361 -0.39 -0.01    +0.013 A  ATOM     16  C   UNL     1      34.000  44.575  18.222 -0.31 -0.02    +0.066 A  ATOM     17  C   UNL     1      34.284  42.246  16.782 -0.39 -0.00    +0.009 A  ATOM     18  C   UNL     1      33.309  43.437  18.658 -0.34 -0.01    +0.037 A  ATOM     19  C   UNL     1      33.459  42.246  17.920 -0.38 +0.00    -0.016 A  ATOM     20  H   UNL     1      33.587  46.212  19.538 -0.39 -0.12    +0.190 HD BRANCH  19  21ATOM     21  C   UNL     1      32.757  41.022  18.335 -0.40 +0.00    -0.015 A  ATOM     22  C   UNL     1      32.856  39.842  17.588 -0.24 -0.01    +0.029 A  ATOM     23  C   UNL     1      31.968  40.998  19.490 -0.25 +0.00    +0.029 A  ATOM     24  C   UNL     1      32.176  38.714  18.020 -0.31 +0.00    +0.111 A  ATOM     25  C   UNL     1      31.323  39.822  19.839 -0.28 +0.02    +0.111 A  ATOM     26  N   UNL     1      31.409  38.678  19.129 -0.31 -0.04    -0.265 NA ENDBRANCH  19  21ENDBRANCH   7  11TORSDOF 4TERENDMDL