MODEL        7USER    Run = 7USERUSER    Estimated Free Energy of Binding    =  -9.63 kcal/mol  [=(1)+(2)+(3)-(4)]USERUSER    (1) Final Intermolecular Energy     = -10.82 kcal/molUSER        vdW + Hbond + desolv Energy     = -10.90 kcal/molUSER        Electrostatic Energy            =  +0.08 kcal/molUSER        Moving Ligand-Fixed Receptor    = -10.82 kcal/molUSER        Moving Ligand-Moving Receptor   =  +0.00 kcal/molUSER    (2) Final Total Internal Energy     =  -0.60 kcal/molUSER    (3) Torsional Free Energy           =  +1.19 kcal/molUSER    (4) Unbound System's Energy         =  -0.60 kcal/molUSERUSERREMARK SMILES N[C@H]1CC[C@H](Oc2ncnc(-c3cc[nH]c(=O)c3)cncc3ccccc23)CC1REMARK SMILES IDX 6 1 5 2 2 3 29 4 3 5 28 6 4 7 1 8 7 11 8 12 27 13 9 14 26 15REMARK SMILES IDX 22 16 10 17 25 18 21 19 23 20 11 21 24 22 20 23 19 24 12 25REMARK SMILES IDX 13 26 18 27 14 28 16 29 15 30 17 31REMARK H PARENT 1 9 1 10 15 32USER                              x       y       z     vdW  Elec       q    TypeUSER                           _______ _______ _______ _____ _____    ______ ____ROOTATOM      1  O   UNL     1      34.767  45.377  16.434 -0.06 +0.35    -0.474 OA ENDROOTBRANCH   1   2ATOM      2  C   UNL     1      34.341  44.136  17.013 -0.24 -0.08    +0.175 C  ATOM      3  C   UNL     1      32.906  42.091  18.399 -0.41 -0.01    +0.050 C  ATOM      4  C   UNL     1      34.050  42.801  19.150 -0.45 -0.00    +0.022 C  ATOM      5  C   UNL     1      32.057  43.092  17.606 -0.35 -0.01    +0.022 C  ATOM      6  C   UNL     1      34.468  44.143  18.540 -0.38 -0.01    +0.047 C  ATOM      7  C   UNL     1      32.863  43.941  16.615 -0.34 -0.02    +0.047 C  BRANCH   3   8ATOM      8  N   UNL     1      33.389  41.021  17.510 -0.15 +0.15    -0.328 NA ATOM      9  H   UNL     1      34.411  40.990  17.561 -0.50 -0.07    +0.119 HD ATOM     10  H   UNL     1      33.228  41.314  16.538 -0.46 -0.10    +0.119 HD ENDBRANCH   3   8ENDBRANCH   1   2BRANCH   1  11ATOM     11  C   UNL     1      36.144  45.539  16.224 -0.19 -0.13    +0.223 A  ATOM     12  N   UNL     1      36.969  45.197  17.255 -0.21 +0.07    -0.201 NA ATOM     13  C   UNL     1      36.570  46.159  14.776 -0.37 -0.03    +0.046 A  ATOM     14  C   UNL     1      38.290  45.369  17.044 -0.22 -0.06    +0.226 A  ATOM     15  C   UNL     1      35.953  45.533  13.675 -0.36 -0.01    +0.014 A  ATOM     16  C   UNL     1      37.403  47.278  14.527 -0.47 -0.00    +0.005 A  ATOM     17  N   UNL     1      39.040  45.852  18.070 -0.27 +0.04    -0.235 NA ATOM     18  C   UNL     1      36.137  45.996  12.369 -0.60 -0.00    +0.001 A  ATOM     19  C   UNL     1      38.246  48.017  15.661 -0.38 -0.07    +0.120 A  ATOM     20  C   UNL     1      37.586  47.727  13.207 -0.51 -0.00    +0.010 A  ATOM     21  C   UNL     1      40.047  46.729  17.693 -0.41 -0.01    +0.091 A  ATOM     22  C   UNL     1      36.953  47.098  12.135 -0.67 -0.00    +0.001 A  ATOM     23  N   UNL     1      39.598  48.117  15.554 -0.30 +0.09    -0.262 NA ATOM     24  C   UNL     1      40.271  47.618  16.651 -0.41 -0.03    +0.140 A  BRANCH  21  25ATOM     25  C   UNL     1      41.142  46.653  18.701 -0.50 -0.00    +0.009 A  ATOM     26  C   UNL     1      42.371  47.425  18.541 -0.49 +0.00    +0.028 A  ATOM     27  C   UNL     1      41.018  45.864  19.786 -0.36 +0.00    +0.082 A  ATOM     28  C   UNL     1      43.346  47.373  19.453 -0.38 +0.02    +0.086 A  ATOM     29  C   UNL     1      42.086  45.815  20.808 -0.18 +0.05    +0.248 A  ATOM     30  N   UNL     1      43.202  46.589  20.567 -0.18 -0.14    -0.329 N  ATOM     31  O   UNL     1      41.998  45.148  21.840 -0.15 -0.04    -0.270 OA ATOM     32  H   UNL     1      43.922  46.557  21.267 +0.06 +0.11    +0.169 HD ENDBRANCH  21  25ENDBRANCH   1  11TORSDOF 4TERENDMDL