
     RDKit          3D

 40 42  0  0  0  0  0  0  0  0999 V2000
   -2.4351    2.1228    1.6496 C   0  0  0  0  0  0  0  0  0  0  0  0
   -2.4935    0.7536    0.9586 C   0  0  0  0  0  0  0  0  0  0  0  0
   -2.4677    0.9453   -0.5598 C   0  0  0  0  0  0  0  0  0  0  0  0
   -3.7440    0.1582    1.3281 O   0  0  0  0  0  0  0  0  0  0  0  0
   -1.3277   -0.1262    1.4802 C   0  0  0  0  0  0  0  0  0  0  0  0
   -1.1406   -1.4699    0.7908 C   0  0  0  0  0  0  0  0  0  0  0  0
   -2.1017   -2.4731    1.0223 C   0  0  0  0  0  0  0  0  0  0  0  0
   -2.0005   -3.7263    0.4200 C   0  0  0  0  0  0  0  0  0  0  0  0
   -0.9327   -4.0035   -0.4233 C   0  0  0  0  0  0  0  0  0  0  0  0
    0.0336   -3.0261   -0.6600 C   0  0  0  0  0  0  0  0  0  0  0  0
   -0.0476   -1.7526   -0.0619 C   0  0  0  0  0  0  0  0  0  0  0  0
    1.0178   -0.7808   -0.3528 C   0  0  0  0  0  0  0  0  0  0  0  0
    2.0609   -0.5762    0.5653 C   0  0  0  0  0  0  0  0  0  0  0  0
    3.0934    0.3392    0.3135 C   0  0  0  0  0  0  0  0  0  0  0  0
    3.0797    1.0635   -0.8923 C   0  0  0  0  0  0  0  0  0  0  0  0
    3.8944    2.0464   -1.5153 C   0  0  0  0  0  0  0  0  0  0  0  0
    5.0086    2.5674   -0.9789 N   0  0  0  0  0  0  0  0  0  0  0  0
    3.4217    2.4182   -2.7011 N   0  0  0  0  0  0  0  0  0  0  0  0
    2.3198    1.6658   -2.8547 N   0  0  0  0  0  0  0  0  0  0  0  0
    2.0491    0.8400   -1.7973 C   0  0  0  0  0  0  0  0  0  0  0  0
    1.0112   -0.0699   -1.5669 C   0  0  0  0  0  0  0  0  0  0  0  0
   -1.5084    2.6558    1.4127 H   0  0  0  0  0  0  0  0  0  0  0  0
   -3.2815    2.7510    1.3486 H   0  0  0  0  0  0  0  0  0  0  0  0
   -2.5048    2.0122    2.7379 H   0  0  0  0  0  0  0  0  0  0  0  0
   -2.6071   -0.0042   -1.0872 H   0  0  0  0  0  0  0  0  0  0  0  0
   -3.2924    1.5911   -0.8837 H   0  0  0  0  0  0  0  0  0  0  0  0
   -1.5304    1.4021   -0.8911 H   0  0  0  0  0  0  0  0  0  0  0  0
   -4.4569    0.6942    0.9407 H   0  0  0  0  0  0  0  0  0  0  0  0
   -1.4853   -0.3368    2.5477 H   0  0  0  0  0  0  0  0  0  0  0  0
   -0.4002    0.4537    1.4354 H   0  0  0  0  0  0  0  0  0  0  0  0
   -2.9467   -2.2730    1.6797 H   0  0  0  0  0  0  0  0  0  0  0  0
   -2.7570   -4.4823    0.6121 H   0  0  0  0  0  0  0  0  0  0  0  0
   -0.8471   -4.9790   -0.8938 H   0  0  0  0  0  0  0  0  0  0  0  0
    0.8695   -3.2630   -1.3163 H   0  0  0  0  0  0  0  0  0  0  0  0
    2.0749   -1.1398    1.4973 H   0  0  0  0  0  0  0  0  0  0  0  0
    3.8914    0.4779    1.0357 H   0  0  0  0  0  0  0  0  0  0  0  0
    5.1251    2.5659    0.0263 H   0  0  0  0  0  0  0  0  0  0  0  0
    5.3479    3.4147   -1.4210 H   0  0  0  0  0  0  0  0  0  0  0  0
    1.7876    1.7664   -3.7108 H   0  0  0  0  0  0  0  0  0  0  0  0
    0.2222   -0.2226   -2.2975 H   0  0  0  0  0  0  0  0  0  0  0  0
  1  2  1  0
  2  3  1  0
  2  4  1  0
  2  5  1  0
  5  6  1  0
  6  7  2  0
  7  8  1  0
  8  9  2  0
  9 10  1  0
 10 11  2  0
 11 12  1  0
 12 13  2  0
 13 14  1  0
 14 15  2  0
 15 16  1  0
 16 17  1  0
 16 18  2  0
 18 19  1  0
 19 20  1  0
 20 21  2  0
 11  6  1  0
 21 12  1  0
 20 15  1  0
  1 22  1  0
  1 23  1  0
  1 24  1  0
  3 25  1  0
  3 26  1  0
  3 27  1  0
  4 28  1  0
  5 29  1  0
  5 30  1  0
  7 31  1  0
  8 32  1  0
  9 33  1  0
 10 34  1  0
 13 35  1  0
 14 36  1  0
 17 37  1  0
 17 38  1  0
 19 39  1  0
 21 40  1  0
M  END
$$$$
