
     RDKit          3D

 46 49  0  0  0  0  0  0  0  0999 V2000
   -4.8947    2.5697   -0.8571 C   0  0  0  0  0  0  0  0  0  0  0  0
   -5.3097    1.1914   -0.7142 N   0  0  0  0  0  0  0  0  0  0  0  0
   -4.4008    0.3926   -0.0322 C   0  0  0  0  0  0  0  0  0  0  0  0
   -4.9318   -0.5959    0.6914 N   0  0  0  0  0  0  0  0  0  0  0  0
   -4.0691   -1.3834    1.3511 C   0  0  0  0  0  0  0  0  0  0  0  0
   -4.5395   -2.4317    2.1208 O   0  0  0  0  0  0  0  0  0  0  0  0
   -5.9574   -2.5629    2.0814 C   0  0  0  0  0  0  0  0  0  0  0  0
   -2.7081   -1.2230    1.3262 C   0  0  0  0  0  0  0  0  0  0  0  0
   -2.2461   -0.1748    0.5626 C   0  0  0  0  0  0  0  0  0  0  0  0
   -0.8093    0.1274    0.4398 C   0  0  0  0  0  0  0  0  0  0  0  0
    0.1299   -0.8484    0.1201 C   0  0  0  0  0  0  0  0  0  0  0  0
    1.4928   -0.5084    0.0224 C   0  0  0  0  0  0  0  0  0  0  0  0
    1.8926    0.8326    0.2015 C   0  0  0  0  0  0  0  0  0  0  0  0
    0.8751    1.7256    0.5395 C   0  0  0  0  0  0  0  0  0  0  0  0
   -0.4376    1.4077    0.6714 N   0  0  0  0  0  0  0  0  0  0  0  0
    3.3137    1.2209    0.0361 C   0  0  0  0  0  0  0  0  0  0  0  0
    3.7503    2.5445   -0.1683 C   0  0  0  0  0  0  0  0  0  0  0  0
    2.8712    3.5535   -0.2514 F   0  0  0  0  0  0  0  0  0  0  0  0
    5.0973    2.8694   -0.3139 C   0  0  0  0  0  0  0  0  0  0  0  0
    6.0446    1.8629   -0.2607 C   0  0  0  0  0  0  0  0  0  0  0  0
    7.3418    2.1662   -0.3932 F   0  0  0  0  0  0  0  0  0  0  0  0
    5.6665    0.5405   -0.0759 C   0  0  0  0  0  0  0  0  0  0  0  0
    4.3074    0.2135    0.0557 C   0  0  0  0  0  0  0  0  0  0  0  0
    3.9059   -1.2233    0.2776 C   0  0  0  0  0  0  0  0  0  0  0  0
    2.5267   -1.5702   -0.3239 C   0  0  0  0  0  0  0  0  0  0  0  0
    2.6078   -1.7611   -1.8425 C   0  0  0  0  0  0  0  0  0  0  0  0
    2.1316   -2.8302    0.2397 O   0  0  0  0  0  0  0  0  0  0  0  0
   -3.0891    0.6317   -0.1209 N   0  0  0  0  0  0  0  0  0  0  0  0
   -5.7018    3.1387   -1.3297 H   0  0  0  0  0  0  0  0  0  0  0  0
   -4.6877    3.0326    0.1144 H   0  0  0  0  0  0  0  0  0  0  0  0
   -4.0130    2.6627   -1.5006 H   0  0  0  0  0  0  0  0  0  0  0  0
   -6.2045    1.0509   -0.2600 H   0  0  0  0  0  0  0  0  0  0  0  0
   -6.3090   -2.7694    1.0645 H   0  0  0  0  0  0  0  0  0  0  0  0
   -6.4493   -1.6763    2.4963 H   0  0  0  0  0  0  0  0  0  0  0  0
   -6.2300   -3.4179    2.7076 H   0  0  0  0  0  0  0  0  0  0  0  0
   -2.0547   -1.8751    1.8876 H   0  0  0  0  0  0  0  0  0  0  0  0
   -0.1912   -1.8685   -0.0772 H   0  0  0  0  0  0  0  0  0  0  0  0
    1.0723    2.7752    0.7382 H   0  0  0  0  0  0  0  0  0  0  0  0
    5.3978    3.8991   -0.4696 H   0  0  0  0  0  0  0  0  0  0  0  0
    6.4361   -0.2261   -0.0394 H   0  0  0  0  0  0  0  0  0  0  0  0
    4.6635   -1.9069   -0.1277 H   0  0  0  0  0  0  0  0  0  0  0  0
    3.8963   -1.4000    1.3625 H   0  0  0  0  0  0  0  0  0  0  0  0
    1.6433   -2.0876   -2.2499 H   0  0  0  0  0  0  0  0  0  0  0  0
    3.3292   -2.5460   -2.0975 H   0  0  0  0  0  0  0  0  0  0  0  0
    2.8985   -0.8421   -2.3624 H   0  0  0  0  0  0  0  0  0  0  0  0
    1.9423   -2.6801    1.1824 H   0  0  0  0  0  0  0  0  0  0  0  0
  1  2  1  0
  2  3  1  0
  3  4  2  0
  4  5  1  0
  5  6  1  0
  6  7  1  0
  5  8  2  0
  8  9  1  0
  9 10  1  0
 10 11  2  0
 11 12  1  0
 12 13  2  0
 13 14  1  0
 14 15  2  0
 13 16  1  0
 16 17  2  0
 17 18  1  0
 17 19  1  0
 19 20  2  0
 20 21  1  0
 20 22  1  0
 22 23  2  0
 23 24  1  0
 24 25  1  0
 25 26  1  0
 25 27  1  0
  9 28  2  0
 28  3  1  0
 15 10  1  0
 23 16  1  0
 25 12  1  0
  1 29  1  0
  1 30  1  0
  1 31  1  0
  2 32  1  0
  7 33  1  0
  7 34  1  0
  7 35  1  0
  8 36  1  0
 11 37  1  0
 14 38  1  0
 19 39  1  0
 22 40  1  0
 24 41  1  0
 24 42  1  0
 26 43  1  0
 26 44  1  0
 26 45  1  0
 27 46  1  0
M  END
$$$$
