MODEL        4USER    Run = 4USERUSER    Estimated Free Energy of Binding    = -10.45 kcal/mol  [=(1)+(2)+(3)-(4)]USERUSER    (1) Final Intermolecular Energy     = -11.64 kcal/molUSER        vdW + Hbond + desolv Energy     = -11.54 kcal/molUSER        Electrostatic Energy            =  -0.10 kcal/molUSER        Moving Ligand-Fixed Receptor    = -11.64 kcal/molUSER        Moving Ligand-Moving Receptor   =  +0.00 kcal/molUSER    (2) Final Total Internal Energy     =  -0.92 kcal/molUSER    (3) Torsional Free Energy           =  +1.19 kcal/molUSER    (4) Unbound System's Energy         =  -0.92 kcal/molUSERUSERREMARK SMILES O=C1Nc2ccc(Cl)cc2/C1=C/N1C[C@@H](O)c2ccc(N3CCOCC3)cc2O1REMARK SMILES IDX 13 1 14 2 15 3 17 4 18 5 19 6 20 7 27 8 28 9 29 10 12 11REMARK SMILES IDX 11 12 2 13 3 14 4 15 10 16 5 17 9 18 6 19 7 20 1 21 8 23REMARK SMILES IDX 16 24 21 26 22 27 26 28 23 29 25 30 24 31REMARK H PARENT 3 22 16 25USER                              x       y       z     vdW  Elec       q    TypeUSER                           _______ _______ _______ _____ _____    ______ ____ROOTATOM      1  N   UNL     1      36.173  44.961  15.776 -0.20 +0.10    -0.213 N  ATOM      2  C   UNL     1      34.705  44.960  15.696 -0.25 -0.13    +0.198 C  ATOM      3  C   UNL     1      34.171  43.749  16.481 -0.28 -0.08    +0.171 C  ATOM      4  C   UNL     1      34.914  43.561  17.770 -0.30 -0.01    +0.028 A  ATOM      5  C   UNL     1      34.453  42.683  18.751 -0.39 -0.00    +0.012 A  ATOM      6  C   UNL     1      35.168  42.518  19.945 -0.43 -0.00    +0.026 A  ATOM      7  C   UNL     1      36.360  43.212  20.205 -0.40 -0.00    +0.041 A  ATOM      8  C   UNL     1      36.808  44.079  19.196 -0.31 -0.01    +0.076 A  ATOM      9  C   UNL     1      36.107  44.243  17.994 -0.21 -0.05    +0.163 A  ATOM     10  O   UNL     1      36.637  45.146  17.098 -0.12 +0.15    -0.380 OA ENDROOTBRANCH   1  11ATOM     11  C   UNL     1      37.030  45.448  14.803 -0.35 -0.06    +0.138 C  BRANCH  11  12ATOM     12  C   UNL     1      37.803  46.535  14.662 -0.43 -0.03    +0.068 C  ATOM     13  C   UNL     1      37.737  47.630  13.628 -0.39 -0.09    +0.257 C  ATOM     14  N   UNL     1      38.766  48.501  13.958 -0.26 +0.12    -0.321 N  ATOM     15  C   UNL     1      39.440  48.086  15.098 -0.50 -0.02    +0.049 A  ATOM     16  C   UNL     1      38.895  46.893  15.583 -0.44 -0.00    +0.014 A  ATOM     17  C   UNL     1      40.499  48.728  15.712 -0.58 -0.01    +0.028 A  ATOM     18  C   UNL     1      39.416  46.299  16.720 -0.42 -0.01    +0.031 A  ATOM     19  C   UNL     1      41.028  48.135  16.859 -0.53 -0.00    +0.023 A  ATOM     20  C   UNL     1      40.489  46.933  17.355 -0.48 -0.01    +0.041 A  ATOM     21  O   UNL     1      36.951  47.780  12.713 -1.02 +0.09    -0.269 OA ATOM     22  H   UNL     1      38.948  49.344  13.433 -0.24 -0.08    +0.170 HD ATOM     23  Cl  UNL     1      41.166  46.229  18.774 -0.68 -0.00    -0.084 Cl ENDBRANCH  11  12ENDBRANCH   1  11BRANCH   3  24ATOM     24  O   UNL     1      34.331  42.553  15.708 -0.17 +0.19    -0.386 OA ATOM     25  H   UNL     1      33.473  42.093  15.763 -0.45 -0.16    +0.211 HD ENDBRANCH   3  24BRANCH   7  26ATOM     26  N   UNL     1      37.057  43.045  21.389 -0.17 -0.01    -0.367 N  ATOM     27  C   UNL     1      37.971  44.073  21.912 -0.33 +0.01    +0.145 C  ATOM     28  C   UNL     1      36.913  41.838  22.219 -0.50 +0.01    +0.145 C  ATOM     29  C   UNL     1      39.042  43.421  22.803 -0.22 +0.01    +0.181 C  ATOM     30  C   UNL     1      37.203  42.172  23.693 -0.36 +0.01    +0.181 C  ATOM     31  O   UNL     1      38.515  42.703  23.927 -0.13 -0.03    -0.378 OA ENDBRANCH   7  26TORSDOF 4TERENDMDL