REMARK SMILES NCCNc1ncc(F)c(-c2ccc(Cl)c(Cl)c2Cl)n1
REMARK SMILES IDX 3 1 2 2 1 3 4 6 5 8 6 9 20 10 7 11 10 12 8 13 9 14 11 15
REMARK SMILES IDX 12 16 18 17 13 18 16 19 14 20 19 21 17 22 15 23
REMARK H PARENT 1 4 1 5 4 7
ROOT
ATOM      1  C   UNL     1      -3.381  -0.949  -0.438  1.00  0.00     0.131 C 
ENDROOT
BRANCH   1   2
ATOM      2  C   UNL     1      -4.611  -0.143  -0.905  1.00  0.00     0.099 C 
BRANCH   2   3
ATOM      3  N   UNL     1      -5.103   0.759   0.139  1.00  0.00    -0.329 NA
ATOM      4  H   UNL     1      -5.624   1.525  -0.282  1.00  0.00     0.118 HD
ATOM      5  H   UNL     1      -4.291   1.169   0.608  1.00  0.00     0.118 HD
ENDBRANCH   2   3
ENDBRANCH   1   2
BRANCH   1   6
ATOM      6  N   UNL     1      -2.311  -0.031  -0.053  1.00  0.00    -0.353 N 
ATOM      7  H   UNL     1      -2.067   0.664  -0.751  1.00  0.00     0.163 HD
BRANCH   6   8
ATOM      8  C   UNL     1      -1.124  -0.649   0.304  1.00  0.00     0.223 A 
ATOM      9  N   UNL     1      -1.129  -1.848   0.905  1.00  0.00    -0.219 NA
ATOM     10  N   UNL     1      -0.009   0.035   0.010  1.00  0.00    -0.210 NA
ATOM     11  C   UNL     1       0.067  -2.373   1.241  1.00  0.00     0.156 A 
ATOM     12  C   UNL     1       1.178  -0.528   0.346  1.00  0.00     0.113 A 
ATOM     13  C   UNL     1       1.258  -1.747   0.987  1.00  0.00     0.167 A 
ATOM     14  F   UNL     1       2.422  -2.291   1.362  1.00  0.00    -0.203 F 
BRANCH  12  15
ATOM     15  C   UNL     1       2.362   0.277   0.020  1.00  0.00     0.024 A 
ATOM     16  C   UNL     1       2.532   1.511   0.675  1.00  0.00     0.013 A 
ATOM     17  C   UNL     1       3.333  -0.117  -0.929  1.00  0.00     0.070 A 
ATOM     18  C   UNL     1       3.639   2.319   0.419  1.00  0.00     0.023 A 
ATOM     19  C   UNL     1       4.456   0.697  -1.190  1.00  0.00     0.078 A 
ATOM     20  C   UNL     1       4.601   1.914  -0.507  1.00  0.00     0.061 A 
ATOM     21  Cl  UNL     1       3.111  -1.605  -1.812  1.00  0.00    -0.082 Cl
ATOM     22  Cl  UNL     1       5.655   0.208  -2.351  1.00  0.00    -0.081 Cl
ATOM     23  Cl  UNL     1       5.943   2.976  -0.760  1.00  0.00    -0.083 Cl
ENDBRANCH  12  15
ENDBRANCH   6   8
ENDBRANCH   1   6
TORSDOF 5
