MODEL        6USER    Run = 6USERUSER    Estimated Free Energy of Binding    =  -6.25 kcal/mol  [=(1)+(2)+(3)-(4)]USERUSER    (1) Final Intermolecular Energy     =  -8.33 kcal/molUSER        vdW + Hbond + desolv Energy     =  -7.84 kcal/molUSER        Electrostatic Energy            =  -0.50 kcal/molUSER        Moving Ligand-Fixed Receptor    =  -8.33 kcal/molUSER        Moving Ligand-Moving Receptor   =  +0.00 kcal/molUSER    (2) Final Total Internal Energy     =  -2.70 kcal/molUSER    (3) Torsional Free Energy           =  +2.09 kcal/molUSER    (4) Unbound System's Energy         =  -2.70 kcal/molUSERUSERREMARK SMILES Cn1cc(NC(=O)c2cc(O)cc(Cl)c2OC=N)c(N)n1REMARK SMILES IDX 8 1 9 2 10 3 12 4 13 5 14 6 15 7 6 8 5 9 7 11 4 12 2 13 3 14REMARK SMILES IDX 21 15 19 16 1 17 20 18 16 21 17 22 18 23 11 25REMARK H PARENT 5 10 20 19 20 20 18 24 11 26USER                              x       y       z     vdW  Elec       q    TypeUSER                           _______ _______ _______ _____ _____    ______ ____ROOTATOM      1  C   UNL     1      38.928  46.247  17.347 -0.36 -0.02    +0.088 A  ATOM      2  C   UNL     1      40.153  46.869  17.611 -0.44 -0.01    +0.064 A  ATOM      3  C   UNL     1      40.583  47.913  16.798 -0.44 -0.02    +0.118 A  ATOM      4  C   UNL     1      39.808  48.358  15.731 -0.50 -0.02    +0.070 A  ATOM      5  C   UNL     1      38.575  47.750  15.479 -0.42 -0.04    +0.088 A  ATOM      6  Cl  UNL     1      37.614  48.352  14.176 -0.77 +0.04    -0.080 Cl ATOM      7  C   UNL     1      38.135  46.688  16.280 -0.29 -0.07    +0.160 A  ENDROOTBRANCH   1   8ATOM      8  C   UNL     1      38.530  45.128  18.228 -0.28 -0.04    +0.259 C  ATOM      9  N   UNL     1      37.191  45.125  18.548 -0.16 +0.06    -0.317 N  ATOM     10  H   UNL     1      36.604  45.880  18.195 +0.10 -0.06    +0.170 HD ATOM     11  O   UNL     1      39.378  44.304  18.546 -0.26 +0.02    -0.269 OA BRANCH   9  12ATOM     12  C   UNL     1      36.568  44.232  19.400 -0.31 -0.01    +0.104 A  ATOM     13  N   UNL     1      36.092  42.663  20.842 -0.29 -0.00    -0.272 N  ATOM     14  C   UNL     1      37.124  43.234  20.160 -0.24 -0.01    +0.136 A  ATOM     15  N   UNL     1      34.892  43.214  20.574 -0.41 -0.01    -0.154 NA ATOM     16  C   UNL     1      35.178  44.167  19.693 -0.28 -0.03    +0.169 A  ATOM     17  C   UNL     1      36.177  41.571  21.781 -0.49 +0.01    +0.173 C  BRANCH  16  18ATOM     18  N   UNL     1      34.242  44.958  19.132 -0.16 +0.13    -0.380 N  ATOM     19  H   UNL     1      34.205  44.870  18.121 +0.12 -0.07    +0.158 HD ATOM     20  H   UNL     1      34.230  45.930  19.420 -0.29 -0.08    +0.158 HD ENDBRANCH  16  18ENDBRANCH   9  12ENDBRANCH   1   8BRANCH   7  21ATOM     21  O   UNL     1      36.851  46.162  16.063 -0.10 +0.25    -0.444 OA BRANCH  21  22ATOM     22  C   UNL     1      35.806  46.966  16.463 -0.05 -0.35    +0.300 C  BRANCH  22  23ATOM     23  N   UNL     1      35.098  46.766  17.521 -0.23 +0.29    -0.274 NA ATOM     24  H   UNL     1      34.275  47.386  17.467 -0.36 -0.39    +0.190 HD ENDBRANCH  22  23ENDBRANCH  21  22ENDBRANCH   7  21BRANCH   3  25ATOM     25  O   UNL     1      41.788  48.481  17.086 -0.61 -0.03    -0.508 OA ATOM     26  H   UNL     1      42.462  47.787  17.174 -0.35 -0.04    +0.293 HD ENDBRANCH   3  25TORSDOF 7TERENDMDL