MODEL        1USER    Run = 1USERUSER    Estimated Free Energy of Binding    =  -7.80 kcal/mol  [=(1)+(2)+(3)-(4)]USERUSER    (1) Final Intermolecular Energy     =  -8.70 kcal/molUSER        vdW + Hbond + desolv Energy     =  -8.55 kcal/molUSER        Electrostatic Energy            =  -0.14 kcal/molUSER        Moving Ligand-Fixed Receptor    =  -8.70 kcal/molUSER        Moving Ligand-Moving Receptor   =  +0.00 kcal/molUSER    (2) Final Total Internal Energy     =  -1.25 kcal/molUSER    (3) Torsional Free Energy           =  +0.89 kcal/molUSER    (4) Unbound System's Energy         =  -1.25 kcal/molUSERUSERREMARK SMILES CC1(C)C=CC=C(NC(=O)Nc2cccc(F)c2Cl)[C@H]1NREMARK SMILES IDX 1 1 2 2 3 3 4 4 5 5 6 6 7 7 20 8 21 9 8 12 9 13 11 14 10 16REMARK SMILES IDX 12 18 13 19 18 20 14 21 16 22 15 23 19 24 17 25REMARK H PARENT 21 10 21 11 8 15 11 17USER                              x       y       z     vdW  Elec       q    TypeUSER                           _______ _______ _______ _____ _____    ______ ____ROOTATOM      1  C   UNL     1      42.516  29.175  15.234 -0.45 -0.00    +0.017 C  ATOM      2  C   UNL     1      41.462  28.653  16.229 -0.32 +0.00    +0.004 C  ATOM      3  C   UNL     1      41.972  27.328  16.834 -0.18 +0.00    +0.017 C  ATOM      4  C   UNL     1      40.178  28.332  15.472 -0.38 +0.00    -0.019 C  ATOM      5  C   UNL     1      38.967  28.512  16.022 -0.39 -0.00    -0.002 C  ATOM      6  C   UNL     1      38.816  28.990  17.378 -0.32 +0.01    +0.023 C  ATOM      7  C   UNL     1      39.833  29.578  18.028 -0.42 +0.02    +0.037 C  ATOM      8  C   UNL     1      41.184  29.753  17.329 -0.32 +0.07    +0.107 C  ENDROOTBRANCH   8   9ATOM      9  N   UNL     1      42.262  29.911  18.337 -0.71 -0.49    -0.322 NA ATOM     10  H   UNL     1      43.028  30.425  17.899 +0.02 +0.17    +0.119 HD ATOM     11  H   UNL     1      41.918  30.518  19.081 -0.56 +0.16    +0.119 HD ENDBRANCH   8   9BRANCH   7  12ATOM     12  N   UNL     1      39.780  30.083  19.316 -0.22 -0.14    -0.310 N  ATOM     13  C   UNL     1      38.844  29.871  20.313 -0.21 +0.07    +0.323 C  ATOM     14  N   UNL     1      39.164  30.610  21.439 -0.20 -0.05    -0.306 N  ATOM     15  H   UNL     1      40.602  30.634  19.541 -0.50 +0.08    +0.171 HD ATOM     16  O   UNL     1      37.870  29.136  20.209 -0.20 -0.00    -0.248 OA ATOM     17  H   UNL     1      39.940  31.253  21.348 -0.48 +0.00    +0.171 HD BRANCH  14  18ATOM     18  C   UNL     1      38.487  30.662  22.681 -0.39 +0.01    +0.064 A  ATOM     19  C   UNL     1      37.504  31.614  22.980 -0.45 +0.00    +0.028 A  ATOM     20  C   UNL     1      38.816  29.708  23.662 -0.28 +0.03    +0.100 A  ATOM     21  C   UNL     1      36.867  31.620  24.227 -0.50 +0.00    +0.005 A  ATOM     22  C   UNL     1      38.173  29.721  24.901 -0.25 +0.03    +0.143 A  ATOM     23  C   UNL     1      37.203  30.674  25.191 -0.39 +0.00    +0.041 A  ATOM     24  Cl  UNL     1      40.024  28.504  23.355 -0.37 -0.04    -0.079 Cl ATOM     25  F   UNL     1      38.481  28.815  25.842 -0.06 -0.09    -0.205 F  ENDBRANCH  14  18ENDBRANCH   7  12TORSDOF 3TERENDMDL