REMARK SMILES Cc1cc(-n2nnc(C(=O)Nc3cccnc3)c2N)ccc1C(=O)O
REMARK SMILES IDX 1 1 2 2 3 3 4 4 20 5 21 6 22 7 23 8 24 9 25 10 5 12 6 13
REMARK SMILES IDX 18 14 7 15 8 16 19 17 9 20 11 21 10 22 12 24 13 25 17 26
REMARK SMILES IDX 14 27 16 28 15 29
REMARK H PARENT 25 11 19 18 19 19 11 23
ROOT
ATOM      1  C   UNL     1      -5.285  -1.145   1.904  1.00  0.00     0.045 C 
ATOM      2  C   UNL     1      -4.449  -0.455   0.859  1.00  0.00    -0.034 A 
ATOM      3  C   UNL     1      -3.044  -0.528   0.972  1.00  0.00     0.032 A 
ATOM      4  C   UNL     1      -2.198   0.101   0.042  1.00  0.00     0.069 A 
ATOM      5  C   UNL     1      -2.768   0.784  -1.034  1.00  0.00     0.029 A 
ATOM      6  C   UNL     1      -4.160   0.861  -1.159  1.00  0.00     0.018 A 
ATOM      7  C   UNL     1      -5.012   0.254  -0.221  1.00  0.00     0.062 A 
ENDROOT
BRANCH   7   8
ATOM      8  C   UNL     1      -6.493   0.358  -0.398  1.00  0.00     0.335 C 
ATOM      9  O   UNL     1      -7.357  -0.195   0.254  1.00  0.00    -0.246 OA
BRANCH   8  10
ATOM     10  O   UNL     1      -6.835   1.182  -1.408  1.00  0.00    -0.478 OA
ATOM     11  H   UNL     1      -7.815   1.156  -1.403  1.00  0.00     0.297 HD
ENDBRANCH   8  10
ENDBRANCH   7   8
BRANCH   4  12
ATOM     12  N   UNL     1      -0.786  -0.003   0.204  1.00  0.00    -0.197 N 
ATOM     13  N   UNL     1      -0.262  -0.927   1.058  1.00  0.00    -0.059 NA
ATOM     14  C   UNL     1       0.262   0.700  -0.404  1.00  0.00     0.161 A 
ATOM     15  N   UNL     1       1.054  -0.941   0.922  1.00  0.00    -0.122 NA
ATOM     16  C   UNL     1       1.403   0.045   0.035  1.00  0.00     0.194 A 
BRANCH  14  17
ATOM     17  N   UNL     1       0.135   1.795  -1.210  1.00  0.00    -0.382 N 
ATOM     18  H   UNL     1       1.009   2.264  -1.473  1.00  0.00     0.158 HD
ATOM     19  H   UNL     1      -0.578   2.489  -0.986  1.00  0.00     0.158 HD
ENDBRANCH  14  17
BRANCH  16  20
ATOM     20  C   UNL     1       2.792   0.341  -0.300  1.00  0.00     0.280 C 
ATOM     21  N   UNL     1       3.673  -0.541   0.300  1.00  0.00    -0.319 N 
ATOM     22  O   UNL     1       3.092   1.283  -1.027  1.00  0.00    -0.267 OA
ATOM     23  H   UNL     1       3.238  -1.252   0.882  1.00  0.00     0.170 HD
BRANCH  21  24
ATOM     24  C   UNL     1       5.077  -0.562   0.204  1.00  0.00     0.060 A 
ATOM     25  C   UNL     1       5.832   0.333  -0.550  1.00  0.00     0.029 A 
ATOM     26  C   UNL     1       5.779  -1.543   0.906  1.00  0.00     0.137 A 
ATOM     27  C   UNL     1       7.223   0.218  -0.575  1.00  0.00     0.022 A 
ATOM     28  N   UNL     1       7.127  -1.680   0.904  1.00  0.00    -0.263 NA
ATOM     29  C   UNL     1       7.819  -0.792   0.161  1.00  0.00     0.111 A 
ENDBRANCH  21  24
ENDBRANCH  16  20
ENDBRANCH   4  12
TORSDOF 6
