REMARK SMILES Cn1cc(NC(=O)c2cc(O)cc(Cl)c2OC=N)c(N)n1
REMARK SMILES IDX 8 1 9 2 10 3 12 4 13 5 14 6 15 7 6 8 5 9 7 11 4 12 2 13 3 14
REMARK SMILES IDX 21 15 19 16 1 17 20 18 16 21 17 22 18 23 11 25
REMARK H PARENT 5 10 20 19 20 20 18 24 11 26
ROOT
ATOM      1  C   UNL     1      -1.556  -0.323   1.268  1.00  0.00     0.088 A 
ATOM      2  C   UNL     1      -1.869  -0.017   2.597  1.00  0.00     0.064 A 
ATOM      3  C   UNL     1      -3.144   0.440   2.915  1.00  0.00     0.118 A 
ATOM      4  C   UNL     1      -4.120   0.586   1.934  1.00  0.00     0.070 A 
ATOM      5  C   UNL     1      -3.814   0.261   0.610  1.00  0.00     0.088 A 
ATOM      6  Cl  UNL     1      -5.058   0.410  -0.580  1.00  0.00    -0.080 Cl
ATOM      7  C   UNL     1      -2.530  -0.186   0.271  1.00  0.00     0.160 A 
ENDROOT
BRANCH   1   8
ATOM      8  C   UNL     1      -0.180  -0.782   0.982  1.00  0.00     0.259 C 
ATOM      9  N   UNL     1       0.503   0.029   0.105  1.00  0.00    -0.317 N 
ATOM     10  H   UNL     1       0.019   0.835  -0.291  1.00  0.00     0.170 HD
ATOM     11  O   UNL     1       0.237  -1.776   1.563  1.00  0.00    -0.269 OA
BRANCH   9  12
ATOM     12  C   UNL     1       1.778  -0.199  -0.379  1.00  0.00     0.104 A 
ATOM     13  N   UNL     1       3.748  -1.014  -0.852  1.00  0.00    -0.272 N 
ATOM     14  C   UNL     1       2.632  -1.236  -0.101  1.00  0.00     0.136 A 
ATOM     15  N   UNL     1       3.686   0.106  -1.598  1.00  0.00    -0.154 NA
ATOM     16  C   UNL     1       2.490   0.607  -1.309  1.00  0.00     0.169 A 
ATOM     17  C   UNL     1       4.929  -1.840  -0.908  1.00  0.00     0.173 C 
BRANCH  16  18
ATOM     18  N   UNL     1       2.028   1.761  -1.830  1.00  0.00    -0.380 N 
ATOM     19  H   UNL     1       2.757   2.314  -2.272  1.00  0.00     0.158 HD
ATOM     20  H   UNL     1       1.441   2.332  -1.233  1.00  0.00     0.158 HD
ENDBRANCH  16  18
ENDBRANCH   9  12
ENDBRANCH   1   8
BRANCH   7  21
ATOM     21  O   UNL     1      -2.282  -0.596  -1.049  1.00  0.00    -0.444 OA
BRANCH  21  22
ATOM     22  C   UNL     1      -1.785   0.377  -1.888  1.00  0.00     0.300 C 
BRANCH  22  23
ATOM     23  N   UNL     1      -1.322   1.513  -1.491  1.00  0.00    -0.274 NA
ATOM     24  H   UNL     1      -1.007   2.030  -2.326  1.00  0.00     0.190 HD
ENDBRANCH  22  23
ENDBRANCH  21  22
ENDBRANCH   7  21
BRANCH   3  25
ATOM     25  O   UNL     1      -3.400   0.737   4.221  1.00  0.00    -0.508 OA
ATOM     26  H   UNL     1      -4.325   1.018   4.315  1.00  0.00     0.293 HD
ENDBRANCH   3  25
TORSDOF 7
