MODEL        5USER    Run = 5USERUSER    Estimated Free Energy of Binding    =  -9.52 kcal/mol  [=(1)+(2)+(3)-(4)]USERUSER    (1) Final Intermolecular Energy     = -10.71 kcal/molUSER        vdW + Hbond + desolv Energy     = -10.56 kcal/molUSER        Electrostatic Energy            =  -0.15 kcal/molUSER        Moving Ligand-Fixed Receptor    = -10.71 kcal/molUSER        Moving Ligand-Moving Receptor   =  +0.00 kcal/molUSER    (2) Final Total Internal Energy     =  -0.70 kcal/molUSER    (3) Torsional Free Energy           =  +1.19 kcal/molUSER    (4) Unbound System's Energy         =  -0.70 kcal/molUSERUSERREMARK SMILES CC(C)c1nnc2ccc(-c3ccc(Nc4cccnc4)cc3)cn12REMARK SMILES IDX 4 1 5 2 6 3 7 4 8 5 9 6 10 7 24 8 25 9 2 10 1 11 3 12 11 13REMARK SMILES IDX 12 14 23 15 13 16 22 17 14 18 15 19 16 21 17 22 21 23 18 24REMARK SMILES IDX 20 25 19 26REMARK H PARENT 15 20USER                              x       y       z     vdW  Elec       q    TypeUSER                           _______ _______ _______ _____ _____    ______ ____ROOTATOM      1  C   UNL     1      41.063  47.546  17.745 -0.41 -0.01    +0.139 A  ATOM      2  N   UNL     1      41.899  48.481  17.332 -0.69 -0.01    -0.134 NA ATOM      3  N   UNL     1      41.406  49.028  16.172 -1.05 +0.00    -0.130 NA ATOM      4  C   UNL     1      40.281  48.414  15.886 -0.44 -0.04    +0.160 A  ATOM      5  C   UNL     1      39.352  48.556  14.821 -0.48 -0.02    +0.050 A  ATOM      6  C   UNL     1      38.264  47.763  14.781 -0.50 -0.01    +0.014 A  ATOM      7  C   UNL     1      38.004  46.749  15.806 -0.40 +0.00    -0.001 A  ATOM      8  C   UNL     1      38.892  46.626  16.816 -0.35 -0.03    +0.103 A  ATOM      9  N   UNL     1      40.014  47.455  16.850 -0.30 +0.07    -0.286 N  ENDROOTBRANCH   1  10ATOM     10  C   UNL     1      41.213  46.696  18.969 -0.48 +0.00    +0.052 C  ATOM     11  C   UNL     1      42.540  46.979  19.677 -0.54 +0.00    +0.016 C  ATOM     12  C   UNL     1      41.110  45.216  18.604 -0.49 +0.00    +0.016 C  ENDBRANCH   1  10BRANCH   7  13ATOM     13  C   UNL     1      36.822  45.875  15.788 -0.36 +0.01    -0.017 A  ATOM     14  C   UNL     1      35.665  46.270  15.112 -0.37 -0.01    +0.011 A  ATOM     15  C   UNL     1      36.841  44.634  16.432 -0.34 -0.00    +0.011 A  ATOM     16  C   UNL     1      34.541  45.437  15.089 -0.30 -0.02    +0.026 A  ATOM     17  C   UNL     1      35.713  43.806  16.406 -0.36 -0.01    +0.026 A  ATOM     18  C   UNL     1      34.549  44.190  15.732 -0.26 -0.02    +0.038 A  BRANCH  18  19ATOM     19  N   UNL     1      33.382  43.408  15.711 -0.10 +0.18    -0.354 N  ATOM     20  H   UNL     1      33.553  42.417  15.583 -0.38 -0.11    +0.167 HD BRANCH  19  21ATOM     21  C   UNL     1      32.024  43.745  15.828 -0.31 -0.03    +0.057 A  ATOM     22  C   UNL     1      30.985  42.824  15.687 -0.33 -0.02    +0.029 A  ATOM     23  C   UNL     1      31.640  45.071  16.046 -0.25 -0.06    +0.137 A  ATOM     24  C   UNL     1      29.656  43.237  15.780 -0.26 -0.01    +0.022 A  ATOM     25  N   UNL     1      30.360  45.510  16.144 -0.56 +0.04    -0.263 NA ATOM     26  C   UNL     1      29.396  44.576  16.007 -0.24 -0.04    +0.111 A  ENDBRANCH  19  21ENDBRANCH  18  19ENDBRANCH   7  13TORSDOF 4TERENDMDL