REMARK SMILES CCOC=C1C=C(C(=O)Nc2cnccc2N2CCNC[C@@H]2C)CC=C1C(N)=O
REMARK SMILES IDX 5 1 6 2 7 3 24 4 25 5 26 6 4 7 3 8 2 9 1 10 27 11 28 12
REMARK SMILES IDX 29 13 8 16 10 17 9 18 11 20 12 21 16 22 13 23 15 24 14 25
REMARK SMILES IDX 17 26 18 27 22 28 19 29 21 30 20 31 23 32
REMARK H PARENT 28 14 28 15 10 19 20 33
ROOT
ATOM      1  C   UNL     1       3.447   0.068   0.893  1.00  0.00     0.022 C 
ATOM      2  C   UNL     1       2.217   0.828   1.147  1.00  0.00     0.021 C 
ATOM      3  C   UNL     1       1.179   0.781   0.290  1.00  0.00     0.022 C 
ATOM      4  C   UNL     1       1.205  -0.054  -0.962  1.00  0.00     0.069 C 
ATOM      5  C   UNL     1       2.476  -0.836  -1.151  1.00  0.00    -0.008 C 
ATOM      6  C   UNL     1       3.511  -0.806  -0.288  1.00  0.00     0.046 C 
ENDROOT
BRANCH   1   7
ATOM      7  C   UNL     1       4.469   0.285   1.745  1.00  0.00     0.195 C 
BRANCH   7   8
ATOM      8  O   UNL     1       5.707  -0.294   1.663  1.00  0.00    -0.501 OA
BRANCH   8   9
ATOM      9  C   UNL     1       6.749   0.660   1.889  1.00  0.00     0.225 C 
ATOM     10  C   UNL     1       8.073   0.006   1.545  1.00  0.00     0.049 C 
ENDBRANCH   8   9
ENDBRANCH   7   8
ENDBRANCH   1   7
BRANCH   6  11
ATOM     11  C   UNL     1       4.650  -1.692  -0.667  1.00  0.00     0.249 C 
ATOM     12  N   UNL     1       5.034  -2.592   0.280  1.00  0.00    -0.366 N 
ATOM     13  O   UNL     1       5.157  -1.682  -1.782  1.00  0.00    -0.270 OA
ATOM     14  H   UNL     1       4.831  -2.391   1.251  1.00  0.00     0.159 HD
ATOM     15  H   UNL     1       5.893  -3.085   0.083  1.00  0.00     0.159 HD
ENDBRANCH   6  11
BRANCH   3  16
ATOM     16  C   UNL     1       0.020   1.688   0.577  1.00  0.00     0.252 C 
ATOM     17  N   UNL     1      -1.161   1.299   0.001  1.00  0.00    -0.319 N 
ATOM     18  O   UNL     1       0.171   2.680   1.282  1.00  0.00    -0.269 OA
ATOM     19  H   UNL     1      -1.242   0.402  -0.462  1.00  0.00     0.170 HD
BRANCH  17  20
ATOM     20  C   UNL     1      -2.381   2.012  -0.024  1.00  0.00     0.083 A 
ATOM     21  C   UNL     1      -2.544   3.328   0.396  1.00  0.00     0.139 A 
ATOM     22  C   UNL     1      -3.491   1.345  -0.585  1.00  0.00     0.064 A 
ATOM     23  N   UNL     1      -3.706   4.019   0.282  1.00  0.00    -0.262 NA
ATOM     24  C   UNL     1      -4.688   2.056  -0.719  1.00  0.00     0.048 A 
ATOM     25  C   UNL     1      -4.745   3.368  -0.276  1.00  0.00     0.113 A 
BRANCH  22  26
ATOM     26  N   UNL     1      -3.378  -0.012  -0.953  1.00  0.00    -0.365 N 
ATOM     27  C   UNL     1      -3.943  -0.405  -2.264  1.00  0.00     0.132 C 
ATOM     28  C   UNL     1      -3.546  -1.009   0.155  1.00  0.00     0.093 C 
ATOM     29  C   UNL     1      -5.129  -1.382  -2.135  1.00  0.00     0.102 C 
ATOM     30  C   UNL     1      -3.715  -2.434  -0.446  1.00  0.00     0.105 C 
ATOM     31  N   UNL     1      -4.870  -2.600  -1.347  1.00  0.00    -0.313 NA
ATOM     32  C   UNL     1      -4.698  -0.695   1.119  1.00  0.00     0.032 C 
ATOM     33  H   UNL     1      -4.685  -3.384  -1.974  1.00  0.00     0.122 HD
ENDBRANCH  22  26
ENDBRANCH  17  20
ENDBRANCH   3  16
TORSDOF 7
