MODEL        10USER    Run = 10USERUSER    Estimated Free Energy of Binding    =  -7.53 kcal/mol  [=(1)+(2)+(3)-(4)]USERUSER    (1) Final Intermolecular Energy     =  -9.02 kcal/molUSER        vdW + Hbond + desolv Energy     =  -8.85 kcal/molUSER        Electrostatic Energy            =  -0.17 kcal/molUSER        Moving Ligand-Fixed Receptor    =  -9.02 kcal/molUSER        Moving Ligand-Moving Receptor   =  +0.00 kcal/molUSER    (2) Final Total Internal Energy     =  -1.24 kcal/molUSER    (3) Torsional Free Energy           =  +1.49 kcal/molUSER    (4) Unbound System's Energy         =  -1.24 kcal/molUSERUSERREMARK SMILES NCCNc1ncc(F)c(-c2ccc(Cl)c(Cl)c2Cl)n1REMARK SMILES IDX 3 1 2 2 1 3 4 6 5 8 6 9 20 10 7 11 10 12 8 13 9 14 11 15REMARK SMILES IDX 12 16 18 17 13 18 16 19 14 20 19 21 17 22 15 23REMARK H PARENT 1 4 1 5 4 7USER                              x       y       z     vdW  Elec       q    TypeUSER                           _______ _______ _______ _____ _____    ______ ____ROOTATOM      1  C   UNL     1      39.821  48.133  16.106 -0.50 -0.04    +0.131 C  ENDROOTBRANCH   1   2ATOM      2  C   UNL     1      41.058  48.988  16.453 -0.52 -0.01    +0.099 C  BRANCH   2   3ATOM      3  N   UNL     1      41.105  50.225  15.671 -0.55 +0.09    -0.329 NA ATOM      4  H   UNL     1      41.428  50.993  16.255 -0.48 -0.05    +0.118 HD ATOM      5  H   UNL     1      40.150  50.449  15.379 -0.33 -0.08    +0.118 HD ENDBRANCH   2   3ENDBRANCH   1   2BRANCH   1   6ATOM      6  N   UNL     1      39.351  48.474  14.765 -0.25 +0.14    -0.353 N  ATOM      7  H   UNL     1      39.276  49.468  14.574 -0.25 -0.12    +0.163 HD BRANCH   6   8ATOM      8  C   UNL     1      38.123  47.927  14.430 -0.34 -0.10    +0.223 A  ATOM      9  N   UNL     1      37.607  48.099  13.204 -0.81 +0.06    -0.219 NA ATOM     10  N   UNL     1      37.516  47.237  15.406 -0.26 +0.13    -0.210 NA ATOM     11  C   UNL     1      36.398  47.554  12.963 -0.50 -0.08    +0.156 A  ATOM     12  C   UNL     1      36.309  46.687  15.126 -0.30 -0.09    +0.113 A  ATOM     13  C   UNL     1      35.699  46.837  13.898 -0.32 -0.12    +0.167 A  ATOM     14  F   UNL     1      34.489  46.336  13.626 -0.13 +0.17    -0.203 F  BRANCH  12  15ATOM     15  C   UNL     1      35.683  45.963  16.240 -0.34 -0.02    +0.024 A  ATOM     16  C   UNL     1      35.063  46.711  17.259 -0.20 -0.02    +0.013 A  ATOM     17  C   UNL     1      35.682  44.553  16.349 -0.28 -0.03    +0.070 A  ATOM     18  C   UNL     1      34.442  46.086  18.339 -0.47 -0.01    +0.023 A  ATOM     19  C   UNL     1      35.053  43.916  17.440 -0.26 -0.03    +0.078 A  ATOM     20  C   UNL     1      34.432  44.693  18.430 -0.33 -0.02    +0.061 A  ATOM     21  Cl  UNL     1      36.507  43.602  15.142 -0.31 +0.03    -0.082 Cl ATOM     22  Cl  UNL     1      35.045  42.182  17.570 -0.55 +0.03    -0.081 Cl ATOM     23  Cl  UNL     1      33.635  44.002  19.801 -0.55 +0.01    -0.083 Cl ENDBRANCH  12  15ENDBRANCH   6   8ENDBRANCH   1   6TORSDOF 5TERENDMDL