MODEL        3USER    Run = 3USERUSER    Estimated Free Energy of Binding    =  -9.32 kcal/mol  [=(1)+(2)+(3)-(4)]USERUSER    (1) Final Intermolecular Energy     = -11.41 kcal/molUSER        vdW + Hbond + desolv Energy     = -11.28 kcal/molUSER        Electrostatic Energy            =  -0.13 kcal/molUSER        Moving Ligand-Fixed Receptor    = -11.41 kcal/molUSER        Moving Ligand-Moving Receptor   =  +0.00 kcal/molUSER    (2) Final Total Internal Energy     =  -2.03 kcal/molUSER    (3) Torsional Free Energy           =  +2.09 kcal/molUSER    (4) Unbound System's Energy         =  -2.03 kcal/molUSERUSERREMARK SMILES NC(=O)c1cc2cnc(-n3cc(-c4cccc(N)c4)nn3)n(CC3CC3)c(=O)c-2c1OREMARK SMILES IDX 10 1 11 2 12 3 20 4 21 5 9 6 4 7 5 8 30 9 6 10 29 11 7 12REMARK SMILES IDX 27 13 8 14 22 15 28 16 2 17 1 18 3 21 31 22 23 24 24 25REMARK SMILES IDX 25 26 26 27 13 28 14 29 19 30 15 31 17 32 16 33 18 34REMARK H PARENT 1 19 1 20 31 23 18 35 18 36USER                              x       y       z     vdW  Elec       q    TypeUSER                           _______ _______ _______ _____ _____    ______ ____ROOTATOM      1  N   UNL     1      33.837  29.872  23.036 -0.38 +0.00    -0.186 N  ATOM      2  C   UNL     1      32.527  29.541  22.745 -0.36 +0.01    +0.149 A  ATOM      3  C   UNL     1      31.765  30.311  23.590 -0.51 +0.02    +0.113 A  ATOM      4  N   UNL     1      32.597  31.100  24.338 -0.41 -0.04    -0.130 NA ATOM      5  N   UNL     1      33.848  30.852  23.975 -0.33 -0.01    -0.059 NA ENDROOTBRANCH   1   6ATOM      6  C   UNL     1      35.013  29.396  22.395 -0.28 -0.04    +0.235 A  ATOM      7  C   UNL     1      38.902  29.046  19.207 -0.25 +0.02    +0.082 A  ATOM      8  C   UNL     1      37.941  28.109  19.333 -0.20 -0.00    +0.028 A  ATOM      9  C   UNL     1      38.641  30.117  20.152 -0.26 +0.03    +0.141 A  ATOM     10  C   UNL     1      37.010  28.601  20.338 -0.28 -0.00    +0.010 A  ATOM     11  C   UNL     1      37.521  29.848  20.847 -0.31 -0.00    +0.091 A  ATOM     12  C   UNL     1      35.847  28.032  20.663 -0.27 -0.06    +0.124 A  ATOM     13  C   UNL     1      37.098  30.579  22.046 -0.23 +0.00    +0.265 A  ATOM     14  N   UNL     1      34.841  28.550  21.426 -0.29 +0.09    -0.220 NA ATOM     15  N   UNL     1      36.207  29.928  22.887 -0.18 +0.01    -0.276 N  ATOM     16  O   UNL     1      37.614  31.671  22.291 -0.39 -0.03    -0.268 OA BRANCH   7  17ATOM     17  C   UNL     1      40.000  28.997  18.224 -0.22 +0.11    +0.252 C  ATOM     18  N   UNL     1      41.165  29.573  18.640 -0.17 -0.37    -0.365 N  ATOM     19  H   UNL     1      41.895  29.655  17.944 +0.05 +0.17    +0.159 HD ATOM     20  H   UNL     1      41.208  30.172  19.451 -0.54 +0.15    +0.159 HD ATOM     21  O   UNL     1      39.900  28.486  17.118 -0.16 -0.05    -0.269 OA ENDBRANCH   7  17BRANCH   9  22ATOM     22  O   UNL     1      39.537  31.124  20.344 +0.16 -0.11    -0.506 OA ATOM     23  H   UNL     1      39.557  31.320  21.305 -0.33 +0.04    +0.293 HD ENDBRANCH   9  22BRANCH  15  24ATOM     24  C   UNL     1      36.401  30.195  24.318 -0.34 +0.01    +0.132 C  BRANCH  24  25ATOM     25  C   UNL     1      37.320  29.154  24.909 -0.38 +0.00    +0.009 C  ATOM     26  C   UNL     1      38.788  29.169  24.561 -0.35 +0.00    +0.006 C  ATOM     27  C   UNL     1      37.911  28.059  24.056 -0.26 +0.00    +0.006 C  ENDBRANCH  24  25ENDBRANCH  15  24ENDBRANCH   1   6BRANCH   3  28ATOM     28  C   UNL     1      30.316  30.334  23.700 -0.60 +0.00    +0.006 A  ATOM     29  C   UNL     1      29.662  31.550  23.940 -0.45 +0.01    +0.010 A  ATOM     30  C   UNL     1      29.544  29.166  23.587 -0.50 -0.00    +0.036 A  ATOM     31  C   UNL     1      28.276  31.594  24.083 -0.47 +0.00    +0.003 A  ATOM     32  C   UNL     1      28.147  29.210  23.668 -0.57 -0.01    +0.032 A  ATOM     33  C   UNL     1      27.527  30.423  23.970 -0.39 +0.01    +0.025 A  BRANCH  32  34ATOM     34  N   UNL     1      27.404  28.021  23.672 -0.24 +0.12    -0.399 N  ATOM     35  H   UNL     1      27.934  27.204  23.958 -0.30 -0.09    +0.156 HD ATOM     36  H   UNL     1      26.888  27.860  22.812 -0.28 -0.11    +0.156 HD ENDBRANCH  32  34ENDBRANCH   3  28TORSDOF 7TERENDMDL