REMARK SMILES Cc1cc(-c2nnc3ccc(-c4cnn(C)c4)cn23)ccc1O
REMARK SMILES IDX 5 1 6 2 7 3 8 4 9 5 10 6 11 7 18 8 19 9 4 10 2 11 3 12 22 13
REMARK SMILES IDX 21 14 20 15 1 16 23 17 12 19 13 20 17 21 14 22 15 23 16 24
REMARK H PARENT 23 18
ROOT
ATOM      1  C   UNL     1      -1.531   0.059  -1.705  1.00  0.00     0.168 A 
ATOM      2  N   UNL     1      -2.097   0.332  -2.869  1.00  0.00    -0.129 NA
ATOM      3  N   UNL     1      -1.115   0.659  -3.774  1.00  0.00    -0.130 NA
ATOM      4  C   UNL     1       0.035   0.615  -3.143  1.00  0.00     0.161 A 
ATOM      5  C   UNL     1       1.367   0.861  -3.561  1.00  0.00     0.050 A 
ATOM      6  C   UNL     1       2.369   0.782  -2.665  1.00  0.00     0.014 A 
ATOM      7  C   UNL     1       2.144   0.454  -1.247  1.00  0.00     0.002 A 
ATOM      8  C   UNL     1       0.866   0.203  -0.880  1.00  0.00     0.103 A 
ATOM      9  N   UNL     1      -0.166   0.268  -1.817  1.00  0.00    -0.282 N 
ENDROOT
BRANCH   1  10
ATOM     10  C   UNL     1      -2.244  -0.349  -0.496  1.00  0.00     0.020 A 
ATOM     11  C   UNL     1      -4.096   0.017   1.067  1.00  0.00    -0.009 A 
ATOM     12  C   UNL     1      -3.377   0.372  -0.088  1.00  0.00     0.019 A 
ATOM     13  C   UNL     1      -3.662  -1.092   1.800  1.00  0.00     0.118 A 
ATOM     14  C   UNL     1      -2.551  -1.830   1.397  1.00  0.00     0.047 A 
ATOM     15  C   UNL     1      -1.847  -1.466   0.249  1.00  0.00     0.016 A 
ATOM     16  C   UNL     1      -5.297   0.825   1.463  1.00  0.00     0.048 C 
BRANCH  13  17
ATOM     17  O   UNL     1      -4.288  -1.525   2.933  1.00  0.00    -0.508 OA
ATOM     18  H   UNL     1      -5.085  -0.993   3.084  1.00  0.00     0.293 HD
ENDBRANCH  13  17
ENDBRANCH   1  10
BRANCH   7  19
ATOM     19  C   UNL     1       3.238   0.412  -0.320  1.00  0.00     0.021 A 
ATOM     20  C   UNL     1       4.498   1.047  -0.399  1.00  0.00     0.143 A 
ATOM     21  C   UNL     1       3.285  -0.277   0.875  1.00  0.00     0.117 A 
ATOM     22  N   UNL     1       5.278   0.778   0.652  1.00  0.00    -0.181 NA
ATOM     23  N   UNL     1       4.516  -0.028   1.412  1.00  0.00    -0.275 N 
ATOM     24  C   UNL     1       5.040  -0.532   2.658  1.00  0.00     0.173 C 
ENDBRANCH   7  19
TORSDOF 3
