REMARK SMILES NC(=O)c1cc2cnc(-n3cc(-c4cccc(N)c4)nn3)n(CC3CC3)c(=O)c-2c1O
REMARK SMILES IDX 10 1 11 2 12 3 20 4 21 5 9 6 4 7 5 8 30 9 6 10 29 11 7 12
REMARK SMILES IDX 27 13 8 14 22 15 28 16 2 17 1 18 3 21 31 22 23 24 24 25
REMARK SMILES IDX 25 26 26 27 13 28 14 29 19 30 15 31 17 32 16 33 18 34
REMARK H PARENT 1 19 1 20 31 23 18 35 18 36
ROOT
ATOM      1  N   UNL     1      -1.137   0.241   0.244  1.00  0.00    -0.186 N 
ATOM      2  C   UNL     1      -2.167   0.866  -0.434  1.00  0.00     0.149 A 
ATOM      3  C   UNL     1      -3.236   0.834   0.429  1.00  0.00     0.113 A 
ATOM      4  N   UNL     1      -2.843   0.236   1.596  1.00  0.00    -0.130 NA
ATOM      5  N   UNL     1      -1.563  -0.092   1.489  1.00  0.00    -0.059 NA
ENDROOT
BRANCH   1   6
ATOM      6  C   UNL     1       0.205   0.067  -0.191  1.00  0.00     0.235 A 
ATOM      7  C   UNL     1       5.182   0.703  -0.684  1.00  0.00     0.082 A 
ATOM      8  C   UNL     1       4.300   0.824  -1.696  1.00  0.00     0.028 A 
ATOM      9  C   UNL     1       4.464   0.331   0.522  1.00  0.00     0.141 A 
ATOM     10  C   UNL     1       2.981   0.579  -1.131  1.00  0.00     0.010 A 
ATOM     11  C   UNL     1       3.148   0.235   0.258  1.00  0.00     0.091 A 
ATOM     12  C   UNL     1       1.821   0.732  -1.773  1.00  0.00     0.124 A 
ATOM     13  C   UNL     1       2.164  -0.358   1.170  1.00  0.00     0.265 A 
ATOM     14  N   UNL     1       0.562   0.732  -1.247  1.00  0.00    -0.220 NA
ATOM     15  N   UNL     1       0.974  -0.789   0.602  1.00  0.00    -0.276 N 
ATOM     16  O   UNL     1       2.473  -0.527   2.351  1.00  0.00    -0.268 OA
BRANCH   7  17
ATOM     17  C   UNL     1       6.629   0.964  -0.794  1.00  0.00     0.252 C 
ATOM     18  N   UNL     1       7.233   0.385  -1.872  1.00  0.00    -0.365 N 
ATOM     19  H   UNL     1       8.242   0.453  -1.906  1.00  0.00     0.159 HD
ATOM     20  H   UNL     1       6.782  -0.334  -2.418  1.00  0.00     0.159 HD
ATOM     21  O   UNL     1       7.260   1.641   0.004  1.00  0.00    -0.269 OA
ENDBRANCH   7  17
BRANCH   9  22
ATOM     22  O   UNL     1       5.126  -0.004   1.664  1.00  0.00    -0.506 OA
ATOM     23  H   UNL     1       4.451  -0.212   2.345  1.00  0.00     0.293 HD
ENDBRANCH   9  22
BRANCH  15  24
ATOM     24  C   UNL     1       0.404  -2.000   1.206  1.00  0.00     0.132 C 
BRANCH  24  25
ATOM     25  C   UNL     1       1.258  -3.193   0.852  1.00  0.00     0.009 C 
ATOM     26  C   UNL     1       1.050  -4.502   1.573  1.00  0.00     0.006 C 
ATOM     27  C   UNL     1       2.307  -3.713   1.803  1.00  0.00     0.006 C 
ENDBRANCH  24  25
ENDBRANCH  15  24
ENDBRANCH   1   6
BRANCH   3  28
ATOM     28  C   UNL     1      -4.575   1.348   0.196  1.00  0.00     0.006 A 
ATOM     29  C   UNL     1      -5.495   1.381   1.253  1.00  0.00     0.010 A 
ATOM     30  C   UNL     1      -4.987   1.803  -1.068  1.00  0.00     0.036 A 
ATOM     31  C   UNL     1      -6.796   1.838   1.047  1.00  0.00     0.003 A 
ATOM     32  C   UNL     1      -6.272   2.321  -1.269  1.00  0.00     0.032 A 
ATOM     33  C   UNL     1      -7.186   2.284  -0.215  1.00  0.00     0.025 A 
BRANCH  32  34
ATOM     34  N   UNL     1      -6.701   2.659  -2.560  1.00  0.00    -0.399 N 
ATOM     35  H   UNL     1      -5.956   2.971  -3.174  1.00  0.00     0.156 HD
ATOM     36  H   UNL     1      -7.497   3.289  -2.573  1.00  0.00     0.156 HD
ENDBRANCH  32  34
ENDBRANCH   3  28
TORSDOF 7
