REMARK SMILES CCC=C(O)c1c(NC(=O)NC)cnc(-c2cccc(O)c2)c1C
REMARK SMILES IDX 6 1 7 2 13 3 14 4 15 5 23 6 24 7 4 8 3 9 2 10 1 11 5 12 8 14
REMARK SMILES IDX 9 15 11 16 10 18 12 19 16 21 17 22 22 23 18 24 20 25 19 26
REMARK SMILES IDX 21 27
REMARK H PARENT 5 13 8 17 11 20 21 28
ROOT
ATOM      1  C   UNL     1       0.415  -0.051  -0.456  1.00  0.00     0.046 A 
ATOM      2  C   UNL     1       0.955  -1.055   0.380  1.00  0.00     0.072 A 
ATOM      3  C   UNL     1       0.059  -1.920   0.994  1.00  0.00     0.138 A 
ATOM      4  N   UNL     1      -1.284  -1.870   0.831  1.00  0.00    -0.254 NA
ATOM      5  C   UNL     1      -1.786  -0.936  -0.009  1.00  0.00     0.074 A 
ATOM      6  C   UNL     1      -0.982  -0.013  -0.695  1.00  0.00    -0.012 A 
ATOM      7  C   UNL     1      -1.602   1.011  -1.611  1.00  0.00     0.047 C 
ENDROOT
BRANCH   1   8
ATOM      8  C   UNL     1       1.312   0.970  -1.052  1.00  0.00     0.121 C 
BRANCH   8   9
ATOM      9  C   UNL     1       1.253   2.258  -0.671  1.00  0.00     0.019 C 
BRANCH   9  10
ATOM     10  C   UNL     1       2.115   3.398  -1.130  1.00  0.00     0.028 C 
ATOM     11  C   UNL     1       2.931   3.966   0.022  1.00  0.00     0.008 C 
ENDBRANCH   9  10
ENDBRANCH   8   9
BRANCH   8  12
ATOM     12  O   UNL     1       2.230   0.464  -1.939  1.00  0.00    -0.508 OA
ATOM     13  H   UNL     1       2.610   1.195  -2.452  1.00  0.00     0.293 HD
ENDBRANCH   8  12
ENDBRANCH   1   8
BRANCH   2  14
ATOM     14  N   UNL     1       2.359  -1.130   0.559  1.00  0.00    -0.306 N 
ATOM     15  C   UNL     1       3.070  -2.074   1.259  1.00  0.00     0.319 C 
ATOM     16  N   UNL     1       4.422  -1.794   1.222  1.00  0.00    -0.341 N 
ATOM     17  H   UNL     1       2.902  -0.541  -0.059  1.00  0.00     0.171 HD
ATOM     18  O   UNL     1       2.613  -3.044   1.848  1.00  0.00    -0.249 OA
ATOM     19  C   UNL     1       5.341  -2.629   1.955  1.00  0.00     0.144 C 
ATOM     20  H   UNL     1       4.652  -0.813   1.167  1.00  0.00     0.165 HD
ENDBRANCH   2  14
BRANCH   5  21
ATOM     21  C   UNL     1      -3.249  -0.971  -0.115  1.00  0.00     0.004 A 
ATOM     22  C   UNL     1      -3.880  -1.740  -1.108  1.00  0.00     0.010 A 
ATOM     23  C   UNL     1      -4.047  -0.244   0.782  1.00  0.00     0.056 A 
ATOM     24  C   UNL     1      -5.272  -1.758  -1.220  1.00  0.00     0.005 A 
ATOM     25  C   UNL     1      -5.434  -0.274   0.665  1.00  0.00     0.116 A 
ATOM     26  C   UNL     1      -6.050  -1.018  -0.334  1.00  0.00     0.046 A 
BRANCH  25  27
ATOM     27  O   UNL     1      -6.234   0.421   1.523  1.00  0.00    -0.508 OA
ATOM     28  H   UNL     1      -5.678   0.791   2.229  1.00  0.00     0.293 HD
ENDBRANCH  25  27
ENDBRANCH   5  21
TORSDOF 7
