MODEL        7USER    Run = 7USERUSER    Estimated Free Energy of Binding    =  -8.24 kcal/mol  [=(1)+(2)+(3)-(4)]USERUSER    (1) Final Intermolecular Energy     = -10.03 kcal/molUSER        vdW + Hbond + desolv Energy     =  -9.59 kcal/molUSER        Electrostatic Energy            =  -0.44 kcal/molUSER        Moving Ligand-Fixed Receptor    = -10.03 kcal/molUSER        Moving Ligand-Moving Receptor   =  +0.00 kcal/molUSER    (2) Final Total Internal Energy     =  -1.63 kcal/molUSER    (3) Torsional Free Energy           =  +1.79 kcal/molUSER    (4) Unbound System's Energy         =  -1.63 kcal/molUSERUSERREMARK SMILES Cc1cc(-n2nnc(C(=O)Nc3cccnc3)c2N)ccc1C(=O)OREMARK SMILES IDX 1 1 2 2 3 3 4 4 20 5 21 6 22 7 23 8 24 9 25 10 5 12 6 13REMARK SMILES IDX 18 14 7 15 8 16 19 17 9 20 11 21 10 22 12 24 13 25 17 26REMARK SMILES IDX 14 27 16 28 15 29REMARK H PARENT 25 11 19 18 19 19 11 23USER                              x       y       z     vdW  Elec       q    TypeUSER                           _______ _______ _______ _____ _____    ______ ____ROOTATOM      1  C   UNL     1      39.354  48.486  14.599 -0.57 -0.02    +0.045 C  ATOM      2  C   UNL     1      39.015  47.532  15.713 -0.46 +0.01    -0.034 A  ATOM      3  C   UNL     1      37.832  46.770  15.604 -0.38 -0.02    +0.032 A  ATOM      4  C   UNL     1      37.443  45.867  16.609 -0.32 -0.03    +0.069 A  ATOM      5  C   UNL     1      38.269  45.702  17.723 -0.37 -0.01    +0.029 A  ATOM      6  C   UNL     1      39.446  46.450  17.842 -0.42 -0.00    +0.018 A  ATOM      7  C   UNL     1      39.830  47.370  16.852 -0.45 -0.02    +0.062 A  ENDROOTBRANCH   7   8ATOM      8  C   UNL     1      41.099  48.143  17.019 -0.31 -0.04    +0.335 C  ATOM      9  O   UNL     1      41.435  49.150  16.428 -1.08 -0.00    -0.246 OA BRANCH   8  10ATOM     10  O   UNL     1      41.909  47.607  17.953 -0.30 +0.03    -0.478 OA ATOM     11  H   UNL     1      42.516  47.040  17.432 -0.35 -0.11    +0.297 HD ENDBRANCH   8  10ENDBRANCH   7   8BRANCH   4  12ATOM     12  N   UNL     1      36.238  45.124  16.449 -0.20 +0.09    -0.197 N  ATOM     13  N   UNL     1      36.267  43.893  15.864 -0.37 +0.02    -0.059 NA ATOM     14  C   UNL     1      34.921  45.420  16.822 -0.22 -0.11    +0.161 A  ATOM     15  N   UNL     1      35.070  43.339  15.969 -0.34 +0.05    -0.122 NA ATOM     16  C   UNL     1      34.226  44.251  16.549 -0.18 -0.10    +0.194 A  BRANCH  14  17ATOM     17  N   UNL     1      34.471  46.615  17.306 +0.02 +0.50    -0.382 N  ATOM     18  H   UNL     1      33.452  46.717  17.376 -0.38 -0.25    +0.158 HD ATOM     19  H   UNL     1      34.883  47.476  16.947 -0.19 -0.35    +0.158 HD ENDBRANCH  14  17BRANCH  16  20ATOM     20  C   UNL     1      32.807  43.981  16.761 -0.18 -0.12    +0.280 C  ATOM     21  N   UNL     1      32.461  42.693  16.393 -0.10 +0.16    -0.319 N  ATOM     22  O   UNL     1      32.049  44.837  17.206 -0.47 +0.07    -0.267 OA ATOM     23  H   UNL     1      33.225  42.130  16.030 -0.49 -0.12    +0.170 HD BRANCH  21  24ATOM     24  C   UNL     1      31.192  42.086  16.457 -0.23 -0.03    +0.060 A  ATOM     25  C   UNL     1      30.049  42.574  15.830 -0.29 -0.01    +0.029 A  ATOM     26  C   UNL     1      31.052  40.912  17.198 -0.24 -0.04    +0.137 A  ATOM     27  C   UNL     1      28.839  41.891  15.963 -0.28 -0.01    +0.022 A  ATOM     28  N   UNL     1      29.893  40.224  17.345 -0.19 +0.00    -0.263 NA ATOM     29  C   UNL     1      28.811  40.732  16.721 -0.26 -0.01    +0.111 A  ENDBRANCH  21  24ENDBRANCH  16  20ENDBRANCH   4  12TORSDOF 6TERENDMDL