MODEL        1USER    Run = 1USERUSER    Estimated Free Energy of Binding    =  -7.54 kcal/mol  [=(1)+(2)+(3)-(4)]USERUSER    (1) Final Intermolecular Energy     =  -9.63 kcal/molUSER        vdW + Hbond + desolv Energy     =  -9.42 kcal/molUSER        Electrostatic Energy            =  -0.20 kcal/molUSER        Moving Ligand-Fixed Receptor    =  -9.63 kcal/molUSER        Moving Ligand-Moving Receptor   =  +0.00 kcal/molUSER    (2) Final Total Internal Energy     =  -0.80 kcal/molUSER    (3) Torsional Free Energy           =  +2.09 kcal/molUSER    (4) Unbound System's Energy         =  -0.80 kcal/molUSERUSERREMARK SMILES CCC=C(O)c1c(NC(=O)NC)cnc(-c2cccc(O)c2)c1CREMARK SMILES IDX 6 1 7 2 13 3 14 4 15 5 23 6 24 7 4 8 3 9 2 10 1 11 5 12 8 14REMARK SMILES IDX 9 15 11 16 10 18 12 19 16 21 17 22 22 23 18 24 20 25 19 26REMARK SMILES IDX 21 27REMARK H PARENT 5 13 8 17 11 20 21 28USER                              x       y       z     vdW  Elec       q    TypeUSER                           _______ _______ _______ _____ _____    ______ ____ROOTATOM      1  C   UNL     1      35.490  43.900  17.283 -0.29 -0.02    +0.046 A  ATOM      2  C   UNL     1      34.767  44.062  16.079 -0.29 -0.03    +0.072 A  ATOM      3  C   UNL     1      35.276  44.959  15.149 -0.20 -0.08    +0.138 A  ATOM      4  N   UNL     1      36.417  45.668  15.317 -0.18 +0.14    -0.254 NA ATOM      5  C   UNL     1      37.126  45.469  16.452 -0.31 -0.03    +0.074 A  ATOM      6  C   UNL     1      36.720  44.582  17.461 -0.33 +0.00    -0.012 A  ATOM      7  C   UNL     1      37.549  44.410  18.708 -0.38 -0.01    +0.047 C  ENDROOTBRANCH   1   8ATOM      8  C   UNL     1      34.940  43.040  18.361 -0.34 -0.03    +0.121 C  BRANCH   8   9ATOM      9  C   UNL     1      34.048  43.517  19.246 -0.45 -0.00    +0.019 C  BRANCH   9  10ATOM     10  C   UNL     1      32.617  43.103  19.431 -0.45 -0.00    +0.028 C  ATOM     11  C   UNL     1      32.396  41.672  18.962 -0.43 -0.00    +0.008 C  ENDBRANCH   9  10ENDBRANCH   8   9BRANCH   8  12ATOM     12  O   UNL     1      35.359  41.734  18.308 -0.34 +0.12    -0.508 OA ATOM     13  H   UNL     1      35.070  41.343  17.468 -0.32 -0.16    +0.293 HD ENDBRANCH   8  12ENDBRANCH   1   8BRANCH   2  14ATOM     14  N   UNL     1      33.574  43.324  15.880 -0.14 +0.15    -0.306 N  ATOM     15  C   UNL     1      32.281  43.741  16.085 -0.17 -0.15    +0.319 C  ATOM     16  N   UNL     1      31.390  42.725  15.799 -0.14 +0.18    -0.341 N  ATOM     17  H   UNL     1      33.681  42.474  15.342 -0.37 -0.10    +0.171 HD ATOM     18  O   UNL     1      31.922  44.846  16.467 -0.51 +0.10    -0.249 OA ATOM     19  C   UNL     1      29.980  42.936  16.015 -0.26 -0.07    +0.144 C  ATOM     20  H   UNL     1      31.737  41.793  15.971 -0.44 -0.12    +0.165 HD ENDBRANCH   2  14BRANCH   5  21ATOM     21  C   UNL     1      38.344  46.283  16.531 -0.39 -0.00    +0.004 A  ATOM     22  C   UNL     1      38.396  47.558  15.942 -0.44 -0.00    +0.010 A  ATOM     23  C   UNL     1      39.478  45.807  17.207 -0.37 -0.01    +0.056 A  ATOM     24  C   UNL     1      39.562  48.325  16.002 -0.51 -0.00    +0.005 A  ATOM     25  C   UNL     1      40.633  46.582  17.266 -0.41 -0.01    +0.116 A  ATOM     26  C   UNL     1      40.685  47.832  16.661 -0.51 -0.01    +0.046 A  BRANCH  25  27ATOM     27  O   UNL     1      41.748  46.145  17.917 -0.13 +0.02    -0.508 OA ATOM     28  H   UNL     1      42.508  46.665  17.605 -0.32 -0.08    +0.293 HD ENDBRANCH  25  27ENDBRANCH   5  21TORSDOF 7TERENDMDL