REMARK SMILES CC(C)c1nnc2ccc(-c3ccc(Nc4cccnc4)cc3)cn12
REMARK SMILES IDX 4 1 5 2 6 3 7 4 8 5 9 6 10 7 24 8 25 9 2 10 1 11 3 12 11 13
REMARK SMILES IDX 12 14 23 15 13 16 22 17 14 18 15 19 16 21 17 22 21 23 18 24
REMARK SMILES IDX 20 25 19 26
REMARK H PARENT 15 20
ROOT
ATOM      1  C   UNL     1      -4.463  -0.167   0.651  1.00  0.00     0.139 A 
ATOM      2  N   UNL     1      -5.581  -0.857   0.513  1.00  0.00    -0.134 NA
ATOM      3  N   UNL     1      -5.264  -2.119   0.070  1.00  0.00    -0.130 NA
ATOM      4  C   UNL     1      -3.959  -2.180  -0.065  1.00  0.00     0.160 A 
ATOM      5  C   UNL     1      -3.084  -3.216  -0.487  1.00  0.00     0.050 A 
ATOM      6  C   UNL     1      -1.758  -2.984  -0.537  1.00  0.00     0.014 A 
ATOM      7  C   UNL     1      -1.183  -1.687  -0.170  1.00  0.00    -0.001 A 
ATOM      8  C   UNL     1      -2.024  -0.711   0.233  1.00  0.00     0.103 A 
ATOM      9  N   UNL     1      -3.395  -0.963   0.285  1.00  0.00    -0.286 N 
ENDROOT
BRANCH   1  10
ATOM     10  C   UNL     1      -4.347   1.254   1.110  1.00  0.00     0.052 C 
ATOM     11  C   UNL     1      -5.442   1.598   2.122  1.00  0.00     0.016 C 
ATOM     12  C   UNL     1      -4.409   2.205  -0.085  1.00  0.00     0.016 C 
ENDBRANCH   1  10
BRANCH   7  13
ATOM     13  C   UNL     1       0.261  -1.410  -0.212  1.00  0.00    -0.017 A 
ATOM     14  C   UNL     1       1.117  -1.992   0.726  1.00  0.00     0.011 A 
ATOM     15  C   UNL     1       0.799  -0.573  -1.195  1.00  0.00     0.011 A 
ATOM     16  C   UNL     1       2.491  -1.733   0.684  1.00  0.00     0.026 A 
ATOM     17  C   UNL     1       2.175  -0.318  -1.230  1.00  0.00     0.026 A 
ATOM     18  C   UNL     1       3.042  -0.896  -0.297  1.00  0.00     0.038 A 
BRANCH  18  19
ATOM     19  N   UNL     1       4.423  -0.638  -0.272  1.00  0.00    -0.354 N 
ATOM     20  H   UNL     1       4.972  -1.375   0.157  1.00  0.00     0.167 HD
BRANCH  19  21
ATOM     21  C   UNL     1       5.183   0.452  -0.724  1.00  0.00     0.057 A 
ATOM     22  C   UNL     1       4.668   1.739  -0.886  1.00  0.00     0.029 A 
ATOM     23  C   UNL     1       6.520   0.278  -1.094  1.00  0.00     0.137 A 
ATOM     24  C   UNL     1       5.474   2.767  -1.375  1.00  0.00     0.022 A 
ATOM     25  N   UNL     1       7.334   1.252  -1.571  1.00  0.00    -0.263 NA
ATOM     26  C   UNL     1       6.787   2.478  -1.700  1.00  0.00     0.111 A 
ENDBRANCH  19  21
ENDBRANCH  18  19
ENDBRANCH   7  13
TORSDOF 4
