MODEL        6USER    Run = 6USERUSER    Estimated Free Energy of Binding    =  -9.12 kcal/mol  [=(1)+(2)+(3)-(4)]USERUSER    (1) Final Intermolecular Energy     = -11.21 kcal/molUSER        vdW + Hbond + desolv Energy     = -10.99 kcal/molUSER        Electrostatic Energy            =  -0.22 kcal/molUSER        Moving Ligand-Fixed Receptor    = -11.21 kcal/molUSER        Moving Ligand-Moving Receptor   =  +0.00 kcal/molUSER    (2) Final Total Internal Energy     =  -2.34 kcal/molUSER    (3) Torsional Free Energy           =  +2.09 kcal/molUSER    (4) Unbound System's Energy         =  -2.34 kcal/molUSERUSERREMARK SMILES CCOC=C1C=C(C(=O)Nc2cnccc2N2CCNC[C@@H]2C)CC=C1C(N)=OREMARK SMILES IDX 5 1 6 2 7 3 24 4 25 5 26 6 4 7 3 8 2 9 1 10 27 11 28 12REMARK SMILES IDX 29 13 8 16 10 17 9 18 11 20 12 21 16 22 13 23 15 24 14 25REMARK SMILES IDX 17 26 18 27 22 28 19 29 21 30 20 31 23 32REMARK H PARENT 28 14 28 15 10 19 20 33USER                              x       y       z     vdW  Elec       q    TypeUSER                           _______ _______ _______ _____ _____    ______ ____ROOTATOM      1  C   UNL     1      37.932  46.508  15.124 -0.45 -0.01    +0.022 C  ATOM      2  C   UNL     1      38.970  46.842  16.107 -0.48 -0.01    +0.021 C  ATOM      3  C   UNL     1      39.747  47.932  15.957 -0.58 -0.01    +0.022 C  ATOM      4  C   UNL     1      39.595  48.876  14.795 -0.47 -0.03    +0.069 C  ATOM      5  C   UNL     1      38.494  48.502  13.840 -0.47 +0.00    -0.008 C  ATOM      6  C   UNL     1      37.703  47.421  13.994 -0.54 -0.02    +0.046 C  ENDROOTBRANCH   1   7ATOM      7  C   UNL     1      37.299  45.331  15.301 -0.29 -0.08    +0.195 C  BRANCH   7   8ATOM      8  O   UNL     1      36.024  45.178  15.776 -0.03 +0.26    -0.501 OA BRANCH   8   9ATOM      9  C   UNL     1      35.657  46.252  16.647 -0.26 -0.19    +0.225 C  ATOM     10  C   UNL     1      35.213  45.658  17.970 -0.42 -0.03    +0.049 C  ENDBRANCH   8   9ENDBRANCH   7   8ENDBRANCH   1   7BRANCH   6  11ATOM     11  C   UNL     1      36.657  47.274  12.941 -0.49 -0.11    +0.249 C  ATOM     12  N   UNL     1      35.399  47.015  13.394 -0.24 +0.27    -0.366 N  ATOM     13  O   UNL     1      36.882  47.458  11.751 -1.02 +0.09    -0.270 OA ATOM     14  H   UNL     1      35.291  46.578  14.300 +0.11 -0.14    +0.159 HD ATOM     15  H   UNL     1      34.727  46.768  12.682 -0.24 -0.13    +0.159 HD ENDBRANCH   6  11BRANCH   3  16ATOM     16  C   UNL     1      40.856  48.116  16.949 -0.38 -0.04    +0.252 C  ATOM     17  N   UNL     1      41.049  47.050  17.788 -0.30 +0.03    -0.319 N  ATOM     18  O   UNL     1      41.511  49.153  16.958 -0.97 -0.02    -0.269 OA ATOM     19  H   UNL     1      40.558  46.178  17.641 +0.11 -0.01    +0.170 HD BRANCH  17  20ATOM     20  C   UNL     1      41.916  46.980  18.902 -0.47 +0.00    +0.083 A  ATOM     21  C   UNL     1      43.253  47.364  18.898 -0.36 +0.03    +0.139 A  ATOM     22  C   UNL     1      41.347  46.550  20.120 -0.19 +0.01    +0.064 A  ATOM     23  N   UNL     1      44.042  47.368  20.001 -0.25 -0.14    -0.262 NA ATOM     24  C   UNL     1      42.150  46.565  21.265 -0.31 +0.01    +0.048 A  ATOM     25  C   UNL     1      43.470  46.974  21.155 -0.31 +0.04    +0.113 A  BRANCH  22  26ATOM     26  N   UNL     1      40.015  46.084  20.143 -0.06 -0.01    -0.365 N  ATOM     27  C   UNL     1      39.394  45.883  21.471 -0.20 +0.01    +0.132 C  ATOM     28  C   UNL     1      39.655  45.074  19.094 -0.41 -0.00    +0.093 C  ATOM     29  C   UNL     1      39.055  44.406  21.755 -0.30 +0.00    +0.102 C  ATOM     30  C   UNL     1      38.282  44.430  19.440 -0.35 -0.01    +0.105 C  ATOM     31  N   UNL     1      38.227  43.734  20.739 -0.12 -0.00    -0.313 NA ATOM     32  C   UNL     1      40.715  43.988  18.872 -0.31 +0.00    +0.032 C  ATOM     33  H   UNL     1      37.256  43.701  21.051 +0.07 +0.00    +0.122 HD ENDBRANCH  22  26ENDBRANCH  17  20ENDBRANCH   3  16TORSDOF 7TERENDMDL