REMARK SMILES CCc1cc(O)ccc1/C=C/C(=O)/C=C/C1=Nc2nc(NC)ccc21
REMARK SMILES IDX 12 1 13 2 11 3 10 4 9 5 3 6 4 7 5 8 8 9 7 10 2 11 1 12 6 13
REMARK SMILES IDX 14 15 15 16 16 17 17 18 25 19 18 20 24 21 19 22 23 23 20 24
REMARK SMILES IDX 21 25 22 26
REMARK H PARENT 6 14 21 27
ROOT
ATOM      1  C   UNL     1      -0.572  -1.310   0.004  1.00  0.00     0.178 C 
ATOM      2  O   UNL     1      -0.730  -2.432   0.470  1.00  0.00    -0.290 OA
ENDROOT
BRANCH   1   3
ATOM      3  C   UNL     1      -1.676  -0.522  -0.597  1.00  0.00     0.052 C 
BRANCH   3   4
ATOM      4  C   UNL     1      -2.924  -1.012  -0.585  1.00  0.00     0.012 C 
BRANCH   4   5
ATOM      5  C   UNL     1      -4.048  -0.263  -1.157  1.00  0.00    -0.022 A 
ATOM      6  C   UNL     1      -5.037   0.329  -0.346  1.00  0.00    -0.037 A 
ATOM      7  C   UNL     1      -6.094   1.029  -0.959  1.00  0.00     0.050 A 
ATOM      8  C   UNL     1      -6.153   1.138  -2.345  1.00  0.00     0.115 A 
ATOM      9  C   UNL     1      -4.130  -0.142  -2.554  1.00  0.00     0.012 A 
ATOM     10  C   UNL     1      -5.180   0.558  -3.145  1.00  0.00     0.047 A 
BRANCH   6  11
ATOM     11  C   UNL     1      -5.025   0.220   1.163  1.00  0.00     0.033 C 
ATOM     12  C   UNL     1      -5.809  -0.990   1.649  1.00  0.00     0.009 C 
ENDBRANCH   6  11
BRANCH   8  13
ATOM     13  O   UNL     1      -7.163   1.814  -2.963  1.00  0.00    -0.508 OA
ATOM     14  H   UNL     1      -7.766   2.160  -2.285  1.00  0.00     0.293 HD
ENDBRANCH   8  13
ENDBRANCH   4   5
ENDBRANCH   3   4
ENDBRANCH   1   3
BRANCH   1  15
ATOM     15  C   UNL     1       0.746  -0.629   0.003  1.00  0.00     0.054 C 
BRANCH  15  16
ATOM     16  C   UNL     1       1.822  -1.298   0.436  1.00  0.00     0.033 C 
BRANCH  16  17
ATOM     17  C   UNL     1       3.088  -0.600   0.432  1.00  0.00     0.077 C 
ATOM     18  N   UNL     1       3.533   0.585   0.166  1.00  0.00    -0.228 NA
ATOM     19  C   UNL     1       4.367  -1.088   0.770  1.00  0.00     0.045 A 
ATOM     20  C   UNL     1       4.811   0.156   0.497  1.00  0.00     0.164 A 
ATOM     21  C   UNL     1       5.225  -2.057   1.173  1.00  0.00     0.018 A 
ATOM     22  N   UNL     1       6.037   0.640   0.551  1.00  0.00    -0.211 NA
ATOM     23  C   UNL     1       6.561  -1.634   1.266  1.00  0.00     0.047 A 
ATOM     24  C   UNL     1       6.936  -0.294   0.945  1.00  0.00     0.128 A 
BRANCH  24  25
ATOM     25  N   UNL     1       8.295   0.040   1.100  1.00  0.00    -0.373 N 
ATOM     26  C   UNL     1       8.614   1.416   0.749  1.00  0.00     0.141 C 
ATOM     27  H   UNL     1       8.862  -0.622   0.578  1.00  0.00     0.161 HD
ENDBRANCH  24  25
ENDBRANCH  16  17
ENDBRANCH  15  16
ENDBRANCH   1  15
TORSDOF 9
