MODEL        9USER    Run = 9USERUSER    Estimated Free Energy of Binding    =  -9.44 kcal/mol  [=(1)+(2)+(3)-(4)]USERUSER    (1) Final Intermolecular Energy     = -12.12 kcal/molUSER        vdW + Hbond + desolv Energy     = -11.81 kcal/molUSER        Electrostatic Energy            =  -0.31 kcal/molUSER        Moving Ligand-Fixed Receptor    = -12.12 kcal/molUSER        Moving Ligand-Moving Receptor   =  +0.00 kcal/molUSER    (2) Final Total Internal Energy     =  -0.81 kcal/molUSER    (3) Torsional Free Energy           =  +2.68 kcal/molUSER    (4) Unbound System's Energy         =  -0.81 kcal/molUSERUSERREMARK SMILES CCc1cc(O)ccc1/C=C/C(=O)/C=C/C1=Nc2nc(NC)ccc21REMARK SMILES IDX 12 1 13 2 11 3 10 4 9 5 3 6 4 7 5 8 8 9 7 10 2 11 1 12 6 13REMARK SMILES IDX 14 15 15 16 16 17 17 18 25 19 18 20 24 21 19 22 23 23 20 24REMARK SMILES IDX 21 25 22 26REMARK H PARENT 6 14 21 27USER                              x       y       z     vdW  Elec       q    TypeUSER                           _______ _______ _______ _____ _____    ______ ____ROOTATOM      1  C   UNL     1      37.068  47.760  13.761 -0.48 -0.09    +0.178 C  ATOM      2  O   UNL     1      36.948  47.725  12.543 -1.03 +0.09    -0.290 OA ENDROOTBRANCH   1   3ATOM      3  C   UNL     1      36.161  47.035  14.684 -0.42 -0.04    +0.052 C  BRANCH   3   4ATOM      4  C   UNL     1      35.559  45.909  14.275 -0.47 -0.01    +0.012 C  BRANCH   4   5ATOM      5  C   UNL     1      35.277  44.809  15.203 -0.27 +0.01    -0.022 A  ATOM      6  C   UNL     1      33.982  44.577  15.709 -0.28 +0.02    -0.037 A  ATOM      7  C   UNL     1      33.780  43.507  16.602 -0.31 -0.02    +0.050 A  ATOM      8  C   UNL     1      34.844  42.690  16.972 -0.34 -0.04    +0.115 A  ATOM      9  C   UNL     1      36.336  43.973  15.592 -0.39 -0.00    +0.012 A  ATOM     10  C   UNL     1      36.118  42.916  16.474 -0.36 -0.02    +0.047 A  BRANCH   6  11ATOM     11  C   UNL     1      32.799  45.450  15.351 -0.38 -0.03    +0.033 C  ATOM     12  C   UNL     1      31.570  44.623  15.004 -0.45 -0.01    +0.009 C  ENDBRANCH   6  11BRANCH   8  13ATOM     13  O   UNL     1      34.674  41.645  17.831 -0.22 +0.18    -0.508 OA ATOM     14  H   UNL     1      34.659  40.821  17.319 -0.37 -0.24    +0.293 HD ENDBRANCH   8  13ENDBRANCH   4   5ENDBRANCH   3   4ENDBRANCH   1   3BRANCH   1  15ATOM     15  C   UNL     1      38.144  48.532  14.431 -0.54 -0.03    +0.054 C  BRANCH  15  16ATOM     16  C   UNL     1      39.413  48.123  14.301 -0.50 -0.01    +0.033 C  BRANCH  16  17ATOM     17  C   UNL     1      40.304  48.349  15.417 -0.58 -0.02    +0.077 C  ATOM     18  N   UNL     1      41.062  49.295  15.867 -0.72 +0.03    -0.228 NA ATOM     19  C   UNL     1      40.635  47.477  16.474 -0.49 -0.01    +0.045 A  ATOM     20  C   UNL     1      41.413  48.479  16.933 -0.31 -0.00    +0.164 A  ATOM     21  C   UNL     1      40.556  46.299  17.141 -0.46 -0.00    +0.018 A  ATOM     22  N   UNL     1      42.182  48.521  18.004 -0.47 -0.01    -0.211 NA ATOM     23  C   UNL     1      41.341  46.249  18.305 -0.47 -0.00    +0.047 A  ATOM     24  C   UNL     1      42.142  47.362  18.705 -0.46 +0.00    +0.128 A  BRANCH  24  25ATOM     25  N   UNL     1      42.869  47.223  19.903 -0.26 -0.07    -0.373 N  ATOM     26  C   UNL     1      42.125  46.591  20.981 -0.31 +0.02    +0.141 C  ATOM     27  H   UNL     1      43.232  48.132  20.178 -0.47 -0.02    +0.161 HD ENDBRANCH  24  25ENDBRANCH  16  17ENDBRANCH  15  16ENDBRANCH   1  15TORSDOF 9TERENDMDL