REMARK SMILES CC1(C)C=CC=C(NC(=O)Nc2cccc(F)c2Cl)[C@H]1N
REMARK SMILES IDX 1 1 2 2 3 3 4 4 5 5 6 6 7 7 20 8 21 9 8 12 9 13 11 14 10 16
REMARK SMILES IDX 12 18 13 19 18 20 14 21 16 22 15 23 19 24 17 25
REMARK H PARENT 21 10 21 11 8 15 11 17
ROOT
ATOM      1  C   UNL     1      -4.671  -1.440   0.423  1.00  0.00     0.017 C 
ATOM      2  C   UNL     1      -3.620  -0.365   0.087  1.00  0.00     0.004 C 
ATOM      3  C   UNL     1      -3.832   0.839   1.029  1.00  0.00     0.017 C 
ATOM      4  C   UNL     1      -3.855   0.135  -1.334  1.00  0.00    -0.019 C 
ATOM      5  C   UNL     1      -2.842   0.504  -2.133  1.00  0.00    -0.002 C 
ATOM      6  C   UNL     1      -1.471   0.477  -1.675  1.00  0.00     0.023 C 
ATOM      7  C   UNL     1      -1.114  -0.209  -0.578  1.00  0.00     0.037 C 
ATOM      8  C   UNL     1      -2.172  -0.984   0.212  1.00  0.00     0.107 C 
ENDROOT
BRANCH   8   9
ATOM      9  N   UNL     1      -1.708  -1.204   1.605  1.00  0.00    -0.322 NA
ATOM     10  H   UNL     1      -1.743  -0.308   2.093  1.00  0.00     0.119 HD
ATOM     11  H   UNL     1      -2.388  -1.798   2.079  1.00  0.00     0.119 HD
ENDBRANCH   8   9
BRANCH   7  12
ATOM     12  N   UNL     1       0.171  -0.309  -0.074  1.00  0.00    -0.310 N 
ATOM     13  C   UNL     1       1.343   0.283  -0.511  1.00  0.00     0.323 C 
ATOM     14  N   UNL     1       2.410  -0.127   0.270  1.00  0.00    -0.306 N 
ATOM     15  H   UNL     1       0.201  -0.856   0.781  1.00  0.00     0.171 HD
ATOM     16  O   UNL     1       1.422   1.056  -1.457  1.00  0.00    -0.248 OA
ATOM     17  H   UNL     1       2.216  -0.848   0.953  1.00  0.00     0.171 HD
BRANCH  14  18
ATOM     18  C   UNL     1       3.769   0.257   0.177  1.00  0.00     0.064 A 
ATOM     19  C   UNL     1       4.235   1.222  -0.725  1.00  0.00     0.028 A 
ATOM     20  C   UNL     1       4.698  -0.359   1.037  1.00  0.00     0.100 A 
ATOM     21  C   UNL     1       5.592   1.562  -0.776  1.00  0.00     0.005 A 
ATOM     22  C   UNL     1       6.049  -0.011   0.980  1.00  0.00     0.143 A 
ATOM     23  C   UNL     1       6.502   0.944   0.077  1.00  0.00     0.041 A 
ATOM     24  Cl  UNL     1       4.188  -1.561   2.176  1.00  0.00    -0.079 Cl
ATOM     25  F   UNL     1       6.941  -0.593   1.796  1.00  0.00    -0.205 F 
ENDBRANCH  14  18
ENDBRANCH   7  12
TORSDOF 3
