MODEL        1USER    Run = 1USERUSER    Estimated Free Energy of Binding    =  -9.12 kcal/mol  [=(1)+(2)+(3)-(4)]USERUSER    (1) Final Intermolecular Energy     = -10.02 kcal/molUSER        vdW + Hbond + desolv Energy     =  -9.83 kcal/molUSER        Electrostatic Energy            =  -0.19 kcal/molUSER        Moving Ligand-Fixed Receptor    = -10.02 kcal/molUSER        Moving Ligand-Moving Receptor   =  +0.00 kcal/molUSER    (2) Final Total Internal Energy     =  -0.52 kcal/molUSER    (3) Torsional Free Energy           =  +0.89 kcal/molUSER    (4) Unbound System's Energy         =  -0.52 kcal/molUSERUSERREMARK SMILES Cc1cc(-c2nnc3ccc(-c4cnn(C)c4)cn23)ccc1OREMARK SMILES IDX 5 1 6 2 7 3 8 4 9 5 10 6 11 7 18 8 19 9 4 10 2 11 3 12 22 13REMARK SMILES IDX 21 14 20 15 1 16 23 17 12 19 13 20 17 21 14 22 15 23 16 24REMARK H PARENT 23 18USER                              x       y       z     vdW  Elec       q    TypeUSER                           _______ _______ _______ _____ _____    ______ ____ROOTATOM      1  C   UNL     1      38.096  47.660  14.373 -0.38 -0.07    +0.168 A  ATOM      2  N   UNL     1      38.104  48.041  13.106 -0.75 +0.02    -0.129 NA ATOM      3  N   UNL     1      36.884  47.742  12.546 -1.09 +0.04    -0.130 NA ATOM      4  C   UNL     1      36.160  47.151  13.467 -0.42 -0.10    +0.161 A  ATOM      5  C   UNL     1      34.844  46.625  13.459 -0.34 -0.04    +0.050 A  ATOM      6  C   UNL     1      34.364  46.020  14.562 -0.25 -0.01    +0.014 A  ATOM      7  C   UNL     1      35.155  45.871  15.795 -0.34 -0.00    +0.002 A  ATOM      8  C   UNL     1      36.400  46.402  15.782 -0.30 -0.07    +0.103 A  ATOM      9  N   UNL     1      36.885  47.044  14.642 -0.21 +0.18    -0.282 N  ENDROOTBRANCH   1  10ATOM     10  C   UNL     1      39.206  47.826  15.309 -0.50 -0.01    +0.020 A  ATOM     11  C   UNL     1      40.544  46.920  17.152 -0.50 +0.00    -0.009 A  ATOM     12  C   UNL     1      39.487  46.806  16.232 -0.45 -0.00    +0.019 A  ATOM     13  C   UNL     1      41.328  48.077  17.117 -0.38 -0.01    +0.118 A  ATOM     14  C   UNL     1      41.074  49.090  16.194 -0.54 -0.01    +0.047 A  ATOM     15  C   UNL     1      40.022  48.964  15.287 -0.55 -0.01    +0.016 A  ATOM     16  C   UNL     1      40.799  45.803  18.121 -0.51 -0.00    +0.048 C  BRANCH  13  17ATOM     17  O   UNL     1      42.380  48.288  17.961 -0.29 -0.02    -0.508 OA ATOM     18  H   UNL     1      43.134  47.748  17.677 -0.33 -0.04    +0.293 HD ENDBRANCH  13  17ENDBRANCH   1  10BRANCH   7  19ATOM     19  C   UNL     1      34.615  45.192  16.937 -0.31 -0.01    +0.021 A  ATOM     20  C   UNL     1      33.955  45.730  18.065 -0.35 -0.09    +0.143 A  ATOM     21  C   UNL     1      34.630  43.833  17.176 -0.24 -0.05    +0.117 A  ATOM     22  N   UNL     1      33.589  44.793  18.944 -0.31 +0.06    -0.181 NA ATOM     23  N   UNL     1      34.010  43.648  18.379 -0.13 +0.07    -0.275 N  ATOM     24  C   UNL     1      33.783  42.396  19.058 -0.34 -0.01    +0.173 C  ENDBRANCH   7  19TORSDOF 3TERENDMDL