MODEL        1USER    Run = 1USERUSER    Estimated Free Energy of Binding    = -10.28 kcal/mol  [=(1)+(2)+(3)-(4)]USERUSER    (1) Final Intermolecular Energy     = -11.77 kcal/molUSER        vdW + Hbond + desolv Energy     = -11.45 kcal/molUSER        Electrostatic Energy            =  -0.32 kcal/molUSER        Moving Ligand-Fixed Receptor    = -11.77 kcal/molUSER        Moving Ligand-Moving Receptor   =  +0.00 kcal/molUSER    (2) Final Total Internal Energy     =  -0.92 kcal/molUSER    (3) Torsional Free Energy           =  +1.49 kcal/molUSER    (4) Unbound System's Energy         =  -0.92 kcal/molUSERUSERREMARK SMILES Nc1ccnc(NC2CCN(c3ccc4c(-c5c(F)cccc5F)n[nH]c4c3)CC2)n1REMARK SMILES IDX 8 1 9 2 10 3 11 4 29 5 30 6 7 7 6 9 2 10 3 11 31 12 4 13REMARK SMILES IDX 5 14 1 15 12 18 13 19 28 20 14 21 27 22 15 23 26 24 16 25REMARK SMILES IDX 25 26 17 28 18 29 23 30 20 31 22 32 21 33 19 34 24 35REMARK H PARENT 7 8 1 16 1 17 26 27USER                              x       y       z     vdW  Elec       q    TypeUSER                           _______ _______ _______ _____ _____    ______ ____ROOTATOM      1  C   UNL     1      39.280  47.875  15.140 -0.52 -0.03    +0.085 C  ATOM      2  C   UNL     1      38.940  46.543  15.817 -0.46 -0.01    +0.046 C  ATOM      3  C   UNL     1      39.274  46.555  17.306 -0.42 -0.03    +0.118 C  ATOM      4  N   UNL     1      40.670  46.958  17.500 -0.24 +0.04    -0.371 N  ATOM      5  C   UNL     1      41.127  48.174  16.807 -0.49 -0.01    +0.118 C  ATOM      6  C   UNL     1      39.996  48.867  16.055 -0.56 -0.02    +0.046 C  ENDROOTBRANCH   1   7ATOM      7  N   UNL     1      38.150  48.488  14.443 -0.26 +0.19    -0.351 N  ATOM      8  H   UNL     1      38.350  49.363  13.971 -0.39 -0.11    +0.163 HD BRANCH   7   9ATOM      9  C   UNL     1      37.350  47.759  13.586 -0.37 -0.09    +0.224 A  ATOM     10  C   UNL     1      35.345  46.693  13.296 -0.39 -0.09    +0.128 A  ATOM     11  C   UNL     1      35.676  46.335  12.013 -0.45 -0.04    +0.067 A  ATOM     12  N   UNL     1      36.156  47.409  14.083 -0.33 +0.15    -0.196 NA ATOM     13  C   UNL     1      36.910  46.746  11.585 -0.54 -0.04    +0.119 A  ATOM     14  N   UNL     1      37.759  47.454  12.349 -0.92 +0.02    -0.222 NA BRANCH  10  15ATOM     15  N   UNL     1      34.101  46.348  13.827 -0.09 +0.36    -0.384 N  ATOM     16  H   UNL     1      33.816  46.985  14.561 -0.23 -0.28    +0.158 HD ATOM     17  H   UNL     1      33.437  46.344  13.056 -0.47 -0.14    +0.158 HD ENDBRANCH  10  15ENDBRANCH   7   9ENDBRANCH   1   7BRANCH   4  18ATOM     18  C   UNL     1      41.345  46.616  18.678 -0.49 -0.00    +0.039 A  ATOM     19  C   UNL     1      40.889  45.608  19.543 -0.41 +0.00    +0.027 A  ATOM     20  C   UNL     1      42.541  47.278  19.021 -0.51 +0.00    +0.054 A  ATOM     21  C   UNL     1      41.567  45.255  20.724 -0.33 +0.00    +0.015 A  ATOM     22  C   UNL     1      43.210  46.917  20.199 -0.33 +0.02    +0.068 A  ATOM     23  C   UNL     1      42.753  45.930  21.058 -0.24 +0.01    +0.028 A  ATOM     24  N   UNL     1      44.367  47.374  20.762 -0.13 -0.19    -0.277 N  ATOM     25  C   UNL     1      43.714  45.879  22.115 -0.19 +0.05    +0.106 A  ATOM     26  N   UNL     1      44.694  46.778  21.920 -0.63 -0.14    -0.174 NA ATOM     27  H   UNL     1      44.981  48.096  20.407 -0.35 +0.08    +0.190 HD BRANCH  25  28ATOM     28  C   UNL     1      43.716  45.015  23.283 -0.11 +0.02    +0.074 A  ATOM     29  C   UNL     1      43.755  45.546  24.574 -0.03 +0.02    +0.135 A  ATOM     30  C   UNL     1      43.676  43.624  23.148 -0.17 +0.02    +0.135 A  ATOM     31  C   UNL     1      43.750  44.718  25.699 -0.02 +0.00    +0.040 A  ATOM     32  C   UNL     1      43.670  42.786  24.265 -0.16 -0.00    +0.040 A  ATOM     33  C   UNL     1      43.705  43.334  25.546 -0.07 -0.00    +0.006 A  ATOM     34  F   UNL     1      43.830  46.872  24.773 +0.00 -0.03    -0.206 F  ATOM     35  F   UNL     1      43.635  43.054  21.934 -0.12 -0.03    -0.206 F  ENDBRANCH  25  28ENDBRANCH   4  18TORSDOF 5TERENDMDL