MODEL        7USER    Run = 7USERUSER    Estimated Free Energy of Binding    = -10.20 kcal/mol  [=(1)+(2)+(3)-(4)]USERUSER    (1) Final Intermolecular Energy     = -12.28 kcal/molUSER        vdW + Hbond + desolv Energy     = -12.18 kcal/molUSER        Electrostatic Energy            =  -0.10 kcal/molUSER        Moving Ligand-Fixed Receptor    = -12.28 kcal/molUSER        Moving Ligand-Moving Receptor   =  +0.00 kcal/molUSER    (2) Final Total Internal Energy     =  -1.12 kcal/molUSER    (3) Torsional Free Energy           =  +2.09 kcal/molUSER    (4) Unbound System's Energy         =  -1.12 kcal/molUSERUSERREMARK SMILES Nc1nccc(-c2ccc(C(=O)CN3CCC(Nc4nc5ccccc5o4)CC3)cc2F)n1REMARK SMILES IDX 11 1 12 2 10 3 7 4 8 5 31 6 9 7 30 8 32 9 6 10 2 11 3 12REMARK SMILES IDX 33 13 4 14 5 15 1 16 13 19 14 20 15 21 29 22 16 23 28 24REMARK SMILES IDX 17 25 18 26 19 28 20 29 27 30 21 31 26 32 22 33 25 34 23 35REMARK SMILES IDX 24 36REMARK H PARENT 1 17 1 18 18 27USER                              x       y       z     vdW  Elec       q    TypeUSER                           _______ _______ _______ _____ _____    ______ ____ROOTATOM      1  C   UNL     1      41.711  44.585  21.752 -0.23 +0.02    +0.176 C  ATOM      2  O   UNL     1      42.872  44.229  21.945 -0.18 -0.06    -0.293 OA ENDROOTBRANCH   1   3ATOM      3  C   UNL     1      41.392  45.272  20.460 -0.35 +0.00    +0.022 A  ATOM      4  C   UNL     1      40.859  46.654  18.026 -0.49 -0.00    +0.036 A  ATOM      5  C   UNL     1      41.874  47.077  18.903 -0.50 +0.00    +0.014 A  ATOM      6  C   UNL     1      40.131  45.518  18.411 -0.37 -0.01    +0.133 A  ATOM      7  C   UNL     1      42.135  46.403  20.102 -0.40 +0.00    +0.013 A  ATOM      8  C   UNL     1      40.382  44.833  19.604 -0.38 +0.00    +0.051 A  ATOM      9  F   UNL     1      39.159  45.035  17.622 -0.09 +0.03    -0.206 F  BRANCH   4  10ATOM     10  C   UNL     1      40.604  47.381  16.767 -0.46 -0.01    +0.079 A  ATOM     11  C   UNL     1      40.733  49.397  15.664 -0.45 -0.06    +0.220 A  ATOM     12  N   UNL     1      40.206  48.910  14.540 -0.38 +0.07    -0.222 NA ATOM     13  N   UNL     1      40.960  48.687  16.772 -0.60 +0.03    -0.213 NA ATOM     14  C   UNL     1      39.853  47.615  14.562 -0.36 -0.02    +0.117 A  ATOM     15  C   UNL     1      40.026  46.800  15.654 -0.44 -0.01    +0.049 A  BRANCH  11  16ATOM     16  N   UNL     1      41.113  50.722  15.667 -0.31 +0.13    -0.368 N  ATOM     17  H   UNL     1      41.517  50.957  16.562 -0.48 -0.06    +0.159 HD ATOM     18  H   UNL     1      40.353  51.298  15.333 -0.40 -0.11    +0.159 HD ENDBRANCH  11  16ENDBRANCH   4  10ENDBRANCH   1   3BRANCH   1  19ATOM     19  C   UNL     1      40.568  44.381  22.757 -0.18 +0.01    +0.165 C  BRANCH  19  20ATOM     20  N   UNL     1      39.395  43.706  22.160 -0.11 -0.01    -0.296 NA ATOM     21  C   UNL     1      38.997  42.550  22.975 -0.25 +0.01    +0.087 C  ATOM     22  C   UNL     1      38.268  44.636  21.977 -0.35 +0.00    +0.087 C  ATOM     23  C   UNL     1      37.843  41.790  22.325 -0.39 +0.00    +0.040 C  ATOM     24  C   UNL     1      37.089  43.943  21.295 -0.44 +0.00    +0.040 C  ATOM     25  C   UNL     1      36.647  42.716  22.092 -0.43 +0.01    +0.086 C  BRANCH  25  26ATOM     26  N   UNL     1      35.610  41.979  21.381 -0.21 -0.02    -0.337 N  ATOM     27  H   UNL     1      35.733  40.971  21.363 +0.09 -0.00    +0.165 HD BRANCH  26  28ATOM     28  C   UNL     1      35.043  42.477  20.268 -0.19 +0.01    +0.295 A  ATOM     29  N   UNL     1      33.976  43.241  20.203 -0.74 -0.02    -0.194 NA ATOM     30  O   UNL     1      35.614  42.177  19.061 -0.21 +0.05    -0.424 OA ATOM     31  C   UNL     1      33.822  43.470  18.860 -0.30 -0.02    +0.111 A  ATOM     32  C   UNL     1      34.823  42.822  18.157 -0.27 -0.04    +0.156 A  ATOM     33  C   UNL     1      32.869  44.213  18.152 -0.32 -0.01    +0.032 A  ATOM     34  C   UNL     1      34.964  42.844  16.775 -0.39 -0.02    +0.049 A  ATOM     35  C   UNL     1      32.975  44.262  16.754 -0.32 -0.00    +0.003 A  ATOM     36  C   UNL     1      34.003  43.590  16.080 -0.33 -0.00    +0.004 A  ENDBRANCH  26  28ENDBRANCH  25  26ENDBRANCH  19  20ENDBRANCH   1  19TORSDOF 7TERENDMDL