REMARK SMILES Nc1ccnc(NC2CCN(c3ccc4c(-c5c(F)cccc5F)n[nH]c4c3)CC2)n1
REMARK SMILES IDX 8 1 9 2 10 3 11 4 29 5 30 6 7 7 6 9 2 10 3 11 31 12 4 13
REMARK SMILES IDX 5 14 1 15 12 18 13 19 28 20 14 21 27 22 15 23 26 24 16 25
REMARK SMILES IDX 25 26 17 28 18 29 23 30 20 31 22 32 21 33 19 34 24 35
REMARK H PARENT 7 8 1 16 1 17 26 27
ROOT
ATOM      1  C   UNL     1       3.398  -1.945   0.028  1.00  0.00     0.085 C 
ATOM      2  C   UNL     1       2.790  -1.310  -1.227  1.00  0.00     0.046 C 
ATOM      3  C   UNL     1       1.558  -0.468  -0.904  1.00  0.00     0.118 C 
ATOM      4  N   UNL     1       0.595  -1.268  -0.141  1.00  0.00    -0.371 N 
ATOM      5  C   UNL     1       1.101  -2.004   1.029  1.00  0.00     0.118 C 
ATOM      6  C   UNL     1       2.575  -1.717   1.295  1.00  0.00     0.046 C 
ENDROOT
BRANCH   1   7
ATOM      7  N   UNL     1       4.811  -1.625   0.226  1.00  0.00    -0.351 N 
ATOM      8  H   UNL     1       5.462  -2.146  -0.351  1.00  0.00     0.163 HD
BRANCH   7   9
ATOM      9  C   UNL     1       5.260  -0.320   0.235  1.00  0.00     0.224 A 
ATOM     10  C   UNL     1       7.025   1.089  -0.140  1.00  0.00     0.128 A 
ATOM     11  C   UNL     1       6.272   2.186   0.198  1.00  0.00     0.067 A 
ATOM     12  N   UNL     1       6.536  -0.156  -0.140  1.00  0.00    -0.196 NA
ATOM     13  C   UNL     1       4.976   1.925   0.555  1.00  0.00     0.119 A 
ATOM     14  N   UNL     1       4.452   0.688   0.581  1.00  0.00    -0.222 NA
BRANCH  10  15
ATOM     15  N   UNL     1       8.352   1.241  -0.544  1.00  0.00    -0.384 N 
ATOM     16  H   UNL     1       8.898   1.749   0.142  1.00  0.00     0.158 HD
ATOM     17  H   UNL     1       8.726   0.308  -0.703  1.00  0.00     0.158 HD
ENDBRANCH  10  15
ENDBRANCH   7   9
ENDBRANCH   1   7
BRANCH   4  18
ATOM     18  C   UNL     1      -0.758  -0.909  -0.120  1.00  0.00     0.039 A 
ATOM     19  C   UNL     1      -1.213   0.345  -0.559  1.00  0.00     0.027 A 
ATOM     20  C   UNL     1      -1.723  -1.831   0.333  1.00  0.00     0.054 A 
ATOM     21  C   UNL     1      -2.572   0.708  -0.547  1.00  0.00     0.015 A 
ATOM     22  C   UNL     1      -3.075  -1.460   0.339  1.00  0.00     0.068 A 
ATOM     23  C   UNL     1      -3.522  -0.217  -0.083  1.00  0.00     0.028 A 
ATOM     24  N   UNL     1      -4.201  -2.138   0.709  1.00  0.00    -0.277 N 
ATOM     25  C   UNL     1      -4.941  -0.254   0.082  1.00  0.00     0.106 A 
ATOM     26  N   UNL     1      -5.339  -1.439   0.576  1.00  0.00    -0.174 NA
ATOM     27  H   UNL     1      -4.260  -3.084   1.065  1.00  0.00     0.190 HD
BRANCH  25  28
ATOM     28  C   UNL     1      -5.904   0.794  -0.211  1.00  0.00     0.074 A 
ATOM     29  C   UNL     1      -6.992   0.559  -1.055  1.00  0.00     0.135 A 
ATOM     30  C   UNL     1      -5.771   2.069   0.345  1.00  0.00     0.135 A 
ATOM     31  C   UNL     1      -7.924   1.562  -1.333  1.00  0.00     0.040 A 
ATOM     32  C   UNL     1      -6.696   3.080   0.075  1.00  0.00     0.040 A 
ATOM     33  C   UNL     1      -7.778   2.826  -0.766  1.00  0.00     0.006 A 
ATOM     34  F   UNL     1      -7.159  -0.633  -1.650  1.00  0.00    -0.206 F 
ATOM     35  F   UNL     1      -4.748   2.356   1.165  1.00  0.00    -0.206 F 
ENDBRANCH  25  28
ENDBRANCH   4  18
TORSDOF 5
