REMARK SMILES Nc1nccc(-c2ccc(C(=O)CN3CCC(Nc4nc5ccccc5o4)CC3)cc2F)n1
REMARK SMILES IDX 11 1 12 2 10 3 7 4 8 5 31 6 9 7 30 8 32 9 6 10 2 11 3 12
REMARK SMILES IDX 33 13 4 14 5 15 1 16 13 19 14 20 15 21 29 22 16 23 28 24
REMARK SMILES IDX 17 25 18 26 19 28 20 29 27 30 21 31 26 32 22 33 25 34 23 35
REMARK SMILES IDX 24 36
REMARK H PARENT 1 17 1 18 18 27
ROOT
ATOM      1  C   UNL     1       1.528  -0.149  -1.186  1.00  0.00     0.176 C 
ATOM      2  O   UNL     1       1.051   0.627  -2.012  1.00  0.00    -0.293 OA
ENDROOT
BRANCH   1   3
ATOM      3  C   UNL     1       2.965   0.028  -0.804  1.00  0.00     0.022 A 
ATOM      4  C   UNL     1       5.702   0.455  -0.135  1.00  0.00     0.036 A 
ATOM      5  C   UNL     1       4.979   1.389  -0.899  1.00  0.00     0.014 A 
ATOM      6  C   UNL     1       5.005  -0.689   0.281  1.00  0.00     0.133 A 
ATOM      7  C   UNL     1       3.635   1.179  -1.233  1.00  0.00     0.013 A 
ATOM      8  C   UNL     1       3.662  -0.911  -0.043  1.00  0.00     0.051 A 
ATOM      9  F   UNL     1       5.614  -1.621   1.031  1.00  0.00    -0.206 F 
BRANCH   4  10
ATOM     10  C   UNL     1       7.118   0.699   0.205  1.00  0.00     0.079 A 
ATOM     11  C   UNL     1       8.733   2.278   0.644  1.00  0.00     0.220 A 
ATOM     12  N   UNL     1       9.691   1.368   0.824  1.00  0.00    -0.222 NA
ATOM     13  N   UNL     1       7.460   2.000   0.355  1.00  0.00    -0.213 NA
ATOM     14  C   UNL     1       9.330   0.085   0.662  1.00  0.00     0.117 A 
ATOM     15  C   UNL     1       8.052  -0.309   0.347  1.00  0.00     0.049 A 
BRANCH  11  16
ATOM     16  N   UNL     1       9.074   3.603   0.814  1.00  0.00    -0.368 N 
ATOM     17  H   UNL     1       9.890   3.669   1.406  1.00  0.00     0.159 HD
ATOM     18  H   UNL     1       8.259   4.135   1.083  1.00  0.00     0.159 HD
ENDBRANCH  11  16
ENDBRANCH   4  10
ENDBRANCH   1   3
BRANCH   1  19
ATOM     19  C   UNL     1       0.747  -1.296  -0.529  1.00  0.00     0.165 C 
BRANCH  19  20
ATOM     20  N   UNL     1      -0.700  -1.252  -0.835  1.00  0.00    -0.296 NA
ATOM     21  C   UNL     1      -1.337  -2.531  -0.491  1.00  0.00     0.087 C 
ATOM     22  C   UNL     1      -1.366  -0.130  -0.153  1.00  0.00     0.087 C 
ATOM     23  C   UNL     1      -2.812  -2.533  -0.883  1.00  0.00     0.040 C 
ATOM     24  C   UNL     1      -2.844  -0.055  -0.533  1.00  0.00     0.040 C 
ATOM     25  C   UNL     1      -3.553  -1.372  -0.216  1.00  0.00     0.086 C 
BRANCH  25  26
ATOM     26  N   UNL     1      -4.929  -1.351  -0.695  1.00  0.00    -0.337 N 
ATOM     27  H   UNL     1      -5.034  -1.309  -1.704  1.00  0.00     0.165 HD
BRANCH  26  28
ATOM     28  C   UNL     1      -5.889  -0.692  -0.022  1.00  0.00     0.295 A 
ATOM     29  N   UNL     1      -7.027  -0.249  -0.507  1.00  0.00    -0.194 NA
ATOM     30  O   UNL     1      -5.692  -0.443   1.309  1.00  0.00    -0.424 OA
ATOM     31  C   UNL     1      -7.635   0.336   0.574  1.00  0.00     0.111 A 
ATOM     32  C   UNL     1      -6.822   0.219   1.688  1.00  0.00     0.156 A 
ATOM     33  C   UNL     1      -8.870   0.985   0.701  1.00  0.00     0.032 A 
ATOM     34  C   UNL     1      -7.134   0.704   2.952  1.00  0.00     0.049 A 
ATOM     35  C   UNL     1      -9.224   1.490   1.961  1.00  0.00     0.003 A 
ATOM     36  C   UNL     1      -8.371   1.351   3.064  1.00  0.00     0.004 A 
ENDBRANCH  26  28
ENDBRANCH  25  26
ENDBRANCH  19  20
ENDBRANCH   1  19
TORSDOF 7
