
     RDKit          3D

 66 69  0  0  0  0  0  0  0  0999 V2000
    8.8369    0.0195   -2.1698 C   0  0  0  0  0  0  0  0  0  0  0  0
    7.4511    0.2375   -1.9385 O   0  0  0  0  0  0  0  0  0  0  0  0
    7.0989    1.3441   -1.2146 C   0  0  0  0  0  0  0  0  0  0  0  0
    7.9903    2.2586   -0.6505 C   0  0  0  0  0  0  0  0  0  0  0  0
    7.5065    3.3626    0.0581 C   0  0  0  0  0  0  0  0  0  0  0  0
    6.1349    3.5472    0.2117 C   0  0  0  0  0  0  0  0  0  0  0  0
    5.7425    4.6683    0.8919 O   0  0  0  0  0  0  0  0  0  0  0  0
    5.2272    2.6199   -0.3114 C   0  0  0  0  0  0  0  0  0  0  0  0
    3.7771    2.8252   -0.1052 C   0  0  0  0  0  0  0  0  0  0  0  0
    3.3664    3.9812    0.0046 O   0  0  0  0  0  0  0  0  0  0  0  0
    2.8130    1.7078    0.0295 C   0  0  0  0  0  0  0  0  0  0  0  0
    1.5287    1.8655   -0.5062 C   0  0  0  0  0  0  0  0  0  0  0  0
    0.5850    0.8406   -0.3862 C   0  0  0  0  0  0  0  0  0  0  0  0
    0.9151   -0.3441    0.2863 C   0  0  0  0  0  0  0  0  0  0  0  0
   -0.0446   -1.4708    0.4387 C   0  0  0  0  0  0  0  0  0  0  0  0
    0.2295   -2.5223    0.9932 O   0  0  0  0  0  0  0  0  0  0  0  0
   -1.2429   -1.1484   -0.1079 O   0  0  0  0  0  0  0  0  0  0  0  0
   -2.2693   -2.1851   -0.0890 C   0  0  2  0  0  0  0  0  0  0  0  0
   -2.0248   -3.0674   -1.3150 C   0  0  0  0  0  0  0  0  0  0  0  0
   -3.1485   -3.9949   -1.7528 C   0  0  0  0  0  0  0  0  0  0  0  0
   -4.0330   -4.5340   -0.6335 C   0  0  0  0  0  0  0  0  0  0  0  0
   -5.1267   -3.6055   -0.3409 N   0  0  0  0  0  0  0  0  0  0  0  0
   -6.2361   -4.3159    0.3053 C   0  0  0  0  0  0  0  0  0  0  0  0
   -4.7475   -2.4445    0.4810 C   0  0  0  0  0  0  0  0  0  0  0  0
   -3.6516   -1.4928   -0.0729 C   0  0  1  0  0  0  0  0  0  0  0  0
   -3.5747   -0.2708    0.7557 N   0  0  0  0  0  0  0  0  0  0  0  0
   -4.5339    0.7168    0.6866 C   0  0  0  0  0  0  0  0  0  0  0  0
   -5.5580    0.6244    0.0215 O   0  0  0  0  0  0  0  0  0  0  0  0
   -4.2506    1.9645    1.4444 C   0  0  0  0  0  0  0  0  0  0  0  0
   -4.8532    3.1479    1.0167 C   0  0  0  0  0  0  0  0  0  0  0  0
   -4.5943    4.3032    1.7288 C   0  0  0  0  0  0  0  0  0  0  0  0
   -3.7952    4.3472    2.8163 N   0  0  0  0  0  0  0  0  0  0  0  0
   -3.2390    3.1852    3.2183 C   0  0  0  0  0  0  0  0  0  0  0  0
   -3.4329    1.9758    2.5751 C   0  0  0  0  0  0  0  0  0  0  0  0
    2.1944   -0.4864    0.8437 C   0  0  0  0  0  0  0  0  0  0  0  0
    3.1387    0.5381    0.7241 C   0  0  0  0  0  0  0  0  0  0  0  0
    5.7206    1.5400   -1.0445 C   0  0  0  0  0  0  0  0  0  0  0  0
    4.8713    0.6744   -1.6202 F   0  0  0  0  0  0  0  0  0  0  0  0
    8.9374   -0.8870   -2.7744 H   0  0  0  0  0  0  0  0  0  0  0  0
    9.2781    0.8463   -2.7343 H   0  0  0  0  0  0  0  0  0  0  0  0
    9.3713   -0.1483   -1.2296 H   0  0  0  0  0  0  0  0  0  0  0  0
    9.0654    2.1478   -0.7507 H   0  0  0  0  0  0  0  0  0  0  0  0
    8.1977    4.0863    0.4846 H   0  0  0  0  0  0  0  0  0  0  0  0
    4.7814    4.8011    0.7256 H   0  0  0  0  0  0  0  0  0  0  0  0
    1.2604    2.7841   -1.0262 H   0  0  0  0  0  0  0  0  0  0  0  0
   -0.3971    0.9840   -0.8306 H   0  0  0  0  0  0  0  0  0  0  0  0
   -2.1594   -2.7705    0.8334 H   0  0  0  0  0  0  0  0  0  0  0  0
   -1.7378   -2.4414   -2.1712 H   0  0  0  0  0  0  0  0  0  0  0  0
   -1.1338   -3.6784   -1.1154 H   0  0  0  0  0  0  0  0  0  0  0  0
   -3.7682   -3.4823   -2.5008 H   0  0  0  0  0  0  0  0  0  0  0  0
   -2.6982   -4.8414   -2.2879 H   0  0  0  0  0  0  0  0  0  0  0  0
   -3.4561   -4.7960    0.2618 H   0  0  0  0  0  0  0  0  0  0  0  0
   -4.4576   -5.4738   -1.0119 H   0  0  0  0  0  0  0  0  0  0  0  0
   -7.0872   -3.6450    0.4673 H   0  0  0  0  0  0  0  0  0  0  0  0
   -5.9427   -4.7437    1.2703 H   0  0  0  0  0  0  0  0  0  0  0  0
   -6.6028   -5.1255   -0.3357 H   0  0  0  0  0  0  0  0  0  0  0  0
   -4.4463   -2.7785    1.4843 H   0  0  0  0  0  0  0  0  0  0  0  0
   -5.6562   -1.8487    0.6342 H   0  0  0  0  0  0  0  0  0  0  0  0
   -3.9189   -1.1600   -1.0840 H   0  0  0  0  0  0  0  0  0  0  0  0
   -2.6426   -0.0012    1.0445 H   0  0  0  0  0  0  0  0  0  0  0  0
   -5.5077    3.1692    0.1512 H   0  0  0  0  0  0  0  0  0  0  0  0
   -5.0364    5.2518    1.4366 H   0  0  0  0  0  0  0  0  0  0  0  0
   -2.6163    3.2538    4.1061 H   0  0  0  0  0  0  0  0  0  0  0  0
   -2.9779    1.0774    2.9732 H   0  0  0  0  0  0  0  0  0  0  0  0
    2.4640   -1.3988    1.3736 H   0  0  0  0  0  0  0  0  0  0  0  0
    4.1161    0.4058    1.1804 H   0  0  0  0  0  0  0  0  0  0  0  0
  1  2  1  0
  2  3  1  0
  3  4  2  0
  4  5  1  0
  5  6  2  0
  6  7  1  0
  6  8  1  0
  8  9  1  0
  9 10  2  0
  9 11  1  0
 11 12  2  0
 12 13  1  0
 13 14  2  0
 14 15  1  0
 15 16  2  0
 15 17  1  0
 17 18  1  0
 18 19  1  0
 19 20  1  0
 20 21  1  0
 21 22  1  0
 22 23  1  0
 22 24  1  0
 24 25  1  0
 25 26  1  0
 26 27  1  0
 27 28  2  0
 27 29  1  0
 29 30  2  0
 30 31  1  0
 31 32  2  0
 32 33  1  0
 33 34  2  0
 14 35  1  0
 35 36  2  0
  8 37  2  0
 37 38  1  0
 37  3  1  0
 36 11  1  0
 25 18  1  0
 34 29  1  0
  1 39  1  0
  1 40  1  0
  1 41  1  0
  4 42  1  0
  5 43  1  0
  7 44  1  0
 12 45  1  0
 13 46  1  0
 18 47  1  1
 19 48  1  0
 19 49  1  0
 20 50  1  0
 20 51  1  0
 21 52  1  0
 21 53  1  0
 23 54  1  0
 23 55  1  0
 23 56  1  0
 24 57  1  0
 24 58  1  0
 25 59  1  6
 26 60  1  0
 30 61  1  0
 31 62  1  0
 33 63  1  0
 34 64  1  0
 35 65  1  0
 36 66  1  0
M  END
$$$$
