
     RDKit          3D

 35 38  0  0  0  0  0  0  0  0999 V2000
   -7.5479   -0.6913    1.9527 F   0  0  0  0  0  0  0  0  0  0  0  0
   -6.2475   -0.5761    1.6513 C   0  0  0  0  0  0  0  0  0  0  0  0
   -5.3002   -0.6997    2.6567 C   0  0  0  0  0  0  0  0  0  0  0  0
   -3.9431   -0.5789    2.3393 C   0  0  0  0  0  0  0  0  0  0  0  0
   -3.5147   -0.3341    1.0194 C   0  0  0  0  0  0  0  0  0  0  0  0
   -2.1409   -0.2252    0.7772 N   0  0  0  0  0  0  0  0  0  0  0  0
   -1.3755    0.0059   -0.3633 C   0  0  0  0  0  0  0  0  0  0  0  0
   -1.9372    0.1821   -1.5668 N   0  0  0  0  0  0  0  0  0  0  0  0
   -1.1183    0.3995   -2.6108 C   0  0  0  0  0  0  0  0  0  0  0  0
    0.2460    0.4485   -2.5028 C   0  0  0  0  0  0  0  0  0  0  0  0
    0.7381    0.2578   -1.2344 C   0  0  0  0  0  0  0  0  0  0  0  0
    2.1666    0.2777   -0.9355 C   0  0  0  0  0  0  0  0  0  0  0  0
    3.2841    0.4681   -1.7333 C   0  0  0  0  0  0  0  0  0  0  0  0
    4.4325    0.3855   -0.9115 C   0  0  0  0  0  0  0  0  0  0  0  0
    5.7368    0.5080   -1.2549 N   0  0  0  0  0  0  0  0  0  0  0  0
    6.6023    0.3765   -0.2266 C   0  0  0  0  0  0  0  0  0  0  0  0
    6.2563    0.1350    1.0970 C   0  0  0  0  0  0  0  0  0  0  0  0
    4.9122    0.0106    1.4400 C   0  0  0  0  0  0  0  0  0  0  0  0
    4.0058    0.1439    0.3892 C   0  0  0  0  0  0  0  0  0  0  0  0
    2.6363    0.0832    0.3490 N   0  0  0  0  0  0  0  0  0  0  0  0
   -0.0484    0.0366   -0.1582 N   0  0  0  0  0  0  0  0  0  0  0  0
   -4.4948   -0.2144    0.0276 C   0  0  0  0  0  0  0  0  0  0  0  0
   -5.8474   -0.3350    0.3455 C   0  0  0  0  0  0  0  0  0  0  0  0
   -6.7634   -0.2155   -0.6261 F   0  0  0  0  0  0  0  0  0  0  0  0
   -5.6185   -0.8883    3.6769 H   0  0  0  0  0  0  0  0  0  0  0  0
   -3.2143   -0.6789    3.1411 H   0  0  0  0  0  0  0  0  0  0  0  0
   -1.5242   -0.3289    1.5687 H   0  0  0  0  0  0  0  0  0  0  0  0
   -1.6131    0.5373   -3.5678 H   0  0  0  0  0  0  0  0  0  0  0  0
    0.8751    0.6253   -3.3628 H   0  0  0  0  0  0  0  0  0  0  0  0
    3.2945    0.6491   -2.7986 H   0  0  0  0  0  0  0  0  0  0  0  0
    7.6487    0.4754   -0.5057 H   0  0  0  0  0  0  0  0  0  0  0  0
    7.0286    0.0449    1.8538 H   0  0  0  0  0  0  0  0  0  0  0  0
    4.5962   -0.1778    2.4591 H   0  0  0  0  0  0  0  0  0  0  0  0
    2.0285   -0.0809    1.1398 H   0  0  0  0  0  0  0  0  0  0  0  0
   -4.2392   -0.0260   -1.0090 H   0  0  0  0  0  0  0  0  0  0  0  0
  1  2  1  0
  2  3  2  0
  3  4  1  0
  4  5  2  0
  5  6  1  0
  6  7  1  0
  7  8  2  0
  8  9  1  0
  9 10  2  0
 10 11  1  0
 11 12  1  0
 12 13  2  0
 13 14  1  0
 14 15  2  0
 15 16  1  0
 16 17  2  0
 17 18  1  0
 18 19  2  0
 19 20  1  0
 11 21  2  0
  5 22  1  0
 22 23  2  0
 23 24  1  0
 23  2  1  0
 21  7  1  0
 20 12  1  0
 19 14  1  0
  3 25  1  0
  4 26  1  0
  6 27  1  0
  9 28  1  0
 10 29  1  0
 13 30  1  0
 16 31  1  0
 17 32  1  0
 18 33  1  0
 20 34  1  0
 22 35  1  0
M  END
$$$$
