
     RDKit          3D

 37 40  0  0  0  0  0  0  0  0999 V2000
    6.6974    0.7171   -0.7338 N   0  0  0  0  0  0  0  0  0  0  0  0
    5.2994    0.5916   -0.6806 C   0  0  0  0  0  0  0  0  0  0  0  0
    4.5093    1.5904   -1.2545 C   0  0  0  0  0  0  0  0  0  0  0  0
    3.1178    1.4980   -1.2201 C   0  0  0  0  0  0  0  0  0  0  0  0
    2.6121    0.3672   -0.5879 C   0  0  0  0  0  0  0  0  0  0  0  0
    1.3297   -0.0619   -0.3627 N   0  0  0  0  0  0  0  0  0  0  0  0
    1.3212   -1.2652    0.3160 C   0  0  0  0  0  0  0  0  0  0  0  0
    0.0699   -1.9273    0.6665 C   0  0  0  0  0  0  0  0  0  0  0  0
    0.0233   -3.1962    1.1904 C   0  0  0  0  0  0  0  0  0  0  0  0
   -1.2354   -3.6770    1.4388 C   0  0  0  0  0  0  0  0  0  0  0  0
   -2.3589   -2.9758    1.2002 N   0  0  0  0  0  0  0  0  0  0  0  0
   -2.2186   -1.7364    0.7034 C   0  0  0  0  0  0  0  0  0  0  0  0
   -3.4128   -1.0613    0.4660 N   0  0  0  0  0  0  0  0  0  0  0  0
   -3.7252    0.2691    0.1692 C   0  0  0  0  0  0  0  0  0  0  0  0
   -2.7849    1.3102    0.1898 C   0  0  0  0  0  0  0  0  0  0  0  0
   -3.1396    2.6186   -0.1604 C   0  0  0  0  0  0  0  0  0  0  0  0
   -4.4426    2.8940   -0.5494 C   0  0  0  0  0  0  0  0  0  0  0  0
   -4.7806    4.1459   -0.8861 F   0  0  0  0  0  0  0  0  0  0  0  0
   -5.3843    1.8773   -0.5897 C   0  0  0  0  0  0  0  0  0  0  0  0
   -6.6426    2.1371   -0.9713 F   0  0  0  0  0  0  0  0  0  0  0  0
   -5.0335    0.5751   -0.2390 C   0  0  0  0  0  0  0  0  0  0  0  0
   -1.0303   -1.1863    0.4181 N   0  0  0  0  0  0  0  0  0  0  0  0
    2.6485   -1.6055    0.5229 C   0  0  0  0  0  0  0  0  0  0  0  0
    3.4564   -0.5885   -0.0384 C   0  0  0  0  0  0  0  0  0  0  0  0
    4.8047   -0.4961   -0.0734 N   0  0  0  0  0  0  0  0  0  0  0  0
    6.9941    0.7662   -1.7032 H   0  0  0  0  0  0  0  0  0  0  0  0
    6.9760    1.5756   -0.2697 H   0  0  0  0  0  0  0  0  0  0  0  0
    4.9719    2.4478   -1.7330 H   0  0  0  0  0  0  0  0  0  0  0  0
    2.4801    2.2565   -1.6574 H   0  0  0  0  0  0  0  0  0  0  0  0
    0.4848    0.4141   -0.6496 H   0  0  0  0  0  0  0  0  0  0  0  0
    0.9053   -3.7883    1.3865 H   0  0  0  0  0  0  0  0  0  0  0  0
   -1.3863   -4.6722    1.8467 H   0  0  0  0  0  0  0  0  0  0  0  0
   -4.1820   -1.6744    0.6984 H   0  0  0  0  0  0  0  0  0  0  0  0
   -1.7620    1.1262    0.5050 H   0  0  0  0  0  0  0  0  0  0  0  0
   -2.4067    3.4184   -0.1277 H   0  0  0  0  0  0  0  0  0  0  0  0
   -5.7954   -0.1967   -0.2963 H   0  0  0  0  0  0  0  0  0  0  0  0
    3.0200   -2.4871    1.0256 H   0  0  0  0  0  0  0  0  0  0  0  0
  1  2  1  0
  2  3  2  0
  3  4  1  0
  4  5  2  0
  5  6  1  0
  6  7  1  0
  7  8  1  0
  8  9  2  0
  9 10  1  0
 10 11  2  0
 11 12  1  0
 12 13  1  0
 13 14  1  0
 14 15  2  0
 15 16  1  0
 16 17  2  0
 17 18  1  0
 17 19  1  0
 19 20  1  0
 19 21  2  0
 12 22  2  0
  7 23  2  0
 23 24  1  0
 24 25  2  0
 25  2  1  0
 24  5  1  0
 22  8  1  0
 21 14  1  0
  1 26  1  0
  1 27  1  0
  3 28  1  0
  4 29  1  0
  6 30  1  0
  9 31  1  0
 10 32  1  0
 13 33  1  0
 15 34  1  0
 16 35  1  0
 21 36  1  0
 23 37  1  0
M  END
$$$$
