
     RDKit          3D

 46 48  0  0  0  0  0  0  0  0999 V2000
    5.9230    2.7454    1.5967 C   0  0  0  0  0  0  0  0  0  0  0  0
    5.7475    1.4863    0.9635 O   0  0  0  0  0  0  0  0  0  0  0  0
    4.4659    1.0991    0.6591 C   0  0  0  0  0  0  0  0  0  0  0  0
    3.3231    1.8522    0.9465 C   0  0  0  0  0  0  0  0  0  0  0  0
    2.0556    1.3762    0.6019 C   0  0  0  0  0  0  0  0  0  0  0  0
    1.9114    0.1411   -0.0370 C   0  0  0  0  0  0  0  0  0  0  0  0
    0.5391   -0.3839   -0.3809 C   0  0  0  0  0  0  0  0  0  0  0  0
   -0.0211   -1.2746    0.7360 C   0  0  0  0  0  0  0  0  0  0  0  0
   -1.3801   -1.7383    0.4209 N   0  0  0  0  0  0  0  0  0  0  0  0
   -1.4334   -2.9568   -0.3920 C   0  0  0  0  0  0  0  0  0  0  0  0
   -2.4747   -0.8895    0.3945 C   0  0  0  0  0  0  0  0  0  0  0  0
   -3.4899   -1.1189   -0.3850 N   0  0  0  0  0  0  0  0  0  0  0  0
   -4.5770   -0.2327   -0.3875 C   0  0  0  0  0  0  0  0  0  0  0  0
   -5.6505   -0.4846   -1.2422 C   0  0  0  0  0  0  0  0  0  0  0  0
   -6.7399    0.3823   -1.2632 C   0  0  0  0  0  0  0  0  0  0  0  0
   -7.7652    0.1307   -2.0875 F   0  0  0  0  0  0  0  0  0  0  0  0
   -6.7850    1.5064   -0.4429 C   0  0  0  0  0  0  0  0  0  0  0  0
   -5.7195    1.7701    0.4156 C   0  0  0  0  0  0  0  0  0  0  0  0
   -4.6259    0.8967    0.4324 C   0  0  0  0  0  0  0  0  0  0  0  0
   -3.4789    1.1245    1.3195 C   0  0  0  0  0  0  0  0  0  0  0  0
   -3.4316    2.0723    2.0949 O   0  0  0  0  0  0  0  0  0  0  0  0
   -2.4657    0.2056    1.2241 N   0  0  0  0  0  0  0  0  0  0  0  0
    3.0565   -0.6169   -0.3251 C   0  0  0  0  0  0  0  0  0  0  0  0
    4.3317   -0.1468    0.0144 C   0  0  0  0  0  0  0  0  0  0  0  0
    5.4992   -0.8271   -0.2305 O   0  0  0  0  0  0  0  0  0  0  0  0
    5.4168   -2.0414   -0.9614 C   0  0  0  0  0  0  0  0  0  0  0  0
    5.4356    2.7661    2.5770 H   0  0  0  0  0  0  0  0  0  0  0  0
    6.9955    2.8925    1.7567 H   0  0  0  0  0  0  0  0  0  0  0  0
    5.5675    3.5618    0.9595 H   0  0  0  0  0  0  0  0  0  0  0  0
    3.3840    2.8167    1.4394 H   0  0  0  0  0  0  0  0  0  0  0  0
    1.1831    1.9836    0.8357 H   0  0  0  0  0  0  0  0  0  0  0  0
    0.5882   -0.9422   -1.3245 H   0  0  0  0  0  0  0  0  0  0  0  0
   -0.1333    0.4610   -0.5760 H   0  0  0  0  0  0  0  0  0  0  0  0
    0.6408   -2.1368    0.8902 H   0  0  0  0  0  0  0  0  0  0  0  0
   -0.0131   -0.7443    1.6952 H   0  0  0  0  0  0  0  0  0  0  0  0
   -1.3351   -2.7142   -1.4552 H   0  0  0  0  0  0  0  0  0  0  0  0
   -0.6308   -3.6510   -0.1208 H   0  0  0  0  0  0  0  0  0  0  0  0
   -2.3774   -3.4901   -0.2351 H   0  0  0  0  0  0  0  0  0  0  0  0
   -5.6414   -1.3543   -1.8907 H   0  0  0  0  0  0  0  0  0  0  0  0
   -7.6473    2.1650   -0.4788 H   0  0  0  0  0  0  0  0  0  0  0  0
   -5.7387    2.6423    1.0646 H   0  0  0  0  0  0  0  0  0  0  0  0
   -1.7137    0.3385    1.8766 H   0  0  0  0  0  0  0  0  0  0  0  0
    2.9291   -1.5762   -0.8164 H   0  0  0  0  0  0  0  0  0  0  0  0
    4.8601   -2.8002   -0.4020 H   0  0  0  0  0  0  0  0  0  0  0  0
    4.9803   -1.8798   -1.9527 H   0  0  0  0  0  0  0  0  0  0  0  0
    6.4351   -2.4156   -1.1044 H   0  0  0  0  0  0  0  0  0  0  0  0
  1  2  1  0
  2  3  1  0
  3  4  2  0
  4  5  1  0
  5  6  2  0
  6  7  1  0
  7  8  1  0
  8  9  1  0
  9 10  1  0
  9 11  1  0
 11 12  2  0
 12 13  1  0
 13 14  2  0
 14 15  1  0
 15 16  1  0
 15 17  2  0
 17 18  1  0
 18 19  2  0
 19 20  1  0
 20 21  2  0
 20 22  1  0
  6 23  1  0
 23 24  2  0
 24 25  1  0
 25 26  1  0
 24  3  1  0
 22 11  1  0
 19 13  1  0
  1 27  1  0
  1 28  1  0
  1 29  1  0
  4 30  1  0
  5 31  1  0
  7 32  1  0
  7 33  1  0
  8 34  1  0
  8 35  1  0
 10 36  1  0
 10 37  1  0
 10 38  1  0
 14 39  1  0
 17 40  1  0
 18 41  1  0
 22 42  1  0
 23 43  1  0
 26 44  1  0
 26 45  1  0
 26 46  1  0
M  END
$$$$
