
     RDKit          3D

 49 51  0  0  0  0  0  0  0  0999 V2000
    7.0454    0.0445    0.1591 C   0  0  0  0  0  0  0  0  0  0  0  0
    5.8836    0.7744   -0.2061 O   0  0  0  0  0  0  0  0  0  0  0  0
    4.6669    0.2762    0.1906 C   0  0  0  0  0  0  0  0  0  0  0  0
    4.4947   -0.9168    0.9011 C   0  0  0  0  0  0  0  0  0  0  0  0
    3.2160   -1.3499    1.2621 C   0  0  0  0  0  0  0  0  0  0  0  0
    2.0922   -0.5935    0.9220 C   0  0  0  0  0  0  0  0  0  0  0  0
    0.7030   -1.0579    1.2903 C   0  0  0  0  0  0  0  0  0  0  0  0
    0.0247   -1.7914    0.1243 C   0  0  0  0  0  0  0  0  0  0  0  0
   -1.4133   -2.0594    0.3401 N   0  0  0  0  0  0  0  0  0  0  0  0
   -1.7012   -2.8855    1.5140 C   0  0  0  0  0  0  0  0  0  0  0  0
   -2.3165   -1.0518    0.0230 C   0  0  0  0  0  0  0  0  0  0  0  0
   -1.9872    0.1889    0.2412 N   0  0  0  0  0  0  0  0  0  0  0  0
   -2.8978    1.2099   -0.0379 C   0  0  0  0  0  0  0  0  0  0  0  0
   -2.5213    2.5332    0.2071 C   0  0  0  0  0  0  0  0  0  0  0  0
   -3.4071    3.5851   -0.0437 C   0  0  0  0  0  0  0  0  0  0  0  0
   -4.6822    3.3199   -0.5419 C   0  0  0  0  0  0  0  0  0  0  0  0
   -5.0689    2.0033   -0.7889 C   0  0  0  0  0  0  0  0  0  0  0  0
   -4.1712    0.9592   -0.5333 C   0  0  0  0  0  0  0  0  0  0  0  0
   -4.5333   -0.4408   -0.7919 C   0  0  0  0  0  0  0  0  0  0  0  0
   -5.6550   -0.7064   -1.2205 O   0  0  0  0  0  0  0  0  0  0  0  0
   -3.5494   -1.3921   -0.5290 N   0  0  0  0  0  0  0  0  0  0  0  0
   -3.8637   -2.7550   -0.9243 C   0  0  0  0  0  0  0  0  0  0  0  0
    2.2621    0.6018    0.2059 C   0  0  0  0  0  0  0  0  0  0  0  0
    3.5386    1.0422   -0.1637 C   0  0  0  0  0  0  0  0  0  0  0  0
    3.7872    2.1973   -0.8640 O   0  0  0  0  0  0  0  0  0  0  0  0
    2.6689    2.9687   -1.2782 C   0  0  0  0  0  0  0  0  0  0  0  0
    7.0485   -0.9489   -0.3012 H   0  0  0  0  0  0  0  0  0  0  0  0
    7.9155    0.5886   -0.2210 H   0  0  0  0  0  0  0  0  0  0  0  0
    7.1454   -0.0221    1.2475 H   0  0  0  0  0  0  0  0  0  0  0  0
    5.3377   -1.5356    1.1890 H   0  0  0  0  0  0  0  0  0  0  0  0
    3.1090   -2.2816    1.8130 H   0  0  0  0  0  0  0  0  0  0  0  0
    0.1200   -0.1911    1.6207 H   0  0  0  0  0  0  0  0  0  0  0  0
    0.7610   -1.7171    2.1656 H   0  0  0  0  0  0  0  0  0  0  0  0
    0.5347   -2.7481   -0.0491 H   0  0  0  0  0  0  0  0  0  0  0  0
    0.1417   -1.2271   -0.8105 H   0  0  0  0  0  0  0  0  0  0  0  0
   -2.7177   -3.2874    1.4850 H   0  0  0  0  0  0  0  0  0  0  0  0
   -1.6006   -2.3003    2.4343 H   0  0  0  0  0  0  0  0  0  0  0  0
   -1.0157   -3.7382    1.5635 H   0  0  0  0  0  0  0  0  0  0  0  0
   -1.5301    2.7416    0.6012 H   0  0  0  0  0  0  0  0  0  0  0  0
   -3.1010    4.6097    0.1528 H   0  0  0  0  0  0  0  0  0  0  0  0
   -5.3732    4.1361   -0.7375 H   0  0  0  0  0  0  0  0  0  0  0  0
   -6.0613    1.7904   -1.1795 H   0  0  0  0  0  0  0  0  0  0  0  0
   -2.9646   -3.3585   -1.0703 H   0  0  0  0  0  0  0  0  0  0  0  0
   -4.4300   -2.7583   -1.8615 H   0  0  0  0  0  0  0  0  0  0  0  0
   -4.4856   -3.2059   -0.1449 H   0  0  0  0  0  0  0  0  0  0  0  0
    1.3738    1.1717   -0.0518 H   0  0  0  0  0  0  0  0  0  0  0  0
    3.0460    3.8310   -1.8366 H   0  0  0  0  0  0  0  0  0  0  0  0
    2.0198    2.3971   -1.9498 H   0  0  0  0  0  0  0  0  0  0  0  0
    2.1113    3.3501   -0.4165 H   0  0  0  0  0  0  0  0  0  0  0  0
  1  2  1  0
  2  3  1  0
  3  4  2  0
  4  5  1  0
  5  6  2  0
  6  7  1  0
  7  8  1  0
  8  9  1  0
  9 10  1  0
  9 11  1  0
 11 12  2  0
 12 13  1  0
 13 14  2  0
 14 15  1  0
 15 16  2  0
 16 17  1  0
 17 18  2  0
 18 19  1  0
 19 20  2  0
 19 21  1  0
 21 22  1  0
  6 23  1  0
 23 24  2  0
 24 25  1  0
 25 26  1  0
 24  3  1  0
 21 11  1  0
 18 13  1  0
  1 27  1  0
  1 28  1  0
  1 29  1  0
  4 30  1  0
  5 31  1  0
  7 32  1  0
  7 33  1  0
  8 34  1  0
  8 35  1  0
 10 36  1  0
 10 37  1  0
 10 38  1  0
 14 39  1  0
 15 40  1  0
 16 41  1  0
 17 42  1  0
 22 43  1  0
 22 44  1  0
 22 45  1  0
 23 46  1  0
 26 47  1  0
 26 48  1  0
 26 49  1  0
M  END
$$$$
