
     RDKit          3D

 61 64  0  0  0  0  0  0  0  0999 V2000
    4.3745   -0.0107    2.2099 C   0  0  0  0  0  0  0  0  0  0  0  0
    4.7703    0.2415    0.8047 C   0  0  0  0  0  0  0  0  0  0  0  0
    6.0200    0.6461    0.5266 N   0  0  0  0  0  0  0  0  0  0  0  0
    6.0198    0.8007   -0.8150 N   0  0  0  0  0  0  0  0  0  0  0  0
    7.2382    1.2198   -1.4727 C   0  0  0  0  0  0  0  0  0  0  0  0
    4.8146    0.5084   -1.4093 C   0  0  0  0  0  0  0  0  0  0  0  0
    4.5816    0.5949   -2.8733 C   0  0  0  0  0  0  0  0  0  0  0  0
    3.9876    0.1300   -0.3761 C   0  0  0  0  0  0  0  0  0  0  0  0
    2.6895   -0.2480   -0.5287 N   0  0  0  0  0  0  0  0  0  0  0  0
    1.6718    0.8103   -0.4129 C   0  0  0  0  0  0  0  0  0  0  0  0
    0.2490    0.2435   -0.5073 C   0  0  0  0  0  0  0  0  0  0  0  0
   -0.0135   -0.7856    0.5096 N   0  0  0  0  0  0  0  0  0  0  0  0
   -1.2774   -1.1933    0.9284 C   0  0  0  0  0  0  0  0  0  0  0  0
   -1.4398   -2.1963    1.6194 O   0  0  0  0  0  0  0  0  0  0  0  0
   -2.4154   -0.3835    0.5157 C   0  0  0  0  0  0  0  0  0  0  0  0
   -2.6799    0.9763    0.8673 C   0  0  0  0  0  0  0  0  0  0  0  0
   -3.8844    1.3480    0.3020 C   0  0  0  0  0  0  0  0  0  0  0  0
   -4.6390    2.6453    0.3247 C   0  0  0  0  0  0  0  0  0  0  0  0
   -4.8431    3.1469    1.7578 C   0  0  0  0  0  0  0  0  0  0  0  0
   -3.9232    3.6965   -0.5221 C   0  0  0  0  0  0  0  0  0  0  0  0
   -4.3689    0.2439   -0.3548 N   0  0  0  0  0  0  0  0  0  0  0  0
   -3.4998   -0.8077   -0.2356 C   0  0  0  0  0  0  0  0  0  0  0  0
   -3.8584   -1.9765   -0.8325 N   0  0  0  0  0  0  0  0  0  0  0  0
   -4.1584   -3.1113    0.0524 C   0  0  0  0  0  0  0  0  0  0  0  0
   -3.2221   -4.2110   -0.4177 C   0  0  0  0  0  0  0  0  0  0  0  0
   -3.0182   -3.9328   -1.8086 O   0  0  0  0  0  0  0  0  0  0  0  0
   -2.9839   -2.5023   -1.8868 C   0  0  0  0  0  0  0  0  0  0  0  0
    1.1524   -1.5596    0.9504 C   0  0  0  0  0  0  0  0  0  0  0  0
    2.2877   -1.5922   -0.0815 C   0  0  0  0  0  0  0  0  0  0  0  0
    4.3428   -1.0845    2.4089 H   0  0  0  0  0  0  0  0  0  0  0  0
    5.0804    0.4441    2.9112 H   0  0  0  0  0  0  0  0  0  0  0  0
    3.3849    0.4092    2.4201 H   0  0  0  0  0  0  0  0  0  0  0  0
    7.6642    0.3547   -1.9894 H   0  0  0  0  0  0  0  0  0  0  0  0
    7.9445    1.5944   -0.7240 H   0  0  0  0  0  0  0  0  0  0  0  0
    7.0041    2.0168   -2.1830 H   0  0  0  0  0  0  0  0  0  0  0  0
    3.5365    0.3725   -3.1264 H   0  0  0  0  0  0  0  0  0  0  0  0
    5.2189   -0.1208   -3.4108 H   0  0  0  0  0  0  0  0  0  0  0  0
    4.8010    1.6032   -3.2401 H   0  0  0  0  0  0  0  0  0  0  0  0
    1.8149    1.5440   -1.2149 H   0  0  0  0  0  0  0  0  0  0  0  0
    1.7843    1.3319    0.5448 H   0  0  0  0  0  0  0  0  0  0  0  0
    0.0990   -0.2322   -1.4831 H   0  0  0  0  0  0  0  0  0  0  0  0
   -0.4638    1.0636   -0.4322 H   0  0  0  0  0  0  0  0  0  0  0  0
   -2.0489    1.6092    1.4783 H   0  0  0  0  0  0  0  0  0  0  0  0
   -5.6339    2.4845   -0.1138 H   0  0  0  0  0  0  0  0  0  0  0  0
   -5.3735    2.4011    2.3593 H   0  0  0  0  0  0  0  0  0  0  0  0
   -5.4389    4.0648    1.7665 H   0  0  0  0  0  0  0  0  0  0  0  0
   -3.8907    3.3611    2.2566 H   0  0  0  0  0  0  0  0  0  0  0  0
   -2.9178    3.9079   -0.1378 H   0  0  0  0  0  0  0  0  0  0  0  0
   -3.8160    3.3592   -1.5618 H   0  0  0  0  0  0  0  0  0  0  0  0
   -4.4887    4.6351   -0.5287 H   0  0  0  0  0  0  0  0  0  0  0  0
   -5.2461    0.1822   -0.8509 H   0  0  0  0  0  0  0  0  0  0  0  0
   -4.0508   -2.9030    1.1238 H   0  0  0  0  0  0  0  0  0  0  0  0
   -5.1997   -3.4065   -0.1283 H   0  0  0  0  0  0  0  0  0  0  0  0
   -3.6481   -5.2104   -0.2926 H   0  0  0  0  0  0  0  0  0  0  0  0
   -2.2513   -4.1742    0.0876 H   0  0  0  0  0  0  0  0  0  0  0  0
   -1.9397   -2.1809   -1.7800 H   0  0  0  0  0  0  0  0  0  0  0  0
   -3.3456   -2.1974   -2.8750 H   0  0  0  0  0  0  0  0  0  0  0  0
    0.8616   -2.5870    1.1950 H   0  0  0  0  0  0  0  0  0  0  0  0
    1.5025   -1.0880    1.8778 H   0  0  0  0  0  0  0  0  0  0  0  0
    1.9454   -2.1407   -0.9664 H   0  0  0  0  0  0  0  0  0  0  0  0
    3.1369   -2.1549    0.3252 H   0  0  0  0  0  0  0  0  0  0  0  0
  1  2  1  0
  2  3  2  0
  3  4  1  0
  4  5  1  0
  4  6  1  0
  6  7  1  0
  6  8  2  0
  8  9  1  0
  9 10  1  0
 10 11  1  0
 11 12  1  0
 12 13  1  0
 13 14  2  0
 13 15  1  0
 15 16  1  0
 16 17  2  0
 17 18  1  0
 18 19  1  0
 18 20  1  0
 17 21  1  0
 21 22  1  0
 22 23  1  0
 23 24  1  0
 24 25  1  0
 25 26  1  0
 26 27  1  0
 12 28  1  0
 28 29  1  0
  8  2  1  0
 29  9  1  0
 22 15  2  0
 27 23  1  0
  1 30  1  0
  1 31  1  0
  1 32  1  0
  5 33  1  0
  5 34  1  0
  5 35  1  0
  7 36  1  0
  7 37  1  0
  7 38  1  0
 10 39  1  0
 10 40  1  0
 11 41  1  0
 11 42  1  0
 16 43  1  0
 18 44  1  0
 19 45  1  0
 19 46  1  0
 19 47  1  0
 20 48  1  0
 20 49  1  0
 20 50  1  0
 21 51  1  0
 24 52  1  0
 24 53  1  0
 25 54  1  0
 25 55  1  0
 27 56  1  0
 27 57  1  0
 28 58  1  0
 28 59  1  0
 29 60  1  0
 29 61  1  0
M  END
$$$$
