MODEL        8USER    Run = 8USERUSER    Estimated Free Energy of Binding    = -11.07 kcal/mol  [=(1)+(2)+(3)-(4)]USERUSER    (1) Final Intermolecular Energy     = -13.45 kcal/molUSER        vdW + Hbond + desolv Energy     = -13.33 kcal/molUSER        Electrostatic Energy            =  -0.13 kcal/molUSER        Moving Ligand-Fixed Receptor    = -13.45 kcal/molUSER        Moving Ligand-Moving Receptor   =  +0.00 kcal/molUSER    (2) Final Total Internal Energy     =  -0.97 kcal/molUSER    (3) Torsional Free Energy           =  +2.39 kcal/molUSER    (4) Unbound System's Energy         =  -0.97 kcal/molUSERUSERREMARK SMILES Nc1nnc(-c2ccc(F)c(C[C@H]3CCN(c4ncccn4)C[C@@H]3O)c2O)c(-c2ccncc2)n1REMARK SMILES IDX 6 1 7 2 8 3 9 4 10 5 11 6 26 7 5 8 2 9 3 10 35 11 4 12 28 13REMARK SMILES IDX 1 14 29 17 30 18 34 19 31 20 33 21 32 22 27 23 12 25 13 26REMARK SMILES IDX 14 27 24 28 15 29 23 30 16 31 25 32 17 34 18 35 22 36 19 37REMARK SMILES IDX 21 38 20 39REMARK H PARENT 1 15 1 16 27 24 25 33USER                              x       y       z     vdW  Elec       q    TypeUSER                           _______ _______ _______ _____ _____    ______ ____ROOTATOM      1  C   UNL     1      38.542  46.459  17.018 -0.37 -0.01    +0.047 A  ATOM      2  C   UNL     1      39.139  45.374  17.679 -0.39 -0.00    +0.017 A  ATOM      3  C   UNL     1      38.353  44.379  18.264 -0.31 -0.01    +0.040 A  ATOM      4  C   UNL     1      36.967  44.466  18.198 -0.26 -0.03    +0.130 A  ATOM      5  F   UNL     1      36.236  43.493  18.761 -0.05 +0.04    -0.207 F  ATOM      6  C   UNL     1      36.328  45.534  17.558 -0.32 -0.01    +0.031 A  ATOM      7  C   UNL     1      37.136  46.512  16.963 -0.20 -0.07    +0.131 A  ENDROOTBRANCH   1   8ATOM      8  C   UNL     1      39.371  47.483  16.382 -0.38 -0.04    +0.123 A  ATOM      9  C   UNL     1      40.888  49.481  15.423 -0.44 -0.06    +0.240 A  ATOM     10  N   UNL     1      41.089  49.042  16.678 -0.83 +0.01    -0.111 NA ATOM     11  N   UNL     1      39.973  48.973  14.594 -0.35 +0.08    -0.210 NA ATOM     12  N   UNL     1      40.315  48.035  17.176 -0.39 +0.03    -0.144 NA ATOM     13  C   UNL     1      39.213  47.956  15.082 -0.44 -0.04    +0.103 A  BRANCH   9  14ATOM     14  N   UNL     1      41.696  50.491  14.927 -0.37 +0.08    -0.366 N  ATOM     15  H   UNL     1      41.229  50.956  14.160 -0.03 -0.07    +0.159 HD ATOM     16  H   UNL     1      42.003  51.076  15.694 -0.35 -0.03    +0.159 HD ENDBRANCH   9  14BRANCH  13  17ATOM     17  C   UNL     1      38.207  47.454  14.131 -0.50 -0.00    +0.006 A  ATOM     18  C   UNL     1      37.295  48.304  13.494 -0.51 -0.01    +0.030 A  ATOM     19  C   UNL     1      38.121  46.084  13.853 -0.38 -0.01    +0.030 A  ATOM     20  C   UNL     1      36.382  47.765  12.604 -0.57 -0.05    +0.111 A  ATOM     21  C   UNL     1      37.174  45.638  12.949 -0.40 -0.04    +0.111 A  ATOM     22  N   UNL     1      36.307  46.450  12.311 -0.43 +0.12    -0.265 NA ENDBRANCH  13  17ENDBRANCH   1   8BRANCH   7  23ATOM     23  O   UNL     1      36.546  47.558  16.303 -0.01 +0.55    -0.507 OA ATOM     24  H   UNL     1      35.764  47.800  16.855 +0.08 -0.50    +0.293 HD ENDBRANCH   7  23BRANCH   6  25ATOM     25  C   UNL     1      34.818  45.584  17.520 -0.40 -0.03    +0.049 C  BRANCH  25  26ATOM     26  C   UNL     1      34.161  44.226  17.850 -0.36 -0.01    +0.026 C  ATOM     27  C   UNL     1      33.179  44.348  19.020 -0.47 -0.01    +0.028 C  ATOM     28  C   UNL     1      33.414  43.635  16.628 -0.29 -0.06    +0.137 C  ATOM     29  C   UNL     1      32.680  42.960  19.451 -0.38 +0.00    +0.120 C  ATOM     30  C   UNL     1      32.284  42.649  17.010 -0.27 -0.06    +0.151 C  ATOM     31  N   UNL     1      32.577  42.050  18.307 -0.14 +0.06    -0.338 N  BRANCH  28  32ATOM     32  O   UNL     1      34.381  42.997  15.779 -0.19 +0.18    -0.391 OA ATOM     33  H   UNL     1      33.979  42.150  15.500 -0.39 -0.13    +0.211 HD ENDBRANCH  28  32BRANCH  31  34ATOM     34  C   UNL     1      31.952  40.837  18.586 -0.24 -0.01    +0.225 A  ATOM     35  N   UNL     1      31.122  40.309  17.668 -0.23 +0.03    -0.221 NA ATOM     36  N   UNL     1      32.166  40.252  19.776 -0.73 -0.06    -0.221 NA ATOM     37  C   UNL     1      30.498  39.155  17.971 -0.31 +0.02    +0.117 A  ATOM     38  C   UNL     1      31.520  39.100  20.039 -0.34 +0.02    +0.117 A  ATOM     39  C   UNL     1      30.659  38.496  19.159 -0.40 +0.01    +0.040 A  ENDBRANCH  31  34ENDBRANCH  25  26ENDBRANCH   6  25TORSDOF 8TERENDMDL