REMARK SMILES NC(=O)C[C@@H]1CCN(c2nc(-c3ccc(F)cc3)cc3[nH]ncc23)C[C@@H]1O
REMARK SMILES IDX 5 1 6 2 7 3 8 4 25 5 26 6 4 7 2 8 1 9 3 12 27 13 9 15 10 16
REMARK SMILES IDX 24 17 11 18 23 19 20 20 19 21 22 22 21 23 12 25 13 26 18 27
REMARK SMILES IDX 14 28 17 29 15 30 16 31
REMARK H PARENT 1 10 1 11 27 14 21 24
ROOT
ATOM      1  C   UNL     1       3.275  -0.232   0.508  1.00  0.00     0.031 C 
ATOM      2  C   UNL     1       2.702  -1.660   0.342  1.00  0.00     0.028 C 
ATOM      3  C   UNL     1       1.220  -1.683  -0.055  1.00  0.00     0.118 C 
ATOM      4  N   UNL     1       0.559  -0.510   0.514  1.00  0.00    -0.353 N 
ATOM      5  C   UNL     1       1.009   0.775  -0.060  1.00  0.00     0.150 C 
ATOM      6  C   UNL     1       2.523   0.753  -0.402  1.00  0.00     0.137 C 
ENDROOT
BRANCH   1   7
ATOM      7  C   UNL     1       4.789  -0.248   0.253  1.00  0.00     0.106 C 
BRANCH   7   8
ATOM      8  C   UNL     1       5.473   1.044   0.648  1.00  0.00     0.217 C 
ATOM      9  N   UNL     1       6.801   1.093   0.333  1.00  0.00    -0.370 N 
ATOM     10  H   UNL     1       7.281   1.966   0.513  1.00  0.00     0.159 HD
ATOM     11  H   UNL     1       7.218   0.450  -0.327  1.00  0.00     0.159 HD
ATOM     12  O   UNL     1       4.931   1.979   1.226  1.00  0.00    -0.275 OA
ENDBRANCH   7   8
ENDBRANCH   1   7
BRANCH   6  13
ATOM     13  O   UNL     1       2.732   0.351  -1.767  1.00  0.00    -0.391 OA
ATOM     14  H   UNL     1       2.229   0.969  -2.328  1.00  0.00     0.211 HD
ENDBRANCH   6  13
BRANCH   4  15
ATOM     15  C   UNL     1      -0.831  -0.629   0.631  1.00  0.00     0.140 A 
ATOM     16  N   UNL     1      -1.651   0.205  -0.074  1.00  0.00    -0.230 NA
ATOM     17  C   UNL     1      -1.450  -1.553   1.504  1.00  0.00     0.062 A 
ATOM     18  C   UNL     1      -3.005   0.146   0.033  1.00  0.00     0.075 A 
ATOM     19  C   UNL     1      -1.014  -2.524   2.437  1.00  0.00     0.147 A 
ATOM     20  C   UNL     1      -2.836  -1.604   1.592  1.00  0.00     0.071 A 
ATOM     21  C   UNL     1      -3.664  -0.762   0.858  1.00  0.00     0.057 A 
ATOM     22  N   UNL     1      -2.022  -3.170   3.031  1.00  0.00    -0.183 NA
ATOM     23  N   UNL     1      -3.112  -2.591   2.501  1.00  0.00    -0.278 N 
ATOM     24  H   UNL     1      -4.022  -2.911   2.812  1.00  0.00     0.190 HD
BRANCH  18  25
ATOM     25  C   UNL     1      -3.737   1.119  -0.802  1.00  0.00     0.000 A 
ATOM     26  C   UNL     1      -4.849   1.829  -0.312  1.00  0.00     0.013 A 
ATOM     27  C   UNL     1      -3.324   1.377  -2.125  1.00  0.00     0.013 A 
ATOM     28  C   UNL     1      -5.524   2.755  -1.115  1.00  0.00     0.040 A 
ATOM     29  C   UNL     1      -4.001   2.297  -2.930  1.00  0.00     0.040 A 
ATOM     30  C   UNL     1      -5.094   2.979  -2.416  1.00  0.00     0.123 A 
ATOM     31  F   UNL     1      -5.738   3.868  -3.182  1.00  0.00    -0.207 F 
ENDBRANCH  18  25
ENDBRANCH   4  15
TORSDOF 5
