REMARK SMILES Nc1nnc(-c2ccc(F)c(C[C@H]3CCN(c4ncccn4)C[C@@H]3O)c2O)c(-c2ccncc2)n1
REMARK SMILES IDX 6 1 7 2 8 3 9 4 10 5 11 6 26 7 5 8 2 9 3 10 35 11 4 12 28 13
REMARK SMILES IDX 1 14 29 17 30 18 34 19 31 20 33 21 32 22 27 23 12 25 13 26
REMARK SMILES IDX 14 27 24 28 15 29 23 30 16 31 25 32 17 34 18 35 22 36 19 37
REMARK SMILES IDX 21 38 20 39
REMARK H PARENT 1 15 1 16 27 24 25 33
ROOT
ATOM      1  C   UNL     1       2.405  -0.141   0.859  1.00  0.00     0.047 A 
ATOM      2  C   UNL     1       2.665   0.642   1.995  1.00  0.00     0.017 A 
ATOM      3  C   UNL     1       1.938   1.810   2.234  1.00  0.00     0.040 A 
ATOM      4  C   UNL     1       0.952   2.205   1.336  1.00  0.00     0.130 A 
ATOM      5  F   UNL     1       0.263   3.327   1.594  1.00  0.00    -0.207 F 
ATOM      6  C   UNL     1       0.665   1.461   0.187  1.00  0.00     0.031 A 
ATOM      7  C   UNL     1       1.395   0.284  -0.024  1.00  0.00     0.131 A 
ENDROOT
BRANCH   1   8
ATOM      8  C   UNL     1       3.150  -1.379   0.630  1.00  0.00     0.123 A 
ATOM      9  C   UNL     1       4.437  -3.728   0.423  1.00  0.00     0.240 A 
ATOM     10  N   UNL     1       3.197  -3.696   0.944  1.00  0.00    -0.111 NA
ATOM     11  N   UNL     1       5.085  -2.648  -0.021  1.00  0.00    -0.210 NA
ATOM     12  N   UNL     1       2.542  -2.506   1.062  1.00  0.00    -0.144 NA
ATOM     13  C   UNL     1       4.426  -1.463   0.079  1.00  0.00     0.103 A 
BRANCH   9  14
ATOM     14  N   UNL     1       5.080  -4.948   0.293  1.00  0.00    -0.366 N 
ATOM     15  H   UNL     1       4.395  -5.687   0.209  1.00  0.00     0.159 HD
ATOM     16  H   UNL     1       5.770  -4.882  -0.444  1.00  0.00     0.159 HD
ENDBRANCH   9  14
BRANCH  13  17
ATOM     17  C   UNL     1       5.200  -0.308  -0.405  1.00  0.00     0.006 A 
ATOM     18  C   UNL     1       4.705   0.562  -1.384  1.00  0.00     0.030 A 
ATOM     19  C   UNL     1       6.485  -0.060   0.094  1.00  0.00     0.030 A 
ATOM     20  C   UNL     1       5.484   1.634  -1.786  1.00  0.00     0.111 A 
ATOM     21  C   UNL     1       7.189   1.037  -0.370  1.00  0.00     0.111 A 
ATOM     22  N   UNL     1       6.713   1.895  -1.294  1.00  0.00    -0.265 NA
ENDBRANCH  13  17
ENDBRANCH   1   8
BRANCH   7  23
ATOM     23  O   UNL     1       1.122  -0.486  -1.125  1.00  0.00    -0.507 OA
ATOM     24  H   UNL     1       0.237  -0.885  -0.944  1.00  0.00     0.293 HD
ENDBRANCH   7  23
BRANCH   6  25
ATOM     25  C   UNL     1      -0.413   1.938  -0.759  1.00  0.00     0.049 C 
BRANCH  25  26
ATOM     26  C   UNL     1      -1.802   1.344  -0.441  1.00  0.00     0.026 C 
ATOM     27  C   UNL     1      -2.922   2.350  -0.727  1.00  0.00     0.028 C 
ATOM     28  C   UNL     1      -2.073   0.049  -1.246  1.00  0.00     0.137 C 
ATOM     29  C   UNL     1      -4.272   1.809  -0.230  1.00  0.00     0.120 C 
ATOM     30  C   UNL     1      -3.578  -0.255  -1.444  1.00  0.00     0.151 C 
ATOM     31  N   UNL     1      -4.344   0.351  -0.360  1.00  0.00    -0.338 N 
BRANCH  28  32
ATOM     32  O   UNL     1      -1.418  -1.040  -0.576  1.00  0.00    -0.391 OA
ATOM     33  H   UNL     1      -1.988  -1.271   0.184  1.00  0.00     0.211 HD
ENDBRANCH  28  32
BRANCH  31  34
ATOM     34  C   UNL     1      -5.602  -0.191  -0.111  1.00  0.00     0.225 A 
ATOM     35  N   UNL     1      -6.508   0.550   0.553  1.00  0.00    -0.221 NA
ATOM     36  N   UNL     1      -5.860  -1.449  -0.506  1.00  0.00    -0.221 NA
ATOM     37  C   UNL     1      -7.706  -0.004   0.818  1.00  0.00     0.117 A 
ATOM     38  C   UNL     1      -7.070  -1.965  -0.219  1.00  0.00     0.117 A 
ATOM     39  C   UNL     1      -8.048  -1.278   0.452  1.00  0.00     0.040 A 
ENDBRANCH  31  34
ENDBRANCH  25  26
ENDBRANCH   6  25
TORSDOF 8
