REMARK SMILES NC(=O)c1cc(-c2nc3ncccc3[nH]2)ccc1CN1CCC(n2c(O)nc3ncccc32)CC1
REMARK SMILES IDX 20 1 21 2 22 3 23 4 34 5 35 6 19 7 18 8 4 9 5 10 6 11 17 12
REMARK SMILES IDX 16 13 2 14 1 15 3 18 7 19 8 20 15 21 9 22 14 23 10 24 13 25
REMARK SMILES IDX 11 26 12 27 24 29 25 30 33 31 27 32 32 33 28 34 31 35 29 36
REMARK SMILES IDX 30 37 26 38
REMARK H PARENT 1 16 1 17 15 28 26 39
ROOT
ATOM      1  N   UNL     1      -1.228  -0.942   0.354  1.00  0.00    -0.299 NA
ATOM      2  C   UNL     1      -1.238  -0.155  -0.883  1.00  0.00     0.087 C 
ATOM      3  C   UNL     1      -2.598   0.478  -1.167  1.00  0.00     0.041 C 
ATOM      4  C   UNL     1      -3.636  -0.631  -1.367  1.00  0.00     0.095 C 
ATOM      5  C   UNL     1      -3.491  -1.779  -0.352  1.00  0.00     0.041 C 
ATOM      6  C   UNL     1      -2.538  -1.432   0.789  1.00  0.00     0.087 C 
ENDROOT
BRANCH   1   7
ATOM      7  C   UNL     1      -0.208  -2.002   0.352  1.00  0.00     0.120 C 
BRANCH   7   8
ATOM      8  C   UNL     1       1.203  -1.450   0.358  1.00  0.00    -0.021 A 
ATOM      9  C   UNL     1       1.749  -0.790   1.474  1.00  0.00     0.044 A 
ATOM     10  C   UNL     1       3.043  -0.247   1.412  1.00  0.00     0.026 A 
ATOM     11  C   UNL     1       3.817  -0.348   0.248  1.00  0.00     0.018 A 
ATOM     12  C   UNL     1       1.984  -1.548  -0.807  1.00  0.00     0.006 A 
ATOM     13  C   UNL     1       3.272  -1.004  -0.861  1.00  0.00     0.012 A 
BRANCH   9  14
ATOM     14  C   UNL     1       0.998  -0.667   2.751  1.00  0.00     0.249 C 
ATOM     15  N   UNL     1       1.004   0.571   3.331  1.00  0.00    -0.366 N 
ATOM     16  H   UNL     1       0.424   0.699   4.149  1.00  0.00     0.159 HD
ATOM     17  H   UNL     1       1.337   1.392   2.845  1.00  0.00     0.159 HD
ATOM     18  O   UNL     1       0.417  -1.612   3.266  1.00  0.00    -0.270 OA
ENDBRANCH   9  14
BRANCH  11  19
ATOM     19  C   UNL     1       5.158   0.245   0.234  1.00  0.00     0.140 A 
ATOM     20  N   UNL     1       5.598   1.165   1.074  1.00  0.00    -0.209 NA
ATOM     21  N   UNL     1       6.154  -0.100  -0.655  1.00  0.00    -0.337 N 
ATOM     22  C   UNL     1       6.889   1.423   0.708  1.00  0.00     0.178 A 
ATOM     23  C   UNL     1       7.268   0.643  -0.375  1.00  0.00     0.085 A 
ATOM     24  N   UNL     1       7.711   2.312   1.306  1.00  0.00    -0.235 NA
ATOM     25  C   UNL     1       8.541   0.715  -0.932  1.00  0.00     0.032 A 
ATOM     26  C   UNL     1       8.945   2.379   0.761  1.00  0.00     0.114 A 
ATOM     27  C   UNL     1       9.398   1.629  -0.321  1.00  0.00     0.022 A 
ATOM     28  H   UNL     1       6.080  -0.802  -1.376  1.00  0.00     0.168 HD
ENDBRANCH  11  19
ENDBRANCH   7   8
ENDBRANCH   1   7
BRANCH   4  29
ATOM     29  N   UNL     1      -4.997  -0.126  -1.483  1.00  0.00    -0.289 N 
ATOM     30  C   UNL     1      -5.789  -0.266  -2.594  1.00  0.00     0.296 A 
ATOM     31  C   UNL     1      -5.749   0.548  -0.548  1.00  0.00     0.091 A 
ATOM     32  N   UNL     1      -6.977   0.252  -2.458  1.00  0.00    -0.175 NA
ATOM     33  C   UNL     1      -5.538   0.997   0.757  1.00  0.00     0.032 A 
ATOM     34  C   UNL     1      -6.971   0.762  -1.190  1.00  0.00     0.181 A 
ATOM     35  C   UNL     1      -6.612   1.655   1.353  1.00  0.00     0.022 A 
ATOM     36  N   UNL     1      -8.017   1.399  -0.618  1.00  0.00    -0.235 NA
ATOM     37  C   UNL     1      -7.793   1.823   0.642  1.00  0.00     0.114 A 
BRANCH  30  38
ATOM     38  O   UNL     1      -5.419  -0.863  -3.708  1.00  0.00    -0.480 OA
ATOM     39  H   UNL     1      -6.225  -0.772  -4.250  1.00  0.00     0.296 HD
ENDBRANCH  30  38
ENDBRANCH   4  29
TORSDOF 6
