MODEL        10USER    Run = 10USERUSER    Estimated Free Energy of Binding    =  -9.57 kcal/mol  [=(1)+(2)+(3)-(4)]USERUSER    (1) Final Intermolecular Energy     = -11.06 kcal/molUSER        vdW + Hbond + desolv Energy     = -10.80 kcal/molUSER        Electrostatic Energy            =  -0.27 kcal/molUSER        Moving Ligand-Fixed Receptor    = -11.06 kcal/molUSER        Moving Ligand-Moving Receptor   =  +0.00 kcal/molUSER    (2) Final Total Internal Energy     =  -1.26 kcal/molUSER    (3) Torsional Free Energy           =  +1.49 kcal/molUSER    (4) Unbound System's Energy         =  -1.26 kcal/molUSERUSERREMARK SMILES NC(=O)C[C@@H]1CCN(c2nc(-c3ccc(F)cc3)cc3[nH]ncc23)C[C@@H]1OREMARK SMILES IDX 5 1 6 2 7 3 8 4 25 5 26 6 4 7 2 8 1 9 3 12 27 13 9 15 10 16REMARK SMILES IDX 24 17 11 18 23 19 20 20 19 21 22 22 21 23 12 25 13 26 18 27REMARK SMILES IDX 14 28 17 29 15 30 16 31REMARK H PARENT 1 10 1 11 27 14 21 24USER                              x       y       z     vdW  Elec       q    TypeUSER                           _______ _______ _______ _____ _____    ______ ____ROOTATOM      1  C   UNL     1      34.011  43.909  17.200 -0.34 -0.01    +0.031 C  ATOM      2  C   UNL     1      34.086  44.508  15.775 -0.35 -0.02    +0.028 C  ATOM      3  C   UNL     1      35.502  44.929  15.361 -0.32 -0.06    +0.118 C  ATOM      4  N   UNL     1      36.239  45.348  16.552 -0.10 +0.18    -0.353 N  ATOM      5  C   UNL     1      36.512  44.256  17.509 -0.28 -0.04    +0.150 C  ATOM      6  C   UNL     1      35.344  43.235  17.566 -0.32 -0.04    +0.137 C  ENDROOTBRANCH   1   7ATOM      7  C   UNL     1      32.811  42.957  17.300 -0.31 -0.04    +0.106 C  BRANCH   7   8ATOM      8  C   UNL     1      33.067  41.767  18.201 -0.31 -0.05    +0.217 C  ATOM      9  N   UNL     1      33.543  40.665  17.550 -0.03 +0.18    -0.370 N  ATOM     10  H   UNL     1      33.798  39.870  18.123 -0.19 -0.06    +0.159 HD ATOM     11  H   UNL     1      33.932  40.721  16.618 -0.46 -0.15    +0.159 HD ATOM     12  O   UNL     1      32.856  41.739  19.408 -0.43 -0.02    -0.275 OA ENDBRANCH   7   8ENDBRANCH   1   7BRANCH   6  13ATOM     13  O   UNL     1      35.566  42.153  16.645 -0.29 +0.17    -0.391 OA ATOM     14  H   UNL     1      35.462  41.324  17.146 -0.35 -0.14    +0.211 HD ENDBRANCH   6  13BRANCH   4  15ATOM     15  C   UNL     1      37.342  46.169  16.291 -0.28 -0.07    +0.140 A  ATOM     16  N   UNL     1      38.403  46.184  17.150 -0.25 +0.07    -0.230 NA ATOM     17  C   UNL     1      37.397  47.049  15.186 -0.38 -0.04    +0.062 A  ATOM     18  C   UNL     1      39.481  46.989  16.953 -0.41 -0.02    +0.075 A  ATOM     19  C   UNL     1      36.535  47.403  14.120 -0.37 -0.10    +0.147 A  ATOM     20  C   UNL     1      38.512  47.857  14.996 -0.46 -0.03    +0.071 A  ATOM     21  C   UNL     1      39.595  47.854  15.868 -0.48 -0.02    +0.057 A  ATOM     22  N   UNL     1      37.065  48.315  13.298 -0.78 +0.07    -0.183 NA ATOM     23  N   UNL     1      38.261  48.571  13.854 -0.29 +0.11    -0.278 N  ATOM     24  H   UNL     1      38.858  49.257  13.408 -0.24 -0.08    +0.190 HD BRANCH  18  25ATOM     25  C   UNL     1      40.537  46.875  17.978 -0.50 -0.00    +0.000 A  ATOM     26  C   UNL     1      40.485  45.901  18.993 -0.45 -0.00    +0.013 A  ATOM     27  C   UNL     1      41.649  47.741  17.956 -0.51 -0.00    +0.013 A  ATOM     28  C   UNL     1      41.501  45.802  19.950 -0.38 +0.00    +0.040 A  ATOM     29  C   UNL     1      42.661  47.647  18.915 -0.49 +0.00    +0.040 A  ATOM     30  C   UNL     1      42.578  46.676  19.902 -0.35 +0.03    +0.123 A  ATOM     31  F   UNL     1      43.552  46.578  20.815 -0.10 -0.12    -0.207 F  ENDBRANCH  18  25ENDBRANCH   4  15TORSDOF 5TERENDMDL