MODEL        7USER    Run = 7USERUSER    Estimated Free Energy of Binding    = -11.70 kcal/mol  [=(1)+(2)+(3)-(4)]USERUSER    (1) Final Intermolecular Energy     = -13.49 kcal/molUSER        vdW + Hbond + desolv Energy     = -13.13 kcal/molUSER        Electrostatic Energy            =  -0.36 kcal/molUSER        Moving Ligand-Fixed Receptor    = -13.49 kcal/molUSER        Moving Ligand-Moving Receptor   =  +0.00 kcal/molUSER    (2) Final Total Internal Energy     =  -0.96 kcal/molUSER    (3) Torsional Free Energy           =  +1.79 kcal/molUSER    (4) Unbound System's Energy         =  -0.96 kcal/molUSERUSERREMARK SMILES NC(=O)c1cc(-c2nc3ncccc3[nH]2)ccc1CN1CCC(n2c(O)nc3ncccc32)CC1REMARK SMILES IDX 20 1 21 2 22 3 23 4 34 5 35 6 19 7 18 8 4 9 5 10 6 11 17 12REMARK SMILES IDX 16 13 2 14 1 15 3 18 7 19 8 20 15 21 9 22 14 23 10 24 13 25REMARK SMILES IDX 11 26 12 27 24 29 25 30 33 31 27 32 32 33 28 34 31 35 29 36REMARK SMILES IDX 30 37 26 38REMARK H PARENT 1 16 1 17 15 28 26 39USER                              x       y       z     vdW  Elec       q    TypeUSER                           _______ _______ _______ _____ _____    ______ ____ROOTATOM      1  N   UNL     1      35.270  44.816  16.586 -0.11 +0.16    -0.299 NA ATOM      2  C   UNL     1      36.372  44.135  15.900 -0.38 -0.03    +0.087 C  ATOM      3  C   UNL     1      37.686  44.909  15.984 -0.36 -0.01    +0.041 C  ATOM      4  C   UNL     1      37.521  46.258  15.277 -0.38 -0.04    +0.095 C  ATOM      5  C   UNL     1      36.177  46.939  15.591 -0.38 -0.04    +0.041 C  ATOM      6  C   UNL     1      35.434  46.263  16.741 -0.36 -0.08    +0.087 C  ENDROOTBRANCH   1   7ATOM      7  C   UNL     1      33.949  44.458  16.047 -0.29 -0.07    +0.120 C  BRANCH   7   8ATOM      8  C   UNL     1      33.315  43.298  16.786 -0.32 +0.01    -0.021 A  ATOM      9  C   UNL     1      31.923  43.094  16.815 -0.28 -0.02    +0.044 A  ATOM     10  C   UNL     1      31.379  42.035  17.560 -0.29 -0.01    +0.026 A  ATOM     11  C   UNL     1      32.200  41.162  18.287 -0.38 -0.00    +0.018 A  ATOM     12  C   UNL     1      34.133  42.420  17.518 -0.40 -0.00    +0.006 A  ATOM     13  C   UNL     1      33.583  41.367  18.258 -0.34 -0.00    +0.012 A  BRANCH   9  14ATOM     14  C   UNL     1      30.992  43.962  16.048 -0.22 -0.11    +0.249 C  ATOM     15  N   UNL     1      30.400  43.388  14.958 -0.04 +0.28    -0.366 N  ATOM     16  H   UNL     1      29.694  43.930  14.478 -0.25 -0.23    +0.159 HD ATOM     17  H   UNL     1      30.444  42.394  14.782 +0.08 -0.11    +0.159 HD ATOM     18  O   UNL     1      30.771  45.125  16.358 -0.71 +0.05    -0.270 OA ENDBRANCH   9  14BRANCH  11  19ATOM     19  C   UNL     1      31.579  40.079  19.056 -0.30 +0.01    +0.140 A  ATOM     20  N   UNL     1      32.048  39.572  20.182 -0.82 -0.08    -0.209 NA ATOM     21  N   UNL     1      30.398  39.456  18.712 -0.14 -0.03    -0.337 N  ATOM     22  C   UNL     1      31.163  38.600  20.556 -0.33 +0.03    +0.178 A  ATOM     23  C   UNL     1      30.114  38.503  19.652 -0.32 +0.01    +0.085 A  ATOM     24  N   UNL     1      31.268  37.823  21.655 -0.39 -0.02    -0.235 NA ATOM     25  C   UNL     1      29.076  37.591  19.814 -0.32 +0.00    +0.032 A  ATOM     26  C   UNL     1      30.259  36.939  21.808 -0.35 +0.00    +0.114 A  ATOM     27  C   UNL     1      29.175  36.785  20.947 -0.30 -0.00    +0.022 A  ATOM     28  H   UNL     1      29.826  39.682  17.912 +0.09 +0.02    +0.168 HD ENDBRANCH  11  19ENDBRANCH   7   8ENDBRANCH   1   7BRANCH   4  29ATOM     29  N   UNL     1      38.671  47.136  15.445 -0.22 +0.11    -0.289 N  ATOM     30  C   UNL     1      39.004  48.156  14.591 -0.29 -0.11    +0.296 A  ATOM     31  C   UNL     1      39.610  47.143  16.450 -0.42 -0.02    +0.091 A  ATOM     32  N   UNL     1      40.066  48.817  14.956 -0.42 +0.06    -0.175 NA ATOM     33  C   UNL     1      39.839  46.383  17.598 -0.45 -0.00    +0.032 A  ATOM     34  C   UNL     1      40.456  48.202  16.112 -0.42 -0.04    +0.181 A  ATOM     35  C   UNL     1      40.945  46.753  18.361 -0.49 -0.00    +0.022 A  ATOM     36  N   UNL     1      41.530  48.567  16.847 -0.82 -0.00    -0.235 NA ATOM     37  C   UNL     1      41.733  47.821  17.952 -0.40 -0.01    +0.114 A  BRANCH  30  38ATOM     38  O   UNL     1      38.337  48.468  13.499 -0.38 +0.13    -0.480 OA ATOM     39  H   UNL     1      38.157  49.415  13.650 -0.24 -0.17    +0.296 HD ENDBRANCH  30  38ENDBRANCH   4  29TORSDOF 6TERENDMDL