REMARK SMILES OCCNCc1ccccc1-c1n[nH]c2ccc(Cc3ccc(F)cc3)cc12
REMARK SMILES IDX 5 1 4 2 3 4 2 5 1 6 6 8 7 9 11 10 8 11 10 12 9 13 12 14
REMARK SMILES IDX 13 15 28 16 14 17 27 18 15 19 18 20 16 21 17 22 19 24 20 25
REMARK SMILES IDX 21 26 26 27 22 28 25 29 23 30 24 31
REMARK H PARENT 4 3 1 7 14 23
ROOT
ATOM      1  C   UNL     1      -3.475   0.368  -1.174  1.00  0.00     0.117 C 
ENDROOT
BRANCH   1   2
ATOM      2  N   UNL     1      -4.940   0.215  -1.186  1.00  0.00    -0.310 NA
ATOM      3  H   UNL     1      -5.219   0.115  -2.162  1.00  0.00     0.123 HD
BRANCH   2   4
ATOM      4  C   UNL     1      -5.391  -0.994  -0.480  1.00  0.00     0.109 C 
BRANCH   4   5
ATOM      5  C   UNL     1      -5.317  -0.950   1.052  1.00  0.00     0.171 C 
BRANCH   5   6
ATOM      6  O   UNL     1      -6.133  -1.984   1.609  1.00  0.00    -0.395 OA
ATOM      7  H   UNL     1      -7.057  -1.732   1.438  1.00  0.00     0.210 HD
ENDBRANCH   5   6
ENDBRANCH   4   5
ENDBRANCH   2   4
ENDBRANCH   1   2
BRANCH   1   8
ATOM      8  C   UNL     1      -2.923   1.005   0.084  1.00  0.00    -0.025 A 
ATOM      9  C   UNL     1      -3.533   2.178   0.575  1.00  0.00     0.006 A 
ATOM     10  C   UNL     1      -1.779   0.516   0.748  1.00  0.00     0.007 A 
ATOM     11  C   UNL     1      -3.044   2.831   1.707  1.00  0.00     0.000 A 
ATOM     12  C   UNL     1      -1.297   1.183   1.890  1.00  0.00     0.011 A 
ATOM     13  C   UNL     1      -1.927   2.332   2.367  1.00  0.00     0.001 A 
BRANCH  10  14
ATOM     14  C   UNL     1      -1.055  -0.668   0.296  1.00  0.00     0.100 A 
ATOM     15  N   UNL     1      -1.613  -1.887   0.337  1.00  0.00    -0.174 NA
ATOM     16  C   UNL     1       0.279  -0.725  -0.210  1.00  0.00     0.028 A 
ATOM     17  N   UNL     1      -0.647  -2.705  -0.110  1.00  0.00    -0.277 N 
ATOM     18  C   UNL     1       1.304   0.205  -0.477  1.00  0.00     0.016 A 
ATOM     19  C   UNL     1       0.510  -2.070  -0.467  1.00  0.00     0.066 A 
ATOM     20  C   UNL     1       2.534  -0.246  -0.991  1.00  0.00    -0.043 A 
ATOM     21  C   UNL     1       1.717  -2.555  -0.976  1.00  0.00     0.028 A 
ATOM     22  C   UNL     1       2.723  -1.616  -1.232  1.00  0.00     0.006 A 
ATOM     23  H   UNL     1      -0.843  -3.698  -0.150  1.00  0.00     0.190 HD
BRANCH  20  24
ATOM     24  C   UNL     1       3.645   0.741  -1.276  1.00  0.00     0.071 C 
BRANCH  24  25
ATOM     25  C   UNL     1       4.811   0.642  -0.316  1.00  0.00    -0.043 A 
ATOM     26  C   UNL     1       4.661   1.022   1.028  1.00  0.00     0.007 A 
ATOM     27  C   UNL     1       6.057   0.168  -0.756  1.00  0.00     0.007 A 
ATOM     28  C   UNL     1       5.736   0.928   1.913  1.00  0.00     0.039 A 
ATOM     29  C   UNL     1       7.131   0.075   0.131  1.00  0.00     0.039 A 
ATOM     30  C   UNL     1       6.960   0.456   1.456  1.00  0.00     0.123 A 
ATOM     31  F   UNL     1       7.992   0.366   2.306  1.00  0.00    -0.207 F 
ENDBRANCH  24  25
ENDBRANCH  20  24
ENDBRANCH  10  14
ENDBRANCH   1   8
TORSDOF 8
