REMARK SMILES CC(C)(O)Cc1ccccc1-c1ccc2c(N)n[nH]c2c1
REMARK SMILES IDX 6 1 7 2 8 3 9 4 10 5 11 6 5 7 2 8 1 9 3 10 4 11 12 13 13 14
REMARK SMILES IDX 21 15 14 16 20 17 15 18 19 19 16 20 18 21 17 23
REMARK H PARENT 4 12 19 22 17 24 17 25
ROOT
ATOM      1  C   UNL     1      -1.141  -1.470   0.791  1.00  0.00    -0.037 A 
ATOM      2  C   UNL     1      -2.102  -2.473   1.022  1.00  0.00     0.004 A 
ATOM      3  C   UNL     1      -2.001  -3.726   0.420  1.00  0.00     0.000 A 
ATOM      4  C   UNL     1      -0.933  -4.003  -0.423  1.00  0.00     0.001 A 
ATOM      5  C   UNL     1       0.034  -3.026  -0.660  1.00  0.00     0.009 A 
ATOM      6  C   UNL     1      -0.048  -1.753  -0.062  1.00  0.00    -0.015 A 
ENDROOT
BRANCH   1   7
ATOM      7  C   UNL     1      -1.328  -0.126   1.480  1.00  0.00     0.070 C 
BRANCH   7   8
ATOM      8  C   UNL     1      -2.494   0.754   0.959  1.00  0.00     0.063 C 
ATOM      9  C   UNL     1      -2.435   2.123   1.650  1.00  0.00     0.042 C 
ATOM     10  C   UNL     1      -2.468   0.945  -0.560  1.00  0.00     0.042 C 
BRANCH   8  11
ATOM     11  O   UNL     1      -3.744   0.158   1.328  1.00  0.00    -0.390 OA
ATOM     12  H   UNL     1      -4.457   0.694   0.941  1.00  0.00     0.211 HD
ENDBRANCH   8  11
ENDBRANCH   7   8
ENDBRANCH   1   7
BRANCH   6  13
ATOM     13  C   UNL     1       1.018  -0.781  -0.353  1.00  0.00    -0.016 A 
ATOM     14  C   UNL     1       2.061  -0.576   0.565  1.00  0.00     0.009 A 
ATOM     15  C   UNL     1       1.011  -0.070  -1.567  1.00  0.00     0.037 A 
ATOM     16  C   UNL     1       3.093   0.339   0.314  1.00  0.00     0.015 A 
ATOM     17  C   UNL     1       2.049   0.840  -1.797  1.00  0.00     0.068 A 
ATOM     18  C   UNL     1       3.080   1.063  -0.892  1.00  0.00     0.044 A 
ATOM     19  N   UNL     1       2.320   1.666  -2.855  1.00  0.00    -0.276 N 
ATOM     20  C   UNL     1       3.894   2.046  -1.515  1.00  0.00     0.153 A 
ATOM     21  N   UNL     1       3.422   2.418  -2.701  1.00  0.00    -0.157 NA
ATOM     22  H   UNL     1       1.788   1.766  -3.711  1.00  0.00     0.190 HD
BRANCH  20  23
ATOM     23  N   UNL     1       5.009   2.567  -0.979  1.00  0.00    -0.382 N 
ATOM     24  H   UNL     1       5.125   2.566   0.026  1.00  0.00     0.158 HD
ATOM     25  H   UNL     1       5.348   3.415  -1.421  1.00  0.00     0.158 HD
ENDBRANCH  20  23
ENDBRANCH   6  13
TORSDOF 5
