MODEL        2USER    Run = 2USERUSER    Estimated Free Energy of Binding    =  -9.07 kcal/mol  [=(1)+(2)+(3)-(4)]USERUSER    (1) Final Intermolecular Energy     =  -9.67 kcal/molUSER        vdW + Hbond + desolv Energy     =  -9.59 kcal/molUSER        Electrostatic Energy            =  -0.08 kcal/molUSER        Moving Ligand-Fixed Receptor    =  -9.67 kcal/molUSER        Moving Ligand-Moving Receptor   =  +0.00 kcal/molUSER    (2) Final Total Internal Energy     =  -0.26 kcal/molUSER    (3) Torsional Free Energy           =  +0.60 kcal/molUSER    (4) Unbound System's Energy         =  -0.26 kcal/molUSERUSERREMARK SMILES CNc1nccc(-c2cc3c(cn2)-c2c(F)cccc2S(=O)(=O)C3)n1REMARK SMILES IDX 3 1 4 2 5 3 6 4 7 5 25 6 2 7 1 8 8 10 9 11 13 12 10 13 12 14REMARK SMILES IDX 11 15 24 16 14 17 21 18 15 19 20 20 17 21 19 22 18 23 22 24REMARK SMILES IDX 23 25 16 26REMARK H PARENT 2 9USER                              x       y       z     vdW  Elec       q    TypeUSER                           _______ _______ _______ _____ _____    ______ ____ROOTATOM      1  C   UNL     1      39.416  48.689  15.088 -0.33 -0.10    +0.222 A  ATOM      2  N   UNL     1      38.958  48.549  13.844 -0.35 +0.08    -0.222 NA ATOM      3  C   UNL     1      38.153  47.503  13.613 -0.40 -0.03    +0.117 A  ATOM      4  C   UNL     1      37.768  46.608  14.578 -0.39 -0.02    +0.051 A  ATOM      5  C   UNL     1      38.256  46.848  15.854 -0.35 -0.04    +0.094 A  ATOM      6  N   UNL     1      39.081  47.893  16.113 -0.31 +0.09    -0.211 NA ENDROOTBRANCH   1   7ATOM      7  N   UNL     1      40.382  49.632  15.373 -0.29 +0.14    -0.357 N  ATOM      8  C   UNL     1      41.571  49.608  14.549 -0.62 -0.02    +0.143 C  ATOM      9  H   UNL     1      39.911  50.538  15.457 -0.35 -0.12    +0.163 HD ENDBRANCH   1   7BRANCH   5  10ATOM     10  C   UNL     1      37.935  45.958  16.989 -0.32 -0.03    +0.089 A  ATOM     11  C   UNL     1      36.635  45.544  17.263 -0.32 -0.02    +0.036 A  ATOM     12  N   UNL     1      38.970  45.554  17.771 -0.24 +0.04    -0.254 NA ATOM     13  C   UNL     1      36.372  44.716  18.372 -0.33 +0.01    -0.021 A  ATOM     14  C   UNL     1      38.693  44.783  18.855 -0.31 -0.01    +0.121 A  ATOM     15  C   UNL     1      37.418  44.354  19.240 -0.36 -0.00    +0.009 A  ATOM     16  C   UNL     1      34.947  44.309  18.621 -0.29 -0.05    +0.178 C  ATOM     17  C   UNL     1      37.180  43.543  20.456 -0.36 -0.00    +0.038 A  ATOM     18  S   UNL     1      34.901  42.644  19.246 -0.47 -0.02    +0.183 S  ATOM     19  C   UNL     1      38.020  43.589  21.580 -0.27 +0.00    +0.132 A  ATOM     20  C   UNL     1      36.079  42.677  20.561 -0.41 -0.00    +0.078 A  ATOM     21  C   UNL     1      37.796  42.810  22.721 -0.36 +0.00    +0.040 A  ATOM     22  C   UNL     1      35.838  41.882  21.691 -0.40 +0.00    +0.021 A  ATOM     23  C   UNL     1      36.708  41.950  22.776 -0.51 +0.00    +0.004 A  ATOM     24  O   UNL     1      35.413  41.726  18.250 -0.57 +0.06    -0.223 OA ATOM     25  O   UNL     1      33.597  42.444  19.846 -0.66 -0.03    -0.223 OA ATOM     26  F   UNL     1      39.058  44.429  21.614 -0.06 -0.01    -0.206 F  ENDBRANCH   5  10TORSDOF 2TERENDMDL