REMARK SMILES CNc1nc(OC)cc(-c2cc3c(cn2)-c2c(F)cc(F)cc2C[C@@]3(C)O)n1
REMARK SMILES IDX 10 1 11 2 12 3 13 4 14 5 15 6 16 7 17 8 18 9 19 10 20 11
REMARK SMILES IDX 21 12 22 13 23 14 24 15 25 16 26 17 9 18 3 19 4 20 28 21
REMARK SMILES IDX 5 22 8 23 2 24 1 25 6 27 7 28 27 29
REMARK H PARENT 2 26 27 30
ROOT
ATOM      1  C   UNL     1      -0.809   0.127   0.440  1.00  0.00     0.089 A 
ATOM      2  C   UNL     1       0.130  -0.848   0.120  1.00  0.00     0.038 A 
ATOM      3  C   UNL     1       1.493  -0.508   0.022  1.00  0.00    -0.005 A 
ATOM      4  C   UNL     1       1.893   0.833   0.202  1.00  0.00     0.009 A 
ATOM      5  C   UNL     1       0.875   1.726   0.539  1.00  0.00     0.121 A 
ATOM      6  N   UNL     1      -0.438   1.408   0.671  1.00  0.00    -0.254 NA
ATOM      7  C   UNL     1       3.314   1.221   0.036  1.00  0.00     0.023 A 
ATOM      8  C   UNL     1       3.750   2.545  -0.168  1.00  0.00     0.134 A 
ATOM      9  F   UNL     1       2.871   3.554  -0.251  1.00  0.00    -0.206 F 
ATOM     10  C   UNL     1       5.097   2.869  -0.314  1.00  0.00     0.079 A 
ATOM     11  C   UNL     1       6.045   1.863  -0.261  1.00  0.00     0.126 A 
ATOM     12  F   UNL     1       7.342   2.166  -0.393  1.00  0.00    -0.207 F 
ATOM     13  C   UNL     1       5.667   0.540  -0.076  1.00  0.00     0.044 A 
ATOM     14  C   UNL     1       4.307   0.213   0.056  1.00  0.00    -0.031 A 
ATOM     15  C   UNL     1       3.906  -1.223   0.278  1.00  0.00     0.076 C 
ATOM     16  C   UNL     1       2.527  -1.570  -0.324  1.00  0.00     0.092 C 
ATOM     17  C   UNL     1       2.608  -1.761  -1.843  1.00  0.00     0.048 C 
ENDROOT
BRANCH   1  18
ATOM     18  C   UNL     1      -2.246  -0.175   0.563  1.00  0.00     0.098 A 
ATOM     19  C   UNL     1      -4.401   0.393  -0.032  1.00  0.00     0.226 A 
ATOM     20  N   UNL     1      -4.932  -0.596   0.691  1.00  0.00    -0.177 NA
ATOM     21  N   UNL     1      -3.089   0.632  -0.121  1.00  0.00    -0.211 NA
ATOM     22  C   UNL     1      -4.069  -1.383   1.351  1.00  0.00     0.218 A 
ATOM     23  C   UNL     1      -2.708  -1.223   1.326  1.00  0.00     0.099 A 
BRANCH  19  24
ATOM     24  N   UNL     1      -5.310   1.191  -0.714  1.00  0.00    -0.357 N 
ATOM     25  C   UNL     1      -4.895   2.570  -0.857  1.00  0.00     0.143 C 
ATOM     26  H   UNL     1      -6.205   1.051  -0.260  1.00  0.00     0.163 HD
ENDBRANCH  19  24
BRANCH  22  27
ATOM     27  O   UNL     1      -4.540  -2.432   2.121  1.00  0.00    -0.481 OA
ATOM     28  C   UNL     1      -5.957  -2.563   2.081  1.00  0.00     0.280 C 
ENDBRANCH  22  27
ENDBRANCH   1  18
BRANCH  16  29
ATOM     29  O   UNL     1       2.132  -2.830   0.240  1.00  0.00    -0.385 OA
ATOM     30  H   UNL     1       1.942  -2.680   1.182  1.00  0.00     0.211 HD
ENDBRANCH  16  29
TORSDOF 4
