MODEL        4USER    Run = 4USERUSER    Estimated Free Energy of Binding    =  -8.83 kcal/mol  [=(1)+(2)+(3)-(4)]USERUSER    (1) Final Intermolecular Energy     = -10.32 kcal/molUSER        vdW + Hbond + desolv Energy     = -10.02 kcal/molUSER        Electrostatic Energy            =  -0.30 kcal/molUSER        Moving Ligand-Fixed Receptor    = -10.32 kcal/molUSER        Moving Ligand-Moving Receptor   =  +0.00 kcal/molUSER    (2) Final Total Internal Energy     =  -1.06 kcal/molUSER    (3) Torsional Free Energy           =  +1.49 kcal/molUSER    (4) Unbound System's Energy         =  -1.06 kcal/molUSERUSERREMARK SMILES CC(C)(O)Cc1ccccc1-c1ccc2c(N)n[nH]c2c1REMARK SMILES IDX 6 1 7 2 8 3 9 4 10 5 11 6 5 7 2 8 1 9 3 10 4 11 12 13 13 14REMARK SMILES IDX 21 15 14 16 20 17 15 18 19 19 16 20 18 21 17 23REMARK H PARENT 4 12 19 22 17 24 17 25USER                              x       y       z     vdW  Elec       q    TypeUSER                           _______ _______ _______ _____ _____    ______ ____ROOTATOM      1  C   UNL     1      38.694  46.703  14.843 -0.41 +0.01    -0.037 A  ATOM      2  C   UNL     1      39.920  47.396  14.860 -0.49 -0.00    +0.004 A  ATOM      3  C   UNL     1      40.565  47.699  16.058 -0.54 -0.00    +0.000 A  ATOM      4  C   UNL     1      39.999  47.309  17.265 -0.47 -0.00    +0.001 A  ATOM      5  C   UNL     1      38.789  46.615  17.270 -0.40 -0.00    +0.009 A  ATOM      6  C   UNL     1      38.120  46.299  16.072 -0.38 +0.01    -0.015 A  ENDROOTBRANCH   1   7ATOM      7  C   UNL     1      38.050  46.419  13.494 -0.41 -0.02    +0.070 C  BRANCH   7   8ATOM      8  C   UNL     1      36.959  47.419  13.032 -0.64 -0.02    +0.063 C  ATOM      9  C   UNL     1      35.586  46.739  13.122 -0.59 -0.03    +0.042 C  ATOM     10  C   UNL     1      36.945  48.712  13.854 -0.56 -0.03    +0.042 C  BRANCH   8  11ATOM     11  O   UNL     1      37.167  47.751  11.654 -0.90 +0.07    -0.390 OA ATOM     12  H   UNL     1      36.548  48.464  11.421 -0.26 -0.10    +0.211 HD ENDBRANCH   8  11ENDBRANCH   7   8ENDBRANCH   1   7BRANCH   6  13ATOM     13  C   UNL     1      36.854  45.554  16.161 -0.35 +0.01    -0.016 A  ATOM     14  C   UNL     1      36.830  44.167  15.944 -0.36 -0.00    +0.009 A  ATOM     15  C   UNL     1      35.663  46.227  16.491 -0.34 -0.03    +0.037 A  ATOM     16  C   UNL     1      35.640  43.430  16.027 -0.41 -0.01    +0.015 A  ATOM     17  C   UNL     1      34.486  45.473  16.566 -0.28 -0.05    +0.068 A  ATOM     18  C   UNL     1      34.445  44.102  16.341 -0.30 -0.02    +0.044 A  ATOM     19  N   UNL     1      33.195  45.824  16.857 -0.11 +0.27    -0.276 N  ATOM     20  C   UNL     1      33.079  43.753  16.515 -0.22 -0.07    +0.153 A  ATOM     21  N   UNL     1      32.322  44.804  16.817 -0.40 +0.06    -0.157 NA ATOM     22  H   UNL     1      32.844  46.745  17.088 -0.43 -0.33    +0.190 HD BRANCH  20  23ATOM     23  N   UNL     1      32.584  42.513  16.380 -0.02 +0.20    -0.382 N  ATOM     24  H   UNL     1      33.203  41.718  16.470 -0.47 -0.11    +0.158 HD ATOM     25  H   UNL     1      31.889  42.400  15.650 -0.29 -0.10    +0.158 HD ENDBRANCH  20  23ENDBRANCH   6  13TORSDOF 5TERENDMDL