REMARK SMILES CNc1nccc(-c2cc3c(cn2)-c2c(F)cccc2S(=O)(=O)C3)n1
REMARK SMILES IDX 3 1 4 2 5 3 6 4 7 5 25 6 2 7 1 8 8 10 9 11 13 12 10 13 12 14
REMARK SMILES IDX 11 15 24 16 14 17 21 18 15 19 20 20 17 21 19 22 18 23 22 24
REMARK SMILES IDX 23 25 16 26
REMARK H PARENT 2 9
ROOT
ATOM      1  C   UNL     1       4.559  -0.029   0.265  1.00  0.00     0.222 A 
ATOM      2  N   UNL     1       5.224   0.714  -0.620  1.00  0.00    -0.222 NA
ATOM      3  C   UNL     1       4.490   1.367  -1.531  1.00  0.00     0.117 A 
ATOM      4  C   UNL     1       3.120   1.327  -1.577  1.00  0.00     0.051 A 
ATOM      5  C   UNL     1       2.504   0.564  -0.597  1.00  0.00     0.094 A 
ATOM      6  N   UNL     1       3.224  -0.116   0.330  1.00  0.00    -0.211 NA
ENDROOT
BRANCH   1   7
ATOM      7  N   UNL     1       5.241  -0.866   1.124  1.00  0.00    -0.357 N 
ATOM      8  C   UNL     1       6.462  -0.345   1.701  1.00  0.00     0.143 C 
ATOM      9  H   UNL     1       4.559  -1.249   1.786  1.00  0.00     0.163 HD
ENDBRANCH   1   7
BRANCH   5  10
ATOM     10  C   UNL     1       1.034   0.419  -0.534  1.00  0.00     0.089 A 
ATOM     11  C   UNL     1       0.387  -0.098   0.584  1.00  0.00     0.036 A 
ATOM     12  N   UNL     1       0.326   0.810  -1.625  1.00  0.00    -0.254 NA
ATOM     13  C   UNL     1      -1.014  -0.243   0.590  1.00  0.00    -0.021 A 
ATOM     14  C   UNL     1      -1.021   0.632  -1.614  1.00  0.00     0.121 A 
ATOM     15  C   UNL     1      -1.757   0.081  -0.560  1.00  0.00     0.009 A 
ATOM     16  C   UNL     1      -1.655  -0.815   1.823  1.00  0.00     0.178 C 
ATOM     17  C   UNL     1      -3.223  -0.119  -0.626  1.00  0.00     0.038 A 
ATOM     18  S   UNL     1      -3.223  -0.023   2.105  1.00  0.00     0.183 S 
ATOM     19  C   UNL     1      -3.913  -0.314  -1.833  1.00  0.00     0.132 A 
ATOM     20  C   UNL     1      -4.017  -0.137   0.532  1.00  0.00     0.078 A 
ATOM     21  C   UNL     1      -5.300  -0.489  -1.889  1.00  0.00     0.040 A 
ATOM     22  C   UNL     1      -5.410  -0.304   0.500  1.00  0.00     0.021 A 
ATOM     23  C   UNL     1      -6.052  -0.479  -0.723  1.00  0.00     0.004 A 
ATOM     24  O   UNL     1      -3.026   1.387   2.371  1.00  0.00    -0.223 OA
ATOM     25  O   UNL     1      -3.970  -0.859   3.023  1.00  0.00    -0.223 OA
ATOM     26  F   UNL     1      -3.246  -0.383  -2.989  1.00  0.00    -0.206 F 
ENDBRANCH   5  10
TORSDOF 2
