MODEL        10USER    Run = 10USERUSER    Estimated Free Energy of Binding    =  -9.03 kcal/mol  [=(1)+(2)+(3)-(4)]USERUSER    (1) Final Intermolecular Energy     = -10.22 kcal/molUSER        vdW + Hbond + desolv Energy     =  -9.88 kcal/molUSER        Electrostatic Energy            =  -0.34 kcal/molUSER        Moving Ligand-Fixed Receptor    = -10.22 kcal/molUSER        Moving Ligand-Moving Receptor   =  +0.00 kcal/molUSER    (2) Final Total Internal Energy     =  -0.27 kcal/molUSER    (3) Torsional Free Energy           =  +1.19 kcal/molUSER    (4) Unbound System's Energy         =  -0.27 kcal/molUSERUSERREMARK SMILES CNc1nc(OC)cc(-c2cc3c(cn2)-c2c(F)cc(F)cc2C[C@@]3(C)O)n1REMARK SMILES IDX 10 1 11 2 12 3 13 4 14 5 15 6 16 7 17 8 18 9 19 10 20 11REMARK SMILES IDX 21 12 22 13 23 14 24 15 25 16 26 17 9 18 3 19 4 20 28 21REMARK SMILES IDX 5 22 8 23 2 24 1 25 6 27 7 28 27 29REMARK H PARENT 2 26 27 30USER                              x       y       z     vdW  Elec       q    TypeUSER                           _______ _______ _______ _____ _____    ______ ____ROOTATOM      1  C   UNL     1      40.944  46.225  18.837 -0.42 -0.00    +0.089 A  ATOM      2  C   UNL     1      41.218  47.218  17.903 -0.49 -0.00    +0.038 A  ATOM      3  C   UNL     1      40.279  47.516  16.896 -0.51 +0.00    -0.005 A  ATOM      4  C   UNL     1      39.084  46.770  16.812 -0.43 -0.00    +0.009 A  ATOM      5  C   UNL     1      38.901  45.812  17.809 -0.33 -0.02    +0.121 A  ATOM      6  N   UNL     1      39.780  45.536  18.806 -0.26 +0.02    -0.254 NA ATOM      7  C   UNL     1      38.116  47.024  15.719 -0.41 -0.01    +0.023 A  ATOM      8  C   UNL     1      37.107  46.120  15.335 -0.28 -0.07    +0.134 A  ATOM      9  F   UNL     1      36.981  44.931  15.942 -0.06 +0.08    -0.206 F  ATOM     10  C   UNL     1      36.212  46.399  14.305 -0.38 -0.05    +0.079 A  ATOM     11  C   UNL     1      36.312  47.602  13.629 -0.41 -0.08    +0.126 A  ATOM     12  F   UNL     1      35.451  47.882  12.642 -0.17 +0.13    -0.207 F  ATOM     13  C   UNL     1      37.298  48.522  13.958 -0.52 -0.02    +0.044 A  ATOM     14  C   UNL     1      38.209  48.232  14.988 -0.51 +0.02    -0.031 A  ATOM     15  C   UNL     1      39.263  49.246  15.354 -0.29 -0.04    +0.076 C  ATOM     16  C   UNL     1      40.569  48.605  15.873 -0.59 -0.02    +0.092 C  ATOM     17  C   UNL     1      41.416  48.045  14.724 -0.06 -0.00    +0.048 C  ENDROOTBRANCH   1  18ATOM     18  C   UNL     1      41.887  45.878  19.915 -0.31 +0.02    +0.098 A  ATOM     19  C   UNL     1      42.536  44.326  21.493 -0.11 +0.05    +0.226 A  ATOM     20  N   UNL     1      43.541  45.090  21.928 -0.13 -0.07    -0.177 NA ATOM     21  N   UNL     1      41.704  44.676  20.508 -0.22 -0.03    -0.211 NA ATOM     22  C   UNL     1      43.701  46.272  21.314 -0.09 +0.13    +0.218 A  ATOM     23  C   UNL     1      42.903  46.724  20.295 -0.32 +0.03    +0.099 A  BRANCH  19  24ATOM     24  N   UNL     1      42.392  43.103  22.136 -0.19 -0.01    -0.357 N  ATOM     25  C   UNL     1      43.211  42.958  23.320 -0.24 +0.00    +0.143 C  ATOM     26  H   UNL     1      42.525  42.393  21.425 -0.38 -0.02    +0.163 HD ENDBRANCH  19  24BRANCH  22  27ATOM     27  O   UNL     1      44.721  47.122  21.705 -0.63 -0.39    -0.481 OA ATOM     28  C   UNL     1      44.377  47.929  22.826 -0.20 +0.08    +0.280 C  ENDBRANCH  22  27ENDBRANCH   1  18BRANCH  16  29ATOM     29  O   UNL     1      41.332  49.655  16.487 -0.91 +0.02    -0.385 OA ATOM     30  H   UNL     1      40.967  50.500  16.175 -0.01 -0.07    +0.211 HD ENDBRANCH  16  29TORSDOF 4TERENDMDL