REMARK SMILES O=C(Nc1ccc(Cl)cc1)c1cc(-c2ccc(F)cc2)ccn1
REMARK SMILES IDX 11 1 12 2 13 3 21 4 22 5 23 6 2 7 3 8 1 9 4 11 5 12 10 13
REMARK SMILES IDX 6 14 9 15 7 16 8 17 14 18 15 19 20 20 16 21 19 22 17 23
REMARK SMILES IDX 18 24
REMARK H PARENT 3 10
ROOT
ATOM      1  C   UNL     1       0.116   0.437  -0.037  1.00  0.00     0.129 A 
ATOM      2  C   UNL     1      -1.143  -0.090   0.220  1.00  0.00     0.043 A 
ATOM      3  C   UNL     1      -2.256   0.757   0.156  1.00  0.00    -0.015 A 
ATOM      4  C   UNL     1      -2.032   2.103  -0.165  1.00  0.00     0.029 A 
ATOM      5  C   UNL     1      -0.738   2.541  -0.405  1.00  0.00     0.112 A 
ATOM      6  N   UNL     1       0.347   1.743  -0.350  1.00  0.00    -0.251 NA
ENDROOT
BRANCH   1   7
ATOM      7  C   UNL     1       1.329  -0.447   0.025  1.00  0.00     0.274 C 
ATOM      8  N   UNL     1       2.498   0.231  -0.264  1.00  0.00    -0.321 N 
ATOM      9  O   UNL     1       1.209  -1.633   0.310  1.00  0.00    -0.267 OA
ATOM     10  H   UNL     1       2.358   1.218  -0.471  1.00  0.00     0.170 HD
BRANCH   8  11
ATOM     11  C   UNL     1       3.810  -0.268  -0.302  1.00  0.00     0.041 A 
ATOM     12  C   UNL     1       4.143  -1.599  -0.040  1.00  0.00     0.027 A 
ATOM     13  C   UNL     1       4.830   0.637  -0.623  1.00  0.00     0.027 A 
ATOM     14  C   UNL     1       5.477  -2.021  -0.098  1.00  0.00     0.022 A 
ATOM     15  C   UNL     1       6.163   0.218  -0.681  1.00  0.00     0.022 A 
ATOM     16  C   UNL     1       6.480  -1.111  -0.418  1.00  0.00     0.041 A 
ATOM     17  Cl  UNL     1       8.119  -1.630  -0.489  1.00  0.00    -0.084 Cl
ENDBRANCH   8  11
ENDBRANCH   1   7
BRANCH   3  18
ATOM     18  C   UNL     1      -3.613   0.252   0.420  1.00  0.00    -0.018 A 
ATOM     19  C   UNL     1      -4.662   0.485  -0.488  1.00  0.00     0.012 A 
ATOM     20  C   UNL     1      -3.899  -0.479   1.589  1.00  0.00     0.012 A 
ATOM     21  C   UNL     1      -5.951   0.006  -0.237  1.00  0.00     0.040 A 
ATOM     22  C   UNL     1      -5.188  -0.957   1.841  1.00  0.00     0.040 A 
ATOM     23  C   UNL     1      -6.202  -0.710   0.926  1.00  0.00     0.123 A 
ATOM     24  F   UNL     1      -7.437  -1.167   1.167  1.00  0.00    -0.207 F 
ENDBRANCH   3  18
TORSDOF 3
