MODEL        2USER    Run = 2USERUSER    Estimated Free Energy of Binding    =  -9.26 kcal/mol  [=(1)+(2)+(3)-(4)]USERUSER    (1) Final Intermolecular Energy     = -11.05 kcal/molUSER        vdW + Hbond + desolv Energy     = -10.92 kcal/molUSER        Electrostatic Energy            =  -0.13 kcal/molUSER        Moving Ligand-Fixed Receptor    = -11.05 kcal/molUSER        Moving Ligand-Moving Receptor   =  +0.00 kcal/molUSER    (2) Final Total Internal Energy     =  -1.40 kcal/molUSER    (3) Torsional Free Energy           =  +1.79 kcal/molUSER    (4) Unbound System's Energy         =  -1.40 kcal/molUSERUSERREMARK SMILES O=S(=O)(Nc1cc(F)ccc1/C=C/c1ccncc1)c1ccccc1REMARK SMILES IDX 5 1 6 2 7 3 8 4 9 5 10 6 11 7 4 8 2 10 1 11 3 12 20 13 21 14REMARK SMILES IDX 25 15 22 16 24 17 23 18 12 19 13 20 14 21 15 22 19 23 16 24REMARK SMILES IDX 18 25 17 26REMARK H PARENT 4 9USER                              x       y       z     vdW  Elec       q    TypeUSER                           _______ _______ _______ _____ _____    ______ ____ROOTATOM      1  C   UNL     1      37.837  47.633  14.837 -0.44 -0.03    +0.059 A  ATOM      2  C   UNL     1      37.998  47.768  13.458 -0.44 -0.02    +0.066 A  ATOM      3  C   UNL     1      37.169  47.053  12.601 -0.52 -0.04    +0.125 A  ATOM      4  F   UNL     1      37.329  47.179  11.277 -0.24 +0.05    -0.207 F  ATOM      5  C   UNL     1      36.181  46.208  13.091 -0.53 -0.02    +0.040 A  ATOM      6  C   UNL     1      36.015  46.069  14.470 -0.41 -0.01    +0.013 A  ATOM      7  C   UNL     1      36.838  46.780  15.354 -0.40 +0.00    -0.001 A  ENDROOTBRANCH   1   8ATOM      8  N   UNL     1      38.664  48.404  15.716 -0.29 +0.16    -0.279 N  ATOM      9  H   UNL     1      38.548  49.418  15.668 -0.05 -0.14    +0.180 HD BRANCH   8  10ATOM     10  S   UNL     1      40.321  48.041  15.748 -0.56 -0.06    +0.261 S  ATOM     11  O   UNL     1      40.671  47.251  14.587 -0.37 +0.01    -0.201 OA ATOM     12  O   UNL     1      40.998  49.287  16.035 -0.83 +0.03    -0.201 OA BRANCH  10  13ATOM     13  C   UNL     1      40.459  47.023  17.194 -0.45 -0.01    +0.087 A  ATOM     14  C   UNL     1      39.640  45.900  17.341 -0.42 -0.00    +0.022 A  ATOM     15  C   UNL     1      41.412  47.346  18.166 -0.51 -0.00    +0.022 A  ATOM     16  C   UNL     1      39.763  45.106  18.481 -0.43 -0.00    +0.001 A  ATOM     17  C   UNL     1      41.529  46.546  19.302 -0.47 +0.00    +0.001 A  ATOM     18  C   UNL     1      40.705  45.430  19.460 -0.43 +0.00    +0.000 A  ENDBRANCH  10  13ENDBRANCH   8  10ENDBRANCH   1   8BRANCH   7  19ATOM     19  C   UNL     1      36.625  46.603  16.796 -0.36 -0.01    +0.011 C  BRANCH  19  20ATOM     20  C   UNL     1      35.391  46.526  17.316 -0.38 -0.01    +0.009 C  BRANCH  20  21ATOM     21  C   UNL     1      34.970  45.481  18.254 -0.39 +0.01    -0.023 A  ATOM     22  C   UNL     1      35.871  44.579  18.821 -0.34 -0.01    +0.028 A  ATOM     23  C   UNL     1      33.614  45.356  18.559 -0.43 -0.01    +0.028 A  ATOM     24  C   UNL     1      35.379  43.610  19.682 -0.33 -0.01    +0.111 A  ATOM     25  C   UNL     1      33.221  44.356  19.433 -0.37 -0.02    +0.111 A  ATOM     26  N   UNL     1      34.076  43.480  20.005 -0.53 -0.00    -0.265 NA ENDBRANCH  20  21ENDBRANCH  19  20ENDBRANCH   7  19TORSDOF 6TERENDMDL