MODEL        10USER    Run = 10USERUSER    Estimated Free Energy of Binding    =  -9.05 kcal/mol  [=(1)+(2)+(3)-(4)]USERUSER    (1) Final Intermolecular Energy     = -12.93 kcal/molUSER        vdW + Hbond + desolv Energy     = -12.82 kcal/molUSER        Electrostatic Energy            =  -0.31 kcal/molUSER        Moving Ligand-Fixed Receptor    = -13.14 kcal/molUSER        Moving Ligand-Moving Receptor   =  +0.21 kcal/molUSER    (2) Final Total Internal Energy     =  -2.15 kcal/molUSER    (3) Torsional Free Energy           =  +3.88 kcal/molUSER    (4) Unbound System's Energy         =  -2.15 kcal/molUSERUSERREMARK SMILES COc1ccc(F)c(C(=O)c2ccc(C(=O)N[C@@H]3CCCNC[C@@H]3NC(=O)c3ccncc3)cc2)c1REMARK SMILES IDX 15 1 16 2 17 3 14 5 11 6 12 7 35 8 13 9 34 10 9 11 10 12REMARK SMILES IDX 8 13 3 14 4 15 36 16 5 17 6 18 7 19 2 20 1 21 18 22 19 23REMARK SMILES IDX 24 25 23 26 22 27 21 29 20 30 25 32 26 33 27 35 28 36 29 37REMARK SMILES IDX 33 38 30 39 32 40 31 41REMARK H PARENT 17 4 22 28 25 34REMARK Flexibility Score:   88.900USER                              x       y       z     vdW  Elec       q    TypeUSER                           _______ _______ _______ _____ _____    ______ ____ROOTATOM      1  C   UNL     1      34.068  42.620  18.472 -0.27 -0.05    +0.251 C  ATOM      2  O   UNL     1      33.879  42.728  19.680 -0.60 -0.01    -0.269 OA ATOM      3  N   UNL     1      33.332  41.775  17.675 -0.17 +0.12    -0.347 N  ATOM      4  H   UNL     1      33.499  41.723  16.671 -0.31 -0.10    +0.164 HD ENDROOTBRANCH   1   5ATOM      5  C   UNL     1      35.117  43.447  17.805 -0.31 -0.01    +0.039 A  ATOM      6  C   UNL     1      37.096  44.915  16.448 -0.33 -0.01    +0.023 A  ATOM      7  C   UNL     1      36.756  43.630  16.013 -0.37 -0.00    +0.013 A  ATOM      8  C   UNL     1      36.456  45.458  17.571 -0.33 -0.01    +0.013 A  ATOM      9  C   UNL     1      35.765  42.907  16.684 -0.42 -0.00    +0.014 A  ATOM     10  C   UNL     1      35.465  44.732  18.242 -0.34 -0.00    +0.014 A  BRANCH   6  11ATOM     11  C   UNL     1      38.160  45.716  15.789 -0.28 -0.06    +0.196 C  ATOM     12  O   UNL     1      38.105  45.909  14.575 -0.25 +0.09    -0.288 OA BRANCH  11  13ATOM     13  C   UNL     1      39.272  46.324  16.546 -0.39 -0.01    +0.062 A  ATOM     14  C   UNL     1      40.875  48.130  16.759 -0.45 -0.02    +0.119 A  ATOM     15  C   UNL     1      41.391  47.514  17.905 -0.48 -0.00    +0.049 A  ATOM     16  C   UNL     1      39.816  47.530  16.075 -0.47 -0.02    +0.061 A  ATOM     17  C   UNL     1      40.867  46.302  18.359 -0.47 -0.00    +0.044 A  ATOM     18  C   UNL     1      39.815  45.709  17.673 -0.34 -0.02    +0.134 A  ATOM     19  F   UNL     1      39.350  44.530  18.112 -0.09 +0.02    -0.206 F  BRANCH  14  20ATOM     20  O   UNL     1      41.486  49.305  16.420 -0.86 -0.02    -0.497 OA ATOM     21  C   UNL     1      41.280  49.781  15.094 -0.49 -0.06    +0.278 C  ENDBRANCH  14  20ENDBRANCH  11  13ENDBRANCH   6  11ENDBRANCH   1   5BRANCH   3  22ATOM     22  C   UNL     1      32.327  40.849  18.207 -0.40 -0.02    +0.106 C  BRANCH  22  23ATOM     23  C   UNL     1      32.607  39.438  17.666 -0.39 -0.01    +0.028 CG0ATOM     24  G   UNL     1      32.063  38.239  18.441 +0.00 +0.00    +0.000 G0 ENDBRANCH  22  23BRANCH  22  25ATOM     25  C   UNL     1      30.903  41.401  17.938 -0.27 -0.02    +0.118 C  BRANCH  25  26ATOM     26  C   UNL     1      29.901  40.260  17.659 -0.31 +0.00    +0.108 C  BRANCH  26  27ATOM     27  N   UNL     1      29.811  39.239  18.712 -0.14 -0.05    -0.315 NA ATOM     28  H   UNL     1      30.217  39.638  19.561 +0.07 +0.01    +0.122 HD BRANCH  27  29ATOM     29  C   UNL     1      30.558  38.020  18.389 -0.41 +0.03    +0.081 C  BRANCH  29  30ATOM     30  C   UNL     1      32.065  38.239  18.444 -0.55 +0.00    +0.017 CG0ATOM     31  G   UNL     1      32.607  39.438  17.666 +0.00 +0.00    +0.000 G0 ENDBRANCH  29  30ENDBRANCH  27  29ENDBRANCH  26  27ENDBRANCH  25  26BRANCH  25  32ATOM     32  N   UNL     1      30.852  42.398  16.865 -0.09 +0.11    -0.346 N  ATOM     33  C   UNL     1      31.137  43.728  17.055 -0.17 -0.06    +0.251 C  ATOM     34  H   UNL     1      30.613  42.030  15.951 +0.03 -0.08    +0.164 HD ATOM     35  O   UNL     1      31.423  44.202  18.150 -0.19 +0.02    -0.269 OA BRANCH  33  36ATOM     36  C   UNL     1      31.081  44.604  15.856 -0.32 -0.02    +0.042 A  ATOM     37  C   UNL     1      29.878  44.935  15.229 -0.32 -0.02    +0.034 A  ATOM     38  C   UNL     1      32.285  45.078  15.333 -0.36 -0.02    +0.034 A  ATOM     39  C   UNL     1      29.936  45.750  14.112 -0.28 -0.09    +0.112 A  ATOM     40  C   UNL     1      32.234  45.888  14.214 -0.28 -0.09    +0.112 A  ATOM     41  N   UNL     1      31.085  46.238  13.597 -0.42 +0.17    -0.265 NA ENDBRANCH  33  36ENDBRANCH  25  32ENDBRANCH  22  25ENDBRANCH   3  22TORSDOF 7TERENDMDL