MODEL        1USER    Run = 1USERUSER    Estimated Free Energy of Binding    =  -9.34 kcal/mol  [=(1)+(2)+(3)-(4)]USERUSER    (1) Final Intermolecular Energy     = -10.53 kcal/molUSER        vdW + Hbond + desolv Energy     = -10.40 kcal/molUSER        Electrostatic Energy            =  -0.13 kcal/molUSER        Moving Ligand-Fixed Receptor    = -10.53 kcal/molUSER        Moving Ligand-Moving Receptor   =  +0.00 kcal/molUSER    (2) Final Total Internal Energy     =  -1.12 kcal/molUSER    (3) Torsional Free Energy           =  +1.19 kcal/molUSER    (4) Unbound System's Energy         =  -1.12 kcal/molUSERUSERREMARK SMILES O=C(c1ccncc1)N1CCN(Cc2ncsc2-c2ccc(F)cc2)CC1REMARK SMILES IDX 14 1 15 2 16 3 17 4 18 5 13 6 12 7 2 8 9 9 10 10 27 11 11 12REMARK SMILES IDX 26 13 1 14 3 15 4 16 8 17 5 18 7 19 6 20 19 21 20 22 25 23REMARK SMILES IDX 21 24 24 25 22 26 23 27REMARK H PARENTUSER                              x       y       z     vdW  Elec       q    TypeUSER                           _______ _______ _______ _____ _____    ______ ____ROOTATOM      1  C   UNL     1      37.311  47.521  13.540 -0.50 -0.03    +0.073 A  ATOM      2  N   UNL     1      37.307  47.739  12.161 -1.00 +0.03    -0.248 NA ATOM      3  C   UNL     1      36.729  46.731  11.550 -0.44 -0.07    +0.176 A  ATOM      4  S   UNL     1      36.169  45.463  12.550 -0.54 +0.05    -0.122 S  ATOM      5  C   UNL     1      36.718  46.325  13.932 -0.41 -0.03    +0.059 A  ENDROOTBRANCH   1   6ATOM      6  C   UNL     1      37.913  48.575  14.437 -0.46 -0.08    +0.142 C  BRANCH   6   7ATOM      7  N   UNL     1      39.284  48.285  14.873 -0.28 +0.11    -0.294 NA ATOM      8  C   UNL     1      41.768  47.366  18.325 -0.41 -0.01    +0.254 C  ATOM      9  N   UNL     1      40.870  47.663  17.309 -0.29 +0.04    -0.336 N  ATOM     10  C   UNL     1      39.774  46.785  16.865 -0.44 -0.03    +0.135 C  ATOM     11  C   UNL     1      41.141  48.828  16.465 -0.48 -0.01    +0.135 C  ATOM     12  C   UNL     1      39.495  46.911  15.354 -0.45 -0.03    +0.106 C  ATOM     13  C   UNL     1      39.872  49.314  15.743 -0.50 -0.05    +0.106 C  ATOM     14  O   UNL     1      42.815  47.984  18.505 -0.47 -0.01    -0.269 OA BRANCH   8  15ATOM     15  C   UNL     1      41.461  46.256  19.250 -0.44 +0.00    +0.043 A  ATOM     16  C   UNL     1      41.090  45.024  18.718 -0.40 +0.00    +0.034 A  ATOM     17  C   UNL     1      41.604  46.414  20.628 -0.27 +0.00    +0.034 A  ATOM     18  C   UNL     1      40.830  43.997  19.604 -0.15 +0.01    +0.112 A  ATOM     19  C   UNL     1      41.323  45.323  21.427 -0.24 +0.01    +0.112 A  ATOM     20  N   UNL     1      40.928  44.123  20.946 -0.18 -0.02    -0.265 NA ENDBRANCH   8  15ENDBRANCH   6   7ENDBRANCH   1   6BRANCH   5  21ATOM     21  C   UNL     1      36.513  45.757  15.262 -0.37 +0.00    -0.006 A  ATOM     22  C   UNL     1      35.944  46.531  16.286 -0.35 -0.01    +0.012 A  ATOM     23  C   UNL     1      36.873  44.427  15.527 -0.36 -0.00    +0.012 A  ATOM     24  C   UNL     1      35.737  45.982  17.553 -0.33 -0.02    +0.040 A  ATOM     25  C   UNL     1      36.667  43.882  16.795 -0.31 -0.01    +0.040 A  ATOM     26  C   UNL     1      36.101  44.663  17.795 -0.24 -0.04    +0.123 A  ATOM     27  F   UNL     1      35.902  44.138  19.011 -0.06 +0.04    -0.207 F  ENDBRANCH   5  21TORSDOF 4TERENDMDL