REMARK SMILES COc1ccc(F)c(-c2ccn(Cc3ccnc(C)n3)c(=O)c2)c1
REMARK SMILES IDX 9 1 10 2 11 3 12 4 21 5 22 6 23 7 8 8 3 9 4 10 24 11 5 12
REMARK SMILES IDX 6 13 7 14 2 15 1 16 13 17 14 18 15 19 20 20 16 21 18 22
REMARK SMILES IDX 17 23 19 24
REMARK H PARENT
ROOT
ATOM      1  C   UNL     1      -1.429  -0.829  -0.276  1.00  0.00    -0.008 A 
ATOM      2  C   UNL     1      -0.949  -1.327   1.000  1.00  0.00     0.027 A 
ATOM      3  C   UNL     1       0.277  -1.855   1.107  1.00  0.00     0.090 A 
ATOM      4  N   UNL     1       1.113  -1.958   0.009  1.00  0.00    -0.309 N 
ATOM      5  C   UNL     1       0.737  -1.504  -1.251  1.00  0.00     0.251 A 
ATOM      6  O   UNL     1       1.437  -1.569  -2.258  1.00  0.00    -0.269 OA
ATOM      7  C   UNL     1      -0.627  -0.919  -1.356  1.00  0.00     0.080 A 
ENDROOT
BRANCH   1   8
ATOM      8  C   UNL     1      -2.763  -0.214  -0.441  1.00  0.00     0.021 A 
ATOM      9  C   UNL     1      -4.141   1.712  -1.015  1.00  0.00     0.119 A 
ATOM     10  C   UNL     1      -5.291   0.961  -0.745  1.00  0.00     0.049 A 
ATOM     11  C   UNL     1      -2.881   1.125  -0.857  1.00  0.00     0.058 A 
ATOM     12  C   UNL     1      -5.189  -0.363  -0.324  1.00  0.00     0.044 A 
ATOM     13  C   UNL     1      -3.931  -0.940  -0.173  1.00  0.00     0.131 A 
ATOM     14  F   UNL     1      -3.861  -2.214   0.234  1.00  0.00    -0.206 F 
BRANCH   9  15
ATOM     15  O   UNL     1      -4.381   2.998  -1.414  1.00  0.00    -0.497 OA
ATOM     16  C   UNL     1      -3.254   3.782  -1.792  1.00  0.00     0.278 C 
ENDBRANCH   9  15
ENDBRANCH   1   8
BRANCH   4  17
ATOM     17  C   UNL     1       2.464  -2.488   0.182  1.00  0.00     0.181 C 
BRANCH  17  18
ATOM     18  C   UNL     1       3.499  -1.466   0.619  1.00  0.00     0.064 A 
ATOM     19  C   UNL     1       4.828  -1.849   0.691  1.00  0.00     0.046 A 
ATOM     20  N   UNL     1       3.096  -0.220   0.973  1.00  0.00    -0.236 NA
ATOM     21  C   UNL     1       5.718  -0.895   1.133  1.00  0.00     0.115 A 
ATOM     22  C   UNL     1       4.049   0.646   1.371  1.00  0.00     0.125 A 
ATOM     23  N   UNL     1       5.359   0.352   1.483  1.00  0.00    -0.242 NA
ATOM     24  C   UNL     1       3.602   2.009   1.779  1.00  0.00     0.089 C 
ENDBRANCH  17  18
ENDBRANCH   4  17
TORSDOF 4
