REMARK SMILES COc1ccc(F)c(C(=O)c2ccc(C(=O)N[C@@H]3CCCNC[C@@H]3NC(=O)c3ccncc3)cc2)c1
REMARK SMILES IDX 15 1 16 2 17 3 14 5 11 6 12 7 35 8 13 9 34 10 9 11 10 12
REMARK SMILES IDX 8 13 3 14 4 15 36 16 5 17 6 18 7 19 2 20 1 21 18 22 19 23
REMARK SMILES IDX 24 25 23 26 22 27 21 29 20 30 25 32 26 33 27 35 28 36 29 37
REMARK SMILES IDX 33 38 30 39 32 40 31 41
REMARK H PARENT 17 4 22 28 25 34
REMARK Flexibility Score:   88.900
ROOT
ATOM      1  C   UNL     1      -0.193   1.605  -0.950  1.00  0.00     0.251 C 
ATOM      2  O   UNL     1      -0.035   2.770  -1.304  1.00  0.00    -0.269 OA
ATOM      3  N   UNL     1      -1.431   1.013  -0.866  1.00  0.00    -0.347 N 
ATOM      4  H   UNL     1      -1.529   0.037  -0.589  1.00  0.00     0.164 HD
ENDROOT
BRANCH   1   5
ATOM      5  C   UNL     1       0.992   0.761  -0.615  1.00  0.00     0.039 A 
ATOM      6  C   UNL     1       3.304  -0.732  -0.034  1.00  0.00     0.023 A 
ATOM      7  C   UNL     1       3.395   0.422  -0.819  1.00  0.00     0.013 A 
ATOM      8  C   UNL     1       2.054  -1.146   0.446  1.00  0.00     0.013 A 
ATOM      9  C   UNL     1       2.245   1.167  -1.098  1.00  0.00     0.014 A 
ATOM     10  C   UNL     1       0.904  -0.399   0.166  1.00  0.00     0.014 A 
BRANCH   6  11
ATOM     11  C   UNL     1       4.489  -1.575   0.270  1.00  0.00     0.196 C 
ATOM     12  O   UNL     1       4.345  -2.788   0.416  1.00  0.00    -0.288 OA
BRANCH  11  13
ATOM     13  C   UNL     1       5.851  -1.013   0.371  1.00  0.00     0.062 A 
ATOM     14  C   UNL     1       8.216  -1.246  -0.104  1.00  0.00     0.119 A 
ATOM     15  C   UNL     1       8.450  -0.031   0.549  1.00  0.00     0.049 A 
ATOM     16  C   UNL     1       6.914  -1.741  -0.188  1.00  0.00     0.061 A 
ATOM     17  C   UNL     1       7.397   0.681   1.128  1.00  0.00     0.044 A 
ATOM     18  C   UNL     1       6.103   0.182   1.042  1.00  0.00     0.134 A 
ATOM     19  F   UNL     1       5.114   0.869   1.632  1.00  0.00    -0.206 F 
BRANCH  14  20
ATOM     20  O   UNL     1       9.336  -1.843  -0.615  1.00  0.00    -0.497 OA
ATOM     21  C   UNL     1       9.167  -3.118  -1.225  1.00  0.00     0.278 C 
ENDBRANCH  14  20
ENDBRANCH  11  13
ENDBRANCH   6  11
ENDBRANCH   1   5
BRANCH   3  22
ATOM     22  C   UNL     1      -2.683   1.744  -1.089  1.00  0.00     0.106 C 
BRANCH  22  23
ATOM     23  C   UNL     1      -3.034   2.538   0.180  1.00  0.00     0.028 CG0
ATOM     24  G   UNL     1      -4.452   3.089   0.326  1.00  0.00     0.000 G0
ENDBRANCH  22  23
BRANCH  22  25
ATOM     25  C   UNL     1      -3.780   0.775  -1.599  1.00  0.00     0.118 C 
BRANCH  25  26
ATOM     26  C   UNL     1      -4.860   1.523  -2.409  1.00  0.00     0.108 C 
BRANCH  26  27
ATOM     27  N   UNL     1      -5.800   2.318  -1.608  1.00  0.00    -0.315 NA
ATOM     28  H   UNL     1      -6.521   2.671  -2.242  1.00  0.00     0.122 HD
BRANCH  27  29
ATOM     29  C   UNL     1      -5.167   3.473  -0.964  1.00  0.00     0.081 C 
BRANCH  29  30
ATOM     30  C   UNL     1      -4.452   3.089   0.326  1.00  0.00     0.017 CG0
ATOM     31  G   UNL     1      -3.034   2.538   0.180  1.00  0.00     0.000 G0
ENDBRANCH  29  30
ENDBRANCH  27  29
ENDBRANCH  26  27
ENDBRANCH  25  26
BRANCH  25  32
ATOM     32  N   UNL     1      -4.400  -0.022  -0.536  1.00  0.00    -0.346 N 
ATOM     33  C   UNL     1      -3.749  -1.032   0.128  1.00  0.00     0.251 C 
ATOM     34  H   UNL     1      -5.350   0.243  -0.303  1.00  0.00     0.164 HD
ATOM     35  O   UNL     1      -2.602  -1.379  -0.137  1.00  0.00    -0.269 OA
BRANCH  33  36
ATOM     36  C   UNL     1      -4.503  -1.718   1.210  1.00  0.00     0.042 A 
ATOM     37  C   UNL     1      -5.505  -1.079   1.942  1.00  0.00     0.034 A 
ATOM     38  C   UNL     1      -4.162  -3.037   1.512  1.00  0.00     0.034 A 
ATOM     39  C   UNL     1      -6.140  -1.804   2.936  1.00  0.00     0.112 A 
ATOM     40  C   UNL     1      -4.859  -3.674   2.522  1.00  0.00     0.112 A 
ATOM     41  N   UNL     1      -5.844  -3.087   3.236  1.00  0.00    -0.265 NA
ENDBRANCH  33  36
ENDBRANCH  25  32
ENDBRANCH  22  25
ENDBRANCH   3  22
TORSDOF 7
