MODEL        6USER    Run = 6USERUSER    Estimated Free Energy of Binding    =  -8.71 kcal/mol  [=(1)+(2)+(3)-(4)]USERUSER    (1) Final Intermolecular Energy     = -11.99 kcal/molUSER        vdW + Hbond + desolv Energy     = -11.68 kcal/molUSER        Electrostatic Energy            =  -0.31 kcal/molUSER        Moving Ligand-Fixed Receptor    = -11.99 kcal/molUSER        Moving Ligand-Moving Receptor   =  +0.00 kcal/molUSER    (2) Final Total Internal Energy     =  -2.70 kcal/molUSER    (3) Torsional Free Energy           =  +3.28 kcal/molUSER    (4) Unbound System's Energy         =  -2.70 kcal/molUSERUSERREMARK SMILES CCN(C[C@H]1CCCN1C(=O)[C@@H](O)CC(C)C)C(=O)c1cc(-c2ccncc2)n[nH]1REMARK SMILES IDX 5 1 6 2 7 3 8 4 9 5 4 6 3 7 2 8 1 9 18 10 19 11 20 12 21 13REMARK SMILES IDX 30 14 22 15 29 16 23 18 24 19 28 20 25 21 27 22 26 23 10 24REMARK SMILES IDX 11 25 12 26 13 27 14 29 15 30 16 31 17 32REMARK H PARENT 30 17 13 28USER                              x       y       z     vdW  Elec       q    TypeUSER                           _______ _______ _______ _____ _____    ______ ____ROOTATOM      1  C   UNL     1      39.480  46.919  17.167 -0.45 -0.03    +0.104 C  ATOM      2  C   UNL     1      38.246  46.124  17.601 -0.41 -0.01    +0.029 C  ATOM      3  C   UNL     1      38.830  44.903  18.300 -0.43 -0.00    +0.024 C  ATOM      4  C   UNL     1      40.055  45.467  19.004 -0.42 -0.00    +0.120 C  ATOM      5  N   UNL     1      40.467  46.604  18.199 -0.25 +0.03    -0.336 N  ENDROOTBRANCH   1   6ATOM      6  C   UNL     1      39.962  46.647  15.709 -0.42 -0.02    +0.145 C  BRANCH   6   7ATOM      7  N   UNL     1      39.579  47.635  14.678 -0.23 +0.09    -0.336 N  BRANCH   7   8ATOM      8  C   UNL     1      40.511  48.743  14.476 -0.48 -0.03    +0.116 C  ATOM      9  C   UNL     1      40.454  49.752  15.612 -0.60 -0.01    +0.027 C  ENDBRANCH   7   8BRANCH   7  10ATOM     10  C   UNL     1      38.436  47.369  13.910 -0.33 -0.08    +0.271 C  ATOM     11  O   UNL     1      38.375  47.743  12.737 -0.66 +0.00    -0.267 OA BRANCH  10  12ATOM     12  C   UNL     1      37.309  46.623  14.432 -0.34 -0.06    +0.123 A  ATOM     13  C   UNL     1      36.043  46.884  14.919 -0.30 -0.06    +0.064 A  ATOM     14  N   UNL     1      37.382  45.251  14.449 -0.21 +0.10    -0.272 N  ATOM     15  C   UNL     1      35.463  45.627  15.260 -0.29 -0.07    +0.093 A  ATOM     16  N   UNL     1      36.324  44.636  14.991 -0.27 +0.07    -0.175 NA ATOM     17  H   UNL     1      38.157  44.690  14.107 +0.14 -0.05    +0.190 HD BRANCH  15  18ATOM     18  C   UNL     1      34.137  45.360  15.825 -0.31 -0.00    +0.005 A  ATOM     19  C   UNL     1      33.980  44.991  17.164 -0.31 -0.02    +0.030 A  ATOM     20  C   UNL     1      32.994  45.476  15.030 -0.28 -0.03    +0.030 A  ATOM     21  C   UNL     1      32.700  44.750  17.639 -0.23 -0.04    +0.111 A  ATOM     22  C   UNL     1      31.758  45.212  15.596 -0.31 -0.06    +0.111 A  ATOM     23  N   UNL     1      31.586  44.847  16.884 -0.58 +0.06    -0.265 NA ENDBRANCH  15  18ENDBRANCH  10  12ENDBRANCH   7  10ENDBRANCH   6   7ENDBRANCH   1   6BRANCH   5  24ATOM     24  C   UNL     1      41.621  47.347  18.316 -0.40 -0.01    +0.251 C  ATOM     25  O   UNL     1      41.791  48.385  17.663 -0.73 -0.00    -0.272 OA BRANCH  24  26ATOM     26  C   UNL     1      42.755  46.854  19.241 -0.37 +0.04    +0.203 C  BRANCH  26  27ATOM     27  O   UNL     1      43.901  47.706  19.112 -0.32 -0.10    -0.383 OA ATOM     28  H   UNL     1      43.539  48.603  18.952 -0.45 -0.03    +0.211 HD ENDBRANCH  26  27BRANCH  26  29ATOM     29  C   UNL     1      42.417  46.737  20.733 -0.39 +0.01    +0.045 C  BRANCH  29  30ATOM     30  C   UNL     1      43.465  47.289  21.725 -0.39 -0.00    -0.014 C  ATOM     31  C   UNL     1      42.846  48.144  22.832 -0.40 +0.00    +0.007 C  ATOM     32  C   UNL     1      44.224  46.120  22.364 -0.25 +0.00    +0.007 C  ENDBRANCH  29  30ENDBRANCH  26  29ENDBRANCH  24  26ENDBRANCH   5  24TORSDOF 11TERENDMDL