MODEL        7USER    Run = 7USERUSER    Estimated Free Energy of Binding    =  -7.69 kcal/mol  [=(1)+(2)+(3)-(4)]USERUSER    (1) Final Intermolecular Energy     =  -8.89 kcal/molUSER        vdW + Hbond + desolv Energy     =  -8.72 kcal/molUSER        Electrostatic Energy            =  -0.16 kcal/molUSER        Moving Ligand-Fixed Receptor    =  -8.89 kcal/molUSER        Moving Ligand-Moving Receptor   =  +0.00 kcal/molUSER    (2) Final Total Internal Energy     =  -0.73 kcal/molUSER    (3) Torsional Free Energy           =  +1.19 kcal/molUSER    (4) Unbound System's Energy         =  -0.73 kcal/molUSERUSERREMARK SMILES COc1ccc(F)c(-c2ccn(Cc3ccnc(C)n3)c(=O)c2)c1REMARK SMILES IDX 9 1 10 2 11 3 12 4 21 5 22 6 23 7 8 8 3 9 4 10 24 11 5 12REMARK SMILES IDX 6 13 7 14 2 15 1 16 13 17 14 18 15 19 20 20 16 21 18 22REMARK SMILES IDX 17 23 19 24REMARK H PARENTUSER                              x       y       z     vdW  Elec       q    TypeUSER                           _______ _______ _______ _____ _____    ______ ____ROOTATOM      1  C   UNL     1      38.431  45.472  17.258 -0.38 +0.00    -0.008 A  ATOM      2  C   UNL     1      37.607  44.862  18.286 -0.35 -0.01    +0.027 A  ATOM      3  C   UNL     1      36.519  44.155  17.956 -0.26 -0.02    +0.090 A  ATOM      4  N   UNL     1      36.138  43.998  16.635 -0.14 +0.11    -0.309 N  ATOM      5  C   UNL     1      36.869  44.545  15.585 -0.19 -0.09    +0.251 A  ATOM      6  O   UNL     1      36.578  44.437  14.397 -0.29 +0.10    -0.269 OA ATOM      7  C   UNL     1      38.076  45.328  15.965 -0.28 -0.02    +0.080 A  ENDROOTBRANCH   1   8ATOM      8  C   UNL     1      39.655  46.240  17.569 -0.44 -0.00    +0.021 A  ATOM      9  C   UNL     1      41.137  48.120  17.115 -0.42 -0.01    +0.119 A  ATOM     10  C   UNL     1      41.982  47.695  18.146 -0.43 -0.00    +0.049 A  ATOM     11  C   UNL     1      39.980  47.389  16.825 -0.46 -0.01    +0.058 A  ATOM     12  C   UNL     1      41.677  46.554  18.885 -0.48 +0.00    +0.044 A  ATOM     13  C   UNL     1      40.521  45.835  18.592 -0.38 -0.00    +0.131 A  ATOM     14  F   UNL     1      40.252  44.741  19.317 -0.10 -0.00    -0.206 F  BRANCH   9  15ATOM     15  O   UNL     1      41.555  49.249  16.466 -0.84 -0.04    -0.497 OA ATOM     16  C   UNL     1      40.969  49.524  15.197 -0.48 -0.07    +0.278 C  ENDBRANCH   9  15ENDBRANCH   1   8BRANCH   4  17ATOM     17  C   UNL     1      34.976  43.170  16.316 -0.34 -0.07    +0.181 C  BRANCH  17  18ATOM     18  C   UNL     1      33.640  43.888  16.397 -0.28 -0.03    +0.064 A  ATOM     19  C   UNL     1      32.818  43.648  17.486 -0.28 -0.01    +0.046 A  ATOM     20  N   UNL     1      33.261  44.707  15.385 -0.18 +0.15    -0.236 NA ATOM     21  C   UNL     1      31.600  44.292  17.489 -0.15 -0.02    +0.115 A  ATOM     22  C   UNL     1      32.059  45.307  15.495 -0.30 -0.08    +0.125 A  ATOM     23  N   UNL     1      31.194  45.119  16.510 -0.75 +0.05    -0.242 NA ATOM     24  C   UNL     1      31.636  46.192  14.372 -0.51 -0.07    +0.089 C  ENDBRANCH  17  18ENDBRANCH   4  17TORSDOF 4TERENDMDL