REMARK SMILES Fc1cccc(F)c1-c1scnc1-c1ccccn1
REMARK SMILES IDX 1 1 2 2 3 3 4 4 5 5 6 6 7 7 8 8 9 9 10 10 13 11 11 12 12 13
REMARK SMILES IDX 14 14 15 15 19 16 16 17 18 18 17 19
REMARK H PARENT
ROOT
ATOM      1  F   UNL     1      -0.422  -2.717   0.963  1.00  0.00    -0.206 F 
ATOM      2  C   UNL     1      -1.119  -2.115  -0.013  1.00  0.00     0.134 A 
ATOM      3  C   UNL     1      -1.496  -2.873  -1.123  1.00  0.00     0.040 A 
ATOM      4  C   UNL     1      -2.227  -2.282  -2.153  1.00  0.00     0.006 A 
ATOM      5  C   UNL     1      -2.577  -0.935  -2.064  1.00  0.00     0.040 A 
ATOM      6  C   UNL     1      -2.194  -0.189  -0.948  1.00  0.00     0.134 A 
ATOM      7  F   UNL     1      -2.554   1.103  -0.892  1.00  0.00    -0.206 F 
ATOM      8  C   UNL     1      -1.462  -0.764   0.093  1.00  0.00     0.066 A 
ENDROOT
BRANCH   8   9
ATOM      9  C   UNL     1      -1.054   0.025   1.249  1.00  0.00     0.070 A 
ATOM     10  S   UNL     1      -2.108   0.084   2.611  1.00  0.00    -0.121 S 
ATOM     11  C   UNL     1       0.081   0.790   1.497  1.00  0.00     0.108 A 
ATOM     12  C   UNL     1      -0.997   1.104   3.413  1.00  0.00     0.177 A 
ATOM     13  N   UNL     1       0.097   1.407   2.753  1.00  0.00    -0.242 NA
BRANCH  11  14
ATOM     14  C   UNL     1       1.201   0.976   0.566  1.00  0.00     0.090 A 
ATOM     15  C   UNL     1       2.282   1.778   0.928  1.00  0.00     0.031 A 
ATOM     16  N   UNL     1       1.143   0.348  -0.636  1.00  0.00    -0.255 NA
ATOM     17  C   UNL     1       3.336   1.943   0.032  1.00  0.00     0.004 A 
ATOM     18  C   UNL     1       2.178   0.526  -1.485  1.00  0.00     0.112 A 
ATOM     19  C   UNL     1       3.286   1.305  -1.200  1.00  0.00     0.020 A 
ENDBRANCH  11  14
ENDBRANCH   8   9
TORSDOF 2
