MODEL        1USER    Run = 1USERUSER    Estimated Free Energy of Binding    =  -7.41 kcal/mol  [=(1)+(2)+(3)-(4)]USERUSER    (1) Final Intermolecular Energy     =  -8.31 kcal/molUSER        vdW + Hbond + desolv Energy     =  -8.26 kcal/molUSER        Electrostatic Energy            =  -0.05 kcal/molUSER        Moving Ligand-Fixed Receptor    =  -8.31 kcal/molUSER        Moving Ligand-Moving Receptor   =  +0.00 kcal/molUSER    (2) Final Total Internal Energy     =  -1.04 kcal/molUSER    (3) Torsional Free Energy           =  +0.89 kcal/molUSER    (4) Unbound System's Energy         =  -1.04 kcal/molUSERUSERREMARK SMILES O=C(Nc1ccc(F)cc1)c1csc(-c2ccncc2)n1REMARK SMILES IDX 1 1 2 2 3 3 11 5 12 6 21 7 13 8 14 9 15 10 16 11 20 12 17 13REMARK SMILES IDX 19 14 18 15 4 16 5 17 10 18 6 19 9 20 7 21 8 22REMARK H PARENT 3 4USER                              x       y       z     vdW  Elec       q    TypeUSER                           _______ _______ _______ _____ _____    ______ ____ROOTATOM      1  O   UNL     1      40.334  44.979  20.150 -0.25 -0.01    -0.267 OA ATOM      2  C   UNL     1      39.443  45.238  19.348 -0.28 -0.01    +0.275 C  ATOM      3  N   UNL     1      38.158  44.709  19.383 -0.18 +0.03    -0.321 N  ATOM      4  H   UNL     1      37.568  44.895  18.585 +0.11 -0.03    +0.170 HD ENDROOTBRANCH   2   5ATOM      5  C   UNL     1      39.687  46.153  18.214 -0.35 -0.02    +0.140 A  ATOM      6  C   UNL     1      40.798  46.960  18.040 -0.43 -0.01    +0.101 A  ATOM      7  N   UNL     1      38.770  46.244  17.166 -0.26 +0.06    -0.231 NA ATOM      8  S   UNL     1      40.676  47.846  16.579 -0.66 +0.02    -0.122 S  ATOM      9  C   UNL     1      39.162  47.097  16.240 -0.36 -0.04    +0.124 A  BRANCH   9  10ATOM     10  C   UNL     1      38.388  47.389  15.018 -0.46 -0.01    +0.013 A  ATOM     11  C   UNL     1      37.671  48.591  14.950 -0.51 -0.02    +0.031 A  ATOM     12  C   UNL     1      38.329  46.535  13.912 -0.41 -0.01    +0.031 A  ATOM     13  C   UNL     1      36.942  48.880  13.809 -0.37 -0.07    +0.111 A  ATOM     14  C   UNL     1      37.571  46.912  12.813 -0.44 -0.03    +0.111 A  ATOM     15  N   UNL     1      36.877  48.064  12.738 -0.93 +0.08    -0.265 NA ENDBRANCH   9  10ENDBRANCH   2   5BRANCH   3  16ATOM     16  C   UNL     1      37.608  43.853  20.360 -0.33 -0.00    +0.041 A  ATOM     17  C   UNL     1      36.642  42.877  20.094 -0.36 -0.00    +0.029 A  ATOM     18  C   UNL     1      38.084  43.996  21.673 -0.34 +0.00    +0.029 A  ATOM     19  C   UNL     1      36.155  42.063  21.123 -0.49 +0.00    +0.041 A  ATOM     20  C   UNL     1      37.597  43.183  22.700 -0.35 +0.00    +0.041 A  ATOM     21  C   UNL     1      36.636  42.224  22.414 -0.40 +0.01    +0.123 A  ATOM     22  F   UNL     1      36.170  41.443  23.397 -0.19 +0.00    -0.207 F  ENDBRANCH   3  16TORSDOF 3TERENDMDL