MODEL        5USER    Run = 5USERUSER    Estimated Free Energy of Binding    =  -8.33 kcal/mol  [=(1)+(2)+(3)-(4)]USERUSER    (1) Final Intermolecular Energy     =  -9.23 kcal/molUSER        vdW + Hbond + desolv Energy     =  -9.26 kcal/molUSER        Electrostatic Energy            =  +0.03 kcal/molUSER        Moving Ligand-Fixed Receptor    =  -9.23 kcal/molUSER        Moving Ligand-Moving Receptor   =  +0.00 kcal/molUSER    (2) Final Total Internal Energy     =  -1.29 kcal/molUSER    (3) Torsional Free Energy           =  +0.89 kcal/molUSER    (4) Unbound System's Energy         =  -1.29 kcal/molUSERUSERREMARK SMILES O=C(Nc1ccc(Cl)cc1)c1cc(-c2ccc(F)cc2)ccn1REMARK SMILES IDX 11 1 12 2 13 3 21 4 22 5 23 6 2 7 3 8 1 9 4 11 5 12 10 13REMARK SMILES IDX 6 14 9 15 7 16 8 17 14 18 15 19 20 20 16 21 19 22 17 23REMARK SMILES IDX 18 24REMARK H PARENT 3 10USER                              x       y       z     vdW  Elec       q    TypeUSER                           _______ _______ _______ _____ _____    ______ ____ROOTATOM      1  C   UNL     1      40.485  47.603  16.972 -0.42 -0.02    +0.129 A  ATOM      2  C   UNL     1      39.435  47.189  16.163 -0.45 -0.01    +0.043 A  ATOM      3  C   UNL     1      39.280  47.778  14.902 -0.51 +0.00    -0.015 A  ATOM      4  C   UNL     1      40.202  48.766  14.528 -0.49 -0.01    +0.029 A  ATOM      5  C   UNL     1      41.219  49.117  15.403 -0.51 -0.01    +0.112 A  ATOM      6  N   UNL     1      41.387  48.562  16.620 -0.82 +0.01    -0.251 NA ENDROOTBRANCH   1   7ATOM      7  C   UNL     1      40.676  46.990  18.330 -0.33 -0.02    +0.274 C  ATOM      8  N   UNL     1      41.997  46.992  18.734 -0.33 -0.01    -0.321 N  ATOM      9  O   UNL     1      39.710  46.557  18.948 -0.28 +0.02    -0.267 OA ATOM     10  H   UNL     1      42.632  47.408  18.056 -0.27 -0.01    +0.170 HD BRANCH   8  11ATOM     11  C   UNL     1      42.544  46.505  19.932 -0.36 +0.01    +0.041 A  ATOM     12  C   UNL     1      43.675  47.047  20.548 -0.29 +0.01    +0.027 A  ATOM     13  C   UNL     1      41.905  45.411  20.530 -0.30 +0.01    +0.027 A  ATOM     14  C   UNL     1      44.161  46.505  21.744 -0.26 +0.01    +0.022 A  ATOM     15  C   UNL     1      42.388  44.867  21.724 -0.25 +0.00    +0.022 A  ATOM     16  C   UNL     1      43.515  45.418  22.326 -0.19 +0.01    +0.041 A  ATOM     17  Cl  UNL     1      44.113  44.751  23.795 -0.14 -0.01    -0.084 Cl ENDBRANCH   8  11ENDBRANCH   1   7BRANCH   3  18ATOM     18  C   UNL     1      38.185  47.378  14.004 -0.48 +0.01    -0.018 A  ATOM     19  C   UNL     1      37.299  48.332  13.472 -0.51 -0.00    +0.012 A  ATOM     20  C   UNL     1      37.995  46.028  13.652 -0.37 -0.00    +0.012 A  ATOM     21  C   UNL     1      36.259  47.951  12.619 -0.59 -0.02    +0.040 A  ATOM     22  C   UNL     1      36.954  45.647  12.800 -0.51 -0.01    +0.040 A  ATOM     23  C   UNL     1      36.096  46.612  12.292 -0.56 -0.06    +0.123 A  ATOM     24  F   UNL     1      35.098  46.247  11.477 -0.03 +0.15    -0.207 F  ENDBRANCH   3  18TORSDOF 3TERENDMDL