MODEL        1USER    Run = 1USERUSER    Estimated Free Energy of Binding    =  -7.29 kcal/mol  [=(1)+(2)+(3)-(4)]USERUSER    (1) Final Intermolecular Energy     =  -7.88 kcal/molUSER        vdW + Hbond + desolv Energy     =  -7.92 kcal/molUSER        Electrostatic Energy            =  +0.04 kcal/molUSER        Moving Ligand-Fixed Receptor    =  -7.88 kcal/molUSER        Moving Ligand-Moving Receptor   =  +0.00 kcal/molUSER    (2) Final Total Internal Energy     =  -0.81 kcal/molUSER    (3) Torsional Free Energy           =  +0.60 kcal/molUSER    (4) Unbound System's Energy         =  -0.81 kcal/molUSERUSERREMARK SMILES Fc1cccc(F)c1-c1scnc1-c1ccccn1REMARK SMILES IDX 1 1 2 2 3 3 4 4 5 5 6 6 7 7 8 8 9 9 10 10 13 11 11 12 12 13REMARK SMILES IDX 14 14 15 15 19 16 16 17 18 18 17 19REMARK H PARENTUSER                              x       y       z     vdW  Elec       q    TypeUSER                           _______ _______ _______ _____ _____    ______ ____ROOTATOM      1  F   UNL     1      36.827  47.201  16.277 -0.10 +0.17    -0.206 F  ATOM      2  C   UNL     1      37.643  46.413  16.994 -0.25 -0.06    +0.134 A  ATOM      3  C   UNL     1      37.072  45.483  17.864 -0.32 -0.01    +0.040 A  ATOM      4  C   UNL     1      37.890  44.644  18.619 -0.36 -0.00    +0.006 A  ATOM      5  C   UNL     1      39.276  44.740  18.497 -0.37 -0.00    +0.040 A  ATOM      6  C   UNL     1      39.834  45.674  17.622 -0.34 -0.02    +0.134 A  ATOM      7  F   UNL     1      41.171  45.735  17.524 -0.13 +0.01    -0.206 F  ATOM      8  C   UNL     1      39.030  46.523  16.858 -0.38 -0.02    +0.066 A  ENDROOTBRANCH   8   9ATOM      9  C   UNL     1      39.620  47.505  15.957 -0.45 -0.02    +0.070 A  ATOM     10  S   UNL     1      40.945  48.447  16.529 -0.68 +0.02    -0.121 S  ATOM     11  C   UNL     1      39.316  47.865  14.648 -0.43 -0.03    +0.108 A  ATOM     12  C   UNL     1      41.014  49.247  15.022 -0.49 -0.04    +0.177 A  ATOM     13  N   UNL     1      40.132  48.874  14.123 -0.27 +0.07    -0.242 NA BRANCH  11  14ATOM     14  C   UNL     1      38.247  47.277  13.831 -0.42 -0.03    +0.090 A  ATOM     15  C   UNL     1      38.040  45.899  13.842 -0.39 -0.01    +0.031 A  ATOM     16  N   UNL     1      37.484  48.113  13.082 -0.83 +0.06    -0.255 NA ATOM     17  C   UNL     1      37.021  45.358  13.061 -0.50 -0.00    +0.004 A  ATOM     18  C   UNL     1      36.503  47.562  12.334 -0.59 -0.05    +0.112 A  ATOM     19  C   UNL     1      36.234  46.205  12.291 -0.62 -0.01    +0.020 A  ENDBRANCH  11  14ENDBRANCH   8   9TORSDOF 2TERENDMDL