REMARK SMILES O=C(c1ccncc1)N1CCN(Cc2ncsc2-c2ccc(F)cc2)CC1
REMARK SMILES IDX 14 1 15 2 16 3 17 4 18 5 13 6 12 7 2 8 9 9 10 10 27 11 11 12
REMARK SMILES IDX 26 13 1 14 3 15 4 16 8 17 5 18 7 19 6 20 19 21 20 22 25 23
REMARK SMILES IDX 21 24 24 25 22 26 23 27
REMARK H PARENT
ROOT
ATOM      1  C   UNL     1      -1.534   1.951  -0.419  1.00  0.00     0.073 A 
ATOM      2  N   UNL     1      -0.634   2.597  -1.269  1.00  0.00    -0.248 NA
ATOM      3  C   UNL     1      -0.942   2.347  -2.521  1.00  0.00     0.176 A 
ATOM      4  S   UNL     1      -2.293   1.332  -2.777  1.00  0.00    -0.122 S 
ATOM      5  C   UNL     1      -2.518   1.219  -1.077  1.00  0.00     0.059 A 
ENDROOT
BRANCH   1   6
ATOM      6  C   UNL     1      -1.373   2.125   1.071  1.00  0.00     0.142 C 
BRANCH   6   7
ATOM      7  N   UNL     1      -0.258   1.365   1.650  1.00  0.00    -0.294 NA
ATOM      8  C   UNL     1       2.952  -1.429   0.746  1.00  0.00     0.254 C 
ATOM      9  N   UNL     1       1.896  -0.542   0.902  1.00  0.00    -0.336 N 
ATOM     10  C   UNL     1       1.828   0.805   0.311  1.00  0.00     0.135 C 
ATOM     11  C   UNL     1       0.865  -0.861   1.891  1.00  0.00     0.135 C 
ATOM     12  C   UNL     1       1.075   1.805   1.211  1.00  0.00     0.106 C 
ATOM     13  C   UNL     1      -0.440  -0.093   1.619  1.00  0.00     0.106 C 
ATOM     14  O   UNL     1       3.106  -2.428   1.444  1.00  0.00    -0.269 OA
BRANCH   8  15
ATOM     15  C   UNL     1       3.949  -1.176  -0.315  1.00  0.00     0.043 A 
ATOM     16  C   UNL     1       5.299  -1.161   0.025  1.00  0.00     0.034 A 
ATOM     17  C   UNL     1       3.555  -1.021  -1.643  1.00  0.00     0.034 A 
ATOM     18  C   UNL     1       6.211  -0.944  -0.989  1.00  0.00     0.112 A 
ATOM     19  C   UNL     1       4.547  -0.813  -2.582  1.00  0.00     0.112 A 
ATOM     20  N   UNL     1       5.864  -0.759  -2.282  1.00  0.00    -0.265 NA
ENDBRANCH   8  15
ENDBRANCH   6   7
ENDBRANCH   1   6
BRANCH   5  21
ATOM     21  C   UNL     1      -3.632   0.436  -0.549  1.00  0.00    -0.006 A 
ATOM     22  C   UNL     1      -3.637  -0.963  -0.665  1.00  0.00     0.012 A 
ATOM     23  C   UNL     1      -4.705   1.075   0.090  1.00  0.00     0.012 A 
ATOM     24  C   UNL     1      -4.697  -1.710  -0.148  1.00  0.00     0.040 A 
ATOM     25  C   UNL     1      -5.765   0.326   0.604  1.00  0.00     0.040 A 
ATOM     26  C   UNL     1      -5.751  -1.058   0.481  1.00  0.00     0.123 A 
ATOM     27  F   UNL     1      -6.767  -1.776   0.976  1.00  0.00    -0.207 F 
ENDBRANCH   5  21
TORSDOF 4
