MODEL        6USER    Run = 6USERUSER    Estimated Free Energy of Binding    =  -9.38 kcal/mol  [=(1)+(2)+(3)-(4)]USERUSER    (1) Final Intermolecular Energy     = -10.28 kcal/molUSER        vdW + Hbond + desolv Energy     = -10.27 kcal/molUSER        Electrostatic Energy            =  -0.01 kcal/molUSER        Moving Ligand-Fixed Receptor    = -10.28 kcal/molUSER        Moving Ligand-Moving Receptor   =  +0.00 kcal/molUSER    (2) Final Total Internal Energy     =  -0.99 kcal/molUSER    (3) Torsional Free Energy           =  +0.89 kcal/molUSER    (4) Unbound System's Energy         =  -0.99 kcal/molUSERUSERREMARK SMILES O=C(Cc1ccc2ccccc2c1)Nc1cc2ccccc2[nH]1REMARK SMILES IDX 1 1 2 2 14 3 3 5 4 6 5 7 13 8 6 9 12 10 7 11 11 12 8 13REMARK SMILES IDX 10 14 9 15 15 16 16 17 23 18 17 19 22 20 18 21 21 22 19 23REMARK SMILES IDX 20 24REMARK H PARENT 14 4 23 25USER                              x       y       z     vdW  Elec       q    TypeUSER                           _______ _______ _______ _____ _____    ______ ____ROOTATOM      1  O   UNL     1      41.823  50.372  16.441 -0.89 -0.00    -0.274 OA ATOM      2  C   UNL     1      41.406  49.407  15.801 -0.42 -0.01    +0.229 C  ATOM      3  N   UNL     1      41.609  49.202  14.445 -0.35 +0.03    -0.312 N  ATOM      4  H   UNL     1      41.272  48.351  14.011 +0.14 -0.01    +0.171 HD ENDROOTBRANCH   2   5ATOM      5  C   UNL     1      40.582  48.310  16.454 -0.51 -0.03    +0.135 C  BRANCH   5   6ATOM      6  C   UNL     1      39.646  47.625  15.490 -0.49 +0.01    -0.038 A  ATOM      7  C   UNL     1      39.761  46.258  15.230 -0.43 -0.00    +0.005 A  ATOM      8  C   UNL     1      38.649  48.362  14.830 -0.52 -0.01    +0.013 A  ATOM      9  C   UNL     1      38.894  45.632  14.326 -0.30 -0.00    +0.009 A  ATOM     10  C   UNL     1      37.770  47.749  13.919 -0.52 +0.01    -0.018 A  ATOM     11  C   UNL     1      37.892  46.366  13.665 -0.42 +0.01    -0.018 A  ATOM     12  C   UNL     1      36.773  48.484  13.255 -0.48 -0.00    +0.009 A  ATOM     13  C   UNL     1      37.015  45.754  12.754 -0.53 -0.00    +0.009 A  ATOM     14  C   UNL     1      35.908  47.863  12.353 -0.54 -0.00    +0.001 A  ATOM     15  C   UNL     1      36.030  46.500  12.102 -0.65 -0.00    +0.001 A  ENDBRANCH   5   6ENDBRANCH   2   5BRANCH   3  16ATOM     16  C   UNL     1      42.305  50.094  13.654 -0.58 -0.02    +0.110 A  ATOM     17  C   UNL     1      42.175  50.336  12.305 -0.30 -0.02    +0.055 A  ATOM     18  N   UNL     1      43.285  50.926  14.132 -0.17 +0.10    -0.341 N  ATOM     19  C   UNL     1      43.117  51.345  11.952 -0.52 -0.00    +0.002 A  ATOM     20  C   UNL     1      43.799  51.700  13.117 -0.09 -0.02    +0.047 A  ATOM     21  C   UNL     1      43.457  51.988  10.747 -0.50 -0.01    +0.010 A  ATOM     22  C   UNL     1      44.797  52.680  13.140 -0.28 -0.01    +0.027 A  ATOM     23  C   UNL     1      44.459  52.967  10.752 -0.39 -0.00    +0.001 A  ATOM     24  C   UNL     1      45.111  53.311  11.934 -0.26 -0.00    +0.002 A  ATOM     25  H   UNL     1      43.588  50.939  15.099 -0.25 -0.01    +0.168 HD ENDBRANCH   3  16TORSDOF 3TERENDMDL