REMARK SMILES O=C(Cc1ccc2ccccc2c1)Nc1cc2ccccc2[nH]1
REMARK SMILES IDX 1 1 2 2 14 3 3 5 4 6 5 7 13 8 6 9 12 10 7 11 11 12 8 13
REMARK SMILES IDX 10 14 9 15 15 16 16 17 23 18 17 19 22 20 18 21 21 22 19 23
REMARK SMILES IDX 20 24
REMARK H PARENT 14 4 23 25
ROOT
ATOM      1  O   UNL     1      -0.107  -1.790   1.737  1.00  0.00    -0.274 OA
ATOM      2  C   UNL     1       0.001  -1.798   0.511  1.00  0.00     0.229 C 
ATOM      3  N   UNL     1      -0.973  -1.370  -0.377  1.00  0.00    -0.312 N 
ATOM      4  H   UNL     1      -0.777  -1.365  -1.371  1.00  0.00     0.171 HD
ENDROOT
BRANCH   2   5
ATOM      5  C   UNL     1       1.253  -2.313  -0.178  1.00  0.00     0.135 C 
BRANCH   5   6
ATOM      6  C   UNL     1       2.152  -1.206  -0.668  1.00  0.00    -0.038 A 
ATOM      7  C   UNL     1       2.382  -1.021  -2.033  1.00  0.00     0.005 A 
ATOM      8  C   UNL     1       2.781  -0.349   0.250  1.00  0.00     0.013 A 
ATOM      9  C   UNL     1       3.226   0.003  -2.478  1.00  0.00     0.009 A 
ATOM     10  C   UNL     1       3.632   0.685  -0.180  1.00  0.00    -0.018 A 
ATOM     11  C   UNL     1       3.856   0.865  -1.562  1.00  0.00    -0.018 A 
ATOM     12  C   UNL     1       4.266   1.542   0.736  1.00  0.00     0.009 A 
ATOM     13  C   UNL     1       4.707   1.897  -1.992  1.00  0.00     0.009 A 
ATOM     14  C   UNL     1       5.108   2.563   0.295  1.00  0.00     0.001 A 
ATOM     15  C   UNL     1       5.330   2.739  -1.068  1.00  0.00     0.001 A 
ENDBRANCH   5   6
ENDBRANCH   2   5
BRANCH   3  16
ATOM     16  C   UNL     1      -2.201  -0.894   0.037  1.00  0.00     0.110 A 
ATOM     17  C   UNL     1      -3.256  -0.445  -0.725  1.00  0.00     0.055 A 
ATOM     18  N   UNL     1      -2.572  -0.801   1.355  1.00  0.00    -0.341 N 
ATOM     19  C   UNL     1      -4.300  -0.058   0.164  1.00  0.00     0.002 A 
ATOM     20  C   UNL     1      -3.846  -0.294   1.463  1.00  0.00     0.047 A 
ATOM     21  C   UNL     1      -5.590   0.477  -0.015  1.00  0.00     0.010 A 
ATOM     22  C   UNL     1      -4.626  -0.035   2.595  1.00  0.00     0.027 A 
ATOM     23  C   UNL     1      -6.381   0.747   1.109  1.00  0.00     0.001 A 
ATOM     24  C   UNL     1      -5.907   0.486   2.392  1.00  0.00     0.002 A 
ATOM     25  H   UNL     1      -1.968  -1.057   2.127  1.00  0.00     0.168 HD
ENDBRANCH   3  16
TORSDOF 3
