REMARK SMILES O=C(Nc1ccc(F)cc1)c1csc(-c2ccncc2)n1
REMARK SMILES IDX 1 1 2 2 3 3 11 5 12 6 21 7 13 8 14 9 15 10 16 11 20 12 17 13
REMARK SMILES IDX 19 14 18 15 4 16 5 17 10 18 6 19 9 20 7 21 8 22
REMARK H PARENT 3 4
ROOT
ATOM      1  O   UNL     1      -1.005  -0.824  -1.369  1.00  0.00    -0.267 OA
ATOM      2  C   UNL     1      -0.929  -0.351  -0.240  1.00  0.00     0.275 C 
ATOM      3  N   UNL     1      -1.997   0.171   0.480  1.00  0.00    -0.321 N 
ATOM      4  H   UNL     1      -1.773   0.656   1.337  1.00  0.00     0.170 HD
ENDROOT
BRANCH   2   5
ATOM      5  C   UNL     1       0.368  -0.271   0.462  1.00  0.00     0.140 A 
ATOM      6  C   UNL     1       0.555  -0.247   1.833  1.00  0.00     0.101 A 
ATOM      7  N   UNL     1       1.563  -0.245  -0.258  1.00  0.00    -0.231 NA
ATOM      8  S   UNL     1       2.223  -0.166   2.212  1.00  0.00    -0.122 S 
ATOM      9  C   UNL     1       2.615  -0.188   0.535  1.00  0.00     0.124 A 
BRANCH   9  10
ATOM     10  C   UNL     1       4.007  -0.152   0.045  1.00  0.00     0.013 A 
ATOM     11  C   UNL     1       4.235  -0.250  -1.334  1.00  0.00     0.031 A 
ATOM     12  C   UNL     1       5.122  -0.022   0.879  1.00  0.00     0.031 A 
ATOM     13  C   UNL     1       5.535  -0.216  -1.809  1.00  0.00     0.111 A 
ATOM     14  C   UNL     1       6.387   0.003   0.309  1.00  0.00     0.111 A 
ATOM     15  N   UNL     1       6.617  -0.091  -1.015  1.00  0.00    -0.265 NA
ENDBRANCH   9  10
ENDBRANCH   2   5
BRANCH   3  16
ATOM     16  C   UNL     1      -3.357   0.195   0.105  1.00  0.00     0.041 A 
ATOM     17  C   UNL     1      -3.864  -0.412  -1.048  1.00  0.00     0.029 A 
ATOM     18  C   UNL     1      -4.242   0.864   0.965  1.00  0.00     0.029 A 
ATOM     19  C   UNL     1      -5.231  -0.346  -1.341  1.00  0.00     0.041 A 
ATOM     20  C   UNL     1      -5.607   0.930   0.672  1.00  0.00     0.041 A 
ATOM     21  C   UNL     1      -6.088   0.324  -0.480  1.00  0.00     0.123 A 
ATOM     22  F   UNL     1      -7.396   0.385  -0.761  1.00  0.00    -0.207 F 
ENDBRANCH   3  16
TORSDOF 3
