MODEL        4USER    Run = 4USERUSER    Estimated Free Energy of Binding    = -11.63 kcal/mol  [=(1)+(2)+(3)-(4)]USERUSER    (1) Final Intermolecular Energy     = -13.42 kcal/molUSER        vdW + Hbond + desolv Energy     = -13.26 kcal/molUSER        Electrostatic Energy            =  -0.16 kcal/molUSER        Moving Ligand-Fixed Receptor    = -13.42 kcal/molUSER        Moving Ligand-Moving Receptor   =  +0.00 kcal/molUSER    (2) Final Total Internal Energy     =  -2.27 kcal/molUSER    (3) Torsional Free Energy           =  +1.79 kcal/molUSER    (4) Unbound System's Energy         =  -2.27 kcal/molUSERUSERREMARK SMILES Oc1nc2ccccc2n1C1CCN(Cc2ccc(-c3nc4ccccc4nc3-c3ccncc3)cc2)CC1REMARK SMILES IDX 11 1 12 2 13 3 14 4 38 5 39 6 10 7 2 8 3 9 4 10 9 11 5 12REMARK SMILES IDX 8 13 6 14 7 15 1 16 15 18 16 19 17 20 37 21 18 22 36 23REMARK SMILES IDX 19 24 20 25 21 26 29 27 22 28 28 29 23 30 27 31 24 32 26 33REMARK SMILES IDX 25 34 30 35 31 36 35 37 32 38 34 39 33 40REMARK H PARENT 1 17USER                              x       y       z     vdW  Elec       q    TypeUSER                           _______ _______ _______ _____ _____    ______ ____ROOTATOM      1  C   UNL     1      36.544  46.012  14.901 -0.38 -0.05    +0.095 C  ATOM      2  C   UNL     1      35.483  46.413  15.937 -0.31 -0.04    +0.041 C  ATOM      3  C   UNL     1      34.725  45.204  16.482 -0.32 -0.06    +0.087 C  ATOM      4  N   UNL     1      35.672  44.248  17.036 -0.11 +0.12    -0.299 NA ATOM      5  C   UNL     1      36.671  43.740  16.097 -0.39 -0.03    +0.087 C  ATOM      6  C   UNL     1      36.730  44.494  14.769 -0.39 -0.02    +0.041 C  ENDROOTBRANCH   1   7ATOM      7  N   UNL     1      37.813  46.722  15.022 -0.18 +0.13    -0.291 N  ATOM      8  C   UNL     1      38.340  47.521  14.040 -0.26 -0.10    +0.295 A  ATOM      9  N   UNL     1      39.504  48.023  14.345 -0.35 +0.05    -0.195 NA ATOM     10  C   UNL     1      39.766  47.529  15.597 -0.44 -0.02    +0.092 A  ATOM     11  C   UNL     1      38.728  46.711  16.054 -0.37 -0.02    +0.072 A  ATOM     12  C   UNL     1      40.891  47.745  16.408 -0.46 -0.00    +0.031 A  ATOM     13  C   UNL     1      38.775  46.097  17.313 -0.39 -0.01    +0.029 A  ATOM     14  C   UNL     1      40.950  47.133  17.664 -0.52 -0.00    +0.002 A  ATOM     15  C   UNL     1      39.905  46.324  18.106 -0.46 -0.00    +0.002 A  BRANCH   8  16ATOM     16  O   UNL     1      37.765  47.768  12.881 -0.74 +0.08    -0.480 OA ATOM     17  H   UNL     1      37.075  48.405  13.145 +0.23 -0.10    +0.296 HD ENDBRANCH   8  16ENDBRANCH   1   7BRANCH   4  18ATOM     18  C   UNL     1      35.093  43.234  17.923 -0.32 -0.03    +0.120 C  BRANCH  18  19ATOM     19  C   UNL     1      35.701  43.125  19.307 -0.38 +0.00    -0.034 A  ATOM     20  C   UNL     1      35.774  41.889  19.962 -0.32 -0.00    +0.006 A  ATOM     21  C   UNL     1      36.201  44.257  19.964 -0.38 -0.00    +0.006 A  ATOM     22  C   UNL     1      36.338  41.788  21.239 -0.54 +0.00    +0.011 A  ATOM     23  C   UNL     1      36.769  44.152  21.238 -0.36 +0.00    +0.011 A  ATOM     24  C   UNL     1      36.835  42.919  21.906 -0.43 +0.00    +0.002 A  BRANCH  24  25ATOM     25  C   UNL     1      37.418  42.792  23.255 -0.33 +0.01    +0.097 A  ATOM     26  N   UNL     1      36.555  42.290  24.182 -0.28 -0.01    -0.244 NA ATOM     27  C   UNL     1      38.739  43.122  23.599 -0.22 +0.01    +0.097 A  ATOM     28  C   UNL     1      37.023  42.090  25.427 -0.33 -0.01    +0.089 A  ATOM     29  N   UNL     1      39.212  42.902  24.860 -0.12 -0.01    -0.244 NA ATOM     30  C   UNL     1      36.179  41.571  26.400 -0.44 -0.01    +0.030 A  ATOM     31  C   UNL     1      38.359  42.393  25.766 -0.22 -0.00    +0.089 A  ATOM     32  C   UNL     1      36.625  41.344  27.703 -0.55 -0.00    +0.002 A  ATOM     33  C   UNL     1      38.795  42.162  27.066 -0.31 -0.00    +0.030 A  ATOM     34  C   UNL     1      37.940  41.640  28.037 -0.42 -0.00    +0.002 A  BRANCH  27  35ATOM     35  C   UNL     1      39.729  43.738  22.698 -0.25 +0.00    +0.005 A  ATOM     36  C   UNL     1      40.847  43.010  22.271 -0.25 +0.00    +0.030 A  ATOM     37  C   UNL     1      39.615  45.064  22.261 -0.27 +0.00    +0.030 A  ATOM     38  C   UNL     1      41.763  43.612  21.424 -0.28 +0.01    +0.111 A  ATOM     39  C   UNL     1      40.582  45.579  21.412 -0.24 +0.01    +0.111 A  ATOM     40  N   UNL     1      41.649  44.879  20.977 -0.18 -0.04    -0.265 NA ENDBRANCH  27  35ENDBRANCH  24  25ENDBRANCH  18  19ENDBRANCH   4  18TORSDOF 6TERENDMDL