REMARK SMILES Nc1cc(Nc2nccc(-c3ccc4[nH]ncc4c3)n2)ccc1NC(=O)S(N)(=O)=O
REMARK SMILES IDX 2 1 3 2 4 3 21 4 22 5 23 6 1 7 24 10 25 11 26 13 27 14 29 15
REMARK SMILES IDX 30 16 28 17 5 20 6 22 7 23 20 24 8 25 10 26 9 27 11 28 12 29
REMARK SMILES IDX 19 30 13 31 18 32 14 33 17 34 15 35 16 36
REMARK H PARENT 1 8 1 9 24 12 28 18 28 19 5 21 15 37
ROOT
ATOM      1  C   UNL     1       2.124  -0.336   0.034  1.00  0.00     0.057 A 
ATOM      2  C   UNL     1       1.060   0.511  -0.303  1.00  0.00     0.053 A 
ATOM      3  C   UNL     1       1.260   1.656  -1.083  1.00  0.00     0.043 A 
ATOM      4  C   UNL     1       2.555   1.891  -1.575  1.00  0.00     0.028 A 
ATOM      5  C   UNL     1       3.620   1.030  -1.288  1.00  0.00     0.030 A 
ATOM      6  C   UNL     1       3.405  -0.091  -0.495  1.00  0.00     0.065 A 
ENDROOT
BRANCH   1   7
ATOM      7  N   UNL     1       1.873  -1.561   0.713  1.00  0.00    -0.397 N 
ATOM      8  H   UNL     1       1.699  -2.293   0.022  1.00  0.00     0.156 HD
ATOM      9  H   UNL     1       1.042  -1.480   1.298  1.00  0.00     0.156 HD
ENDBRANCH   1   7
BRANCH   6  10
ATOM     10  N   UNL     1       4.401  -1.021  -0.151  1.00  0.00    -0.310 N 
ATOM     11  C   UNL     1       5.722  -1.020  -0.525  1.00  0.00     0.355 C 
ATOM     12  H   UNL     1       4.072  -1.763   0.468  1.00  0.00     0.171 HD
ATOM     13  O   UNL     1       6.349  -0.256  -1.250  1.00  0.00    -0.254 OA
BRANCH  11  14
ATOM     14  S   UNL     1       6.603  -2.431   0.212  1.00  0.00     0.292 S 
ATOM     15  O   UNL     1       6.817  -2.107   1.606  1.00  0.00    -0.202 OA
ATOM     16  O   UNL     1       5.894  -3.622  -0.202  1.00  0.00    -0.202 OA
BRANCH  14  17
ATOM     17  N   UNL     1       8.141  -2.448  -0.509  1.00  0.00    -0.220 NA
ATOM     18  H   UNL     1       8.185  -1.743  -1.252  1.00  0.00     0.137 HD
ATOM     19  H   UNL     1       8.844  -2.276   0.210  1.00  0.00     0.137 HD
ENDBRANCH  14  17
ENDBRANCH  11  14
ENDBRANCH   6  10
BRANCH   3  20
ATOM     20  N   UNL     1       0.238   2.537  -1.455  1.00  0.00    -0.324 N 
ATOM     21  H   UNL     1       0.522   3.421  -1.852  1.00  0.00     0.170 HD
BRANCH  20  22
ATOM     22  C   UNL     1      -1.128   2.590  -1.193  1.00  0.00     0.227 A 
ATOM     23  N   UNL     1      -1.728   3.737  -1.549  1.00  0.00    -0.221 NA
ATOM     24  N   UNL     1      -1.784   1.562  -0.639  1.00  0.00    -0.213 NA
ATOM     25  C   UNL     1      -3.047   3.839  -1.314  1.00  0.00     0.117 A 
ATOM     26  C   UNL     1      -3.109   1.691  -0.407  1.00  0.00     0.076 A 
ATOM     27  C   UNL     1      -3.793   2.843  -0.738  1.00  0.00     0.049 A 
BRANCH  26  28
ATOM     28  C   UNL     1      -3.764   0.520   0.211  1.00  0.00     0.001 A 
ATOM     29  C   UNL     1      -3.377  -0.785  -0.155  1.00  0.00     0.012 A 
ATOM     30  C   UNL     1      -4.776   0.669   1.183  1.00  0.00     0.022 A 
ATOM     31  C   UNL     1      -3.965  -1.932   0.397  1.00  0.00     0.029 A 
ATOM     32  C   UNL     1      -5.378  -0.469   1.754  1.00  0.00     0.020 A 
ATOM     33  C   UNL     1      -4.964  -1.731   1.350  1.00  0.00     0.065 A 
ATOM     34  C   UNL     1      -6.377  -0.717   2.720  1.00  0.00     0.143 A 
ATOM     35  N   UNL     1      -5.721  -2.610   2.078  1.00  0.00    -0.278 N 
ATOM     36  N   UNL     1      -6.591  -2.020   2.918  1.00  0.00    -0.183 NA
ATOM     37  H   UNL     1      -5.693  -3.623   2.049  1.00  0.00     0.190 HD
ENDBRANCH  26  28
ENDBRANCH  20  22
ENDBRANCH   3  20
TORSDOF 7
