MODEL        8USER    Run = 8USERUSER    Estimated Free Energy of Binding    =  -6.98 kcal/mol  [=(1)+(2)+(3)-(4)]USERUSER    (1) Final Intermolecular Energy     = -11.15 kcal/molUSER        vdW + Hbond + desolv Energy     = -12.00 kcal/molUSER        Electrostatic Energy            =  -0.20 kcal/molUSER        Moving Ligand-Fixed Receptor    = -12.20 kcal/molUSER        Moving Ligand-Moving Receptor   =  +1.05 kcal/molUSER    (2) Final Total Internal Energy     =  -2.64 kcal/molUSER    (3) Torsional Free Energy           =  +4.18 kcal/molUSER    (4) Unbound System's Energy         =  -2.64 kcal/molUSERUSERREMARK SMILES COc1ccc(O)c(C(=O)c2ccc(C(=O)N[C@@H]3CCCNC[C@H]3NC(=O)c3ccnc(F)c3)cc2)c1FREMARK SMILES IDX 15 1 16 2 17 3 14 5 11 6 12 7 36 8 13 9 35 10 9 11 10 12REMARK SMILES IDX 8 13 3 14 4 15 37 16 5 17 6 18 38 19 2 20 1 21 7 22 18 24REMARK SMILES IDX 19 25 24 27 23 28 22 29 21 31 20 32 25 34 26 35 27 37 28 38REMARK SMILES IDX 29 39 34 40 30 41 32 42 31 43 33 44REMARK H PARENT 17 4 7 23 22 30 25 36REMARK Flexibility Score:   88.900USER                              x       y       z     vdW  Elec       q    TypeUSER                           _______ _______ _______ _____ _____    ______ ____ROOTATOM      1  C   UNL     1      39.439  43.533  23.637 -0.15 +0.01    +0.251 C  ATOM      2  O   UNL     1      40.261  42.947  24.333 -0.15 -0.01    -0.269 OA ATOM      3  N   UNL     1      38.114  43.698  23.993 -0.10 -0.02    -0.347 N  ATOM      4  H   UNL     1      37.554  44.359  23.465 +0.08 +0.02    +0.164 HD ENDROOTBRANCH   1   5ATOM      5  C   UNL     1      39.864  44.122  22.336 -0.23 +0.00    +0.039 A  ATOM      6  C   UNL     1      40.628  45.364  19.930 -0.39 +0.00    +0.023 A  ATOM      7  C   UNL     1      41.362  44.281  20.436 -0.33 +0.00    +0.013 A  ATOM      8  C   UNL     1      39.527  45.844  20.650 -0.22 +0.00    +0.013 A  ATOM      9  C   UNL     1      40.985  43.662  21.632 -0.30 +0.00    +0.014 A  ATOM     10  C   UNL     1      39.146  45.219  21.842 -0.33 +0.00    +0.014 A  BRANCH   6  11ATOM     11  C   UNL     1      41.114  46.023  18.690 -0.40 +0.00    +0.199 C  ATOM     12  O   UNL     1      42.326  46.188  18.535 -0.31 -0.03    -0.288 OA BRANCH  11  13ATOM     13  C   UNL     1      40.218  46.573  17.653 -0.41 -0.01    +0.104 A  ATOM     14  C   UNL     1      38.160  46.505  16.350 -0.29 -0.06    +0.155 A  ATOM     15  C   UNL     1      38.522  47.702  15.728 -0.43 -0.03    +0.053 A  ATOM     16  C   UNL     1      39.023  45.944  17.301 -0.30 -0.04    +0.179 A  ATOM     17  C   UNL     1      39.740  48.316  16.036 -0.49 -0.02    +0.051 A  ATOM     18  C   UNL     1      40.587  47.746  16.981 -0.43 -0.02    +0.130 A  ATOM     19  F   UNL     1      38.688  44.772  17.867 -0.09 +0.03    -0.202 F  BRANCH  14  20ATOM     20  O   UNL     1      37.006  45.804  16.116 -0.05 +0.24    -0.494 OA ATOM     21  C   UNL     1      36.960  45.002  14.943 -0.24 -0.11    +0.278 C  ENDBRANCH  14  20BRANCH  18  22ATOM     22  O   UNL     1      41.773  48.393  17.206 -0.58 -0.02    -0.507 OA ATOM     23  H   UNL     1      42.485  47.716  17.253 -0.36 -0.05    +0.293 HD ENDBRANCH  18  22ENDBRANCH  11  13ENDBRANCH   6  11ENDBRANCH   1   5BRANCH   3  24ATOM     24  C   UNL     1      37.585  43.198  25.272 -0.30 -0.00    +0.106 C  BRANCH  24  25ATOM     25  C   UNL     1      36.501  42.119  25.052 -0.46 -0.00    +0.028 CG0ATOM     26  G   UNL     1      35.926  41.527  26.340 +0.00 +0.00    +0.000 G0 ENDBRANCH  24  25BRANCH  24  27ATOM     27  C   UNL     1      37.127  44.361  26.193 -0.31 -0.01    +0.118 C  BRANCH  27  28ATOM     28  C   UNL     1      36.705  43.914  27.610 -0.40 -0.02    +0.108 C  BRANCH  28  29ATOM     29  N   UNL     1      37.424  42.710  28.047 -0.15 +0.08    -0.315 NA ATOM     30  H   UNL     1      37.406  42.662  29.068 -0.32 -0.07    +0.122 HD BRANCH  29  31ATOM     31  C   UNL     1      36.879  41.458  27.528 -0.53 -0.02    +0.081 C  BRANCH  31  32ATOM     32  C   UNL     1      35.918  41.521  26.338 -0.54 -0.00    +0.017 CG0ATOM     33  G   UNL     1      36.507  42.119  25.060 +0.00 +0.00    +0.000 G0 ENDBRANCH  31  32ENDBRANCH  29  31ENDBRANCH  28  29ENDBRANCH  27  28BRANCH  27  34ATOM     34  N   UNL     1      38.174  45.383  26.314 -0.09 +0.01    -0.346 N  ATOM     35  C   UNL     1      38.060  46.629  25.751 -0.22 +0.01    +0.251 C  ATOM     36  H   UNL     1      39.014  45.055  26.772 +0.06 -0.00    +0.164 HD ATOM     37  O   UNL     1      37.031  47.012  25.209 -0.80 -0.05    -0.269 OA BRANCH  35  38ATOM     38  C   UNL     1      39.233  47.541  25.850 -0.23 +0.00    +0.045 A  ATOM     39  C   UNL     1      40.190  47.667  24.841 -0.25 +0.00    +0.034 A  ATOM     40  C   UNL     1      39.363  48.309  27.009 -0.21 +0.00    +0.074 A  ATOM     41  C   UNL     1      41.241  48.545  25.047 -0.26 +0.02    +0.115 A  ATOM     42  C   UNL     1      40.448  49.152  27.114 -0.19 +0.03    +0.213 A  ATOM     43  N   UNL     1      41.395  49.285  26.163 -0.21 -0.03    -0.228 NA ATOM     44  F   UNL     1      40.585  49.885  28.229 -0.10 -0.04    -0.185 F  ENDBRANCH  35  38ENDBRANCH  27  34ENDBRANCH  24  27ENDBRANCH   3  24TORSDOF 8TERENDMDL