REMARK SMILES O=C1Nc2ccc(C(F)(F)F)cc2/C1=C/N1C[C@@H](O)c2ccccc2O1
REMARK SMILES IDX 15 1 14 2 2 3 3 4 4 5 13 6 5 7 12 8 6 9 7 10 1 11 8 13 9 14
REMARK SMILES IDX 10 15 11 16 16 17 17 18 26 19 18 20 25 21 20 22 24 23 21 24
REMARK SMILES IDX 23 25 22 26 19 27
REMARK H PARENT 3 12 19 28
ROOT
ATOM      1  C   UNL     1       0.247  -0.405   0.231  1.00  0.00     0.138 C 
ENDROOT
BRANCH   1   2
ATOM      2  C   UNL     1       1.192   0.131  -0.554  1.00  0.00     0.068 C 
ATOM      3  C   UNL     1       1.020   0.760  -1.914  1.00  0.00     0.257 C 
ATOM      4  N   UNL     1       2.292   1.184  -2.274  1.00  0.00    -0.321 N 
ATOM      5  C   UNL     1       3.223   0.908  -1.279  1.00  0.00     0.049 A 
ATOM      6  C   UNL     1       2.611   0.268  -0.198  1.00  0.00     0.013 A 
ATOM      7  C   UNL     1       4.569   1.209  -1.300  1.00  0.00     0.027 A 
ATOM      8  C   UNL     1       3.355  -0.100   0.911  1.00  0.00     0.024 A 
ATOM      9  C   UNL     1       5.326   0.842  -0.184  1.00  0.00     0.015 A 
ATOM     10  C   UNL     1       4.735   0.182   0.922  1.00  0.00     0.056 A 
ATOM     11  O   UNL     1       0.007   0.898  -2.571  1.00  0.00    -0.269 OA
ATOM     12  H   UNL     1       2.479   1.659  -3.144  1.00  0.00     0.170 HD
BRANCH  10  13
ATOM     13  C   UNL     1       5.576  -0.181   2.124  1.00  0.00     0.416 C 
ATOM     14  F   UNL     1       6.864  -0.482   1.800  1.00  0.00    -0.166 F 
ATOM     15  F   UNL     1       5.643   0.831   3.031  1.00  0.00    -0.166 F 
ATOM     16  F   UNL     1       5.100  -1.263   2.801  1.00  0.00    -0.166 F 
ENDBRANCH  10  13
ENDBRANCH   1   2
BRANCH   1  17
ATOM     17  N   UNL     1      -1.104  -0.618   0.050  1.00  0.00    -0.213 N 
ATOM     18  C   UNL     1      -1.735  -1.099  -1.176  1.00  0.00     0.198 C 
ATOM     19  O   UNL     1      -1.864  -0.960   1.183  1.00  0.00    -0.380 OA
ATOM     20  C   UNL     1      -2.975  -0.232  -1.416  1.00  0.00     0.171 C 
ATOM     21  C   UNL     1      -3.166  -0.496   1.087  1.00  0.00     0.161 A 
ATOM     22  C   UNL     1      -3.777  -0.162  -0.137  1.00  0.00     0.028 A 
ATOM     23  C   UNL     1      -3.885  -0.423   2.281  1.00  0.00     0.050 A 
ATOM     24  C   UNL     1      -5.108   0.279  -0.132  1.00  0.00     0.010 A 
ATOM     25  C   UNL     1      -5.211   0.009   2.271  1.00  0.00     0.004 A 
ATOM     26  C   UNL     1      -5.821   0.361   1.066  1.00  0.00     0.001 A 
BRANCH  20  27
ATOM     27  O   UNL     1      -3.765  -0.766  -2.481  1.00  0.00    -0.386 OA
ATOM     28  H   UNL     1      -3.261  -0.600  -3.297  1.00  0.00     0.211 HD
ENDBRANCH  20  27
ENDBRANCH   1  17
TORSDOF 4
