MODEL        7USER    Run = 7USERUSER    Estimated Free Energy of Binding    = -10.10 kcal/mol  [=(1)+(2)+(3)-(4)]USERUSER    (1) Final Intermolecular Energy     = -12.19 kcal/molUSER        vdW + Hbond + desolv Energy     = -12.07 kcal/molUSER        Electrostatic Energy            =  -0.12 kcal/molUSER        Moving Ligand-Fixed Receptor    = -12.19 kcal/molUSER        Moving Ligand-Moving Receptor   =  +0.00 kcal/molUSER    (2) Final Total Internal Energy     =  -2.67 kcal/molUSER    (3) Torsional Free Energy           =  +2.09 kcal/molUSER    (4) Unbound System's Energy         =  -2.67 kcal/molUSERUSERREMARK SMILES Nc1cc(Nc2nccc(-c3ccc4[nH]ncc4c3)n2)ccc1NC(=O)S(N)(=O)=OREMARK SMILES IDX 2 1 3 2 4 3 21 4 22 5 23 6 1 7 24 10 25 11 26 13 27 14 29 15REMARK SMILES IDX 30 16 28 17 5 20 6 22 7 23 20 24 8 25 10 26 9 27 11 28 12 29REMARK SMILES IDX 19 30 13 31 18 32 14 33 17 34 15 35 16 36REMARK H PARENT 1 8 1 9 24 12 28 18 28 19 5 21 15 37USER                              x       y       z     vdW  Elec       q    TypeUSER                           _______ _______ _______ _____ _____    ______ ____ROOTATOM      1  C   UNL     1      32.304  42.796  17.507 -0.28 -0.02    +0.057 A  ATOM      2  C   UNL     1      32.873  43.916  16.885 -0.28 -0.02    +0.053 A  ATOM      3  C   UNL     1      33.900  44.645  17.497 -0.29 -0.02    +0.043 A  ATOM      4  C   UNL     1      34.388  44.175  18.728 -0.35 -0.01    +0.028 A  ATOM      5  C   UNL     1      33.864  43.031  19.341 -0.39 -0.00    +0.030 A  ATOM      6  C   UNL     1      32.831  42.332  18.726 -0.33 -0.01    +0.065 A  ENDROOTBRANCH   1   7ATOM      7  N   UNL     1      31.358  41.996  16.807 -0.07 +0.16    -0.397 N  ATOM      8  H   UNL     1      30.849  41.420  17.480 +0.09 -0.03    +0.156 HD ATOM      9  H   UNL     1      31.832  41.371  16.157 -0.45 -0.13    +0.156 HD ENDBRANCH   1   7BRANCH   6  10ATOM     10  N   UNL     1      32.238  41.172  19.252 -0.19 -0.02    -0.310 N  ATOM     11  C   UNL     1      31.991  39.985  18.608 -0.22 +0.00    +0.355 C  ATOM     12  H   UNL     1      31.990  41.250  20.239 +0.09 +0.03    +0.171 HD ATOM     13  O   UNL     1      32.189  39.647  17.446 -0.33 +0.06    -0.254 OA BRANCH  11  14ATOM     14  S   UNL     1      31.229  38.782  19.741 -0.42 +0.05    +0.292 S  ATOM     15  O   UNL     1      32.052  38.751  20.931 -1.27 -0.07    -0.202 OA ATOM     16  O   UNL     1      29.818  39.096  19.788 -0.24 -0.02    -0.202 OA BRANCH  14  17ATOM     17  N   UNL     1      31.413  37.264  19.001 -0.84 -0.08    -0.220 NA ATOM     18  H   UNL     1      31.781  37.382  18.051 +0.09 +0.04    +0.137 HD ATOM     19  H   UNL     1      32.035  36.692  19.573 +0.09 +0.04    +0.137 HD ENDBRANCH  14  17ENDBRANCH  11  14ENDBRANCH   6  10BRANCH   3  20ATOM     20  N   UNL     1      34.510  45.767  16.925 -0.14 +0.29    -0.324 N  ATOM     21  H   UNL     1      33.950  46.605  16.861 -0.31 -0.31    +0.170 HD BRANCH  20  22ATOM     22  C   UNL     1      35.673  45.956  16.186 -0.19 -0.18    +0.227 A  ATOM     23  N   UNL     1      35.546  45.742  14.866 -0.23 +0.15    -0.221 NA ATOM     24  N   UNL     1      36.823  46.336  16.758 -0.24 +0.12    -0.213 NA ATOM     25  C   UNL     1      36.643  45.909  14.108 -0.34 -0.06    +0.117 A  ATOM     26  C   UNL     1      37.914  46.492  15.975 -0.34 -0.03    +0.076 A  ATOM     27  C   UNL     1      37.862  46.281  14.612 -0.38 -0.02    +0.049 A  BRANCH  26  28ATOM     28  C   UNL     1      39.147  46.906  16.676 -0.45 -0.00    +0.001 A  ATOM     29  C   UNL     1      39.870  48.032  16.234 -0.52 -0.00    +0.012 A  ATOM     30  C   UNL     1      39.626  46.203  17.802 -0.44 -0.00    +0.022 A  ATOM     31  C   UNL     1      41.046  48.469  16.859 -0.50 -0.00    +0.029 A  ATOM     32  C   UNL     1      40.804  46.627  18.448 -0.48 -0.00    +0.020 A  ATOM     33  C   UNL     1      41.481  47.738  17.965 -0.47 -0.00    +0.065 A  ATOM     34  C   UNL     1      41.563  46.205  19.561 -0.35 +0.01    +0.143 A  ATOM     35  N   UNL     1      42.560  47.893  18.795 -0.39 -0.01    -0.278 N  ATOM     36  N   UNL     1      42.636  46.972  19.773 -0.38 -0.04    -0.183 NA ATOM     37  H   UNL     1      43.280  48.605  18.748 -0.35 -0.01    +0.190 HD ENDBRANCH  26  28ENDBRANCH  20  22ENDBRANCH   3  20TORSDOF 7TERENDMDL