REMARK SMILES Oc1nc2ccccc2n1C1CCN(Cc2ccc(-c3nn(C4CCCCC4)c4ccccc34)cc2)CC1
REMARK SMILES IDX 11 1 12 2 13 3 14 4 37 5 38 6 10 7 2 8 3 9 4 10 9 11 5 12
REMARK SMILES IDX 8 13 6 14 7 15 1 16 15 18 16 19 17 20 36 21 18 22 35 23
REMARK SMILES IDX 19 24 20 25 21 26 34 27 22 28 33 29 29 30 32 31 30 32 31 33
REMARK SMILES IDX 23 34 24 35 28 36 25 37 27 38 26 39
REMARK H PARENT 1 17
ROOT
ATOM      1  C   UNL     1      -4.724  -0.267  -0.821  1.00  0.00     0.095 C 
ATOM      2  C   UNL     1      -3.916   0.852  -0.145  1.00  0.00     0.041 C 
ATOM      3  C   UNL     1      -3.541   0.571   1.312  1.00  0.00     0.087 C 
ATOM      4  N   UNL     1      -3.169  -0.811   1.586  1.00  0.00    -0.299 NA
ATOM      5  C   UNL     1      -3.028  -1.680   0.431  1.00  0.00     0.087 C 
ATOM      6  C   UNL     1      -4.340  -1.677  -0.349  1.00  0.00     0.041 C 
ENDROOT
BRANCH   1   7
ATOM      7  N   UNL     1      -6.163  -0.022  -0.811  1.00  0.00    -0.291 N 
ATOM      8  C   UNL     1      -6.997  -0.041   0.271  1.00  0.00     0.295 A 
ATOM      9  N   UNL     1      -8.240   0.226  -0.025  1.00  0.00    -0.195 NA
ATOM     10  C   UNL     1      -8.232   0.425  -1.382  1.00  0.00     0.092 A 
ATOM     11  C   UNL     1      -6.947   0.280  -1.909  1.00  0.00     0.072 A 
ATOM     12  C   UNL     1      -9.300   0.734  -2.237  1.00  0.00     0.031 A 
ATOM     13  C   UNL     1      -6.678   0.436  -3.276  1.00  0.00     0.029 A 
ATOM     14  C   UNL     1      -9.050   0.888  -3.606  1.00  0.00     0.002 A 
ATOM     15  C   UNL     1      -7.759   0.740  -4.113  1.00  0.00     0.002 A 
BRANCH   8  16
ATOM     16  O   UNL     1      -6.632  -0.325   1.504  1.00  0.00    -0.480 OA
ATOM     17  H   UNL     1      -7.484  -0.283   1.973  1.00  0.00     0.296 HD
ENDBRANCH   8  16
ENDBRANCH   1   7
BRANCH   4  18
ATOM     18  C   UNL     1      -2.201  -1.008   2.663  1.00  0.00     0.120 C 
BRANCH  18  19
ATOM     19  C   UNL     1      -0.759  -0.678   2.341  1.00  0.00    -0.034 A 
ATOM     20  C   UNL     1      -0.222   0.576   2.661  1.00  0.00     0.006 A 
ATOM     21  C   UNL     1       0.078  -1.630   1.741  1.00  0.00     0.006 A 
ATOM     22  C   UNL     1       1.122   0.867   2.402  1.00  0.00     0.011 A 
ATOM     23  C   UNL     1       1.421  -1.339   1.480  1.00  0.00     0.011 A 
ATOM     24  C   UNL     1       1.960  -0.094   1.823  1.00  0.00     0.003 A 
BRANCH  24  25
ATOM     25  C   UNL     1       3.377   0.185   1.582  1.00  0.00     0.100 A 
ATOM     26  N   UNL     1       3.967  -0.200   0.440  1.00  0.00    -0.171 NA
ATOM     27  C   UNL     1       4.310   0.843   2.446  1.00  0.00     0.028 A 
ATOM     28  N   UNL     1       5.247   0.205   0.565  1.00  0.00    -0.261 N 
ATOM     29  C   UNL     1       4.271   1.410   3.739  1.00  0.00     0.013 A 
ATOM     30  C   UNL     1       5.514   0.853   1.747  1.00  0.00     0.069 A 
ATOM     31  C   UNL     1       5.429   1.987   4.273  1.00  0.00     0.001 A 
ATOM     32  C   UNL     1       6.681   1.435   2.267  1.00  0.00     0.028 A 
ATOM     33  C   UNL     1       6.614   2.002   3.543  1.00  0.00     0.002 A 
BRANCH  28  34
ATOM     34  C   UNL     1       6.188  -0.057  -0.523  1.00  0.00     0.108 C 
ATOM     35  C   UNL     1       5.968   0.938  -1.677  1.00  0.00     0.027 C 
ATOM     36  C   UNL     1       6.180  -1.532  -0.983  1.00  0.00     0.027 C 
ATOM     37  C   UNL     1       6.671   0.472  -2.946  1.00  0.00     0.002 C 
ATOM     38  C   UNL     1       5.482  -1.711  -2.329  1.00  0.00     0.002 C 
ATOM     39  C   UNL     1       6.159  -0.887  -3.427  1.00  0.00     0.000 C 
ENDBRANCH  28  34
ENDBRANCH  24  25
ENDBRANCH  18  19
ENDBRANCH   4  18
TORSDOF 6
