REMARK SMILES CN1CC[C@@H](NC(=O)C=C2C=CC(NC(=O)Nc3cc(Cl)cc(C(F)(F)F)c3)=C2)C[C@@H]1Cl
REMARK SMILES IDX 10 1 11 2 12 3 13 4 29 5 9 6 7 7 6 8 8 10 5 11 2 12 3 13
REMARK SMILES IDX 31 14 4 15 30 16 1 17 32 18 14 19 15 20 17 21 16 23 18 25
REMARK SMILES IDX 19 26 28 27 20 28 23 29 22 30 21 31 24 32 25 33 26 34 27 35
REMARK H PARENT 6 9 14 22 17 24
ROOT
ATOM      1  C   UNL     1       0.659   0.586  -1.991  1.00  0.00    -0.018 C 
ATOM      2  C   UNL     1       0.744   0.655  -0.545  1.00  0.00     0.010 C 
ATOM      3  C   UNL     1      -0.488   0.410  -0.069  1.00  0.00     0.027 C 
ATOM      4  C   UNL     1      -1.402   0.193  -1.175  1.00  0.00     0.043 C 
ATOM      5  C   UNL     1      -0.725   0.297  -2.332  1.00  0.00     0.034 C 
ENDROOT
BRANCH   1   6
ATOM      6  C   UNL     1       1.625   0.771  -2.899  1.00  0.00     0.079 C 
BRANCH   6   7
ATOM      7  C   UNL     1       3.037   1.086  -2.592  1.00  0.00     0.244 C 
ATOM      8  N   UNL     1       3.650   0.194  -1.750  1.00  0.00    -0.350 N 
ATOM      9  H   UNL     1       3.101  -0.563  -1.362  1.00  0.00     0.164 HD
ATOM     10  O   UNL     1       3.587   2.037  -3.130  1.00  0.00    -0.270 OA
BRANCH   8  11
ATOM     11  C   UNL     1       5.043   0.355  -1.333  1.00  0.00     0.086 C 
ATOM     12  N   UNL     1       7.019   0.103   0.821  1.00  0.00    -0.290 NA
ATOM     13  C   UNL     1       6.073  -0.983   0.578  1.00  0.00     0.088 C 
ATOM     14  C   UNL     1       6.521   1.428   0.441  1.00  0.00     0.151 C 
ATOM     15  C   UNL     1       5.639  -0.988  -0.888  1.00  0.00     0.040 C 
ATOM     16  C   UNL     1       5.151   1.424  -0.241  1.00  0.00     0.060 C 
ATOM     17  C   UNL     1       7.529   0.083   2.188  1.00  0.00     0.106 C 
ATOM     18  Cl  UNL     1       7.768   2.094  -0.658  1.00  0.00    -0.106 Cl
ENDBRANCH   8  11
ENDBRANCH   6   7
ENDBRANCH   1   6
BRANCH   4  19
ATOM     19  N   UNL     1      -2.740  -0.065  -1.089  1.00  0.00    -0.308 N 
ATOM     20  C   UNL     1      -3.519  -0.124   0.059  1.00  0.00     0.323 C 
ATOM     21  N   UNL     1      -4.835  -0.432  -0.262  1.00  0.00    -0.308 N 
ATOM     22  H   UNL     1      -3.227  -0.135  -1.969  1.00  0.00     0.171 HD
ATOM     23  O   UNL     1      -3.100   0.070   1.192  1.00  0.00    -0.248 OA
ATOM     24  H   UNL     1      -4.998  -0.755  -1.203  1.00  0.00     0.171 HD
BRANCH  21  25
ATOM     25  C   UNL     1      -5.945  -0.474   0.609  1.00  0.00     0.044 A 
ATOM     26  C   UNL     1      -5.906  -0.075   1.947  1.00  0.00     0.046 A 
ATOM     27  C   UNL     1      -7.160  -0.922   0.070  1.00  0.00     0.039 A 
ATOM     28  C   UNL     1      -7.060  -0.139   2.731  1.00  0.00     0.043 A 
ATOM     29  C   UNL     1      -8.328  -0.979   0.851  1.00  0.00     0.059 A 
ATOM     30  C   UNL     1      -8.263  -0.591   2.196  1.00  0.00     0.033 A 
ATOM     31  Cl  UNL     1      -7.002   0.353   4.381  1.00  0.00    -0.084 Cl
BRANCH  29  32
ATOM     32  C   UNL     1      -9.625  -1.476   0.265  1.00  0.00     0.416 C 
ATOM     33  F   UNL     1      -9.672  -1.365  -1.093  1.00  0.00    -0.166 F 
ATOM     34  F   UNL     1      -9.848  -2.789   0.540  1.00  0.00    -0.166 F 
ATOM     35  F   UNL     1     -10.711  -0.801   0.732  1.00  0.00    -0.166 F 
ENDBRANCH  29  32
ENDBRANCH  21  25
ENDBRANCH   4  19
TORSDOF 6
