MODEL        4USER    Run = 4USERUSER    Estimated Free Energy of Binding    =  -8.73 kcal/mol  [=(1)+(2)+(3)-(4)]USERUSER    (1) Final Intermolecular Energy     = -11.12 kcal/molUSER        vdW + Hbond + desolv Energy     = -10.41 kcal/molUSER        Electrostatic Energy            =  -0.71 kcal/molUSER        Moving Ligand-Fixed Receptor    = -11.12 kcal/molUSER        Moving Ligand-Moving Receptor   =  +0.00 kcal/molUSER    (2) Final Total Internal Energy     =  -1.64 kcal/molUSER    (3) Torsional Free Energy           =  +2.39 kcal/molUSER    (4) Unbound System's Energy         =  -1.64 kcal/molUSERUSERREMARK SMILES CC(C)(C)C=C1C=C(C=Cc2nnc(NC(=O)C[C@@H]3CCCN3)o2)O1REMARK SMILES IDX 10 1 9 2 8 3 6 4 7 5 25 6 5 7 2 8 1 9 3 10 4 11 11 12 12 13REMARK SMILES IDX 24 14 13 15 14 16 15 17 16 18 17 20 18 21 19 22 20 23 23 24REMARK SMILES IDX 21 25 22 26REMARK H PARENT 15 19 23 27USER                              x       y       z     vdW  Elec       q    TypeUSER                           _______ _______ _______ _____ _____    ______ ____ROOTATOM      1  C   UNL     1       6.641  -7.229 -12.490 -0.30 -0.01    +0.074 C  ENDROOTBRANCH   1   2ATOM      2  C   UNL     1       7.583  -7.510 -11.580 -0.46 -0.01    +0.053 C  BRANCH   2   3ATOM      3  C   UNL     1       8.764  -8.516 -11.651 -0.48 -0.01    +0.131 C  ATOM      4  C   UNL     1      10.202  -9.686 -11.694 -0.58 -0.03    +0.127 C  ATOM      5  C   UNL     1       8.989  -9.590 -12.419 -0.46 -0.03    +0.093 C  ATOM      6  O   UNL     1       9.873  -8.640 -11.019 -1.35 -0.11    -0.457 OA BRANCH   4   7ATOM      7  C   UNL     1      11.275 -10.486 -11.664 -0.50 -0.01    +0.026 C  BRANCH   7   8ATOM      8  C   UNL     1      11.409 -11.987 -11.858 -0.51 +0.01    -0.016 C  ATOM      9  C   UNL     1      11.492 -12.266 -13.370 -0.41 -0.01    +0.015 C  ATOM     10  C   UNL     1      10.141 -12.655 -11.294 -0.53 -0.00    +0.015 C  ATOM     11  C   UNL     1      12.632 -12.626 -11.181 -0.39 -0.01    +0.015 C  ENDBRANCH   7   8ENDBRANCH   4   7ENDBRANCH   2   3ENDBRANCH   1   2BRANCH   1  12ATOM     12  C   UNL     1       6.495  -7.807 -13.779 -0.12 +0.00    +0.242 A  ATOM     13  N   UNL     1       6.101  -7.260 -14.919 -0.19 -0.04    -0.107 NA ATOM     14  O   UNL     1       6.779  -9.150 -13.982 -0.12 -0.01    -0.404 OA ATOM     15  N   UNL     1       6.120  -8.233 -15.894 -0.54 -0.08    -0.090 NA ATOM     16  C   UNL     1       6.526  -9.329 -15.303 -0.08 +0.07    +0.322 A  BRANCH  16  17ATOM     17  N   UNL     1       6.694 -10.546 -15.894 -0.11 +0.02    -0.278 N  ATOM     18  C   UNL     1       5.676 -11.458 -16.052 -0.17 +0.08    +0.229 C  ATOM     19  H   UNL     1       7.633 -10.745 -16.208 -0.32 -0.18    +0.174 HD ATOM     20  O   UNL     1       4.508 -11.305 -15.713 -0.65 -0.28    -0.275 OA BRANCH  18  21ATOM     21  C   UNL     1       6.163 -12.717 -16.748 -0.24 +0.01    +0.119 C  BRANCH  21  22ATOM     22  C   UNL     1       7.282 -13.416 -15.979 -0.30 -0.01    +0.063 C  ATOM     23  C   UNL     1       6.815 -14.651 -15.205 -0.37 +0.00    +0.021 C  ATOM     24  N   UNL     1       7.820 -12.534 -14.930 -0.12 +0.14    -0.313 NA ATOM     25  C   UNL     1       7.567 -14.607 -13.880 -0.46 +0.00    +0.017 C  ATOM     26  C   UNL     1       8.514 -13.430 -14.006 -0.32 -0.02    +0.081 C  ATOM     27  H   UNL     1       8.478 -11.864 -15.327 -0.34 -0.19    +0.122 HD ENDBRANCH  21  22ENDBRANCH  18  21ENDBRANCH  16  17ENDBRANCH   1  12TORSDOF 8TERENDMDL