MODEL        1USER    Run = 1USERUSER    Estimated Free Energy of Binding    =  -9.29 kcal/mol  [=(1)+(2)+(3)-(4)]USERUSER    (1) Final Intermolecular Energy     = -10.19 kcal/molUSER        vdW + Hbond + desolv Energy     = -10.23 kcal/molUSER        Electrostatic Energy            =  +0.04 kcal/molUSER        Moving Ligand-Fixed Receptor    = -10.19 kcal/molUSER        Moving Ligand-Moving Receptor   =  +0.00 kcal/molUSER    (2) Final Total Internal Energy     =  -0.88 kcal/molUSER    (3) Torsional Free Energy           =  +0.89 kcal/molUSER    (4) Unbound System's Energy         =  -0.88 kcal/molUSERUSERREMARK SMILES CC(=O)Nc1cccc(-c2nc3c(F)c(-c4c(F)cccc4F)ccc3n2C)c1REMARK SMILES IDX 10 1 11 2 12 3 13 4 14 5 15 6 24 7 25 8 26 9 27 10 28 11REMARK SMILES IDX 9 12 5 13 6 14 29 15 7 16 8 17 4 18 2 19 1 20 3 21 16 23REMARK SMILES IDX 17 24 22 25 19 26 21 27 20 28 18 29 23 30REMARK H PARENT 4 22USER                              x       y       z     vdW  Elec       q    TypeUSER                           _______ _______ _______ _____ _____    ______ ____ROOTATOM      1  C   UNL     1      17.439 -14.463  -7.689 -0.30 -0.01    +0.141 A  ATOM      2  N   UNL     1      17.019 -15.631  -8.146 -0.24 +0.01    -0.225 NA ATOM      3  C   UNL     1      16.258 -15.368  -9.260 -0.27 -0.02    +0.125 A  ATOM      4  C   UNL     1      15.554 -16.241 -10.110 -0.23 -0.02    +0.159 A  ATOM      5  F   UNL     1      15.562 -17.563  -9.865 -0.09 +0.01    -0.204 F  ATOM      6  C   UNL     1      14.824 -15.737 -11.204 -0.28 -0.01    +0.026 A  ATOM      7  C   UNL     1      14.816 -14.347 -11.420 -0.31 -0.00    +0.014 A  ATOM      8  C   UNL     1      15.515 -13.457 -10.592 -0.31 -0.01    +0.029 A  ATOM      9  C   UNL     1      16.229 -14.003  -9.519 -0.31 -0.02    +0.071 A  ATOM     10  N   UNL     1      17.018 -13.450  -8.533 -0.15 +0.06    -0.327 N  ATOM     11  C   UNL     1      17.384 -12.054  -8.459 -0.31 -0.02    +0.152 C  ENDROOTBRANCH   1  12ATOM     12  C   UNL     1      18.261 -14.307  -6.483 -0.42 +0.00    +0.019 A  ATOM     13  C   UNL     1      19.013 -13.017  -4.553 -0.52 +0.01    +0.041 A  ATOM     14  C   UNL     1      19.833 -14.086  -4.172 -0.56 +0.01    +0.026 A  ATOM     15  C   UNL     1      18.216 -13.146  -5.694 -0.44 +0.00    +0.038 A  ATOM     16  C   UNL     1      19.867 -15.257  -4.929 -0.53 +0.00    +0.003 A  ATOM     17  C   UNL     1      19.084 -15.365  -6.078 -0.46 +0.00    +0.012 A  BRANCH  13  18ATOM     18  N   UNL     1      19.031 -11.865  -3.739 -0.22 -0.05    -0.326 N  ATOM     19  C   UNL     1      18.069 -10.873  -3.677 -0.46 +0.04    +0.221 C  ATOM     20  C   UNL     1      18.397  -9.812  -2.655 -0.73 +0.03    +0.114 C  ATOM     21  O   UNL     1      17.063 -10.781  -4.373 -0.50 +0.01    -0.275 OA ATOM     22  H   UNL     1      19.869 -11.724  -3.191 -0.39 -0.04    +0.169 HD ENDBRANCH  13  18ENDBRANCH   1  12BRANCH   6  23ATOM     23  C   UNL     1      14.086 -16.640 -12.097 -0.27 -0.01    +0.056 A  ATOM     24  C   UNL     1      14.586 -16.997 -13.357 -0.27 -0.03    +0.134 A  ATOM     25  C   UNL     1      12.848 -17.185 -11.731 -0.31 -0.03    +0.134 A  ATOM     26  C   UNL     1      13.893 -17.859 -14.210 -0.33 -0.01    +0.040 A  ATOM     27  C   UNL     1      12.143 -18.049 -12.571 -0.43 -0.00    +0.040 A  ATOM     28  C   UNL     1      12.667 -18.390 -13.815 -0.32 -0.00    +0.006 A  ATOM     29  F   UNL     1      15.750 -16.487 -13.788 -0.11 +0.08    -0.206 F  ATOM     30  F   UNL     1      12.305 -16.883 -10.541 -0.15 +0.07    -0.206 F  ENDBRANCH   6  23TORSDOF 3TERENDMDL