REMARK SMILES Cc1cc(NS(=O)(=O)c2cc(Cl)ccc2Cl)ccc1[C@@H]1N=C(NC2CCN(C)CC2)N=C2CN21
REMARK SMILES IDX 1 1 2 2 3 3 4 4 17 5 18 6 19 7 20 8 21 9 34 10 22 11 33 12
REMARK SMILES IDX 32 13 23 14 31 15 24 17 25 18 30 19 26 20 29 21 27 22 28 23
REMARK SMILES IDX 5 24 6 26 7 27 8 28 9 29 10 30 15 31 11 32 14 33 13 34 16 35
REMARK SMILES IDX 12 36
REMARK H PARENT 23 16 5 25
ROOT
ATOM      1  C   UNL     1       0.645  -1.450  -0.773  1.00  0.00     0.045 C 
ATOM      2  C   UNL     1       1.333  -0.606   0.268  1.00  0.00    -0.042 A 
ATOM      3  C   UNL     1       2.462  -1.167   0.903  1.00  0.00     0.030 A 
ATOM      4  C   UNL     1       3.167  -0.483   1.895  1.00  0.00     0.049 A 
ATOM      5  C   UNL     1       2.709   0.761   2.312  1.00  0.00     0.027 A 
ATOM      6  C   UNL     1       1.592   1.333   1.700  1.00  0.00     0.010 A 
ATOM      7  C   UNL     1       0.873   0.666   0.680  1.00  0.00    -0.000 A 
ENDROOT
BRANCH   7   8
ATOM      8  C   UNL     1      -0.344   1.407   0.103  1.00  0.00     0.237 C 
ATOM      9  N   UNL     1      -1.396   0.525  -0.400  1.00  0.00    -0.221 NA
ATOM     10  N   UNL     1       0.114   2.484  -0.764  1.00  0.00    -0.325 N 
ATOM     11  C   UNL     1      -2.083   0.932  -1.411  1.00  0.00     0.222 C 
ATOM     12  C   UNL     1       0.587   2.207  -2.086  1.00  0.00     0.195 C 
ATOM     13  C   UNL     1      -0.765   2.703  -1.780  1.00  0.00     0.130 C 
ATOM     14  N   UNL     1      -3.116   0.202  -1.919  1.00  0.00    -0.352 N 
ATOM     15  N   UNL     1      -1.867   2.117  -2.054  1.00  0.00    -0.198 NA
ATOM     16  H   UNL     1      -3.640   0.755  -2.592  1.00  0.00     0.163 HD
BRANCH  14  17
ATOM     17  C   UNL     1      -3.932  -0.681  -1.089  1.00  0.00     0.084 C 
ATOM     18  C   UNL     1      -4.792   0.144  -0.117  1.00  0.00     0.040 C 
ATOM     19  C   UNL     1      -4.809  -1.548  -1.991  1.00  0.00     0.040 C 
ATOM     20  C   UNL     1      -6.197  -0.431   0.077  1.00  0.00     0.086 C 
ATOM     21  C   UNL     1      -5.716  -2.468  -1.165  1.00  0.00     0.086 C 
ATOM     22  N   UNL     1      -6.143  -1.889   0.117  1.00  0.00    -0.306 NA
ATOM     23  C   UNL     1      -7.412  -2.462   0.562  1.00  0.00     0.105 C 
ENDBRANCH  14  17
ENDBRANCH   7   8
BRANCH   4  24
ATOM     24  N   UNL     1       4.267  -1.152   2.506  1.00  0.00    -0.280 N 
ATOM     25  H   UNL     1       4.453  -2.113   2.227  1.00  0.00     0.180 HD
BRANCH  24  26
ATOM     26  S   UNL     1       5.677  -0.349   2.945  1.00  0.00     0.263 S 
ATOM     27  O   UNL     1       5.355   0.639   3.954  1.00  0.00    -0.201 OA
ATOM     28  O   UNL     1       6.679  -1.360   3.208  1.00  0.00    -0.201 OA
BRANCH  26  29
ATOM     29  C   UNL     1       6.166   0.514   1.475  1.00  0.00     0.107 A 
ATOM     30  C   UNL     1       6.268   1.912   1.538  1.00  0.00     0.044 A 
ATOM     31  C   UNL     1       6.465  -0.161   0.290  1.00  0.00     0.061 A 
ATOM     32  C   UNL     1       6.670   2.627   0.416  1.00  0.00     0.042 A 
ATOM     33  C   UNL     1       6.873   0.573  -0.829  1.00  0.00     0.023 A 
ATOM     34  C   UNL     1       6.978   1.963  -0.767  1.00  0.00     0.022 A 
ATOM     35  Cl  UNL     1       6.338  -1.867   0.091  1.00  0.00    -0.083 Cl
ATOM     36  Cl  UNL     1       6.786   4.338   0.489  1.00  0.00    -0.084 Cl
ENDBRANCH  26  29
ENDBRANCH  24  26
ENDBRANCH   4  24
TORSDOF 5
