REMARK SMILES CC(C)(C)C=C1C=C(C=Cc2nnc(NC(=O)C[C@@H]3CCCN3)o2)O1
REMARK SMILES IDX 10 1 9 2 8 3 6 4 7 5 25 6 5 7 2 8 1 9 3 10 4 11 11 12 12 13
REMARK SMILES IDX 24 14 13 15 14 16 15 17 16 18 17 20 18 21 19 22 20 23 23 24
REMARK SMILES IDX 21 25 22 26
REMARK H PARENT 15 19 23 27
ROOT
ATOM      1  C   UNL     1      -0.508   2.202   0.518  1.00  0.00     0.074 C 
ENDROOT
BRANCH   1   2
ATOM      2  C   UNL     1      -1.813   2.502   0.521  1.00  0.00     0.053 C 
BRANCH   2   3
ATOM      3  C   UNL     1      -3.048   1.566   0.413  1.00  0.00     0.131 C 
ATOM      4  C   UNL     1      -4.485   0.403   0.278  1.00  0.00     0.127 C 
ATOM      5  C   UNL     1      -4.365   1.808   0.409  1.00  0.00     0.093 C 
ATOM      6  O   UNL     1      -3.202   0.298   0.293  1.00  0.00    -0.457 OA
BRANCH   4   7
ATOM      7  C   UNL     1      -5.469  -0.500   0.175  1.00  0.00     0.026 C 
BRANCH   7   8
ATOM      8  C   UNL     1      -6.979  -0.335   0.161  1.00  0.00    -0.016 C 
ATOM      9  C   UNL     1      -7.559  -1.154   1.328  1.00  0.00     0.015 C 
ATOM     10  C   UNL     1      -7.509  -0.909  -1.166  1.00  0.00     0.015 C 
ATOM     11  C   UNL     1      -7.478   1.113   0.293  1.00  0.00     0.015 C 
ENDBRANCH   7   8
ENDBRANCH   4   7
ENDBRANCH   2   3
ENDBRANCH   1   2
BRANCH   1  12
ATOM     12  C   UNL     1       0.074   0.911   0.416  1.00  0.00     0.242 A 
ATOM     13  N   UNL     1      -0.502  -0.280   0.337  1.00  0.00    -0.107 NA
ATOM     14  O   UNL     1       1.453   0.762   0.392  1.00  0.00    -0.404 OA
ATOM     15  N   UNL     1       0.489  -1.234   0.258  1.00  0.00    -0.090 NA
ATOM     16  C   UNL     1       1.623  -0.580   0.292  1.00  0.00     0.322 A 
BRANCH  16  17
ATOM     17  N   UNL     1       2.870  -1.130   0.238  1.00  0.00    -0.278 N 
ATOM     18  C   UNL     1       4.027  -0.387   0.274  1.00  0.00     0.229 C 
ATOM     19  H   UNL     1       2.892  -2.137   0.161  1.00  0.00     0.174 HD
ATOM     20  O   UNL     1       4.102   0.832   0.374  1.00  0.00    -0.275 OA
BRANCH  18  21
ATOM     21  C   UNL     1       5.258  -1.274   0.203  1.00  0.00     0.119 C 
BRANCH  21  22
ATOM     22  C   UNL     1       6.549  -0.473   0.052  1.00  0.00     0.063 C 
ATOM     23  C   UNL     1       6.688   0.214  -1.309  1.00  0.00     0.021 C 
ATOM     24  N   UNL     1       7.722  -1.361   0.111  1.00  0.00    -0.313 NA
ATOM     25  C   UNL     1       8.155   0.061  -1.692  1.00  0.00     0.017 C 
ATOM     26  C   UNL     1       8.809  -0.589  -0.489  1.00  0.00     0.081 C 
ATOM     27  H   UNL     1       7.949  -1.591   1.078  1.00  0.00     0.122 HD
ENDBRANCH  21  22
ENDBRANCH  18  21
ENDBRANCH  16  17
ENDBRANCH   1  12
TORSDOF 8
