MODEL        9USER    Run = 9USERUSER    Estimated Free Energy of Binding    = -10.13 kcal/mol  [=(1)+(2)+(3)-(4)]USERUSER    (1) Final Intermolecular Energy     = -11.62 kcal/molUSER        vdW + Hbond + desolv Energy     = -11.68 kcal/molUSER        Electrostatic Energy            =  +0.06 kcal/molUSER        Moving Ligand-Fixed Receptor    = -11.62 kcal/molUSER        Moving Ligand-Moving Receptor   =  +0.00 kcal/molUSER    (2) Final Total Internal Energy     =  -1.18 kcal/molUSER    (3) Torsional Free Energy           =  +1.49 kcal/molUSER    (4) Unbound System's Energy         =  -1.18 kcal/molUSERUSERREMARK SMILES Cc1cc(NS(=O)(=O)c2cc(Cl)ccc2Cl)ccc1[C@@H]1N=C(NC2CCN(C)CC2)N=C2CN21REMARK SMILES IDX 1 1 2 2 3 3 4 4 17 5 18 6 19 7 20 8 21 9 34 10 22 11 33 12REMARK SMILES IDX 32 13 23 14 31 15 24 17 25 18 30 19 26 20 29 21 27 22 28 23REMARK SMILES IDX 5 24 6 26 7 27 8 28 9 29 10 30 15 31 11 32 14 33 13 34 16 35REMARK SMILES IDX 12 36REMARK H PARENT 23 16 5 25USER                              x       y       z     vdW  Elec       q    TypeUSER                           _______ _______ _______ _____ _____    ______ ____ROOTATOM      1  C   UNL     1      -1.671   3.949  -5.795 -0.29 -0.00    +0.045 C  ATOM      2  C   UNL     1      -0.691   2.842  -5.504 -0.29 -0.00    -0.042 A  ATOM      3  C   UNL     1       0.315   2.609  -6.466 -0.27 +0.00    +0.030 A  ATOM      4  C   UNL     1       1.266   1.599  -6.309 -0.30 +0.01    +0.049 A  ATOM      5  C   UNL     1       1.183   0.759  -5.205 -0.42 +0.01    +0.027 A  ATOM      6  C   UNL     1       0.193   0.970  -4.243 -0.36 +0.00    +0.010 A  ATOM      7  C   UNL     1      -0.770   1.999  -4.372 -0.36 -0.00    -0.000 A  ENDROOTBRANCH   7   8ATOM      8  C   UNL     1      -1.809   2.109  -3.245 -0.24 +0.01    +0.237 C  ATOM      9  N   UNL     1      -1.786   3.387  -2.534 -0.12 +0.06    -0.221 NA ATOM     10  N   UNL     1      -1.791   0.888  -2.451 -0.22 -0.04    -0.325 N  ATOM     11  C   UNL     1      -2.084   3.378  -1.281 -0.20 -0.06    +0.222 C  ATOM     12  C   UNL     1      -0.756   0.657  -1.489 -0.29 +0.01    +0.195 C  ATOM     13  C   UNL     1      -2.103   1.144  -1.151 -0.35 -0.00    +0.130 C  ATOM     14  N   UNL     1      -2.138   4.525  -0.547 -0.13 +0.15    -0.352 N  ATOM     15  N   UNL     1      -2.388   2.249  -0.576 -0.16 +0.03    -0.198 NA ATOM     16  H   UNL     1      -2.552   4.341   0.363 +0.07 -0.05    +0.163 HD BRANCH  14  17ATOM     17  C   UNL     1      -2.502   5.812  -1.134 -0.28 -0.05    +0.084 C  ATOM     18  C   UNL     1      -3.645   5.633  -2.147 -0.25 -0.01    +0.040 C  ATOM     19  C   UNL     1      -2.909   6.774  -0.018 -0.26 -0.03    +0.040 C  ATOM     20  C   UNL     1      -4.667   6.771  -2.107 -0.18 -0.00    +0.086 C  ATOM     21  C   UNL     1      -3.340   8.132  -0.586 -0.25 -0.04    +0.086 C  ATOM     22  N   UNL     1      -3.990   8.048  -1.902 -0.66 -0.00    -0.306 NA ATOM     23  C   UNL     1      -4.893   9.177  -2.122 -0.22 +0.00    +0.105 C  ENDBRANCH  14  17ENDBRANCH   7   8BRANCH   4  24ATOM     24  N   UNL     1       2.215   1.415  -7.357 -0.13 +0.00    -0.280 N  ATOM     25  H   UNL     1       1.959   1.730  -8.290 +0.08 -0.01    +0.180 HD BRANCH  24  26ATOM     26  S   UNL     1       3.872   1.521  -7.098 -0.37 -0.04    +0.263 S  ATOM     27  O   UNL     1       4.122   1.504  -5.671 -0.81 +0.00    -0.201 OA ATOM     28  O   UNL     1       4.502   0.543  -7.960 -0.33 +0.15    -0.201 OA BRANCH  26  29ATOM     29  C   UNL     1       4.310   3.127  -7.708 -0.34 -0.03    +0.107 A  ATOM     30  C   UNL     1       3.557   3.654  -8.769 -0.32 -0.01    +0.044 A  ATOM     31  C   UNL     1       5.353   3.869  -7.150 -0.46 -0.01    +0.061 A  ATOM     32  C   UNL     1       3.850   4.919  -9.264 -0.41 -0.00    +0.042 A  ATOM     33  C   UNL     1       5.632   5.143  -7.656 -0.56 +0.00    +0.023 A  ATOM     34  C   UNL     1       4.882   5.669  -8.708 -0.59 +0.00    +0.022 A  ATOM     35  Cl  UNL     1       6.363   3.306  -5.873 -0.88 +0.00    -0.083 Cl ATOM     36  Cl  UNL     1       2.935   5.560 -10.567 -0.53 +0.00    -0.084 Cl ENDBRANCH  26  29ENDBRANCH  24  26ENDBRANCH   4  24TORSDOF 5TERENDMDL