MODEL        5USER    Run = 5USERUSER    Estimated Free Energy of Binding    =  -9.30 kcal/mol  [=(1)+(2)+(3)-(4)]USERUSER    (1) Final Intermolecular Energy     = -11.09 kcal/molUSER        vdW + Hbond + desolv Energy     = -10.97 kcal/molUSER        Electrostatic Energy            =  -0.12 kcal/molUSER        Moving Ligand-Fixed Receptor    = -11.09 kcal/molUSER        Moving Ligand-Moving Receptor   =  +0.00 kcal/molUSER    (2) Final Total Internal Energy     =  -0.74 kcal/molUSER    (3) Torsional Free Energy           =  +1.79 kcal/molUSER    (4) Unbound System's Energy         =  -0.74 kcal/molUSERUSERREMARK SMILES CN1CC[C@@H](NC(=O)C=C2C=CC(NC(=O)Nc3cc(Cl)cc(C(F)(F)F)c3)=C2)C[C@@H]1ClREMARK SMILES IDX 10 1 11 2 12 3 13 4 29 5 9 6 7 7 6 8 8 10 5 11 2 12 3 13REMARK SMILES IDX 31 14 4 15 30 16 1 17 32 18 14 19 15 20 17 21 16 23 18 25REMARK SMILES IDX 19 26 28 27 20 28 23 29 22 30 21 31 24 32 25 33 26 34 27 35REMARK H PARENT 6 9 14 22 17 24USER                              x       y       z     vdW  Elec       q    TypeUSER                           _______ _______ _______ _____ _____    ______ ____ROOTATOM      1  C   UNL     1       9.344  -9.975 -12.454 -0.55 +0.01    -0.018 C  ATOM      2  C   UNL     1       9.339 -11.260 -13.125 -0.32 -0.01    +0.010 C  ATOM      3  C   UNL     1      10.416 -11.934 -12.689 -0.44 -0.01    +0.027 C  ATOM      4  C   UNL     1      11.153 -11.113 -11.746 -0.58 -0.02    +0.043 C  ATOM      5  C   UNL     1      10.520  -9.936 -11.598 -0.62 -0.01    +0.034 C  ENDROOTBRANCH   1   6ATOM      6  C   UNL     1       8.479  -8.961 -12.574 -0.44 -0.02    +0.079 C  BRANCH   6   7ATOM      7  C   UNL     1       8.238  -7.918 -11.554 -0.33 -0.04    +0.244 C  ATOM      8  N   UNL     1       7.163  -7.106 -11.811 -0.19 +0.09    -0.350 N  ATOM      9  H   UNL     1       6.657  -7.232 -12.679 +0.04 -0.03    +0.164 HD ATOM     10  O   UNL     1       8.927  -7.873 -10.544 -0.90 -0.09    -0.270 OA BRANCH   8  11ATOM     11  C   UNL     1       6.784  -6.016 -10.913 -0.41 -0.03    +0.086 C  ATOM     12  N   UNL     1       4.947  -3.795 -10.365 -0.13 +0.17    -0.290 NA ATOM     13  C   UNL     1       4.413  -5.083 -10.801 -0.24 -0.02    +0.088 C  ATOM     14  C   UNL     1       6.304  -3.516 -10.841 -0.34 -0.15    +0.151 C  ATOM     15  C   UNL     1       5.356  -6.213 -10.386 -0.33 -0.00    +0.040 C  ATOM     16  C   UNL     1       6.959  -4.664 -11.613 -0.39 -0.04    +0.060 C  ATOM     17  C   UNL     1       4.029  -2.699 -10.660 -0.21 -0.08    +0.106 C  ATOM     18  Cl  UNL     1       7.244  -3.135  -9.366 -0.69 +0.12    -0.106 Cl ENDBRANCH   8  11ENDBRANCH   6   7ENDBRANCH   1   6BRANCH   4  19ATOM     19  N   UNL     1      12.311 -11.447 -11.105 -0.20 +0.19    -0.308 N  ATOM     20  C   UNL     1      12.814 -12.721 -10.874 -0.12 -0.25    +0.323 C  ATOM     21  N   UNL     1      14.010 -12.651 -10.171 -0.17 +0.20    -0.308 N  ATOM     22  H   UNL     1      12.905 -10.674 -10.848 -0.29 -0.09    +0.171 HD ATOM     23  O   UNL     1      12.275 -13.756 -11.241 -0.23 +0.15    -0.248 OA ATOM     24  H   UNL     1      14.236 -11.755  -9.767 +0.11 -0.10    +0.171 HD BRANCH  21  25ATOM     25  C   UNL     1      14.878 -13.715  -9.843 -0.33 -0.02    +0.044 A  ATOM     26  C   UNL     1      15.915 -13.621  -8.912 -0.34 -0.01    +0.046 A  ATOM     27  C   UNL     1      14.651 -14.942 -10.483 -0.29 -0.01    +0.039 A  ATOM     28  C   UNL     1      16.717 -14.732  -8.641 -0.34 -0.01    +0.043 A  ATOM     29  C   UNL     1      15.447 -16.067 -10.207 -0.30 -0.01    +0.059 A  ATOM     30  C   UNL     1      16.494 -15.947  -9.284 -0.33 -0.00    +0.033 A  ATOM     31  Cl  UNL     1      17.995 -14.606  -7.494 -0.55 +0.00    -0.084 Cl BRANCH  29  32ATOM     32  C   UNL     1      15.202 -17.377 -10.912 -0.15 -0.05    +0.416 C  ATOM     33  F   UNL     1      15.763 -18.440 -10.269 -0.15 -0.00    -0.166 F  ATOM     34  F   UNL     1      13.878 -17.665 -11.026 -0.14 +0.03    -0.166 F  ATOM     35  F   UNL     1      15.705 -17.401 -12.177 -0.09 +0.03    -0.166 F  ENDBRANCH  29  32ENDBRANCH  21  25ENDBRANCH   4  19TORSDOF 6TERENDMDL