REMARK SMILES NC(=O)c1c(-c2ccc(-c3cccc(F)c3)cc2)ccnc1N
REMARK SMILES IDX 4 1 5 2 19 3 20 4 21 5 22 6 2 7 1 8 3 11 6 12 7 13 18 14
REMARK SMILES IDX 8 15 17 16 9 17 10 18 11 19 16 20 12 21 14 22 13 23 15 24
REMARK SMILES IDX 23 25
REMARK H PARENT 1 9 1 10 23 26 23 27
ROOT
ATOM      1  C   UNL     1      -3.359   0.112  -0.403  1.00  0.00     0.089 A 
ATOM      2  C   UNL     1      -2.322   1.058  -0.259  1.00  0.00    -0.000 A 
ATOM      3  C   UNL     1      -2.673   2.416  -0.290  1.00  0.00     0.030 A 
ATOM      4  C   UNL     1      -3.998   2.766  -0.471  1.00  0.00     0.114 A 
ATOM      5  N   UNL     1      -4.991   1.872  -0.628  1.00  0.00    -0.239 NA
ATOM      6  C   UNL     1      -4.675   0.561  -0.615  1.00  0.00     0.136 A 
ENDROOT
BRANCH   1   7
ATOM      7  C   UNL     1      -3.124  -1.352  -0.372  1.00  0.00     0.253 C 
ATOM      8  N   UNL     1      -2.355  -1.852   0.641  1.00  0.00    -0.365 N 
ATOM      9  H   UNL     1      -1.858  -1.274   1.304  1.00  0.00     0.159 HD
ATOM     10  H   UNL     1      -2.151  -2.843   0.629  1.00  0.00     0.159 HD
ATOM     11  O   UNL     1      -3.641  -2.095  -1.198  1.00  0.00    -0.269 OA
ENDBRANCH   1   7
BRANCH   2  12
ATOM     12  C   UNL     1      -0.898   0.706  -0.130  1.00  0.00    -0.017 A 
ATOM     13  C   UNL     1      -0.174   1.047   1.022  1.00  0.00     0.009 A 
ATOM     14  C   UNL     1      -0.224   0.031  -1.157  1.00  0.00     0.009 A 
ATOM     15  C   UNL     1       1.179   0.709   1.148  1.00  0.00     0.009 A 
ATOM     16  C   UNL     1       1.129  -0.306  -1.029  1.00  0.00     0.009 A 
ATOM     17  C   UNL     1       1.854   0.025   0.126  1.00  0.00    -0.018 A 
BRANCH  17  18
ATOM     18  C   UNL     1       3.277  -0.331   0.259  1.00  0.00    -0.015 A 
ATOM     19  C   UNL     1       3.719  -1.649   0.037  1.00  0.00     0.009 A 
ATOM     20  C   UNL     1       4.234   0.633   0.610  1.00  0.00     0.048 A 
ATOM     21  C   UNL     1       5.070  -1.992   0.164  1.00  0.00     0.004 A 
ATOM     22  C   UNL     1       5.576   0.283   0.733  1.00  0.00     0.123 A 
ATOM     23  C   UNL     1       6.002  -1.020   0.513  1.00  0.00     0.039 A 
ATOM     24  F   UNL     1       6.472   1.221   1.067  1.00  0.00    -0.207 F 
ENDBRANCH  17  18
ENDBRANCH   2  12
BRANCH   6  25
ATOM     25  N   UNL     1      -5.761  -0.319  -0.763  1.00  0.00    -0.383 N 
ATOM     26  H   UNL     1      -5.889  -0.846   0.096  1.00  0.00     0.158 HD
ATOM     27  H   UNL     1      -5.508  -1.015  -1.470  1.00  0.00     0.158 HD
ENDBRANCH   6  25
TORSDOF 4
