REMARK SMILES CCN1CC[C@@H](NC(=O)c2ccc(C(=O)c3c(O)ccc(OC)c3F)cc2)C1
REMARK SMILES IDX 10 1 11 2 12 3 13 4 26 5 27 6 8 7 7 8 9 10 6 11 3 12 4 13
REMARK SMILES IDX 28 14 5 15 2 16 1 17 14 18 15 19 16 20 17 21 24 22 19 23
REMARK SMILES IDX 21 24 20 25 25 26 18 27 22 29 23 30
REMARK H PARENT 7 9 18 28
ROOT
ATOM      1  C   UNL     1      -0.411  -0.016  -0.857  1.00  0.00     0.039 A 
ATOM      2  C   UNL     1       0.809  -0.022  -1.550  1.00  0.00     0.014 A 
ATOM      3  C   UNL     1       1.948  -0.598  -0.979  1.00  0.00     0.013 A 
ATOM      4  C   UNL     1       1.876  -1.164   0.297  1.00  0.00     0.023 A 
ATOM      5  C   UNL     1       0.651  -1.199   0.975  1.00  0.00     0.013 A 
ATOM      6  C   UNL     1      -0.490  -0.625   0.402  1.00  0.00     0.014 A 
ENDROOT
BRANCH   1   7
ATOM      7  C   UNL     1      -1.583   0.625  -1.520  1.00  0.00     0.251 C 
ATOM      8  N   UNL     1      -2.580   1.109  -0.701  1.00  0.00    -0.348 N 
ATOM      9  H   UNL     1      -2.586   0.881   0.280  1.00  0.00     0.164 HD
ATOM     10  O   UNL     1      -1.615   0.722  -2.743  1.00  0.00    -0.269 OA
BRANCH   8  11
ATOM     11  C   UNL     1      -3.848   1.577  -1.255  1.00  0.00     0.097 C 
ATOM     12  N   UNL     1      -5.447   0.355  -0.063  1.00  0.00    -0.301 NA
ATOM     13  C   UNL     1      -5.735   1.755   0.269  1.00  0.00     0.086 C 
ATOM     14  C   UNL     1      -4.843   0.419  -1.406  1.00  0.00     0.109 C 
ATOM     15  C   UNL     1      -4.543   2.533  -0.283  1.00  0.00     0.042 C 
BRANCH  12  16
ATOM     16  C   UNL     1      -6.652  -0.475  -0.004  1.00  0.00     0.081 C 
ATOM     17  C   UNL     1      -6.341  -1.954  -0.209  1.00  0.00     0.021 C 
ENDBRANCH  12  16
ENDBRANCH   8  11
ENDBRANCH   1   7
BRANCH   4  18
ATOM     18  C   UNL     1       3.053  -1.803   0.934  1.00  0.00     0.199 C 
ATOM     19  O   UNL     1       2.890  -2.839   1.584  1.00  0.00    -0.288 OA
BRANCH  18  20
ATOM     20  C   UNL     1       4.432  -1.292   0.781  1.00  0.00     0.104 A 
ATOM     21  C   UNL     1       5.505  -2.193   0.792  1.00  0.00     0.130 A 
ATOM     22  C   UNL     1       4.705   0.072   0.661  1.00  0.00     0.179 A 
ATOM     23  C   UNL     1       6.811  -1.743   0.620  1.00  0.00     0.051 A 
ATOM     24  C   UNL     1       6.017   0.540   0.493  1.00  0.00     0.155 A 
ATOM     25  C   UNL     1       7.069  -0.378   0.463  1.00  0.00     0.053 A 
ATOM     26  F   UNL     1       3.707   0.967   0.732  1.00  0.00    -0.202 F 
BRANCH  21  27
ATOM     27  O   UNL     1       5.343  -3.541   0.974  1.00  0.00    -0.507 OA
ATOM     28  H   UNL     1       4.428  -3.690   1.307  1.00  0.00     0.293 HD
ENDBRANCH  21  27
BRANCH  24  29
ATOM     29  O   UNL     1       6.145   1.897   0.372  1.00  0.00    -0.494 OA
ATOM     30  C   UNL     1       7.460   2.419   0.223  1.00  0.00     0.278 C 
ENDBRANCH  24  29
ENDBRANCH  18  20
ENDBRANCH   4  18
TORSDOF 7
