MODEL        4USER    Run = 4USERUSER    Estimated Free Energy of Binding    =  -9.34 kcal/mol  [=(1)+(2)+(3)-(4)]USERUSER    (1) Final Intermolecular Energy     = -10.23 kcal/molUSER        vdW + Hbond + desolv Energy     =  -9.82 kcal/molUSER        Electrostatic Energy            =  -0.41 kcal/molUSER        Moving Ligand-Fixed Receptor    = -10.23 kcal/molUSER        Moving Ligand-Moving Receptor   =  +0.00 kcal/molUSER    (2) Final Total Internal Energy     =  -0.65 kcal/molUSER    (3) Torsional Free Energy           =  +0.89 kcal/molUSER    (4) Unbound System's Energy         =  -0.65 kcal/molUSERUSERREMARK SMILES Cn1ccnccc(-c2cccc(-c3ccc(O)c(F)c3)c2)cc1REMARK SMILES IDX 9 1 10 2 11 3 12 4 13 5 22 6 8 7 2 8 3 9 24 10 4 11 23 12REMARK SMILES IDX 5 13 6 14 7 15 1 16 14 17 15 18 21 19 16 20 19 21 17 22REMARK SMILES IDX 20 23 18 24REMARK H PARENT 18 25USER                              x       y       z     vdW  Elec       q    TypeUSER                           _______ _______ _______ _____ _____    ______ ____ROOTATOM      1  C   UNL     1      38.076  45.668  17.095 -0.37 +0.01    -0.018 A  ATOM      2  C   UNL     1      37.195  44.946  17.909 -0.35 -0.00    +0.009 A  ATOM      3  C   UNL     1      37.552  44.630  19.218 -0.35 -0.00    +0.001 A  ATOM      4  C   UNL     1      38.792  45.034  19.721 -0.38 -0.00    +0.009 A  ATOM      5  C   UNL     1      39.697  45.765  18.932 -0.42 +0.00    -0.018 A  ATOM      6  C   UNL     1      39.316  46.077  17.615 -0.43 -0.00    +0.017 A  ENDROOTBRANCH   1   7ATOM      7  C   UNL     1      37.701  45.994  15.680 -0.36 +0.01    -0.015 A  ATOM      8  N   UNL     1      36.785  45.305  12.702 -0.24 +0.13    -0.356 N  ATOM      9  C   UNL     1      36.169  46.489  12.352 -0.57 -0.05    +0.105 A  ATOM     10  C   UNL     1      36.475  44.784  13.939 -0.27 -0.03    +0.086 A  ATOM     11  C   UNL     1      36.521  47.759  12.577 -0.56 -0.05    +0.129 A  ATOM     12  C   UNL     1      36.865  45.072  15.182 -0.35 -0.01    +0.026 A  ATOM     13  N   UNL     1      37.493  48.439  13.192 -0.68 +0.07    -0.263 NA ATOM     14  C   UNL     1      38.205  48.011  14.247 -0.44 -0.05    +0.111 A  ATOM     15  C   UNL     1      38.302  47.110  15.241 -0.42 -0.01    +0.029 A  ATOM     16  C   UNL     1      37.013  44.357  11.606 -0.41 -0.04    +0.149 C  ENDBRANCH   1   7BRANCH   5  17ATOM     17  C   UNL     1      41.007  46.187  19.464 -0.42 -0.00    -0.015 A  ATOM     18  C   UNL     1      41.881  46.980  18.692 -0.54 +0.00    +0.013 A  ATOM     19  C   UNL     1      41.426  45.813  20.750 -0.32 +0.01    +0.052 A  ATOM     20  C   UNL     1      43.128  47.386  19.185 -0.48 +0.01    +0.050 A  ATOM     21  C   UNL     1      42.669  46.214  21.237 -0.23 +0.05    +0.165 A  ATOM     22  C   UNL     1      43.517  46.998  20.462 -0.26 +0.07    +0.151 A  ATOM     23  F   UNL     1      43.036  45.835  22.471 -0.03 -0.05    -0.203 F  BRANCH  22  24ATOM     24  O   UNL     1      44.728  47.376  20.967 -0.54 -0.47    -0.505 OA ATOM     25  H   UNL     1      44.646  48.267  21.341 -0.42 +0.03    +0.293 HD ENDBRANCH  22  24ENDBRANCH   5  17TORSDOF 3TERENDMDL