REMARK SMILES COc1ccc(O)c(C(=O)c2ccc(S(=O)(=O)N[C@@H]3CCN(C)C3)cc2)c1F
REMARK SMILES IDX 11 1 12 2 13 3 14 4 25 5 26 6 9 7 10 8 8 9 3 10 4 11 27 12
REMARK SMILES IDX 5 13 6 14 28 15 2 16 1 17 7 18 15 20 16 21 17 22 18 23 19 25
REMARK SMILES IDX 20 26 24 27 21 28 22 29 23 30
REMARK H PARENT 7 19 18 24
ROOT
ATOM      1  C   UNL     1      -1.621   1.929  -0.758  1.00  0.00     0.023 A 
ATOM      2  C   UNL     1      -0.543   2.191  -1.615  1.00  0.00     0.013 A 
ATOM      3  C   UNL     1       0.759   2.236  -1.113  1.00  0.00     0.022 A 
ATOM      4  C   UNL     1       0.975   2.024   0.251  1.00  0.00     0.082 A 
ATOM      5  C   UNL     1      -0.097   1.797   1.120  1.00  0.00     0.022 A 
ATOM      6  C   UNL     1      -1.399   1.754   0.615  1.00  0.00     0.013 A 
ENDROOT
BRANCH   1   7
ATOM      7  C   UNL     1      -2.987   1.916  -1.331  1.00  0.00     0.199 C 
ATOM      8  O   UNL     1      -3.274   2.736  -2.204  1.00  0.00    -0.288 OA
BRANCH   7   9
ATOM      9  C   UNL     1      -4.050   0.996  -0.869  1.00  0.00     0.104 A 
ATOM     10  C   UNL     1      -4.783  -1.145   0.043  1.00  0.00     0.155 A 
ATOM     11  C   UNL     1      -6.107  -0.702   0.010  1.00  0.00     0.053 A 
ATOM     12  C   UNL     1      -3.765  -0.289  -0.405  1.00  0.00     0.179 A 
ATOM     13  C   UNL     1      -6.408   0.570  -0.482  1.00  0.00     0.051 A 
ATOM     14  C   UNL     1      -5.388   1.405  -0.931  1.00  0.00     0.130 A 
ATOM     15  F   UNL     1      -2.500  -0.741  -0.405  1.00  0.00    -0.202 F 
BRANCH  10  16
ATOM     16  O   UNL     1      -4.367  -2.372   0.486  1.00  0.00    -0.494 OA
ATOM     17  C   UNL     1      -5.372  -3.290   0.900  1.00  0.00     0.278 C 
ENDBRANCH  10  16
BRANCH  14  18
ATOM     18  O   UNL     1      -5.773   2.623  -1.426  1.00  0.00    -0.507 OA
ATOM     19  H   UNL     1      -5.001   3.016  -1.896  1.00  0.00     0.293 HD
ENDBRANCH  14  18
ENDBRANCH   7   9
ENDBRANCH   1   7
BRANCH   4  20
ATOM     20  S   UNL     1       2.623   2.088   0.907  1.00  0.00     0.240 S 
ATOM     21  O   UNL     1       3.521   2.572  -0.116  1.00  0.00    -0.207 OA
ATOM     22  O   UNL     1       2.551   2.703   2.214  1.00  0.00    -0.207 OA
BRANCH  20  23
ATOM     23  N   UNL     1       2.952   0.465   1.173  1.00  0.00    -0.207 NA
ATOM     24  H   UNL     1       3.324   0.282   2.104  1.00  0.00     0.141 HD
BRANCH  23  25
ATOM     25  C   UNL     1       3.430  -0.357   0.047  1.00  0.00     0.085 C 
ATOM     26  C   UNL     1       3.277  -1.838   0.402  1.00  0.00     0.037 C 
ATOM     27  C   UNL     1       4.939  -0.167  -0.192  1.00  0.00     0.104 C 
ATOM     28  C   UNL     1       4.691  -2.300   0.714  1.00  0.00     0.086 C 
ATOM     29  N   UNL     1       5.481  -1.531  -0.245  1.00  0.00    -0.305 NA
ATOM     30  C   UNL     1       6.908  -1.575   0.039  1.00  0.00     0.105 C 
ENDBRANCH  23  25
ENDBRANCH  20  23
ENDBRANCH   4  20
TORSDOF 7
