MODEL        7USER    Run = 7USERUSER    Estimated Free Energy of Binding    =  -9.23 kcal/mol  [=(1)+(2)+(3)-(4)]USERUSER    (1) Final Intermolecular Energy     = -10.12 kcal/molUSER        vdW + Hbond + desolv Energy     = -10.05 kcal/molUSER        Electrostatic Energy            =  -0.07 kcal/molUSER        Moving Ligand-Fixed Receptor    = -10.12 kcal/molUSER        Moving Ligand-Moving Receptor   =  +0.00 kcal/molUSER    (2) Final Total Internal Energy     =  -0.76 kcal/molUSER    (3) Torsional Free Energy           =  +0.89 kcal/molUSER    (4) Unbound System's Energy         =  -0.76 kcal/molUSERUSERREMARK SMILES COc1ccc(-c2cccc(-c3ccnccn(C)cc3)c2)cc1ClREMARK SMILES IDX 3 1 4 2 5 3 6 4 23 5 24 6 25 7 2 8 1 9 7 10 8 11 22 12 9 13REMARK SMILES IDX 11 14 10 15 12 16 13 17 21 18 14 19 20 20 15 21 18 22 16 23REMARK SMILES IDX 17 24 19 25REMARK H PARENTUSER                              x       y       z     vdW  Elec       q    TypeUSER                           _______ _______ _______ _____ _____    ______ ____ROOTATOM      1  C   UNL     1      37.490  43.531  22.408 -0.29 +0.01    +0.137 A  ATOM      2  C   UNL     1      38.488  44.492  22.575 -0.30 +0.00    +0.048 A  ATOM      3  C   UNL     1      39.049  45.135  21.464 -0.34 +0.00    +0.012 A  ATOM      4  C   UNL     1      38.632  44.840  20.155 -0.35 +0.00    -0.017 A  ATOM      5  C   UNL     1      37.629  43.871  19.997 -0.32 -0.00    +0.033 A  ATOM      6  C   UNL     1      37.070  43.223  21.105 -0.35 +0.00    +0.083 A  ATOM      7  Cl  UNL     1      35.840  42.039  20.811 -0.67 -0.00    -0.080 Cl ENDROOTBRANCH   1   8ATOM      8  O   UNL     1      36.891  42.847  23.434 -0.14 -0.05    -0.495 OA ATOM      9  C   UNL     1      36.936  43.439  24.726 -0.24 +0.02    +0.278 C  ENDBRANCH   1   8BRANCH   4  10ATOM     10  C   UNL     1      39.229  45.526  18.995 -0.41 +0.00    -0.018 A  ATOM     11  C   UNL     1      40.503  46.117  19.071 -0.44 -0.00    +0.009 A  ATOM     12  C   UNL     1      38.534  45.625  17.778 -0.39 -0.00    +0.017 A  ATOM     13  C   UNL     1      41.061  46.785  17.976 -0.52 -0.00    +0.001 A  ATOM     14  C   UNL     1      39.082  46.296  16.671 -0.41 +0.00    -0.018 A  ATOM     15  C   UNL     1      40.352  46.876  16.780 -0.49 -0.00    +0.009 A  BRANCH  14  16ATOM     16  C   UNL     1      38.300  46.394  15.397 -0.39 +0.01    -0.015 A  ATOM     17  C   UNL     1      38.508  47.560  14.767 -0.47 -0.01    +0.029 A  ATOM     18  C   UNL     1      37.584  45.280  15.181 -0.35 -0.01    +0.026 A  ATOM     19  C   UNL     1      37.959  48.327  13.808 -0.39 -0.04    +0.111 A  ATOM     20  C   UNL     1      36.957  44.803  14.106 -0.33 -0.03    +0.086 A  ATOM     21  N   UNL     1      36.916  48.504  12.982 -0.79 +0.09    -0.263 NA ATOM     22  N   UNL     1      36.804  45.256  12.813 -0.24 +0.13    -0.356 N  ATOM     23  C   UNL     1      35.990  47.588  12.685 -0.51 -0.07    +0.129 A  ATOM     24  C   UNL     1      35.877  46.258  12.607 -0.50 -0.06    +0.105 A  ATOM     25  C   UNL     1      36.920  44.267  11.735 -0.43 -0.05    +0.149 C  ENDBRANCH  14  16ENDBRANCH   4  10TORSDOF 3TERENDMDL