MODEL        3USER    Run = 3USERUSER    Estimated Free Energy of Binding    =  -7.71 kcal/mol  [=(1)+(2)+(3)-(4)]USERUSER    (1) Final Intermolecular Energy     =  -8.91 kcal/molUSER        vdW + Hbond + desolv Energy     =  -8.62 kcal/molUSER        Electrostatic Energy            =  -0.29 kcal/molUSER        Moving Ligand-Fixed Receptor    =  -8.91 kcal/molUSER        Moving Ligand-Moving Receptor   =  +0.00 kcal/molUSER    (2) Final Total Internal Energy     =  -1.01 kcal/molUSER    (3) Torsional Free Energy           =  +1.19 kcal/molUSER    (4) Unbound System's Energy         =  -1.01 kcal/molUSERUSERREMARK SMILES NC(=O)c1c(-c2ccc(-c3cccc(F)c3)cc2)ccnc1NREMARK SMILES IDX 4 1 5 2 19 3 20 4 21 5 22 6 2 7 1 8 3 11 6 12 7 13 18 14REMARK SMILES IDX 8 15 17 16 9 17 10 18 11 19 16 20 12 21 14 22 13 23 15 24REMARK SMILES IDX 23 25REMARK H PARENT 1 9 1 10 23 26 23 27USER                              x       y       z     vdW  Elec       q    TypeUSER                           _______ _______ _______ _____ _____    ______ ____ROOTATOM      1  C   UNL     1      39.216  48.103  15.692 -0.44 -0.04    +0.089 A  ATOM      2  C   UNL     1      39.001  47.098  16.658 -0.44 +0.00    -0.000 A  ATOM      3  C   UNL     1      40.027  46.859  17.585 -0.46 -0.00    +0.030 A  ATOM      4  C   UNL     1      41.192  47.598  17.506 -0.41 -0.01    +0.114 A  ATOM      5  N   UNL     1      41.413  48.546  16.578 -0.85 +0.01    -0.239 NA ATOM      6  C   UNL     1      40.447  48.783  15.668 -0.49 -0.04    +0.136 A  ENDROOTBRANCH   1   7ATOM      7  C   UNL     1      38.206  48.464  14.667 -0.39 -0.14    +0.253 C  ATOM      8  N   UNL     1      37.035  49.023  15.096 -0.21 +0.39    -0.365 N  ATOM      9  H   UNL     1      36.780  49.109  16.069 -0.02 -0.26    +0.159 HD ATOM     10  H   UNL     1      36.327  49.218  14.400 +0.11 -0.16    +0.159 HD ATOM     11  O   UNL     1      38.432  48.311  13.472 -0.60 +0.07    -0.269 OA ENDBRANCH   1   7BRANCH   2  12ATOM     12  C   UNL     1      37.794  46.256  16.717 -0.37 +0.01    -0.017 A  ATOM     13  C   UNL     1      37.248  45.867  17.949 -0.27 -0.00    +0.009 A  ATOM     14  C   UNL     1      37.164  45.812  15.547 -0.36 -0.00    +0.009 A  ATOM     15  C   UNL     1      36.098  45.071  18.008 -0.33 -0.00    +0.009 A  ATOM     16  C   UNL     1      36.014  45.016  15.607 -0.34 -0.00    +0.009 A  ATOM     17  C   UNL     1      35.459  44.633  16.838 -0.30 +0.01    -0.018 A  BRANCH  17  18ATOM     18  C   UNL     1      34.249  43.796  16.900 -0.31 +0.01    -0.015 A  ATOM     19  C   UNL     1      33.152  44.042  16.051 -0.32 -0.00    +0.009 A  ATOM     20  C   UNL     1      34.153  42.728  17.804 -0.34 -0.01    +0.048 A  ATOM     21  C   UNL     1      32.000  43.250  16.108 -0.34 -0.00    +0.004 A  ATOM     22  C   UNL     1      33.003  41.945  17.853 -0.30 -0.04    +0.123 A  ATOM     23  C   UNL     1      31.926  42.197  17.013 -0.25 -0.02    +0.039 A  ATOM     24  F   UNL     1      32.935  40.929  18.723 -0.09 +0.01    -0.207 F  ENDBRANCH  17  18ENDBRANCH   2  12BRANCH   6  25ATOM     25  N   UNL     1      40.733  49.799  14.740 -0.20 +0.15    -0.383 N  ATOM     26  H   UNL     1      40.429  50.694  15.113 -0.28 -0.10    +0.158 HD ATOM     27  H   UNL     1      40.152  49.642  13.912 -0.01 -0.08    +0.158 HD ENDBRANCH   6  25TORSDOF 4TERENDMDL