MODEL        8USER    Run = 8USERUSER    Estimated Free Energy of Binding    =  -9.33 kcal/mol  [=(1)+(2)+(3)-(4)]USERUSER    (1) Final Intermolecular Energy     = -10.23 kcal/molUSER        vdW + Hbond + desolv Energy     =  -9.81 kcal/molUSER        Electrostatic Energy            =  -0.42 kcal/molUSER        Moving Ligand-Fixed Receptor    = -10.23 kcal/molUSER        Moving Ligand-Moving Receptor   =  +0.00 kcal/molUSER    (2) Final Total Internal Energy     =  -0.66 kcal/molUSER    (3) Torsional Free Energy           =  +0.89 kcal/molUSER    (4) Unbound System's Energy         =  -0.66 kcal/molUSERUSERREMARK SMILES Cn1ccnccc(-c2cccc(-c3ccc(O)c(F)c3)c2)cc1REMARK SMILES IDX 9 1 10 2 11 3 12 4 13 5 22 6 8 7 2 8 3 9 24 10 4 11 23 12REMARK SMILES IDX 5 13 6 14 7 15 1 16 14 17 15 18 21 19 16 20 19 21 17 22REMARK SMILES IDX 20 23 18 24REMARK H PARENT 18 25USER                              x       y       z     vdW  Elec       q    TypeUSER                           _______ _______ _______ _____ _____    ______ ____ROOTATOM      1  C   UNL     1      38.057  45.691  17.066 -0.37 +0.01    -0.018 A  ATOM      2  C   UNL     1      37.163  44.996  17.887 -0.35 -0.00    +0.009 A  ATOM      3  C   UNL     1      37.509  44.697  19.203 -0.35 -0.00    +0.001 A  ATOM      4  C   UNL     1      38.752  45.091  19.705 -0.37 -0.00    +0.009 A  ATOM      5  C   UNL     1      39.672  45.796  18.909 -0.42 +0.00    -0.018 A  ATOM      6  C   UNL     1      39.301  46.092  17.585 -0.43 -0.00    +0.017 A  ENDROOTBRANCH   1   7ATOM      7  C   UNL     1      37.694  46.000  15.644 -0.36 +0.01    -0.015 A  ATOM      8  N   UNL     1      36.867  45.269  12.649 -0.25 +0.12    -0.356 N  ATOM      9  C   UNL     1      36.202  46.423  12.287 -0.57 -0.05    +0.105 A  ATOM     10  C   UNL     1      36.559  44.734  13.881 -0.30 -0.03    +0.086 A  ATOM     11  C   UNL     1      36.490  47.708  12.519 -0.56 -0.06    +0.129 A  ATOM     12  C   UNL     1      36.912  45.040  15.131 -0.36 -0.01    +0.026 A  ATOM     13  N   UNL     1      37.417  48.432  13.151 -0.70 +0.07    -0.263 NA ATOM     14  C   UNL     1      38.129  48.038  14.219 -0.44 -0.05    +0.111 A  ATOM     15  C   UNL     1      38.250  47.143  15.215 -0.42 -0.01    +0.029 A  ATOM     16  C   UNL     1      37.160  44.333  11.560 -0.34 -0.04    +0.149 C  ENDBRANCH   1   7BRANCH   5  17ATOM     17  C   UNL     1      40.985  46.207  19.440 -0.42 -0.00    -0.015 A  ATOM     18  C   UNL     1      41.862  46.999  18.671 -0.54 +0.00    +0.013 A  ATOM     19  C   UNL     1      41.405  45.824  20.724 -0.32 +0.01    +0.052 A  ATOM     20  C   UNL     1      43.112  47.395  19.163 -0.48 +0.01    +0.050 A  ATOM     21  C   UNL     1      42.650  46.215  21.210 -0.23 +0.05    +0.165 A  ATOM     22  C   UNL     1      43.502  46.998  20.437 -0.26 +0.07    +0.151 A  ATOM     23  F   UNL     1      43.018  45.827  22.442 -0.03 -0.05    -0.203 F  BRANCH  22  24ATOM     24  O   UNL     1      44.716  47.367  20.942 -0.53 -0.47    -0.505 OA ATOM     25  H   UNL     1      44.634  48.247  21.339 -0.42 +0.04    +0.293 HD ENDBRANCH  22  24ENDBRANCH   5  17TORSDOF 3TERENDMDL