MODEL        10USER    Run = 10USERUSER    Estimated Free Energy of Binding    =  -8.87 kcal/mol  [=(1)+(2)+(3)-(4)]USERUSER    (1) Final Intermolecular Energy     = -10.96 kcal/molUSER        vdW + Hbond + desolv Energy     = -10.73 kcal/molUSER        Electrostatic Energy            =  -0.23 kcal/molUSER        Moving Ligand-Fixed Receptor    = -10.96 kcal/molUSER        Moving Ligand-Moving Receptor   =  +0.00 kcal/molUSER    (2) Final Total Internal Energy     =  -1.52 kcal/molUSER    (3) Torsional Free Energy           =  +2.09 kcal/molUSER    (4) Unbound System's Energy         =  -1.52 kcal/molUSERUSERREMARK SMILES COc1ccc(O)c(C(=O)c2ccc(S(=O)(=O)N[C@@H]3CCN(C)C3)cc2)c1FREMARK SMILES IDX 11 1 12 2 13 3 14 4 25 5 26 6 9 7 10 8 8 9 3 10 4 11 27 12REMARK SMILES IDX 5 13 6 14 28 15 2 16 1 17 7 18 15 20 16 21 17 22 18 23 19 25REMARK SMILES IDX 20 26 24 27 21 28 22 29 23 30REMARK H PARENT 7 19 18 24USER                              x       y       z     vdW  Elec       q    TypeUSER                           _______ _______ _______ _____ _____    ______ ____ROOTATOM      1  C   UNL     1      36.034  44.643  15.475 -0.34 -0.01    +0.023 A  ATOM      2  C   UNL     1      35.035  45.392  16.112 -0.32 -0.01    +0.013 A  ATOM      3  C   UNL     1      34.182  44.784  17.034 -0.30 -0.01    +0.022 A  ATOM      4  C   UNL     1      34.330  43.423  17.311 -0.28 -0.03    +0.082 A  ATOM      5  C   UNL     1      35.300  42.659  16.654 -0.43 -0.01    +0.022 A  ATOM      6  C   UNL     1      36.152  43.270  15.730 -0.44 -0.00    +0.013 A  ENDROOTBRANCH   1   7ATOM      7  C   UNL     1      36.900  45.325  14.485 -0.32 -0.08    +0.199 C  ATOM      8  O   UNL     1      36.870  44.953  13.311 -0.32 +0.10    -0.288 OA BRANCH   7   9ATOM      9  C   UNL     1      37.845  46.406  14.844 -0.33 -0.04    +0.104 A  ATOM     10  C   UNL     1      39.397  47.464  16.400 -0.36 -0.05    +0.155 A  ATOM     11  C   UNL     1      39.642  48.472  15.466 -0.51 -0.02    +0.053 A  ATOM     12  C   UNL     1      38.493  46.440  16.080 -0.28 -0.06    +0.179 A  ATOM     13  C   UNL     1      38.976  48.466  14.238 -0.44 -0.02    +0.051 A  ATOM     14  C   UNL     1      38.075  47.448  13.937 -0.40 -0.05    +0.130 A  ATOM     15  F   UNL     1      38.236  45.498  17.002 -0.08 +0.05    -0.202 F  BRANCH  10  16ATOM     16  O   UNL     1      39.975  47.372  17.639 -0.18 +0.10    -0.494 OA ATOM     17  C   UNL     1      40.986  46.387  17.815 -0.35 -0.02    +0.278 C  ENDBRANCH  10  16BRANCH  14  18ATOM     18  O   UNL     1      37.443  47.534  12.725 -0.75 +0.11    -0.507 OA ATOM     19  H   UNL     1      37.114  46.635  12.491 +0.24 -0.10    +0.293 HD ENDBRANCH  14  18ENDBRANCH   7   9ENDBRANCH   1   7BRANCH   4  20ATOM     20  S   UNL     1      33.246  42.632  18.473 -0.37 -0.04    +0.240 S  ATOM     21  O   UNL     1      33.722  42.888  19.813 -0.78 -0.01    -0.207 OA ATOM     22  O   UNL     1      31.887  42.926  18.076 -0.23 +0.04    -0.207 OA BRANCH  20  23ATOM     23  N   UNL     1      33.493  41.010  18.127 -0.25 +0.05    -0.207 NA ATOM     24  H   UNL     1      34.309  40.848  17.538 -0.49 -0.08    +0.141 HD BRANCH  23  25ATOM     25  C   UNL     1      32.320  40.131  17.965 -0.45 -0.02    +0.085 C  ATOM     26  C   UNL     1      31.420  40.259  19.196 -0.38 +0.00    +0.037 C  ATOM     27  C   UNL     1      32.726  38.647  17.931 -0.29 -0.01    +0.104 C  ATOM     28  C   UNL     1      31.668  38.981  19.981 -0.43 +0.02    +0.086 C  ATOM     29  N   UNL     1      31.847  37.999  18.913 -0.31 -0.06    -0.305 NA ATOM     30  C   UNL     1      32.386  36.736  19.396 -0.56 +0.03    +0.105 C  ENDBRANCH  23  25ENDBRANCH  20  23ENDBRANCH   4  20TORSDOF 7TERENDMDL