MODEL        8USER    Run = 8USERUSER    Estimated Free Energy of Binding    =  -8.57 kcal/mol  [=(1)+(2)+(3)-(4)]USERUSER    (1) Final Intermolecular Energy     =  -9.76 kcal/molUSER        vdW + Hbond + desolv Energy     =  -9.66 kcal/molUSER        Electrostatic Energy            =  -0.11 kcal/molUSER        Moving Ligand-Fixed Receptor    =  -9.76 kcal/molUSER        Moving Ligand-Moving Receptor   =  +0.00 kcal/molUSER    (2) Final Total Internal Energy     =  -0.57 kcal/molUSER    (3) Torsional Free Energy           =  +1.19 kcal/molUSER    (4) Unbound System's Energy         =  -0.57 kcal/molUSERUSERREMARK SMILES Cc1cc(-c2ccc(-c3cccc(F)c3)cc2)c(C#N)c(N)n1REMARK SMILES IDX 1 1 2 2 3 3 4 4 18 5 21 6 23 7 5 8 6 9 17 10 7 11 16 12 8 13REMARK SMILES IDX 9 14 10 15 15 16 11 17 13 18 12 19 14 20 22 21 19 24 20 25REMARK H PARENT 22 22 22 23USER                              x       y       z     vdW  Elec       q    TypeUSER                           _______ _______ _______ _____ _____    ______ ____ROOTATOM      1  C   UNL     1      41.340  43.277  21.524 -0.28 +0.00    +0.067 C  ATOM      2  C   UNL     1      41.484  44.485  20.648 -0.32 +0.01    +0.040 A  ATOM      3  C   UNL     1      40.707  44.618  19.505 -0.38 +0.00    +0.033 A  ATOM      4  C   UNL     1      40.862  45.750  18.693 -0.47 +0.00    +0.005 A  ATOM      5  C   UNL     1      41.808  46.717  19.078 -0.43 +0.01    +0.102 A  ATOM      6  C   UNL     1      42.543  46.510  20.246 -0.30 +0.04    +0.142 A  ATOM      7  N   UNL     1      42.393  45.415  21.017 -0.17 -0.06    -0.235 NA ENDROOTBRANCH   4   8ATOM      8  C   UNL     1      40.037  45.877  17.483 -0.44 +0.00    -0.017 A  ATOM      9  C   UNL     1      38.661  45.612  17.523 -0.40 -0.00    +0.009 A  ATOM     10  C   UNL     1      40.605  46.254  16.259 -0.38 -0.00    +0.009 A  ATOM     11  C   UNL     1      37.875  45.727  16.370 -0.36 -0.00    +0.009 A  ATOM     12  C   UNL     1      39.817  46.368  15.108 -0.43 -0.00    +0.009 A  ATOM     13  C   UNL     1      38.439  46.108  15.143 -0.39 +0.01    -0.018 A  BRANCH  13  14ATOM     14  C   UNL     1      37.611  46.231  13.933 -0.44 +0.01    -0.015 A  ATOM     15  C   UNL     1      37.328  45.111  13.129 -0.44 -0.00    +0.009 A  ATOM     16  C   UNL     1      37.079  47.470  13.544 -0.53 -0.02    +0.048 A  ATOM     17  C   UNL     1      36.541  45.223  11.977 -0.56 -0.00    +0.004 A  ATOM     18  C   UNL     1      36.295  47.573  12.397 -0.57 -0.06    +0.123 A  ATOM     19  C   UNL     1      36.022  46.462  11.611 -0.48 -0.02    +0.039 A  ATOM     20  F   UNL     1      35.799  48.767  12.045 -0.13 +0.11    -0.207 F  ENDBRANCH  13  14ENDBRANCH   4   8BRANCH   6  21ATOM     21  N   UNL     1      43.528  47.389  20.689 -0.13 -0.12    -0.383 N  ATOM     22  H   UNL     1      43.065  48.126  21.216 -0.38 -0.00    +0.158 HD ATOM     23  H   UNL     1      44.104  47.762  19.941 -0.46 +0.05    +0.158 HD ENDBRANCH   6  21BRANCH   5  24ATOM     24  C   UNL     1      42.011  47.907  18.305 -0.42 -0.00    +0.104 C  ATOM     25  N   UNL     1      42.153  48.870  17.672 -0.38 -0.04    -0.192 NA ENDBRANCH   5  24TORSDOF 4TERENDMDL