MODEL        8USER    Run = 8USERUSER    Estimated Free Energy of Binding    =  -8.44 kcal/mol  [=(1)+(2)+(3)-(4)]USERUSER    (1) Final Intermolecular Energy     = -10.53 kcal/molUSER        vdW + Hbond + desolv Energy     = -10.03 kcal/molUSER        Electrostatic Energy            =  -0.50 kcal/molUSER        Moving Ligand-Fixed Receptor    = -10.53 kcal/molUSER        Moving Ligand-Moving Receptor   =  +0.00 kcal/molUSER    (2) Final Total Internal Energy     =  -1.02 kcal/molUSER    (3) Torsional Free Energy           =  +2.09 kcal/molUSER    (4) Unbound System's Energy         =  -1.02 kcal/molUSERUSERREMARK SMILES CCN1CC[C@@H](NC(=O)c2ccc(C(=O)c3c(O)ccc(OC)c3F)cc2)C1REMARK SMILES IDX 10 1 11 2 12 3 13 4 26 5 27 6 8 7 7 8 9 10 6 11 3 12 4 13REMARK SMILES IDX 28 14 5 15 2 16 1 17 14 18 15 19 16 20 17 21 24 22 19 23REMARK SMILES IDX 21 24 20 25 25 26 18 27 22 29 23 30REMARK H PARENT 7 9 18 28USER                              x       y       z     vdW  Elec       q    TypeUSER                           _______ _______ _______ _____ _____    ______ ____ROOTATOM      1  C   UNL     1      27.415  33.441  20.889 -0.35 -0.03    +0.039 A  ATOM      2  C   UNL     1      28.084  34.394  21.672 -0.37 -0.00    +0.014 A  ATOM      3  C   UNL     1      28.016  35.753  21.349 -0.34 -0.00    +0.013 A  ATOM      4  C   UNL     1      27.285  36.167  20.232 -0.32 -0.01    +0.023 A  ATOM      5  C   UNL     1      26.580  35.224  19.473 -0.15 -0.01    +0.013 A  ATOM      6  C   UNL     1      26.646  33.864  19.798 -0.44 -0.01    +0.014 A  ENDROOTBRANCH   1   7ATOM      7  C   UNL     1      27.539  32.008  21.284 -0.27 -0.19    +0.251 C  ATOM      8  N   UNL     1      27.616  31.733  22.632 -0.16 +0.05    -0.348 N  ATOM      9  H   UNL     1      27.754  32.478  23.295 +0.12 +0.07    +0.164 HD ATOM     10  O   UNL     1      27.546  31.135  20.421 -0.33 +0.30    -0.269 OA BRANCH   8  11ATOM     11  C   UNL     1      27.931  30.388  23.109 -0.49 -0.02    +0.097 C  ATOM     12  N   UNL     1      30.134  30.583  23.870 -0.40 -0.09    -0.301 NA ATOM     13  C   UNL     1      29.368  30.204  25.062 -0.39 +0.05    +0.086 C  ATOM     14  C   UNL     1      29.371  30.001  22.750 -0.44 -0.03    +0.109 C  ATOM     15  C   UNL     1      27.907  30.338  24.638 -0.60 +0.02    +0.042 C  BRANCH  12  16ATOM     16  C   UNL     1      31.518  30.109  23.941 -0.60 +0.02    +0.081 C  ATOM     17  C   UNL     1      32.207  30.143  22.581 -0.67 +0.00    +0.021 C  ENDBRANCH  12  16ENDBRANCH   8  11ENDBRANCH   1   7BRANCH   4  18ATOM     18  C   UNL     1      27.169  37.598  19.863 -0.23 -0.04    +0.199 C  ATOM     19  O   UNL     1      28.116  38.145  19.292 -0.17 -0.05    -0.288 OA BRANCH  18  20ATOM     20  C   UNL     1      25.945  38.396  20.092 -0.22 -0.06    +0.104 A  ATOM     21  C   UNL     1      24.921  38.375  19.136 -0.20 -0.09    +0.130 A  ATOM     22  C   UNL     1      25.791  39.203  21.220 -0.24 -0.07    +0.179 A  ATOM     23  C   UNL     1      23.746  39.093  19.339 -0.35 -0.03    +0.051 A  ATOM     24  C   UNL     1      24.614  39.936  21.436 -0.31 -0.05    +0.155 A  ATOM     25  C   UNL     1      23.587  39.868  20.492 -0.27 -0.02    +0.053 A  ATOM     26  F   UNL     1      26.788  39.311  22.113 +0.06 +0.04    -0.202 F  BRANCH  21  27ATOM     27  O   UNL     1      25.010  37.670  17.965 -0.43 +0.12    -0.507 OA ATOM     28  H   UNL     1      24.539  36.815  18.094 -0.33 -0.35    +0.293 HD ENDBRANCH  21  27BRANCH  24  29ATOM     29  O   UNL     1      24.584  40.674  22.588 -0.64 +0.06    -0.494 OA ATOM     30  C   UNL     1      24.180  42.034  22.483 -0.49 -0.06    +0.278 C  ENDBRANCH  24  29ENDBRANCH  18  20ENDBRANCH   4  18TORSDOF 7TERENDMDL