MODEL        9USER    Run = 9USERUSER    Estimated Free Energy of Binding    =  -7.91 kcal/mol  [=(1)+(2)+(3)-(4)]USERUSER    (1) Final Intermolecular Energy     = -10.00 kcal/molUSER        vdW + Hbond + desolv Energy     =  -9.31 kcal/molUSER        Electrostatic Energy            =  -0.69 kcal/molUSER        Moving Ligand-Fixed Receptor    = -10.00 kcal/molUSER        Moving Ligand-Moving Receptor   =  +0.00 kcal/molUSER    (2) Final Total Internal Energy     =  -1.47 kcal/molUSER    (3) Torsional Free Energy           =  +2.09 kcal/molUSER    (4) Unbound System's Energy         =  -1.47 kcal/molUSERUSERREMARK SMILES COc1ccc(O)c(C(=O)c2ccc(C(=O)N3CC[C@@H](O)C3)cc2)c1FREMARK SMILES IDX 11 1 12 2 13 3 14 4 23 5 24 6 9 7 10 8 8 9 3 10 4 11 25 12REMARK SMILES IDX 5 13 6 14 26 15 2 16 1 17 7 18 15 20 16 21 17 22 18 23 22 24REMARK SMILES IDX 19 25 20 26 21 27REMARK H PARENT 7 19 21 28USER                              x       y       z     vdW  Elec       q    TypeUSER                           _______ _______ _______ _____ _____    ______ ____ROOTATOM      1  C   UNL     1      36.536  45.074  17.078 -0.32 -0.01    +0.023 A  ATOM      2  C   UNL     1      35.567  45.965  17.561 -0.36 -0.01    +0.013 A  ATOM      3  C   UNL     1      34.225  45.579  17.596 -0.39 -0.01    +0.014 A  ATOM      4  C   UNL     1      33.855  44.308  17.150 -0.28 -0.02    +0.040 A  ATOM      5  C   UNL     1      34.810  43.433  16.622 -0.37 -0.01    +0.014 A  ATOM      6  C   UNL     1      36.152  43.818  16.587 -0.36 -0.00    +0.013 A  ENDROOTBRANCH   1   7ATOM      7  C   UNL     1      37.967  45.451  17.000 -0.29 -0.06    +0.199 C  ATOM      8  O   UNL     1      38.780  44.850  17.705 -0.23 +0.04    -0.288 OA BRANCH   7   9ATOM      9  C   UNL     1      38.481  46.485  16.076 -0.33 -0.04    +0.104 A  ATOM     10  C   UNL     1      38.437  47.658  13.939 -0.37 -0.05    +0.155 A  ATOM     11  C   UNL     1      39.505  48.454  14.356 -0.43 -0.02    +0.053 A  ATOM     12  C   UNL     1      37.929  46.684  14.810 -0.29 -0.07    +0.179 A  ATOM     13  C   UNL     1      40.044  48.288  15.635 -0.52 -0.01    +0.051 A  ATOM     14  C   UNL     1      39.525  47.321  16.492 -0.38 -0.04    +0.130 A  ATOM     15  F   UNL     1      36.876  45.951  14.411 -0.07 +0.10    -0.202 F  BRANCH  10  16ATOM     16  O   UNL     1      37.815  47.741  12.720 -0.74 +0.05    -0.494 OA ATOM     17  C   UNL     1      36.430  48.059  12.715 -0.45 -0.12    +0.278 C  ENDBRANCH  10  16BRANCH  14  18ATOM     18  O   UNL     1      40.089  47.245  17.738 -0.18 +0.09    -0.507 OA ATOM     19  H   UNL     1      39.907  46.347  18.098 +0.19 -0.04    +0.293 HD ENDBRANCH  14  18ENDBRANCH   7   9ENDBRANCH   1   7BRANCH   4  20ATOM     20  C   UNL     1      32.426  43.932  17.182 -0.18 -0.08    +0.253 C  ATOM     21  O   UNL     1      32.061  43.109  18.016 -0.18 +0.05    -0.269 OA BRANCH  20  22ATOM     22  N   UNL     1      31.580  44.500  16.250 -0.11 +0.13    -0.336 N  ATOM     23  C   UNL     1      30.122  44.526  16.277 -0.28 -0.04    +0.122 C  ATOM     24  C   UNL     1      32.105  45.364  15.198 -0.36 -0.11    +0.151 C  ATOM     25  C   UNL     1      29.723  45.286  15.017 -0.37 -0.03    +0.055 C  ATOM     26  C   UNL     1      30.905  46.218  14.784 -0.50 -0.07    +0.135 C  BRANCH  26  27ATOM     27  O   UNL     1      30.774  47.368  15.620 -0.77 +0.08    -0.391 OA ATOM     28  H   UNL     1      31.659  47.762  15.724 -0.37 -0.40    +0.211 HD ENDBRANCH  26  27ENDBRANCH  20  22ENDBRANCH   4  20TORSDOF 7TERENDMDL