REMARK SMILES COc1ccc(O)c(C(=O)c2ccc(C(=O)N3CC[C@@H](O)C3)cc2)c1F
REMARK SMILES IDX 11 1 12 2 13 3 14 4 23 5 24 6 9 7 10 8 8 9 3 10 4 11 25 12
REMARK SMILES IDX 5 13 6 14 26 15 2 16 1 17 7 18 15 20 16 21 17 22 18 23 22 24
REMARK SMILES IDX 19 25 20 26 21 27
REMARK H PARENT 7 19 21 28
ROOT
ATOM      1  C   UNL     1       0.670   1.008   1.325  1.00  0.00     0.023 A 
ATOM      2  C   UNL     1       0.620  -0.380   1.512  1.00  0.00     0.013 A 
ATOM      3  C   UNL     1      -0.616  -1.027   1.585  1.00  0.00     0.014 A 
ATOM      4  C   UNL     1      -1.796  -0.287   1.471  1.00  0.00     0.040 A 
ATOM      5  C   UNL     1      -1.753   1.104   1.334  1.00  0.00     0.014 A 
ATOM      6  C   UNL     1      -0.517   1.751   1.260  1.00  0.00     0.013 A 
ENDROOT
BRANCH   1   7
ATOM      7  C   UNL     1       1.959   1.738   1.266  1.00  0.00     0.199 C 
ATOM      8  O   UNL     1       2.052   2.829   1.830  1.00  0.00    -0.288 OA
BRANCH   7   9
ATOM      9  C   UNL     1       3.164   1.196   0.601  1.00  0.00     0.104 A 
ATOM     10  C   UNL     1       4.231  -0.136  -1.141  1.00  0.00     0.155 A 
ATOM     11  C   UNL     1       5.484   0.182  -0.613  1.00  0.00     0.053 A 
ATOM     12  C   UNL     1       3.080   0.383  -0.530  1.00  0.00     0.179 A 
ATOM     13  C   UNL     1       5.582   1.023   0.499  1.00  0.00     0.051 A 
ATOM     14  C   UNL     1       4.431   1.537   1.090  1.00  0.00     0.130 A 
ATOM     15  F   UNL     1       1.883   0.101  -1.071  1.00  0.00    -0.202 F 
BRANCH  10  16
ATOM     16  O   UNL     1       4.010  -0.932  -2.234  1.00  0.00    -0.494 OA
ATOM     17  C   UNL     1       5.151  -1.450  -2.905  1.00  0.00     0.278 C 
ENDBRANCH  10  16
BRANCH  14  18
ATOM     18  O   UNL     1       4.617   2.378   2.155  1.00  0.00    -0.507 OA
ATOM     19  H   UNL     1       3.761   2.829   2.337  1.00  0.00     0.293 HD
ENDBRANCH  14  18
ENDBRANCH   7   9
ENDBRANCH   1   7
BRANCH   4  20
ATOM     20  C   UNL     1      -3.090  -0.994   1.570  1.00  0.00     0.253 C 
ATOM     21  O   UNL     1      -3.337  -1.609   2.603  1.00  0.00    -0.269 OA
BRANCH  20  22
ATOM     22  N   UNL     1      -3.941  -0.955   0.484  1.00  0.00    -0.336 N 
ATOM     23  C   UNL     1      -3.653  -0.438  -0.849  1.00  0.00     0.122 C 
ATOM     24  C   UNL     1      -5.215  -1.666   0.511  1.00  0.00     0.151 C 
ATOM     25  C   UNL     1      -4.939  -0.657  -1.638  1.00  0.00     0.055 C 
ATOM     26  C   UNL     1      -5.556  -1.877  -0.965  1.00  0.00     0.135 C 
BRANCH  26  27
ATOM     27  O   UNL     1      -4.942  -3.061  -1.475  1.00  0.00    -0.391 OA
ATOM     28  H   UNL     1      -4.090  -3.175  -1.016  1.00  0.00     0.211 HD
ENDBRANCH  26  27
ENDBRANCH  20  22
ENDBRANCH   4  20
TORSDOF 7
