REMARK SMILES COc1cc(Cl)cc(-c2cccc(-c3ccnccn(C)cc3)c2)c1
REMARK SMILES IDX 3 1 4 2 5 3 6 4 7 5 8 6 25 7 2 8 1 9 9 10 10 11 24 12 11 13
REMARK SMILES IDX 13 14 12 15 14 16 15 17 23 18 16 19 22 20 17 21 20 22 18 23
REMARK SMILES IDX 19 24 21 25
REMARK H PARENT
ROOT
ATOM      1  C   UNL     1       4.585  -0.998   0.378  1.00  0.00     0.120 A 
ATOM      2  C   UNL     1       5.285  -0.521   1.484  1.00  0.00     0.067 A 
ATOM      3  C   UNL     1       4.786   0.569   2.195  1.00  0.00     0.045 A 
ATOM      4  Cl  UNL     1       5.649   1.152   3.568  1.00  0.00    -0.084 Cl
ATOM      5  C   UNL     1       3.600   1.195   1.811  1.00  0.00     0.029 A 
ATOM      6  C   UNL     1       2.883   0.740   0.694  1.00  0.00    -0.013 A 
ATOM      7  C   UNL     1       3.400  -0.361  -0.011  1.00  0.00     0.055 A 
ENDROOT
BRANCH   1   8
ATOM      8  O   UNL     1       4.950  -2.058  -0.406  1.00  0.00    -0.497 OA
ATOM      9  C   UNL     1       6.023  -2.865   0.060  1.00  0.00     0.278 C 
ENDBRANCH   1   8
BRANCH   6  10
ATOM     10  C   UNL     1       1.635   1.399   0.267  1.00  0.00    -0.018 A 
ATOM     11  C   UNL     1       1.562   2.797   0.130  1.00  0.00     0.009 A 
ATOM     12  C   UNL     1       0.485   0.649  -0.037  1.00  0.00     0.017 A 
ATOM     13  C   UNL     1       0.387   3.425  -0.299  1.00  0.00     0.001 A 
ATOM     14  C   UNL     1      -0.698   1.268  -0.478  1.00  0.00    -0.018 A 
ATOM     15  C   UNL     1      -0.737   2.662  -0.604  1.00  0.00     0.009 A 
BRANCH  14  16
ATOM     16  C   UNL     1      -1.898   0.439  -0.828  1.00  0.00    -0.015 A 
ATOM     17  C   UNL     1      -1.826  -0.044  -2.077  1.00  0.00     0.029 A 
ATOM     18  C   UNL     1      -2.774   0.395   0.186  1.00  0.00     0.026 A 
ATOM     19  C   UNL     1      -2.391  -0.992  -2.846  1.00  0.00     0.111 A 
ATOM     20  C   UNL     1      -4.058   0.040   0.255  1.00  0.00     0.086 A 
ATOM     21  N   UNL     1      -3.236  -2.034  -2.896  1.00  0.00    -0.263 NA
ATOM     22  N   UNL     1      -4.981  -0.391  -0.677  1.00  0.00    -0.356 N 
ATOM     23  C   UNL     1      -4.165  -2.334  -1.982  1.00  0.00     0.129 A 
ATOM     24  C   UNL     1      -4.908  -1.717  -1.057  1.00  0.00     0.105 A 
ATOM     25  C   UNL     1      -6.335   0.169  -0.588  1.00  0.00     0.149 C 
ENDBRANCH  14  16
ENDBRANCH   6  10
TORSDOF 3
