MODEL        6USER    Run = 6USERUSER    Estimated Free Energy of Binding    =  -9.52 kcal/mol  [=(1)+(2)+(3)-(4)]USERUSER    (1) Final Intermolecular Energy     = -10.42 kcal/molUSER        vdW + Hbond + desolv Energy     = -10.35 kcal/molUSER        Electrostatic Energy            =  -0.06 kcal/molUSER        Moving Ligand-Fixed Receptor    = -10.42 kcal/molUSER        Moving Ligand-Moving Receptor   =  +0.00 kcal/molUSER    (2) Final Total Internal Energy     =  -0.75 kcal/molUSER    (3) Torsional Free Energy           =  +0.89 kcal/molUSER    (4) Unbound System's Energy         =  -0.75 kcal/molUSERUSERREMARK SMILES COc1cc(Cl)cc(-c2cccc(-c3ccnccn(C)cc3)c2)c1REMARK SMILES IDX 3 1 4 2 5 3 6 4 7 5 8 6 25 7 2 8 1 9 9 10 10 11 24 12 11 13REMARK SMILES IDX 13 14 12 15 14 16 15 17 23 18 16 19 22 20 17 21 20 22 18 23REMARK SMILES IDX 19 24 21 25REMARK H PARENTUSER                              x       y       z     vdW  Elec       q    TypeUSER                           _______ _______ _______ _____ _____    ______ ____ROOTATOM      1  C   UNL     1      40.919  49.135  15.581 -0.53 -0.02    +0.120 A  ATOM      2  C   UNL     1      39.856  48.753  14.765 -0.47 -0.02    +0.067 A  ATOM      3  C   UNL     1      39.040  47.691  15.153 -0.47 -0.02    +0.045 A  ATOM      4  Cl  UNL     1      37.720  47.226  14.147 -0.68 +0.04    -0.084 Cl ATOM      5  C   UNL     1      39.276  47.000  16.341 -0.44 -0.01    +0.029 A  ATOM      6  C   UNL     1      40.347  47.359  17.174 -0.51 +0.00    -0.013 A  ATOM      7  C   UNL     1      41.160  48.432  16.768 -0.47 -0.00    +0.055 A  ENDROOTBRANCH   1   8ATOM      8  O   UNL     1      41.793  50.157  15.332 -0.67 +0.05    -0.497 OA ATOM      9  C   UNL     1      42.182  50.357  13.980 -0.50 -0.06    +0.278 C  ENDBRANCH   1   8BRANCH   6  10ATOM     10  C   UNL     1      40.619  46.629  18.426 -0.47 +0.00    -0.018 A  ATOM     11  C   UNL     1      41.847  46.772  19.098 -0.50 +0.00    +0.009 A  ATOM     12  C   UNL     1      39.651  45.786  19.000 -0.41 -0.00    +0.017 A  ATOM     13  C   UNL     1      42.100  46.101  20.300 -0.37 +0.00    +0.001 A  ATOM     14  C   UNL     1      39.891  45.114  20.212 -0.37 -0.00    -0.018 A  ATOM     15  C   UNL     1      41.123  45.278  20.855 -0.34 +0.00    +0.009 A  BRANCH  14  16ATOM     16  C   UNL     1      38.826  44.248  20.817 -0.31 -0.00    -0.015 A  ATOM     17  C   UNL     1      37.679  44.307  20.125 -0.35 -0.00    +0.029 A  ATOM     18  C   UNL     1      39.267  43.634  21.924 -0.24 +0.00    +0.026 A  ATOM     19  C   UNL     1      36.526  43.628  19.989 -0.32 -0.01    +0.111 A  ATOM     20  C   UNL     1      38.638  43.016  22.925 -0.26 +0.01    +0.086 A  ATOM     21  N   UNL     1      35.828  42.531  20.323 -0.27 +0.00    -0.263 NA ATOM     22  N   UNL     1      37.309  42.789  23.222 -0.18 -0.03    -0.356 N  ATOM     23  C   UNL     1      36.095  41.714  21.347 -0.43 +0.00    +0.129 A  ATOM     24  C   UNL     1      36.688  41.757  22.545 -0.46 +0.01    +0.105 A  ATOM     25  C   UNL     1      36.894  42.971  24.618 -0.34 +0.01    +0.149 C  ENDBRANCH  14  16ENDBRANCH   6  10TORSDOF 3TERENDMDL