REMARK SMILES Cc1cc(-c2ccc(-c3cccc(F)c3)cc2)c(C#N)c(N)n1
REMARK SMILES IDX 1 1 2 2 3 3 4 4 18 5 21 6 23 7 5 8 6 9 17 10 7 11 16 12 8 13
REMARK SMILES IDX 9 14 10 15 15 16 11 17 13 18 12 19 14 20 22 21 19 24 20 25
REMARK H PARENT 22 22 22 23
ROOT
ATOM      1  C   UNL     1      -5.104  -1.208   1.891  1.00  0.00     0.067 C 
ATOM      2  C   UNL     1      -4.300  -0.448   0.879  1.00  0.00     0.040 A 
ATOM      3  C   UNL     1      -2.914  -0.540   0.875  1.00  0.00     0.033 A 
ATOM      4  C   UNL     1      -2.178   0.185  -0.072  1.00  0.00     0.005 A 
ATOM      5  C   UNL     1      -2.883   0.982  -0.992  1.00  0.00     0.102 A 
ATOM      6  C   UNL     1      -4.277   1.012  -0.924  1.00  0.00     0.142 A 
ATOM      7  N   UNL     1      -4.977   0.318  -0.005  1.00  0.00    -0.235 NA
ENDROOT
BRANCH   4   8
ATOM      8  C   UNL     1      -0.711   0.084  -0.064  1.00  0.00    -0.017 A 
ATOM      9  C   UNL     1      -0.071  -1.078  -0.516  1.00  0.00     0.009 A 
ATOM     10  C   UNL     1       0.082   1.139   0.406  1.00  0.00     0.009 A 
ATOM     11  C   UNL     1       1.325  -1.178  -0.504  1.00  0.00     0.009 A 
ATOM     12  C   UNL     1       1.478   1.036   0.417  1.00  0.00     0.009 A 
ATOM     13  C   UNL     1       2.124  -0.123  -0.038  1.00  0.00    -0.018 A 
BRANCH  13  14
ATOM     14  C   UNL     1       3.592  -0.229  -0.028  1.00  0.00    -0.015 A 
ATOM     15  C   UNL     1       4.330   0.021   1.144  1.00  0.00     0.009 A 
ATOM     16  C   UNL     1       4.299  -0.582  -1.188  1.00  0.00     0.048 A 
ATOM     17  C   UNL     1       5.726  -0.079   1.158  1.00  0.00     0.004 A 
ATOM     18  C   UNL     1       5.688  -0.680  -1.165  1.00  0.00     0.123 A 
ATOM     19  C   UNL     1       6.407  -0.432  -0.004  1.00  0.00     0.039 A 
ATOM     20  F   UNL     1       6.342  -1.018  -2.285  1.00  0.00    -0.207 F 
ENDBRANCH  13  14
ENDBRANCH   4   8
BRANCH   6  21
ATOM     21  N   UNL     1      -5.062   1.799  -1.763  1.00  0.00    -0.383 N 
ATOM     22  H   UNL     1      -6.036   1.610  -1.535  1.00  0.00     0.158 HD
ATOM     23  H   UNL     1      -4.869   1.656  -2.749  1.00  0.00     0.158 HD
ENDBRANCH   6  21
BRANCH   5  24
ATOM     24  C   UNL     1      -2.199   1.740  -1.998  1.00  0.00     0.104 C 
ATOM     25  N   UNL     1      -1.652   2.338  -2.830  1.00  0.00    -0.192 NA
ENDBRANCH   5  24
TORSDOF 4
