MODEL        10USER    Run = 10USERUSER    Estimated Free Energy of Binding    =  -9.10 kcal/mol  [=(1)+(2)+(3)-(4)]USERUSER    (1) Final Intermolecular Energy     = -10.89 kcal/molUSER        vdW + Hbond + desolv Energy     = -10.83 kcal/molUSER        Electrostatic Energy            =  -0.06 kcal/molUSER        Moving Ligand-Fixed Receptor    = -10.89 kcal/molUSER        Moving Ligand-Moving Receptor   =  +0.00 kcal/molUSER    (2) Final Total Internal Energy     =  -1.65 kcal/molUSER    (3) Torsional Free Energy           =  +1.79 kcal/molUSER    (4) Unbound System's Energy         =  -1.65 kcal/molUSERUSERREMARK SMILES Nc1nccc(-c2ccc(-c3ccc(O)c(Cl)c3)cc2)c1C(=O)NC1CC1REMARK SMILES IDX 7 1 8 2 9 3 10 4 19 5 20 6 6 7 2 8 3 9 21 10 4 11 5 12 1 13REMARK SMILES IDX 22 16 24 17 23 18 25 20 26 21 27 22 11 23 12 24 18 25 13 26REMARK SMILES IDX 16 27 14 28 17 29 15 30REMARK H PARENT 1 14 1 15 24 19 15 31USER                              x       y       z     vdW  Elec       q    TypeUSER                           _______ _______ _______ _____ _____    ______ ____ROOTATOM      1  C   UNL     1      37.995  46.117  17.001 -0.37 +0.01    -0.017 A  ATOM      2  C   UNL     1      38.159  44.724  17.014 -0.29 -0.00    +0.009 A  ATOM      3  C   UNL     1      37.051  43.870  17.052 -0.24 -0.00    +0.009 A  ATOM      4  C   UNL     1      35.745  44.380  17.069 -0.30 +0.01    -0.018 A  ATOM      5  C   UNL     1      35.582  45.773  17.041 -0.35 -0.01    +0.009 A  ATOM      6  C   UNL     1      36.690  46.628  17.007 -0.20 -0.01    +0.009 A  ENDROOTBRANCH   1   7ATOM      7  C   UNL     1      39.161  47.016  16.978 -0.44 +0.00    -0.000 A  ATOM      8  C   UNL     1      40.478  48.857  16.088 -0.46 -0.03    +0.136 A  ATOM      9  N   UNL     1      41.489  48.594  16.940 -0.82 -0.00    -0.239 NA ATOM     10  C   UNL     1      39.287  48.112  16.097 -0.42 -0.04    +0.089 A  ATOM     11  C   UNL     1      41.354  47.559  17.790 -0.42 -0.01    +0.114 A  ATOM     12  C   UNL     1      40.231  46.753  17.843 -0.46 -0.00    +0.030 A  BRANCH   8  13ATOM     13  N   UNL     1      40.676  49.958  15.237 -0.28 +0.15    -0.383 N  ATOM     14  H   UNL     1      39.784  50.397  15.032 -0.27 -0.15    +0.158 HD ATOM     15  H   UNL     1      41.018  49.603  14.340 +0.10 -0.05    +0.158 HD ENDBRANCH   8  13BRANCH  10  16ATOM     16  C   UNL     1      38.213  48.504  15.152 -0.39 -0.16    +0.255 C  ATOM     17  N   UNL     1      37.822  47.539  14.243 -0.22 +0.16    -0.349 N  ATOM     18  O   UNL     1      37.696  49.612  15.249 -0.40 +0.26    -0.269 OA ATOM     19  H   UNL     1      38.300  46.646  14.229 +0.12 -0.05    +0.164 HD BRANCH  17  20ATOM     20  C   UNL     1      36.820  47.780  13.255 -0.61 -0.04    +0.082 C  ATOM     21  C   UNL     1      36.843  47.033  11.950 -0.75 -0.01    +0.027 C  ATOM     22  C   UNL     1      35.771  46.742  12.960 -0.65 -0.02    +0.027 C  ENDBRANCH  17  20ENDBRANCH  10  16ENDBRANCH   1   7BRANCH   4  23ATOM     23  C   UNL     1      34.580  43.481  17.117 -0.33 +0.01    -0.017 A  ATOM     24  C   UNL     1      34.610  42.301  17.880 -0.41 -0.00    +0.012 A  ATOM     25  C   UNL     1      33.407  43.781  16.402 -0.31 -0.02    +0.033 A  ATOM     26  C   UNL     1      33.508  41.444  17.931 -0.38 -0.01    +0.048 A  ATOM     27  C   UNL     1      32.305  42.925  16.451 -0.26 -0.04    +0.083 A  ATOM     28  C   UNL     1      32.360  41.760  17.215 -0.16 -0.06    +0.134 A  ATOM     29  Cl  UNL     1      30.883  43.319  15.560 -0.49 +0.04    -0.080 Cl BRANCH  28  30ATOM     30  O   UNL     1      31.308  40.891  17.294 -0.08 +0.14    -0.506 OA ATOM     31  H   UNL     1      31.284  40.389  16.458 -0.30 -0.13    +0.293 HD ENDBRANCH  28  30ENDBRANCH   4  23TORSDOF 6TERENDMDL