REMARK SMILES Nc1nccc(-c2ccc(-c3ccc(O)c(Cl)c3)cc2)c1C(=O)NC1CC1
REMARK SMILES IDX 7 1 8 2 9 3 10 4 19 5 20 6 6 7 2 8 3 9 21 10 4 11 5 12 1 13
REMARK SMILES IDX 22 16 24 17 23 18 25 20 26 21 27 22 11 23 12 24 18 25 13 26
REMARK SMILES IDX 16 27 14 28 17 29 15 30
REMARK H PARENT 1 14 1 15 24 19 15 31
ROOT
ATOM      1  C   UNL     1       0.278  -1.625   0.153  1.00  0.00    -0.017 A 
ATOM      2  C   UNL     1      -0.149  -1.222   1.427  1.00  0.00     0.009 A 
ATOM      3  C   UNL     1      -1.209  -0.321   1.577  1.00  0.00     0.009 A 
ATOM      4  C   UNL     1      -1.881   0.199   0.461  1.00  0.00    -0.018 A 
ATOM      5  C   UNL     1      -1.462  -0.217  -0.811  1.00  0.00     0.009 A 
ATOM      6  C   UNL     1      -0.399  -1.115  -0.963  1.00  0.00     0.009 A 
ENDROOT
BRANCH   1   7
ATOM      7  C   UNL     1       1.404  -2.561  -0.006  1.00  0.00    -0.000 A 
ATOM      8  C   UNL     1       3.588  -3.223  -0.847  1.00  0.00     0.136 A 
ATOM      9  N   UNL     1       3.441  -4.469  -0.355  1.00  0.00    -0.239 NA
ATOM     10  C   UNL     1       2.608  -2.233  -0.666  1.00  0.00     0.089 A 
ATOM     11  C   UNL     1       2.298  -4.769   0.290  1.00  0.00     0.114 A 
ATOM     12  C   UNL     1       1.268  -3.867   0.483  1.00  0.00     0.030 A 
BRANCH   8  13
ATOM     13  N   UNL     1       4.808  -2.970  -1.497  1.00  0.00    -0.383 N 
ATOM     14  H   UNL     1       5.340  -2.282  -0.973  1.00  0.00     0.158 HD
ATOM     15  H   UNL     1       4.599  -2.525  -2.395  1.00  0.00     0.158 HD
ENDBRANCH   8  13
BRANCH  10  16
ATOM     16  C   UNL     1       2.878  -0.878  -1.206  1.00  0.00     0.255 C 
ATOM     17  N   UNL     1       2.701   0.173  -0.327  1.00  0.00    -0.349 N 
ATOM     18  O   UNL     1       3.288  -0.756  -2.356  1.00  0.00    -0.269 OA
ATOM     19  H   UNL     1       2.361  -0.013   0.609  1.00  0.00     0.164 HD
BRANCH  17  20
ATOM     20  C   UNL     1       2.897   1.534  -0.712  1.00  0.00     0.082 C 
ATOM     21  C   UNL     1       1.718   2.444  -0.918  1.00  0.00     0.027 C 
ATOM     22  C   UNL     1       2.625   2.651   0.259  1.00  0.00     0.027 C 
ENDBRANCH  17  20
ENDBRANCH  10  16
ENDBRANCH   1   7
BRANCH   4  23
ATOM     23  C   UNL     1      -2.991   1.153   0.620  1.00  0.00    -0.017 A 
ATOM     24  C   UNL     1      -2.825   2.336   1.362  1.00  0.00     0.012 A 
ATOM     25  C   UNL     1      -4.244   0.906   0.033  1.00  0.00     0.033 A 
ATOM     26  C   UNL     1      -3.874   3.246   1.516  1.00  0.00     0.048 A 
ATOM     27  C   UNL     1      -5.293   1.815   0.187  1.00  0.00     0.083 A 
ATOM     28  C   UNL     1      -5.104   2.981   0.928  1.00  0.00     0.134 A 
ATOM     29  Cl  UNL     1      -6.819   1.482  -0.542  1.00  0.00    -0.080 Cl
BRANCH  28  30
ATOM     30  O   UNL     1      -6.100   3.900   1.107  1.00  0.00    -0.506 OA
ATOM     31  H   UNL     1      -6.886   3.569   0.634  1.00  0.00     0.293 HD
ENDBRANCH  28  30
ENDBRANCH   4  23
TORSDOF 6
