REMARK SMILES COc1ccc(-c2cccc(-c3ccnccn(C)cc3)c2)cc1Cl
REMARK SMILES IDX 3 1 4 2 5 3 6 4 23 5 24 6 25 7 2 8 1 9 7 10 8 11 22 12 9 13
REMARK SMILES IDX 11 14 10 15 12 16 13 17 21 18 14 19 20 20 15 21 18 22 16 23
REMARK SMILES IDX 17 24 19 25
REMARK H PARENT
ROOT
ATOM      1  C   UNL     1      -5.353   0.208  -1.165  1.00  0.00     0.137 A 
ATOM      2  C   UNL     1      -4.343   1.171  -1.157  1.00  0.00     0.048 A 
ATOM      3  C   UNL     1      -3.163   0.958  -0.433  1.00  0.00     0.012 A 
ATOM      4  C   UNL     1      -2.954  -0.220   0.303  1.00  0.00    -0.017 A 
ATOM      5  C   UNL     1      -3.975  -1.182   0.291  1.00  0.00     0.033 A 
ATOM      6  C   UNL     1      -5.158  -0.970  -0.428  1.00  0.00     0.083 A 
ATOM      7  Cl  UNL     1      -6.364  -2.213  -0.381  1.00  0.00    -0.080 Cl
ENDROOT
BRANCH   1   8
ATOM      8  O   UNL     1      -6.541   0.334  -1.837  1.00  0.00    -0.495 OA
ATOM      9  C   UNL     1      -6.677   1.440  -2.719  1.00  0.00     0.278 C 
ENDBRANCH   1   8
BRANCH   4  10
ATOM     10  C   UNL     1      -1.706  -0.432   1.058  1.00  0.00    -0.018 A 
ATOM     11  C   UNL     1      -1.724  -0.889   2.388  1.00  0.00     0.009 A 
ATOM     12  C   UNL     1      -0.455  -0.168   0.474  1.00  0.00     0.017 A 
ATOM     13  C   UNL     1      -0.540  -1.071   3.110  1.00  0.00     0.001 A 
ATOM     14  C   UNL     1       0.742  -0.344   1.190  1.00  0.00    -0.018 A 
ATOM     15  C   UNL     1       0.689  -0.798   2.514  1.00  0.00     0.009 A 
BRANCH  14  16
ATOM     16  C   UNL     1       2.054  -0.034   0.536  1.00  0.00    -0.015 A 
ATOM     17  C   UNL     1       2.370   1.266   0.634  1.00  0.00     0.029 A 
ATOM     18  C   UNL     1       2.609  -1.139   0.017  1.00  0.00     0.026 A 
ATOM     19  C   UNL     1       3.195   2.172   0.079  1.00  0.00     0.111 A 
ATOM     20  C   UNL     1       3.838  -1.412  -0.421  1.00  0.00     0.086 A 
ATOM     21  N   UNL     1       4.091   2.419  -0.889  1.00  0.00    -0.263 NA
ATOM     22  N   UNL     1       5.004  -0.681  -0.506  1.00  0.00    -0.356 N 
ATOM     23  C   UNL     1       4.709   1.499  -1.635  1.00  0.00     0.129 A 
ATOM     24  C   UNL     1       5.100   0.224  -1.544  1.00  0.00     0.105 A 
ATOM     25  C   UNL     1       6.252  -1.359  -0.137  1.00  0.00     0.149 C 
ENDBRANCH  14  16
ENDBRANCH   4  10
TORSDOF 3
