MODEL        5USER    Run = 5USERUSER    Estimated Free Energy of Binding    =  -7.47 kcal/mol  [=(1)+(2)+(3)-(4)]USERUSER    (1) Final Intermolecular Energy     = -11.64 kcal/molUSER        vdW + Hbond + desolv Energy     = -11.78 kcal/molUSER        Electrostatic Energy            =  -0.23 kcal/molUSER        Moving Ligand-Fixed Receptor    = -12.01 kcal/molUSER        Moving Ligand-Moving Receptor   =  +0.37 kcal/molUSER    (2) Final Total Internal Energy     =  -2.89 kcal/molUSER    (3) Torsional Free Energy           =  +4.18 kcal/molUSER    (4) Unbound System's Energy         =  -2.89 kcal/molUSERUSERREMARK SMILES COc1cc(C(=O)c2ccc(C(=O)N[C@@H]3CCCNC[C@H]3NC(=O)c3ccncc3)cc2)c(O)cn1REMARK SMILES IDX 12 1 13 2 14 3 11 5 8 6 9 7 32 8 10 9 31 10 6 11 7 12 5 13REMARK SMILES IDX 3 14 4 15 36 16 35 17 33 18 2 19 1 20 34 21 15 23 16 24REMARK SMILES IDX 21 26 20 27 19 28 18 30 17 31 22 33 23 34 24 36 25 37 26 38REMARK SMILES IDX 30 39 27 40 29 41 28 42REMARK H PARENT 14 4 34 22 19 29 22 35REMARK Flexibility Score:   88.900USER                              x       y       z     vdW  Elec       q    TypeUSER                           _______ _______ _______ _____ _____    ______ ____ROOTATOM      1  C   UNL     1      38.605  44.961  17.230 -0.18 -0.05    +0.251 C  ATOM      2  O   UNL     1      37.795  44.040  17.189 -0.22 +0.06    -0.269 OA ATOM      3  N   UNL     1      38.674  45.949  16.273 -0.14 +0.10    -0.347 N  ATOM      4  H   UNL     1      39.308  46.726  16.402 +0.11 -0.04    +0.164 HD ENDROOTBRANCH   1   5ATOM      5  C   UNL     1      39.554  45.066  18.367 -0.40 -0.00    +0.039 A  ATOM      6  C   UNL     1      41.410  45.299  20.450 -0.35 +0.00    +0.023 A  ATOM      7  C   UNL     1      41.633  45.960  19.237 -0.44 +0.00    +0.013 A  ATOM      8  C   UNL     1      40.280  44.486  20.607 -0.33 +0.00    +0.013 A  ATOM      9  C   UNL     1      40.706  45.845  18.199 -0.47 -0.00    +0.014 A  ATOM     10  C   UNL     1      39.352  44.372  19.567 -0.33 -0.00    +0.014 A  BRANCH   6  11ATOM     11  C   UNL     1      42.427  45.427  21.520 -0.21 +0.05    +0.197 C  ATOM     12  O   UNL     1      43.149  44.464  21.774 -0.16 -0.09    -0.288 OA BRANCH  11  13ATOM     13  C   UNL     1      42.598  46.667  22.315 -0.24 +0.01    +0.071 A  ATOM     14  C   UNL     1      41.760  48.421  23.698 -0.24 +0.04    +0.213 A  ATOM     15  C   UNL     1      41.521  47.269  22.967 -0.18 +0.01    +0.084 A  ATOM     16  N   UNL     1      42.972  49.003  23.810 -0.83 -0.07    -0.218 NA ATOM     17  C   UNL     1      43.994  48.417  23.145 -0.21 +0.04    +0.162 A  ATOM     18  C   UNL     1      43.857  47.268  22.383 -0.25 +0.05    +0.145 A  BRANCH  14  19ATOM     19  O   UNL     1      40.667  48.970  24.339 -0.13 -0.09    -0.481 OA ATOM     20  C   UNL     1      39.534  48.107  24.345 -0.25 +0.03    +0.280 C  ENDBRANCH  14  19BRANCH  18  21ATOM     21  O   UNL     1      44.961  46.785  21.741 -0.64 -0.55    -0.506 OA ATOM     22  H   UNL     1      44.876  45.805  21.691 +0.11 +0.36    +0.293 HD ENDBRANCH  18  21ENDBRANCH  11  13ENDBRANCH   6  11ENDBRANCH   1   5BRANCH   3  23ATOM     23  C   UNL     1      37.743  46.011  15.129 -0.37 -0.04    +0.106 C  BRANCH  23  24ATOM     24  C   UNL     1      38.481  46.723  13.980 -0.48 -0.01    +0.028 CG0ATOM     25  G   UNL     1      37.609  47.371  12.911 +0.00 +0.00    +0.000 G0 ENDBRANCH  23  24BRANCH  23  26ATOM     26  C   UNL     1      36.411  46.736  15.497 -0.36 -0.09    +0.118 C  BRANCH  26  27ATOM     27  C   UNL     1      35.399  46.792  14.323 -0.28 -0.10    +0.108 C  BRANCH  27  28ATOM     28  N   UNL     1      35.604  45.957  13.145 -0.22 +0.17    -0.315 NA ATOM     29  H   UNL     1      35.782  44.990  13.414 +0.08 -0.05    +0.122 HD BRANCH  28  30ATOM     30  C   UNL     1      36.619  46.437  12.222 -0.67 -0.03    +0.081 C  BRANCH  30  31ATOM     31  C   UNL     1      37.609  47.372  12.907 -0.60 -0.00    +0.017 CG0ATOM     32  G   UNL     1      38.479  46.725  13.978 +0.00 +0.00    +0.000 G0 ENDBRANCH  30  31ENDBRANCH  28  30ENDBRANCH  27  28ENDBRANCH  26  27BRANCH  26  33ATOM     33  N   UNL     1      35.753  46.109  16.653 -0.14 +0.27    -0.346 N  ATOM     34  C   UNL     1      35.123  44.890  16.567 -0.20 -0.14    +0.251 C  ATOM     35  H   UNL     1      36.007  46.494  17.558 +0.10 -0.11    +0.164 HD ATOM     36  O   UNL     1      34.983  44.291  15.505 -0.21 +0.13    -0.269 OA BRANCH  34  37ATOM     37  C   UNL     1      34.609  44.293  17.832 -0.28 -0.02    +0.042 A  ATOM     38  C   UNL     1      33.433  44.822  18.370 -0.37 -0.01    +0.034 A  ATOM     39  C   UNL     1      35.258  43.257  18.504 -0.33 -0.01    +0.034 A  ATOM     40  C   UNL     1      32.949  44.284  19.547 -0.35 -0.02    +0.112 A  ATOM     41  C   UNL     1      34.690  42.787  19.678 -0.35 -0.00    +0.112 A  ATOM     42  N   UNL     1      33.552  43.276  20.212 -0.75 -0.04    -0.265 NA ENDBRANCH  34  37ENDBRANCH  26  33ENDBRANCH  23  26ENDBRANCH   3  23TORSDOF 8TERENDMDL