MODEL        7USER    Run = 7USERUSER    Estimated Free Energy of Binding    =  -7.98 kcal/mol  [=(1)+(2)+(3)-(4)]USERUSER    (1) Final Intermolecular Energy     = -12.45 kcal/molUSER        vdW + Hbond + desolv Energy     = -12.24 kcal/molUSER        Electrostatic Energy            =  -0.31 kcal/molUSER        Moving Ligand-Fixed Receptor    = -12.55 kcal/molUSER        Moving Ligand-Moving Receptor   =  +0.10 kcal/molUSER    (2) Final Total Internal Energy     =  -3.98 kcal/molUSER    (3) Torsional Free Energy           =  +4.47 kcal/molUSER    (4) Unbound System's Energy         =  -3.98 kcal/molUSERUSERREMARK SMILES COc1ccc(O)c(C(=O)c2ccc(C(=O)N[C@@H]3[C@@H](C)CCNC[C@H]3NC(=O)c3cncc(C#N)c3)cc2)c1FREMARK SMILES IDX 15 1 16 2 17 3 14 5 11 6 12 7 38 8 13 9 37 10 9 11 10 12REMARK SMILES IDX 8 13 3 14 4 15 39 16 5 17 6 18 40 19 2 20 1 21 7 22 18 24REMARK SMILES IDX 19 25 20 26 25 28 24 29 23 30 22 32 21 33 26 35 27 36 28 38REMARK SMILES IDX 29 39 30 40 36 41 31 42 33 43 32 44 34 45 35 46REMARK H PARENT 17 4 7 23 23 31 26 37REMARK Flexibility Score:   88.900USER                              x       y       z     vdW  Elec       q    TypeUSER                           _______ _______ _______ _____ _____    ______ ____ROOTATOM      1  C   UNL     1      39.288  43.710  23.246 -0.16 +0.01    +0.251 C  ATOM      2  O   UNL     1      40.042  42.890  23.766 -0.17 -0.01    -0.269 OA ATOM      3  N   UNL     1      38.112  44.124  23.839 -0.11 -0.02    -0.347 N  ATOM      4  H   UNL     1      37.704  44.991  23.521 +0.07 +0.02    +0.164 HD ENDROOTBRANCH   1   5ATOM      5  C   UNL     1      39.648  44.321  21.929 -0.26 +0.00    +0.039 A  ATOM      6  C   UNL     1      40.459  45.438  19.487 -0.42 +0.00    +0.023 A  ATOM      7  C   UNL     1      41.235  44.443  20.089 -0.35 +0.00    +0.013 A  ATOM      8  C   UNL     1      39.254  45.842  20.075 -0.25 -0.00    +0.013 A  ATOM      9  C   UNL     1      40.834  43.894  21.308 -0.28 +0.00    +0.014 A  ATOM     10  C   UNL     1      38.847  45.282  21.292 -0.32 +0.00    +0.014 A  BRANCH   6  11ATOM     11  C   UNL     1      40.920  46.014  18.208 -0.41 -0.01    +0.199 C  ATOM     12  O   UNL     1      42.123  45.990  17.945 -0.21 +0.00    -0.288 OA BRANCH  11  13ATOM     13  C   UNL     1      39.992  46.586  17.206 -0.41 -0.02    +0.104 A  ATOM     14  C   UNL     1      37.910  46.516  15.934 -0.28 -0.07    +0.155 A  ATOM     15  C   UNL     1      38.275  47.696  15.278 -0.44 -0.03    +0.053 A  ATOM     16  C   UNL     1      38.773  45.976  16.899 -0.28 -0.05    +0.179 A  ATOM     17  C   UNL     1      39.475  48.337  15.606 -0.50 -0.02    +0.051 A  ATOM     18  C   UNL     1      40.317  47.791  16.571 -0.43 -0.03    +0.130 A  ATOM     19  F   UNL     1      38.393  44.863  17.549 -0.08 +0.04    -0.202 F  BRANCH  14  20ATOM     20  O   UNL     1      36.762  45.803  15.708 -0.04 +0.26    -0.494 OA ATOM     21  C   UNL     1      35.566  46.283  16.304 -0.20 -0.26    +0.278 C  ENDBRANCH  14  20BRANCH  18  22ATOM     22  O   UNL     1      41.459  48.498  16.849 -0.68 +0.01    -0.507 OA ATOM     23  H   UNL     1      42.207  47.859  16.912 -0.31 -0.03    +0.293 HD ENDBRANCH  18  22ENDBRANCH  11  13ENDBRANCH   6  11ENDBRANCH   1   5BRANCH   3  24ATOM     24  C   UNL     1      37.778  43.726  25.220 -0.27 +0.00    +0.109 C  BRANCH  24  25ATOM     25  C   UNL     1      36.347  43.141  25.311 -0.39 +0.00    +0.012 CG0ATOM     26  C   UNL     1      36.364  41.676  25.788 -0.40 -0.00    +0.010 C  ATOM     27  G   UNL     1      35.378  43.947  26.222 +0.00 +0.00    +0.000 G0 ENDBRANCH  24  25BRANCH  24  28ATOM     28  C   UNL     1      37.998  44.937  26.174 -0.24 -0.00    +0.118 C  BRANCH  28  29ATOM     29  C   UNL     1      38.090  44.573  27.673 -0.24 -0.01    +0.108 C  BRANCH  29  30ATOM     30  N   UNL     1      37.051  43.660  28.153 -0.17 +0.08    -0.315 NA ATOM     31  H   UNL     1      37.085  43.635  29.175 -0.34 -0.06    +0.122 HD BRANCH  30  32ATOM     32  C   UNL     1      35.685  43.966  27.724 -0.52 -0.02    +0.081 C  BRANCH  32  33ATOM     33  C   UNL     1      35.378  43.947  26.222 -0.14 -0.00    +0.021 CG0ATOM     34  G   UNL     1      36.346  43.141  25.311 +0.00 +0.00    +0.000 G0 ENDBRANCH  32  33ENDBRANCH  30  32ENDBRANCH  29  30ENDBRANCH  28  29BRANCH  28  35ATOM     35  N   UNL     1      39.170  45.715  25.757 -0.04 -0.01    -0.346 N  ATOM     36  C   UNL     1      39.092  46.719  24.823 -0.18 +0.02    +0.253 C  ATOM     37  H   UNL     1      40.056  45.444  26.180 +0.05 +0.00    +0.164 HD ATOM     38  O   UNL     1      38.056  47.005  24.230 -0.53 -0.06    -0.269 OA BRANCH  36  39ATOM     39  C   UNL     1      40.336  47.463  24.512 -0.23 +0.01    +0.059 A  ATOM     40  C   UNL     1      40.706  48.623  25.183 -0.24 +0.02    +0.124 A  ATOM     41  C   UNL     1      41.151  47.023  23.464 -0.22 +0.00    +0.036 A  ATOM     42  N   UNL     1      41.823  49.342  24.888 -0.29 -0.06    -0.263 NA ATOM     43  C   UNL     1      42.302  47.742  23.136 -0.28 +0.01    +0.071 A  ATOM     44  C   UNL     1      42.592  48.885  23.872 -0.31 +0.04    +0.130 A  BRANCH  43  45ATOM     45  C   UNL     1      43.160  47.329  22.074 -0.34 +0.02    +0.101 C  ATOM     46  N   UNL     1      43.856  46.980  21.214 -0.39 -0.10    -0.192 NA ENDBRANCH  43  45ENDBRANCH  36  39ENDBRANCH  28  35ENDBRANCH  24  28ENDBRANCH   3  24TORSDOF 9TERENDMDL