MODEL        8USER    Run = 8USERUSER    Estimated Free Energy of Binding    =  -7.85 kcal/mol  [=(1)+(2)+(3)-(4)]USERUSER    (1) Final Intermolecular Energy     = -11.72 kcal/molUSER        vdW + Hbond + desolv Energy     = -12.56 kcal/molUSER        Electrostatic Energy            =  -0.05 kcal/molUSER        Moving Ligand-Fixed Receptor    = -12.60 kcal/molUSER        Moving Ligand-Moving Receptor   =  +0.88 kcal/molUSER    (2) Final Total Internal Energy     =  -3.25 kcal/molUSER    (3) Torsional Free Energy           =  +3.88 kcal/molUSER    (4) Unbound System's Energy         =  -3.25 kcal/molUSERUSERREMARK SMILES O=C(N[C@H]1CNCCC[C@H]1NC(=O)c1ccncn1)c1ccc(C(=O)c2c(O)ccc3ncccc23)cc1REMARK SMILES IDX 1 1 2 2 3 3 20 5 21 6 38 7 22 8 37 9 23 10 24 11 25 12 26 13REMARK SMILES IDX 27 14 36 15 29 16 35 17 31 18 30 19 34 20 32 21 33 22 28 23REMARK SMILES IDX 4 25 5 26 6 27 7 29 8 30 10 32 9 33 11 35 12 36 13 38 14 39REMARK SMILES IDX 15 40 19 41 16 42 18 43 17 44REMARK H PARENT 3 4 28 24 6 28 11 37REMARK Flexibility Score:   88.900USER                              x       y       z     vdW  Elec       q    TypeUSER                           _______ _______ _______ _____ _____    ______ ____ROOTATOM      1  O   UNL     1      35.101  42.394  19.191 -0.28 +0.03    -0.269 OA ATOM      2  C   UNL     1      35.719  43.248  19.817 -0.31 -0.02    +0.251 C  ATOM      3  N   UNL     1      36.081  44.467  19.280 -0.15 +0.06    -0.346 N  ATOM      4  H   UNL     1      36.854  44.955  19.715 +0.10 -0.01    +0.164 HD ENDROOTBRANCH   2   5ATOM      5  C   UNL     1      36.152  42.985  21.219 -0.38 +0.00    +0.039 A  ATOM      6  C   UNL     1      36.751  44.029  21.935 -0.27 +0.00    +0.014 A  ATOM      7  C   UNL     1      35.998  41.731  21.825 -0.46 +0.00    +0.014 A  ATOM      8  C   UNL     1      37.161  43.834  23.257 -0.32 +0.00    +0.013 A  ATOM      9  C   UNL     1      36.408  41.534  23.148 -0.43 +0.00    +0.013 A  ATOM     10  C   UNL     1      36.970  42.593  23.873 -0.40 +0.00    +0.023 A  BRANCH  10  11ATOM     11  C   UNL     1      37.402  42.431  25.285 -0.28 -0.01    +0.197 C  ATOM     12  O   UNL     1      38.431  41.807  25.542 -0.17 -0.01    -0.288 OA BRANCH  11  13ATOM     13  C   UNL     1      36.581  42.913  26.419 -0.35 -0.01    +0.074 A  ATOM     14  C   UNL     1      35.712  41.983  27.005 -0.45 -0.03    +0.127 A  ATOM     15  C   UNL     1      36.639  44.249  26.905 -0.38 -0.00    +0.015 A  ATOM     16  C   UNL     1      34.836  42.378  28.000 -0.42 -0.02    +0.049 A  ATOM     17  C   UNL     1      37.555  45.238  26.476 -0.31 -0.00    +0.013 A  ATOM     18  C   UNL     1      35.731  44.640  27.916 -0.39 -0.02    +0.071 A  ATOM     19  C   UNL     1      34.847  43.704  28.433 -0.54 -0.01    +0.033 A  ATOM     20  C   UNL     1      37.512  46.524  26.998 -0.31 -0.00    +0.021 A  ATOM     21  N   UNL     1      35.684  45.885  28.417 -0.26 +0.07    -0.256 NA ATOM     22  C   UNL     1      36.561  46.798  27.955 -0.27 -0.03    +0.112 A  BRANCH  14  23ATOM     23  O   UNL     1      35.672  40.666  26.637 -0.15 +0.24    -0.507 OA ATOM     24  H   UNL     1      36.543  40.434  26.244 -0.29 -0.18    +0.293 HD ENDBRANCH  14  23ENDBRANCH  11  13ENDBRANCH  10  11ENDBRANCH   2   5BRANCH   3  25ATOM     25  C   UNL     1      35.960  44.717  17.834 -0.30 -0.04    +0.118 C  BRANCH  25  26ATOM     26  C   UNL     1      35.429  46.160  17.605 -0.36 -0.08    +0.108 C  BRANCH  26  27ATOM     27  N   UNL     1      36.203  46.949  16.640 -0.13 +0.30    -0.315 NA ATOM     28  H   UNL     1      35.944  47.934  16.723 -0.05 -0.21    +0.122 HD BRANCH  27  29ATOM     29  C   UNL     1      35.986  46.534  15.246 -0.37 -0.07    +0.081 C  BRANCH  29  30ATOM     30  C   UNL     1      36.140  45.046  14.919 -0.42 -0.01    +0.017 CG0ATOM     31  G   UNL     1      37.280  44.308  15.620 +0.00 +0.00    +0.000 G0 ENDBRANCH  29  30ENDBRANCH  27  29ENDBRANCH  26  27ENDBRANCH  25  26BRANCH  25  32ATOM     32  C   UNL     1      37.325  44.389  17.159 -0.32 -0.03    +0.106 C  BRANCH  32  33ATOM     33  C   UNL     1      37.287  44.315  15.625 -0.33 -0.01    +0.028 CG0ATOM     34  G   UNL     1      36.146  45.047  14.920 +0.00 +0.00    +0.000 G0 ENDBRANCH  32  33BRANCH  32  35ATOM     35  N   UNL     1      38.360  45.331  17.606 -0.16 +0.07    -0.346 N  ATOM     36  C   UNL     1      39.592  44.946  18.081 -0.25 -0.02    +0.270 C  ATOM     37  H   UNL     1      38.283  46.287  17.251 +0.10 -0.05    +0.164 HD ATOM     38  O   UNL     1      39.898  43.791  18.346 -0.22 +0.01    -0.268 OA BRANCH  36  39ATOM     39  C   UNL     1      40.574  46.066  18.248 -0.39 -0.01    +0.131 A  ATOM     40  C   UNL     1      41.527  45.986  19.241 -0.42 +0.00    +0.054 A  ATOM     41  N   UNL     1      40.456  47.107  17.387 -0.34 +0.03    -0.231 NA ATOM     42  C   UNL     1      42.380  47.056  19.320 -0.43 +0.01    +0.115 A  ATOM     43  C   UNL     1      41.346  48.089  17.565 -0.30 -0.02    +0.222 A  ATOM     44  N   UNL     1      42.310  48.121  18.498 -0.39 -0.00    -0.245 NA ENDBRANCH  36  39ENDBRANCH  32  35ENDBRANCH  25  32ENDBRANCH   3  25TORSDOF 7TERENDMDL