REMARK SMILES COc1cc(C(=O)c2ccc(C(=O)N[C@@H]3CCCNC[C@H]3NC(=O)c3ccncc3)cc2)c(O)cn1
REMARK SMILES IDX 12 1 13 2 14 3 11 5 8 6 9 7 32 8 10 9 31 10 6 11 7 12 5 13
REMARK SMILES IDX 3 14 4 15 36 16 35 17 33 18 2 19 1 20 34 21 15 23 16 24
REMARK SMILES IDX 21 26 20 27 19 28 18 30 17 31 22 33 23 34 24 36 25 37 26 38
REMARK SMILES IDX 30 39 27 40 29 41 28 42
REMARK H PARENT 14 4 34 22 19 29 22 35
REMARK Flexibility Score:   88.900
ROOT
ATOM      1  C   UNL     1      -0.912   1.163   1.058  1.00  0.00     0.251 C 
ATOM      2  O   UNL     1      -1.699   2.104   1.024  1.00  0.00    -0.269 OA
ATOM      3  N   UNL     1      -1.191  -0.034   1.679  1.00  0.00    -0.347 N 
ATOM      4  H   UNL     1      -0.536  -0.800   1.605  1.00  0.00     0.164 HD
ENDROOT
BRANCH   1   5
ATOM      5  C   UNL     1       0.406   1.272   0.382  1.00  0.00     0.039 A 
ATOM      6  C   UNL     1       2.881   1.572  -0.891  1.00  0.00     0.023 A 
ATOM      7  C   UNL     1       2.272   2.672  -0.277  1.00  0.00     0.013 A 
ATOM      8  C   UNL     1       2.232   0.331  -0.907  1.00  0.00     0.013 A 
ATOM      9  C   UNL     1       1.038   2.521   0.360  1.00  0.00     0.014 A 
ATOM     10  C   UNL     1       0.997   0.180  -0.268  1.00  0.00     0.014 A 
BRANCH   6  11
ATOM     11  C   UNL     1       4.179   1.776  -1.576  1.00  0.00     0.197 C 
ATOM     12  O   UNL     1       4.351   2.800  -2.235  1.00  0.00    -0.288 OA
BRANCH  11  13
ATOM     13  C   UNL     1       5.279   0.783  -1.515  1.00  0.00     0.071 A 
ATOM     14  C   UNL     1       6.458  -0.999  -0.454  1.00  0.00     0.213 A 
ATOM     15  C   UNL     1       5.410  -0.094  -0.437  1.00  0.00     0.084 A 
ATOM     16  N   UNL     1       7.367  -1.079  -1.447  1.00  0.00    -0.218 NA
ATOM     17  C   UNL     1       7.236  -0.199  -2.466  1.00  0.00     0.162 A 
ATOM     18  C   UNL     1       6.228   0.748  -2.539  1.00  0.00     0.145 A 
BRANCH  14  19
ATOM     19  O   UNL     1       6.535  -1.857   0.625  1.00  0.00    -0.481 OA
ATOM     20  C   UNL     1       7.656  -2.734   0.561  1.00  0.00     0.280 C 
ENDBRANCH  14  19
BRANCH  18  21
ATOM     21  O   UNL     1       6.216   1.596  -3.610  1.00  0.00    -0.506 OA
ATOM     22  H   UNL     1       5.566   2.312  -3.420  1.00  0.00     0.293 HD
ENDBRANCH  18  21
ENDBRANCH  11  13
ENDBRANCH   6  11
ENDBRANCH   1   5
BRANCH   3  23
ATOM     23  C   UNL     1      -2.490  -0.307   2.326  1.00  0.00     0.106 C 
BRANCH  23  24
ATOM     24  C   UNL     1      -2.252  -1.407   3.377  1.00  0.00     0.028 CG0
ATOM     25  G   UNL     1      -3.375  -1.642   4.381  1.00  0.00     0.000 G0
ENDBRANCH  23  24
BRANCH  23  26
ATOM     26  C   UNL     1      -3.582  -0.723   1.292  1.00  0.00     0.118 C 
BRANCH  26  27
ATOM     27  C   UNL     1      -5.029  -0.501   1.805  1.00  0.00     0.108 C 
BRANCH  27  28
ATOM     28  N   UNL     1      -5.351  -0.754   3.205  1.00  0.00    -0.315 NA
ATOM     29  H   UNL     1      -5.151   0.067   3.776  1.00  0.00     0.122 HD
BRANCH  28  30
ATOM     30  C   UNL     1      -4.739  -1.944   3.771  1.00  0.00     0.081 C 
BRANCH  30  31
ATOM     31  C   UNL     1      -3.375  -1.642   4.381  1.00  0.00     0.017 CG0
ATOM     32  G   UNL     1      -2.252  -1.407   3.377  1.00  0.00     0.000 G0
ENDBRANCH  30  31
ENDBRANCH  28  30
ENDBRANCH  27  28
ENDBRANCH  26  27
BRANCH  26  33
ATOM     33  N   UNL     1      -3.423  -0.007   0.017  1.00  0.00    -0.346 N 
ATOM     34  C   UNL     1      -3.850  -0.534  -1.179  1.00  0.00     0.251 C 
ATOM     35  H   UNL     1      -3.221   0.985   0.099  1.00  0.00     0.164 HD
ATOM     36  O   UNL     1      -4.301  -1.671  -1.278  1.00  0.00    -0.269 OA
BRANCH  34  37
ATOM     37  C   UNL     1      -3.757   0.338  -2.385  1.00  0.00     0.042 A 
ATOM     38  C   UNL     1      -4.472  -0.046  -3.522  1.00  0.00     0.034 A 
ATOM     39  C   UNL     1      -2.977   1.494  -2.430  1.00  0.00     0.034 A 
ATOM     40  C   UNL     1      -4.388   0.748  -4.650  1.00  0.00     0.112 A 
ATOM     41  C   UNL     1      -2.961   2.221  -3.609  1.00  0.00     0.112 A 
ATOM     42  N   UNL     1      -3.649   1.875  -4.717  1.00  0.00    -0.265 NA
ENDBRANCH  34  37
ENDBRANCH  26  33
ENDBRANCH  23  26
ENDBRANCH   3  23
TORSDOF 8
