REMARK SMILES COc1ccc(O)c(C(=O)c2ccc(C(=O)N[C@@H]3[C@@H](C)CCNC[C@H]3NC(=O)c3cncc(C#N)c3)cc2)c1F
REMARK SMILES IDX 15 1 16 2 17 3 14 5 11 6 12 7 38 8 13 9 37 10 9 11 10 12
REMARK SMILES IDX 8 13 3 14 4 15 39 16 5 17 6 18 40 19 2 20 1 21 7 22 18 24
REMARK SMILES IDX 19 25 20 26 25 28 24 29 23 30 22 32 21 33 26 35 27 36 28 38
REMARK SMILES IDX 29 39 30 40 36 41 31 42 33 43 32 44 34 45 35 46
REMARK H PARENT 17 4 7 23 23 31 26 37
REMARK Flexibility Score:   88.900
ROOT
ATOM      1  C   UNL     1      -1.106  -1.043   1.332  1.00  0.00     0.251 C 
ATOM      2  O   UNL     1      -1.996  -0.567   2.034  1.00  0.00    -0.269 OA
ATOM      3  N   UNL     1      -1.367  -1.846   0.239  1.00  0.00    -0.347 N 
ATOM      4  H   UNL     1      -0.638  -1.952  -0.452  1.00  0.00     0.164 HD
ENDROOT
BRANCH   1   5
ATOM      5  C   UNL     1       0.326  -0.735   1.634  1.00  0.00     0.039 A 
ATOM      6  C   UNL     1       2.972  -0.024   2.235  1.00  0.00     0.023 A 
ATOM      7  C   UNL     1       1.913   0.648   2.853  1.00  0.00     0.013 A 
ATOM      8  C   UNL     1       2.714  -1.084   1.356  1.00  0.00     0.013 A 
ATOM      9  C   UNL     1       0.597   0.299   2.547  1.00  0.00     0.014 A 
ATOM     10  C   UNL     1       1.394  -1.441   1.059  1.00  0.00     0.014 A 
BRANCH   6  11
ATOM     11  C   UNL     1       4.353   0.382   2.564  1.00  0.00     0.199 C 
ATOM     12  O   UNL     1       4.647   0.585   3.743  1.00  0.00    -0.288 OA
BRANCH  11  13
ATOM     13  C   UNL     1       5.414   0.519   1.540  1.00  0.00     0.104 A 
ATOM     14  C   UNL     1       6.133   0.996  -0.743  1.00  0.00     0.155 A 
ATOM     15  C   UNL     1       7.458   0.742  -0.375  1.00  0.00     0.053 A 
ATOM     16  C   UNL     1       5.123   0.888   0.224  1.00  0.00     0.179 A 
ATOM     17  C   UNL     1       7.766   0.410   0.950  1.00  0.00     0.051 A 
ATOM     18  C   UNL     1       6.752   0.314   1.899  1.00  0.00     0.130 A 
ATOM     19  F   UNL     1       3.859   1.172  -0.133  1.00  0.00    -0.202 F 
BRANCH  14  20
ATOM     20  O   UNL     1       5.709   1.336  -2.001  1.00  0.00    -0.494 OA
ATOM     21  C   UNL     1       6.705   1.580  -2.983  1.00  0.00     0.278 C 
ENDBRANCH  14  20
BRANCH  18  22
ATOM     22  O   UNL     1       7.145   0.011   3.177  1.00  0.00    -0.507 OA
ATOM     23  H   UNL     1       6.372   0.146   3.775  1.00  0.00     0.293 HD
ENDBRANCH  18  22
ENDBRANCH  11  13
ENDBRANCH   6  11
ENDBRANCH   1   5
BRANCH   3  24
ATOM     24  C   UNL     1      -2.746  -2.039  -0.248  1.00  0.00     0.109 C 
BRANCH  24  25
ATOM     25  C   UNL     1      -2.910  -3.403  -0.962  1.00  0.00     0.012 CG0
ATOM     26  C   UNL     1      -2.250  -4.543  -0.163  1.00  0.00     0.010 C 
ATOM     27  G   UNL     1      -4.383  -3.799  -1.265  1.00  0.00     0.000 G0
ENDBRANCH  24  25
BRANCH  24  28
ATOM     28  C   UNL     1      -3.150  -0.833  -1.148  1.00  0.00     0.118 C 
BRANCH  28  29
ATOM     29  C   UNL     1      -4.439  -1.043  -1.973  1.00  0.00     0.108 C 
BRANCH  29  30
ATOM     30  N   UNL     1      -5.590  -1.530  -1.210  1.00  0.00    -0.315 NA
ATOM     31  H   UNL     1      -6.425  -1.458  -1.796  1.00  0.00     0.122 HD
BRANCH  30  32
ATOM     32  C   UNL     1      -5.481  -2.895  -0.693  1.00  0.00     0.081 C 
BRANCH  32  33
ATOM     33  C   UNL     1      -4.383  -3.799  -1.265  1.00  0.00     0.021 CG0
ATOM     34  G   UNL     1      -2.910  -3.403  -0.962  1.00  0.00     0.000 G0
ENDBRANCH  32  33
ENDBRANCH  30  32
ENDBRANCH  29  30
ENDBRANCH  28  29
BRANCH  28  35
ATOM     35  N   UNL     1      -3.238   0.396  -0.352  1.00  0.00    -0.346 N 
ATOM     36  C   UNL     1      -2.959   1.634  -0.876  1.00  0.00     0.253 C 
ATOM     37  H   UNL     1      -3.490   0.273   0.628  1.00  0.00     0.164 HD
ATOM     38  O   UNL     1      -2.564   1.802  -2.026  1.00  0.00    -0.269 OA
BRANCH  36  39
ATOM     39  C   UNL     1      -3.123   2.808   0.014  1.00  0.00     0.059 A 
ATOM     40  C   UNL     1      -4.019   2.827   1.077  1.00  0.00     0.124 A 
ATOM     41  C   UNL     1      -2.393   3.972  -0.249  1.00  0.00     0.036 A 
ATOM     42  N   UNL     1      -4.213   3.906   1.882  1.00  0.00    -0.263 NA
ATOM     43  C   UNL     1      -2.573   5.097   0.558  1.00  0.00     0.071 A 
ATOM     44  C   UNL     1      -3.486   5.014   1.603  1.00  0.00     0.130 A 
BRANCH  43  45
ATOM     45  C   UNL     1      -1.850   6.304   0.325  1.00  0.00     0.101 C 
ATOM     46  N   UNL     1      -1.270   7.292   0.145  1.00  0.00    -0.192 NA
ENDBRANCH  43  45
ENDBRANCH  36  39
ENDBRANCH  28  35
ENDBRANCH  24  28
ENDBRANCH   3  24
TORSDOF 9
