REMARK SMILES O=C(N[C@H]1CNCCC[C@H]1NC(=O)c1ccncn1)c1ccc(C(=O)c2c(O)ccc3ncccc23)cc1
REMARK SMILES IDX 1 1 2 2 3 3 20 5 21 6 38 7 22 8 37 9 23 10 24 11 25 12 26 13
REMARK SMILES IDX 27 14 36 15 29 16 35 17 31 18 30 19 34 20 32 21 33 22 28 23
REMARK SMILES IDX 4 25 5 26 6 27 7 29 8 30 10 32 9 33 11 35 12 36 13 38 14 39
REMARK SMILES IDX 15 40 19 41 16 42 18 43 17 44
REMARK H PARENT 3 4 28 24 6 28 11 37
REMARK Flexibility Score:   88.900
ROOT
ATOM      1  O   UNL     1      -1.356  -2.643  -2.846  1.00  0.00    -0.269 OA
ATOM      2  C   UNL     1      -0.723  -2.217  -1.886  1.00  0.00     0.251 C 
ATOM      3  N   UNL     1      -1.156  -2.336  -0.581  1.00  0.00    -0.346 N 
ATOM      4  H   UNL     1      -0.775  -1.687   0.096  1.00  0.00     0.164 HD
ENDROOT
BRANCH   2   5
ATOM      5  C   UNL     1       0.566  -1.498  -2.095  1.00  0.00     0.039 A 
ATOM      6  C   UNL     1       0.810  -0.924  -3.349  1.00  0.00     0.014 A 
ATOM      7  C   UNL     1       1.538  -1.402  -1.090  1.00  0.00     0.014 A 
ATOM      8  C   UNL     1       1.999  -0.229  -3.588  1.00  0.00     0.013 A 
ATOM      9  C   UNL     1       2.729  -0.707  -1.328  1.00  0.00     0.013 A 
ATOM     10  C   UNL     1       2.950  -0.100  -2.571  1.00  0.00     0.023 A 
BRANCH  10  11
ATOM     11  C   UNL     1       4.193   0.662  -2.858  1.00  0.00     0.197 C 
ATOM     12  O   UNL     1       4.656   0.670  -3.998  1.00  0.00    -0.288 OA
BRANCH  11  13
ATOM     13  C   UNL     1       4.962   1.343  -1.791  1.00  0.00     0.074 A 
ATOM     14  C   UNL     1       6.335   1.070  -1.736  1.00  0.00     0.127 A 
ATOM     15  C   UNL     1       4.364   2.224  -0.847  1.00  0.00     0.015 A 
ATOM     16  C   UNL     1       7.107   1.583  -0.708  1.00  0.00     0.049 A 
ATOM     17  C   UNL     1       3.020   2.666  -0.875  1.00  0.00     0.013 A 
ATOM     18  C   UNL     1       5.164   2.733   0.202  1.00  0.00     0.071 A 
ATOM     19  C   UNL     1       6.508   2.396   0.255  1.00  0.00     0.033 A 
ATOM     20  C   UNL     1       2.527   3.511   0.111  1.00  0.00     0.021 A 
ATOM     21  N   UNL     1       4.686   3.544   1.160  1.00  0.00    -0.256 NA
ATOM     22  C   UNL     1       3.392   3.914   1.104  1.00  0.00     0.112 A 
BRANCH  14  23
ATOM     23  O   UNL     1       6.979   0.299  -2.664  1.00  0.00    -0.507 OA
ATOM     24  H   UNL     1       6.415   0.256  -3.467  1.00  0.00     0.293 HD
ENDBRANCH  14  23
ENDBRANCH  11  13
ENDBRANCH  10  11
ENDBRANCH   2   5
BRANCH   3  25
ATOM     25  C   UNL     1      -2.532  -2.767  -0.282  1.00  0.00     0.118 C 
BRANCH  25  26
ATOM     26  C   UNL     1      -2.536  -3.597   1.033  1.00  0.00     0.108 C 
BRANCH  26  27
ATOM     27  N   UNL     1      -2.985  -2.859   2.219  1.00  0.00    -0.315 NA
ATOM     28  H   UNL     1      -2.620  -3.313   3.058  1.00  0.00     0.122 HD
BRANCH  27  29
ATOM     29  C   UNL     1      -4.449  -2.788   2.337  1.00  0.00     0.081 C 
BRANCH  29  30
ATOM     30  C   UNL     1      -5.267  -2.849   1.043  1.00  0.00     0.017 CG0
ATOM     31  G   UNL     1      -4.940  -1.801  -0.020  1.00  0.00     0.000 G0
ENDBRANCH  29  30
ENDBRANCH  27  29
ENDBRANCH  26  27
ENDBRANCH  25  26
BRANCH  25  32
ATOM     32  C   UNL     1      -3.455  -1.512  -0.286  1.00  0.00     0.106 C 
BRANCH  32  33
ATOM     33  C   UNL     1      -4.940  -1.801  -0.020  1.00  0.00     0.028 CG0
ATOM     34  G   UNL     1      -5.267  -2.849   1.043  1.00  0.00     0.000 G0
ENDBRANCH  32  33
BRANCH  32  35
ATOM     35  N   UNL     1      -2.949  -0.498   0.649  1.00  0.00    -0.346 N 
ATOM     36  C   UNL     1      -3.175   0.852   0.510  1.00  0.00     0.270 C 
ATOM     37  H   UNL     1      -2.709  -0.829   1.586  1.00  0.00     0.164 HD
ATOM     38  O   UNL     1      -3.665   1.370  -0.485  1.00  0.00    -0.268 OA
BRANCH  36  39
ATOM     39  C   UNL     1      -2.782   1.676   1.698  1.00  0.00     0.131 A 
ATOM     40  C   UNL     1      -3.014   3.035   1.684  1.00  0.00     0.054 A 
ATOM     41  N   UNL     1      -2.211   1.011   2.733  1.00  0.00    -0.231 NA
ATOM     42  C   UNL     1      -2.620   3.707   2.812  1.00  0.00     0.115 A 
ATOM     43  C   UNL     1      -1.871   1.777   3.775  1.00  0.00     0.222 A 
ATOM     44  N   UNL     1      -2.043   3.104   3.869  1.00  0.00    -0.245 NA
ENDBRANCH  36  39
ENDBRANCH  32  35
ENDBRANCH  25  32
ENDBRANCH   3  25
TORSDOF 7
