MODEL        2USER    Run = 2USERUSER    Estimated Free Energy of Binding    =  -9.78 kcal/mol  [=(1)+(2)+(3)-(4)]USERUSER    (1) Final Intermolecular Energy     = -10.98 kcal/molUSER        vdW + Hbond + desolv Energy     = -10.98 kcal/molUSER        Electrostatic Energy            =  +0.00 kcal/molUSER        Moving Ligand-Fixed Receptor    = -10.98 kcal/molUSER        Moving Ligand-Moving Receptor   =  +0.00 kcal/molUSER    (2) Final Total Internal Energy     =  -0.98 kcal/molUSER    (3) Torsional Free Energy           =  +1.19 kcal/molUSER    (4) Unbound System's Energy         =  -0.98 kcal/molUSERUSERREMARK SMILES C1=C(NCc2ccccc2)NC2=CCN=C(c3cccc4cccnc34)C2=N1REMARK SMILES IDX 3 1 2 3 1 4 28 5 11 6 27 7 12 8 16 9 13 10 15 11 14 12 17 14REMARK SMILES IDX 18 15 26 16 19 17 25 18 21 19 20 20 24 21 22 22 23 23 4 24REMARK SMILES IDX 5 25 6 26 10 27 7 28 9 29 8 30REMARK H PARENT 3 2 11 13USER                              x       y       z     vdW  Elec       q    TypeUSER                           _______ _______ _______ _____ _____    ______ ____ROOTATOM      1  N   UNL     1      33.287  45.388  16.665 -0.09 +0.29    -0.366 N  ATOM      2  H   UNL     1      32.821  46.078  17.243 -0.09 -0.14    +0.162 HD ENDROOTBRANCH   1   3ATOM      3  C   UNL     1      34.427  45.878  16.067 -0.14 -0.13    +0.122 C  ATOM      4  C   UNL     1      35.429  46.508  16.733 -0.26 -0.16    +0.156 C  ATOM      5  N   UNL     1      36.589  47.009  16.167 -0.23 +0.21    -0.249 NA ATOM      6  N   UNL     1      34.568  45.731  14.703 -0.14 +0.29    -0.339 N  ATOM      7  C   UNL     1      36.711  46.832  14.879 -0.39 -0.07    +0.112 C  ATOM      8  C   UNL     1      35.653  46.216  14.020 -0.47 -0.04    +0.066 C  ATOM      9  C   UNL     1      37.964  47.294  14.170 -0.48 -0.04    +0.095 C  ATOM     10  C   UNL     1      35.838  46.242  12.699 -0.64 -0.01    +0.025 C  ATOM     11  N   UNL     1      38.070  47.351  12.885 -0.68 +0.05    -0.278 NA ATOM     12  C   UNL     1      37.005  46.867  12.017 -0.59 -0.06    +0.172 C  ATOM     13  H   UNL     1      33.845  45.244  14.199 +0.14 -0.11    +0.168 HD BRANCH   9  14ATOM     14  C   UNL     1      39.109  47.723  14.995 -0.49 -0.01    +0.028 A  ATOM     15  C   UNL     1      39.803  48.877  14.599 -0.45 -0.01    +0.013 A  ATOM     16  C   UNL     1      39.473  46.964  16.112 -0.41 -0.02    +0.080 A  ATOM     17  C   UNL     1      40.876  49.322  15.357 -0.66 -0.00    +0.001 A  ATOM     18  N   UNL     1      38.835  45.817  16.449 -0.20 +0.06    -0.256 NA ATOM     19  C   UNL     1      40.567  47.440  16.871 -0.53 -0.00    +0.001 A  ATOM     20  C   UNL     1      41.252  48.611  16.494 -0.48 -0.00    +0.010 A  ATOM     21  C   UNL     1      39.237  45.147  17.550 -0.26 -0.02    +0.112 A  ATOM     22  C   UNL     1      40.958  46.712  18.004 -0.51 -0.00    +0.012 A  ATOM     23  C   UNL     1      40.282  45.551  18.353 -0.45 -0.00    +0.021 A  ENDBRANCH   9  14ENDBRANCH   1   3BRANCH   1  24ATOM     24  C   UNL     1      33.080  44.024  17.117 -0.26 -0.06    +0.150 C  BRANCH  24  25ATOM     25  C   UNL     1      34.099  43.689  18.180 -0.30 +0.01    -0.029 A  ATOM     26  C   UNL     1      34.465  44.648  19.137 -0.40 -0.00    +0.005 A  ATOM     27  C   UNL     1      34.719  42.431  18.209 -0.40 -0.00    +0.005 A  ATOM     28  C   UNL     1      35.418  44.349  20.110 -0.33 -0.00    +0.000 A  ATOM     29  C   UNL     1      35.671  42.134  19.186 -0.34 -0.00    +0.000 A  ATOM     30  C   UNL     1      36.019  43.093  20.136 -0.44 -0.00    +0.000 A  ENDBRANCH  24  25ENDBRANCH   1  24TORSDOF 4TERENDMDL