MODEL        10USER    Run = 10USERUSER    Estimated Free Energy of Binding    = -10.45 kcal/mol  [=(1)+(2)+(3)-(4)]USERUSER    (1) Final Intermolecular Energy     = -11.94 kcal/molUSER        vdW + Hbond + desolv Energy     = -11.84 kcal/molUSER        Electrostatic Energy            =  -0.10 kcal/molUSER        Moving Ligand-Fixed Receptor    = -11.94 kcal/molUSER        Moving Ligand-Moving Receptor   =  +0.00 kcal/molUSER    (2) Final Total Internal Energy     =  -1.18 kcal/molUSER    (3) Torsional Free Energy           =  +1.49 kcal/molUSER    (4) Unbound System's Energy         =  -1.18 kcal/molUSERUSERREMARK SMILES Cc1cc(-c2nnc3ccc(-c4cnn(CC(=O)N5CCN(C)CC5)c4F)cn23)ccc1OREMARK SMILES IDX 5 1 6 2 7 3 8 4 9 5 10 6 11 7 28 8 29 9 4 10 2 11 3 12 32 13REMARK SMILES IDX 31 14 30 15 1 16 33 17 12 19 13 20 26 21 14 22 15 23 27 24REMARK SMILES IDX 16 25 17 26 19 27 20 28 25 29 21 30 24 31 22 32 18 33 23 34REMARK H PARENT 33 18USER                              x       y       z     vdW  Elec       q    TypeUSER                           _______ _______ _______ _____ _____    ______ ____ROOTATOM      1  C   UNL     1      39.809  47.787  15.914 -0.39 -0.05    +0.168 A  ATOM      2  N   UNL     1      40.883  48.523  15.671 -0.55 +0.02    -0.129 NA ATOM      3  N   UNL     1      41.730  48.441  16.751 -0.77 -0.01    -0.130 NA ATOM      4  C   UNL     1      41.182  47.631  17.626 -0.39 -0.02    +0.161 A  ATOM      5  C   UNL     1      41.600  47.176  18.902 -0.38 +0.00    +0.050 A  ATOM      6  C   UNL     1      40.841  46.289  19.573 -0.36 +0.00    +0.014 A  ATOM      7  C   UNL     1      39.579  45.759  19.032 -0.42 -0.00    +0.005 A  ATOM      8  C   UNL     1      39.194  46.223  17.824 -0.36 -0.02    +0.104 A  ATOM      9  N   UNL     1      39.974  47.158  17.139 -0.29 +0.06    -0.282 N  ENDROOTBRANCH   1  10ATOM     10  C   UNL     1      38.676  47.633  15.003 -0.48 -0.01    +0.020 A  ATOM     11  C   UNL     1      37.285  46.148  13.634 -0.47 +0.00    -0.009 A  ATOM     12  C   UNL     1      38.361  46.355  14.514 -0.41 -0.01    +0.019 A  ATOM     13  C   UNL     1      36.523  47.257  13.253 -0.50 -0.06    +0.118 A  ATOM     14  C   UNL     1      36.835  48.535  13.711 -0.47 -0.03    +0.047 A  ATOM     15  C   UNL     1      37.915  48.726  14.573 -0.46 -0.01    +0.016 A  ATOM     16  C   UNL     1      36.996  44.762  13.134 -0.47 -0.02    +0.048 C  BRANCH  13  17ATOM     17  O   UNL     1      35.448  47.165  12.417 -0.25 +0.34    -0.508 OA ATOM     18  H   UNL     1      34.631  47.154  12.939 -0.08 -0.26    +0.293 HD ENDBRANCH  13  17ENDBRANCH   1  10BRANCH   7  19ATOM     19  C   UNL     1      38.813  44.807  19.777 -0.34 -0.00    +0.058 A  ATOM     20  C   UNL     1      37.482  44.371  19.564 -0.27 -0.01    +0.147 A  ATOM     21  C   UNL     1      39.210  44.100  20.886 -0.11 +0.00    +0.219 A  ATOM     22  N   UNL     1      37.076  43.467  20.465 -0.27 +0.00    -0.178 NA ATOM     23  N   UNL     1      38.181  43.269  21.221 -0.13 -0.00    -0.230 N  ATOM     24  F   UNL     1      40.393  44.177  21.511 -0.06 -0.01    -0.185 F  BRANCH  23  25ATOM     25  C   UNL     1      38.151  42.343  22.336 -0.21 +0.02    +0.247 C  BRANCH  25  26ATOM     26  C   UNL     1      37.189  42.771  23.426 -0.30 +0.02    +0.244 C  ATOM     27  N   UNL     1      37.509  43.931  24.123 -0.14 -0.03    -0.339 N  ATOM     28  C   UNL     1      38.706  44.751  23.929 -0.22 +0.01    +0.135 C  ATOM     29  C   UNL     1      36.616  44.339  25.215 -0.24 +0.01    +0.135 C  ATOM     30  C   UNL     1      38.433  46.269  24.063 -0.29 +0.01    +0.105 C  ATOM     31  C   UNL     1      37.123  45.561  25.997 -0.32 -0.01    +0.105 C  ATOM     32  N   UNL     1      37.454  46.661  25.088 -0.74 -0.05    -0.303 NA ATOM     33  O   UNL     1      36.170  42.132  23.695 -0.34 -0.02    -0.273 OA ATOM     34  C   UNL     1      37.852  47.872  25.798 -0.35 +0.00    +0.105 C  ENDBRANCH  25  26ENDBRANCH  23  25ENDBRANCH   7  19TORSDOF 5TERENDMDL