MODEL        9USER    Run = 9USERUSER    Estimated Free Energy of Binding    = -10.22 kcal/mol  [=(1)+(2)+(3)-(4)]USERUSER    (1) Final Intermolecular Energy     = -12.00 kcal/molUSER        vdW + Hbond + desolv Energy     = -11.67 kcal/molUSER        Electrostatic Energy            =  -0.33 kcal/molUSER        Moving Ligand-Fixed Receptor    = -12.00 kcal/molUSER        Moving Ligand-Moving Receptor   =  +0.00 kcal/molUSER    (2) Final Total Internal Energy     =  -0.98 kcal/molUSER    (3) Torsional Free Energy           =  +1.79 kcal/molUSER    (4) Unbound System's Energy         =  -0.98 kcal/molUSERUSERREMARK SMILES CC(C)c1nnc2ccc(-c3ccc(Nc4cnc(N5CCOCC5)cn4)cc3O)cn12REMARK SMILES IDX 11 1 12 2 13 3 14 4 28 5 29 6 10 7 4 8 5 9 32 10 6 11 31 12REMARK SMILES IDX 7 13 8 14 9 15 2 16 1 17 3 18 30 19 15 21 16 23 17 24 27 25REMARK SMILES IDX 18 26 26 27 19 28 20 29 21 30 25 31 22 32 24 33 23 34REMARK H PARENT 30 20 15 22USER                              x       y       z     vdW  Elec       q    TypeUSER                           _______ _______ _______ _____ _____    ______ ____ROOTATOM      1  C   UNL     1      35.901  44.580  17.323 -0.30 -0.01    +0.025 A  ATOM      2  C   UNL     1      35.934  43.225  16.975 -0.36 -0.00    +0.015 A  ATOM      3  C   UNL     1      34.749  42.485  16.876 -0.42 -0.01    +0.027 A  ATOM      4  C   UNL     1      33.502  43.069  17.144 -0.31 -0.02    +0.043 A  ATOM      5  C   UNL     1      33.472  44.433  17.457 -0.27 -0.03    +0.072 A  ATOM      6  C   UNL     1      34.654  45.173  17.561 -0.26 -0.07    +0.125 A  ENDROOTBRANCH   1   7ATOM      7  C   UNL     1      37.174  45.322  17.428 -0.35 -0.00    +0.002 A  ATOM      8  C   UNL     1      39.239  47.912  15.760 -0.40 -0.05    +0.139 A  ATOM      9  N   UNL     1      40.405  48.277  16.262 -0.47 +0.03    -0.134 NA ATOM     10  N   UNL     1      38.685  46.938  16.567 -0.23 +0.11    -0.286 N  ATOM     11  N   UNL     1      40.638  47.543  17.402 -0.44 +0.02    -0.130 NA ATOM     12  C   UNL     1      37.484  46.237  16.483 -0.31 -0.05    +0.103 A  ATOM     13  C   UNL     1      39.609  46.748  17.583 -0.33 -0.03    +0.160 A  ATOM     14  C   UNL     1      39.300  45.789  18.583 -0.39 -0.01    +0.050 A  ATOM     15  C   UNL     1      38.139  45.108  18.512 -0.38 -0.00    +0.014 A  BRANCH   8  16ATOM     16  C   UNL     1      38.589  48.462  14.528 -0.55 -0.03    +0.052 C  ATOM     17  C   UNL     1      37.290  49.195  14.869 -0.51 -0.01    +0.016 C  ATOM     18  C   UNL     1      38.317  47.342  13.524 -0.51 -0.00    +0.016 C  ENDBRANCH   8  16ENDBRANCH   1   7BRANCH   6  19ATOM     19  O   UNL     1      34.589  46.500  17.896 -0.24 +0.46    -0.507 OA ATOM     20  H   UNL     1      34.062  46.961  17.222 -0.26 -0.57    +0.293 HD ENDBRANCH   6  19BRANCH   4  21ATOM     21  N   UNL     1      32.334  42.294  16.968 -0.10 +0.14    -0.339 N  ATOM     22  H   UNL     1      32.150  42.115  15.987 -0.45 -0.12    +0.168 HD BRANCH  21  23ATOM     23  C   UNL     1      31.860  41.210  17.745 -0.26 -0.04    +0.149 A  ATOM     24  C   UNL     1      32.409  40.999  19.012 -0.26 +0.00    +0.160 A  ATOM     25  N   UNL     1      30.915  40.365  17.292 -0.23 +0.04    -0.234 NA ATOM     26  N   UNL     1      32.042  39.995  19.852 -0.78 -0.07    -0.234 NA ATOM     27  C   UNL     1      30.545  39.365  18.138 -0.28 +0.02    +0.160 A  ATOM     28  C   UNL     1      31.096  39.144  19.405 -0.31 +0.02    +0.147 A  BRANCH  28  29ATOM     29  N   UNL     1      30.651  38.089  20.224 -0.18 -0.05    -0.351 N  ATOM     30  C   UNL     1      29.178  37.926  20.208 -0.29 +0.01    +0.146 C  ATOM     31  C   UNL     1      31.179  38.147  21.604 -0.45 +0.01    +0.146 C  ATOM     32  C   UNL     1      28.781  36.706  21.052 -0.25 -0.02    +0.181 C  ATOM     33  C   UNL     1      30.697  36.923  22.401 -0.39 +0.00    +0.181 C  ATOM     34  O   UNL     1      29.266  36.821  22.400 -0.17 -0.00    -0.378 OA ENDBRANCH  28  29ENDBRANCH  21  23ENDBRANCH   4  21TORSDOF 6TERENDMDL