REMARK SMILES Cc1cc(-c2nnc3ccc(-c4cnn(CC(=O)N5CCN(C)CC5)c4F)cn23)ccc1O
REMARK SMILES IDX 5 1 6 2 7 3 8 4 9 5 10 6 11 7 28 8 29 9 4 10 2 11 3 12 32 13
REMARK SMILES IDX 31 14 30 15 1 16 33 17 12 19 13 20 26 21 14 22 15 23 27 24
REMARK SMILES IDX 16 25 17 26 19 27 20 28 25 29 21 30 24 31 22 32 18 33 23 34
REMARK H PARENT 33 18
ROOT
ATOM      1  C   UNL     1      -5.142  -1.038   0.374  1.00  0.00     0.168 A 
ATOM      2  N   UNL     1      -6.218  -1.742   0.690  1.00  0.00    -0.129 NA
ATOM      3  N   UNL     1      -5.882  -2.652   1.664  1.00  0.00    -0.130 NA
ATOM      4  C   UNL     1      -4.615  -2.473   1.956  1.00  0.00     0.161 A 
ATOM      5  C   UNL     1      -3.745  -3.111   2.876  1.00  0.00     0.050 A 
ATOM      6  C   UNL     1      -2.476  -2.679   3.000  1.00  0.00     0.014 A 
ATOM      7  C   UNL     1      -1.943  -1.555   2.214  1.00  0.00     0.005 A 
ATOM      8  C   UNL     1      -2.786  -0.977   1.331  1.00  0.00     0.104 A 
ATOM      9  N   UNL     1      -4.096  -1.440   1.191  1.00  0.00    -0.282 N 
ENDROOT
BRANCH   1  10
ATOM     10  C   UNL     1      -5.100   0.020  -0.634  1.00  0.00     0.020 A 
ATOM     11  C   UNL     1      -6.163   1.988  -1.640  1.00  0.00    -0.009 A 
ATOM     12  C   UNL     1      -6.149   0.952  -0.691  1.00  0.00     0.019 A 
ATOM     13  C   UNL     1      -5.095   2.073  -2.538  1.00  0.00     0.118 A 
ATOM     14  C   UNL     1      -4.057   1.144  -2.511  1.00  0.00     0.047 A 
ATOM     15  C   UNL     1      -4.064   0.113  -1.571  1.00  0.00     0.016 A 
ATOM     16  C   UNL     1      -7.313   2.953  -1.662  1.00  0.00     0.048 C 
BRANCH  13  17
ATOM     17  O   UNL     1      -5.002   3.049  -3.488  1.00  0.00    -0.508 OA
ATOM     18  H   UNL     1      -5.796   3.605  -3.461  1.00  0.00     0.293 HD
ENDBRANCH  13  17
ENDBRANCH   1  10
BRANCH   7  19
ATOM     19  C   UNL     1      -0.590  -1.123   2.390  1.00  0.00     0.058 A 
ATOM     20  C   UNL     1       0.205  -1.135   3.563  1.00  0.00     0.147 A 
ATOM     21  C   UNL     1       0.246  -0.588   1.440  1.00  0.00     0.219 A 
ATOM     22  N   UNL     1       1.436  -0.646   3.367  1.00  0.00    -0.178 NA
ATOM     23  N   UNL     1       1.455  -0.384   2.039  1.00  0.00    -0.230 N 
ATOM     24  F   UNL     1      -0.046  -0.340   0.156  1.00  0.00    -0.185 F 
BRANCH  23  25
ATOM     25  C   UNL     1       2.639   0.177   1.419  1.00  0.00     0.247 C 
BRANCH  25  26
ATOM     26  C   UNL     1       3.297  -0.778   0.444  1.00  0.00     0.244 C 
ATOM     27  N   UNL     1       4.404  -0.301  -0.249  1.00  0.00    -0.339 N 
ATOM     28  C   UNL     1       4.966   1.047  -0.153  1.00  0.00     0.135 C 
ATOM     29  C   UNL     1       5.029  -1.193  -1.234  1.00  0.00     0.135 C 
ATOM     30  C   UNL     1       6.513   1.069  -0.215  1.00  0.00     0.105 C 
ATOM     31  C   UNL     1       6.165  -0.529  -2.028  1.00  0.00     0.105 C 
ATOM     32  N   UNL     1       7.136   0.096  -1.126  1.00  0.00    -0.303 NA
ATOM     33  O   UNL     1       2.881  -1.924   0.260  1.00  0.00    -0.273 OA
ATOM     34  C   UNL     1       8.279   0.658  -1.837  1.00  0.00     0.105 C 
ENDBRANCH  25  26
ENDBRANCH  23  25
ENDBRANCH   7  19
TORSDOF 5
