MODEL        1USER    Run = 1USERUSER    Estimated Free Energy of Binding    = -11.92 kcal/mol  [=(1)+(2)+(3)-(4)]USERUSER    (1) Final Intermolecular Energy     = -14.01 kcal/molUSER        vdW + Hbond + desolv Energy     = -13.73 kcal/molUSER        Electrostatic Energy            =  -0.28 kcal/molUSER        Moving Ligand-Fixed Receptor    = -14.01 kcal/molUSER        Moving Ligand-Moving Receptor   =  +0.00 kcal/molUSER    (2) Final Total Internal Energy     =  -1.57 kcal/molUSER    (3) Torsional Free Energy           =  +2.09 kcal/molUSER    (4) Unbound System's Energy         =  -1.57 kcal/molUSERUSERREMARK SMILES Oc1ccc(-c2nc3ccccc3nc2-c2ccc(CN3CCC(n4c(O)nc5ccccc54)CC3)cc2)cc1REMARK SMILES IDX 16 1 17 2 18 3 19 4 37 5 38 6 15 7 6 8 7 9 8 10 14 11 9 12REMARK SMILES IDX 13 13 10 14 12 15 11 16 5 17 2 18 3 19 40 20 4 21 39 22 1 23REMARK SMILES IDX 20 25 21 26 22 27 36 28 23 29 35 30 24 31 25 32 26 33 34 34REMARK SMILES IDX 28 35 33 36 29 37 32 38 30 39 31 40 27 41REMARK H PARENT 1 24 27 42USER                              x       y       z     vdW  Elec       q    TypeUSER                           _______ _______ _______ _____ _____    ______ ____ROOTATOM      1  C   UNL     1      38.808  45.421  23.996 -0.26 +0.00    +0.002 A  ATOM      2  C   UNL     1      38.152  45.035  22.814 -0.33 +0.00    +0.011 A  ATOM      3  C   UNL     1      38.852  44.449  21.753 -0.32 +0.00    +0.006 A  ATOM      4  C   UNL     1      40.237  44.262  21.828 -0.25 -0.00    -0.034 A  ATOM      5  C   UNL     1      40.906  44.659  22.991 -0.19 +0.00    +0.006 A  ATOM      6  C   UNL     1      40.201  45.228  24.056 -0.15 +0.00    +0.011 A  ENDROOTBRANCH   1   7ATOM      7  C   UNL     1      38.094  46.032  25.135 -0.25 +0.01    +0.097 A  ATOM      8  C   UNL     1      37.825  45.409  26.364 -0.24 -0.01    +0.097 A  ATOM      9  N   UNL     1      37.109  46.045  27.336 -0.22 +0.04    -0.244 NA ATOM     10  C   UNL     1      36.704  47.303  27.089 -0.25 -0.02    +0.089 A  ATOM     11  N   UNL     1      37.681  47.311  24.895 -0.63 -0.04    -0.244 NA ATOM     12  C   UNL     1      35.991  47.997  28.060 -0.33 -0.01    +0.030 A  ATOM     13  C   UNL     1      36.995  47.940  25.864 -0.37 -0.00    +0.089 A  ATOM     14  C   UNL     1      35.559  49.306  27.847 -0.28 -0.00    +0.002 A  ATOM     15  C   UNL     1      36.559  49.246  25.661 -0.47 -0.00    +0.030 A  ATOM     16  C   UNL     1      35.844  49.934  26.641 -0.34 +0.00    +0.002 A  BRANCH   8  17ATOM     17  C   UNL     1      38.278  44.064  26.759 -0.24 -0.00    +0.003 A  ATOM     18  C   UNL     1      39.106  41.482  27.502 -0.30 -0.01    +0.115 A  ATOM     19  C   UNL     1      39.974  42.555  27.657 -0.22 -0.00    +0.047 A  ATOM     20  C   UNL     1      37.826  41.671  26.993 -0.39 -0.01    +0.047 A  ATOM     21  C   UNL     1      39.561  43.839  27.292 -0.18 -0.00    +0.014 A  ATOM     22  C   UNL     1      37.415  42.958  26.630 -0.32 -0.00    +0.014 A  BRANCH  18  23ATOM     23  O   UNL     1      39.549  40.246  27.870 -0.33 -0.03    -0.508 OA ATOM     24  H   UNL     1      40.287  39.996  27.288 -0.31 -0.07    +0.293 HD ENDBRANCH  18  23ENDBRANCH   8  17ENDBRANCH   1   7BRANCH   4  25ATOM     25  C   UNL     1      40.990  43.642  20.670 -0.03 +0.01    +0.120 C  BRANCH  25  26ATOM     26  N   UNL     1      41.511  44.634  19.716 -0.16 -0.04    -0.299 NA ATOM     27  C   UNL     1      41.289  46.017  20.170 -0.38 +0.01    +0.087 C  ATOM     28  C   UNL     1      41.057  44.377  18.345 -0.25 +0.00    +0.087 C  ATOM     29  C   UNL     1      41.056  47.004  19.028 -0.32 -0.00    +0.041 C  ATOM     30  C   UNL     1      39.739  45.064  18.001 -0.42 -0.00    +0.041 C  ATOM     31  C   UNL     1      39.814  46.585  18.228 -0.41 -0.01    +0.095 C  BRANCH  31  32ATOM     32  N   UNL     1      39.656  47.355  17.001 -0.27 +0.08    -0.291 N  ATOM     33  C   UNL     1      40.560  48.229  16.467 -0.30 -0.06    +0.295 A  ATOM     34  C   UNL     1      38.579  47.314  16.138 -0.38 -0.03    +0.072 A  ATOM     35  N   UNL     1      40.169  48.752  15.338 -0.41 +0.06    -0.195 NA ATOM     36  C   UNL     1      37.363  46.615  16.137 -0.37 -0.02    +0.029 A  ATOM     37  C   UNL     1      38.933  48.196  15.115 -0.46 -0.04    +0.092 A  ATOM     38  C   UNL     1      36.496  46.842  15.063 -0.40 -0.00    +0.002 A  ATOM     39  C   UNL     1      38.051  48.405  14.044 -0.49 -0.01    +0.031 A  ATOM     40  C   UNL     1      36.832  47.717  14.030 -0.53 -0.00    +0.002 A  BRANCH  33  41ATOM     41  O   UNL     1      41.714  48.548  17.016 -0.66 -0.03    -0.480 OA ATOM     42  H   UNL     1      42.220  47.724  16.894 -0.33 -0.05    +0.296 HD ENDBRANCH  33  41ENDBRANCH  31  32ENDBRANCH  25  26ENDBRANCH   4  25TORSDOF 7TERENDMDL