REMARK SMILES CC(C)c1nnc2ccc(-c3ccc(Nc4cnc(N5CCOCC5)cn4)cc3O)cn12
REMARK SMILES IDX 11 1 12 2 13 3 14 4 28 5 29 6 10 7 4 8 5 9 32 10 6 11 31 12
REMARK SMILES IDX 7 13 8 14 9 15 2 16 1 17 3 18 30 19 15 21 16 23 17 24 27 25
REMARK SMILES IDX 18 26 26 27 19 28 20 29 21 30 25 31 22 32 24 33 23 34
REMARK H PARENT 30 20 15 22
ROOT
ATOM      1  C   UNL     1      -2.281   1.456   0.483  1.00  0.00     0.025 A 
ATOM      2  C   UNL     1      -1.846   2.729   0.095  1.00  0.00     0.015 A 
ATOM      3  C   UNL     1      -0.506   2.951  -0.245  1.00  0.00     0.027 A 
ATOM      4  C   UNL     1       0.441   1.918  -0.185  1.00  0.00     0.043 A 
ATOM      5  C   UNL     1      -0.006   0.640   0.168  1.00  0.00     0.072 A 
ATOM      6  C   UNL     1      -1.343   0.416   0.513  1.00  0.00     0.125 A 
ENDROOT
BRANCH   1   7
ATOM      7  C   UNL     1      -3.700   1.265   0.845  1.00  0.00     0.002 A 
ATOM      8  C   UNL     1      -6.794  -0.527  -0.142  1.00  0.00     0.139 A 
ATOM      9  N   UNL     1      -7.916  -0.366   0.536  1.00  0.00    -0.134 NA
ATOM     10  N   UNL     1      -5.806   0.251   0.429  1.00  0.00    -0.286 N 
ATOM     11  N   UNL     1      -7.685   0.526   1.557  1.00  0.00    -0.130 NA
ATOM     12  C   UNL     1      -4.464   0.434   0.102  1.00  0.00     0.103 A 
ATOM     13  C   UNL     1      -6.425   0.890   1.493  1.00  0.00     0.160 A 
ATOM     14  C   UNL     1      -5.637   1.768   2.282  1.00  0.00     0.050 A 
ATOM     15  C   UNL     1      -4.337   1.949   1.976  1.00  0.00     0.014 A 
BRANCH   8  16
ATOM     16  C   UNL     1      -6.591  -1.417  -1.329  1.00  0.00     0.052 C 
ATOM     17  C   UNL     1      -7.872  -1.532  -2.158  1.00  0.00     0.016 C 
ATOM     18  C   UNL     1      -6.123  -2.802  -0.882  1.00  0.00     0.016 C 
ENDBRANCH   8  16
ENDBRANCH   1   7
BRANCH   6  19
ATOM     19  O   UNL     1      -1.740  -0.843   0.881  1.00  0.00    -0.507 OA
ATOM     20  H   UNL     1      -0.948  -1.398   0.979  1.00  0.00     0.293 HD
ENDBRANCH   6  19
BRANCH   4  21
ATOM     21  N   UNL     1       1.766   2.183  -0.599  1.00  0.00    -0.339 N 
ATOM     22  H   UNL     1       1.958   3.179  -0.619  1.00  0.00     0.168 HD
BRANCH  21  23
ATOM     23  C   UNL     1       2.953   1.478  -0.289  1.00  0.00     0.149 A 
ATOM     24  C   UNL     1       4.127   1.804  -0.971  1.00  0.00     0.160 A 
ATOM     25  N   UNL     1       2.980   0.491   0.626  1.00  0.00    -0.234 NA
ATOM     26  N   UNL     1       5.329   1.202  -0.767  1.00  0.00    -0.234 NA
ATOM     27  C   UNL     1       4.186  -0.106   0.833  1.00  0.00     0.160 A 
ATOM     28  C   UNL     1       5.364   0.211   0.147  1.00  0.00     0.147 A 
BRANCH  28  29
ATOM     29  N   UNL     1       6.575  -0.450   0.427  1.00  0.00    -0.351 N 
ATOM     30  C   UNL     1       7.730   0.125  -0.302  1.00  0.00     0.146 C 
ATOM     31  C   UNL     1       6.500  -1.918   0.260  1.00  0.00     0.146 C 
ATOM     32  C   UNL     1       9.021  -0.591   0.121  1.00  0.00     0.181 C 
ATOM     33  C   UNL     1       7.843  -2.558   0.652  1.00  0.00     0.181 C 
ATOM     34  O   UNL     1       8.932  -2.008  -0.103  1.00  0.00    -0.378 OA
ENDBRANCH  28  29
ENDBRANCH  21  23
ENDBRANCH   4  21
TORSDOF 6
