MODEL        10USER    Run = 10USERUSER    Estimated Free Energy of Binding    =  -8.70 kcal/mol  [=(1)+(2)+(3)-(4)]USERUSER    (1) Final Intermolecular Energy     = -10.19 kcal/molUSER        vdW + Hbond + desolv Energy     = -10.16 kcal/molUSER        Electrostatic Energy            =  -0.02 kcal/molUSER        Moving Ligand-Fixed Receptor    = -10.19 kcal/molUSER        Moving Ligand-Moving Receptor   =  +0.00 kcal/molUSER    (2) Final Total Internal Energy     =  -1.56 kcal/molUSER    (3) Torsional Free Energy           =  +1.49 kcal/molUSER    (4) Unbound System's Energy         =  -1.56 kcal/molUSERUSERREMARK SMILES Cc1ncc2n1[C@]2(NS(=O)(=O)Cc1cc(F)ccc1F)c1ccccc1REMARK SMILES IDX 9 1 10 2 11 3 8 4 7 6 2 7 3 8 6 9 4 10 5 11 1 12 21 13 22 14REMARK SMILES IDX 26 15 23 16 25 17 24 18 12 19 13 20 14 21 19 22 15 23 18 24REMARK SMILES IDX 17 25 20 26 16 27REMARK H PARENT 8 5USER                              x       y       z     vdW  Elec       q    TypeUSER                           _______ _______ _______ _____ _____    ______ ____ROOTATOM      1  S   UNL     1      39.873  47.580  15.550 -0.55 -0.05    +0.218 S  ATOM      2  O   UNL     1      40.146  46.187  15.262 -0.38 +0.02    -0.212 OA ATOM      3  O   UNL     1      39.814  48.542  14.471 -0.44 +0.07    -0.212 OA ENDROOTBRANCH   1   4ATOM      4  N   UNL     1      38.390  47.695  16.337 -0.29 +0.10    -0.180 NA ATOM      5  H   UNL     1      38.072  48.667  16.363 +0.09 -0.12    +0.144 HD BRANCH   4   6ATOM      6  C   UNL     1      37.354  46.729  15.914 -0.33 -0.10    +0.178 C  ATOM      7  C   UNL     1      35.525  45.855  17.732 -0.30 -0.06    +0.108 A  ATOM      8  N   UNL     1      35.902  44.677  18.139 -0.17 +0.07    -0.241 NA ATOM      9  N   UNL     1      36.316  46.437  16.815 -0.19 +0.21    -0.299 N  ATOM     10  C   UNL     1      37.021  44.438  17.433 -0.25 -0.04    +0.139 A  ATOM     11  C   UNL     1      37.387  45.444  16.600 -0.30 -0.03    +0.087 A  ATOM     12  C   UNL     1      34.312  46.573  18.207 -0.51 -0.07    +0.088 C  BRANCH   6  13ATOM     13  C   UNL     1      37.054  46.672  14.424 -0.43 +0.00    -0.000 A  ATOM     14  C   UNL     1      36.698  47.814  13.683 -0.56 -0.00    +0.008 A  ATOM     15  C   UNL     1      37.159  45.460  13.712 -0.45 -0.00    +0.008 A  ATOM     16  C   UNL     1      36.444  47.750  12.310 -0.67 -0.00    +0.000 A  ATOM     17  C   UNL     1      36.907  45.389  12.339 -0.57 -0.00    +0.000 A  ATOM     18  C   UNL     1      36.546  46.535  11.640 -0.65 -0.00    +0.000 A  ENDBRANCH   6  13ENDBRANCH   4   6ENDBRANCH   1   4BRANCH   1  19ATOM     19  C   UNL     1      41.043  48.148  16.794 -0.46 -0.02    +0.192 C  BRANCH  19  20ATOM     20  C   UNL     1      41.101  47.186  17.948 -0.53 -0.00    +0.007 A  ATOM     21  C   UNL     1      40.093  46.231  18.151 -0.44 -0.00    +0.047 A  ATOM     22  C   UNL     1      42.173  47.221  18.846 -0.45 +0.01    +0.127 A  ATOM     23  C   UNL     1      40.177  45.347  19.226 -0.35 -0.00    +0.123 A  ATOM     24  C   UNL     1      42.254  46.335  19.920 -0.37 +0.01    +0.042 A  ATOM     25  C   UNL     1      41.248  45.391  20.111 -0.36 +0.00    +0.042 A  ATOM     26  F   UNL     1      43.146  48.127  18.687 -0.20 -0.00    -0.207 F  ATOM     27  F   UNL     1      39.208  44.441  19.409 -0.09 +0.01    -0.207 F  ENDBRANCH  19  20ENDBRANCH   1  19TORSDOF 5TERENDMDL