REMARK SMILES Cc1ncc2n1[C@]2(NS(=O)(=O)Cc1cc(F)ccc1F)c1cccc(F)c1
REMARK SMILES IDX 8 1 7 3 2 4 3 5 6 6 4 7 5 8 1 9 21 10 22 11 27 12 23 13
REMARK SMILES IDX 25 14 24 15 26 16 9 17 10 18 11 19 12 20 13 21 14 22 19 23
REMARK SMILES IDX 15 24 18 25 17 26 20 27 16 28
REMARK H PARENT 8 2
ROOT
ATOM      1  N   UNL     1       0.300   0.841   1.563  1.00  0.00    -0.180 NA
ATOM      2  H   UNL     1       0.431   0.341   2.443  1.00  0.00     0.144 HD
ENDROOT
BRANCH   1   3
ATOM      3  C   UNL     1       1.338   0.667   0.535  1.00  0.00     0.178 C 
ATOM      4  C   UNL     1       3.151   2.660   0.101  1.00  0.00     0.108 A 
ATOM      5  N   UNL     1       2.914   3.151  -1.081  1.00  0.00    -0.241 NA
ATOM      6  N   UNL     1       2.323   1.679   0.505  1.00  0.00    -0.299 N 
ATOM      7  C   UNL     1       1.790   2.521  -1.464  1.00  0.00     0.139 A 
ATOM      8  C   UNL     1       1.369   1.556  -0.610  1.00  0.00     0.087 A 
ATOM      9  C   UNL     1       4.243   3.114   1.002  1.00  0.00     0.088 C 
BRANCH   3  10
ATOM     10  C   UNL     1       1.869  -0.751   0.358  1.00  0.00     0.003 A 
ATOM     11  C   UNL     1       1.720  -1.479  -0.842  1.00  0.00     0.008 A 
ATOM     12  C   UNL     1       2.530  -1.406   1.416  1.00  0.00     0.047 A 
ATOM     13  C   UNL     1       2.199  -2.787  -0.979  1.00  0.00     0.003 A 
ATOM     14  C   UNL     1       3.004  -2.708   1.274  1.00  0.00     0.123 A 
ATOM     15  C   UNL     1       2.843  -3.405   0.087  1.00  0.00     0.039 A 
ATOM     16  F   UNL     1       3.624  -3.295   2.306  1.00  0.00    -0.207 F 
ENDBRANCH   3  10
ENDBRANCH   1   3
BRANCH   1  17
ATOM     17  S   UNL     1      -1.316   0.967   1.139  1.00  0.00     0.218 S 
ATOM     18  O   UNL     1      -2.021   0.716   2.381  1.00  0.00    -0.212 OA
ATOM     19  O   UNL     1      -1.496   2.204   0.415  1.00  0.00    -0.212 OA
BRANCH  17  20
ATOM     20  C   UNL     1      -1.598  -0.438   0.046  1.00  0.00     0.192 C 
BRANCH  20  21
ATOM     21  C   UNL     1      -3.054  -0.476  -0.328  1.00  0.00     0.007 A 
ATOM     22  C   UNL     1      -4.002  -1.118   0.481  1.00  0.00     0.047 A 
ATOM     23  C   UNL     1      -3.494   0.157  -1.496  1.00  0.00     0.127 A 
ATOM     24  C   UNL     1      -5.346  -1.117   0.111  1.00  0.00     0.123 A 
ATOM     25  C   UNL     1      -4.838   0.157  -1.863  1.00  0.00     0.042 A 
ATOM     26  C   UNL     1      -5.772  -0.486  -1.053  1.00  0.00     0.042 A 
ATOM     27  F   UNL     1      -2.605   0.763  -2.295  1.00  0.00    -0.207 F 
ATOM     28  F   UNL     1      -6.242  -1.737   0.889  1.00  0.00    -0.207 F 
ENDBRANCH  20  21
ENDBRANCH  17  20
ENDBRANCH   1  17
TORSDOF 5
