MODEL        5USER    Run = 5USERUSER    Estimated Free Energy of Binding    =  -8.51 kcal/mol  [=(1)+(2)+(3)-(4)]USERUSER    (1) Final Intermolecular Energy     = -10.00 kcal/molUSER        vdW + Hbond + desolv Energy     =  -9.96 kcal/molUSER        Electrostatic Energy            =  -0.05 kcal/molUSER        Moving Ligand-Fixed Receptor    = -10.00 kcal/molUSER        Moving Ligand-Moving Receptor   =  +0.00 kcal/molUSER    (2) Final Total Internal Energy     =  -1.24 kcal/molUSER    (3) Torsional Free Energy           =  +1.49 kcal/molUSER    (4) Unbound System's Energy         =  -1.24 kcal/molUSERUSERREMARK SMILES Cc1ncc2n1[C@@]2(NS(=O)(=O)Cc1cc(F)ccc1F)c1ccc(F)cc1REMARK SMILES IDX 8 1 7 3 2 4 3 5 6 6 4 7 5 8 1 9 21 10 22 11 27 12 23 13REMARK SMILES IDX 26 14 24 15 25 16 9 17 10 18 11 19 12 20 13 21 14 22 19 23REMARK SMILES IDX 15 24 18 25 17 26 20 27 16 28REMARK H PARENT 8 2USER                              x       y       z     vdW  Elec       q    TypeUSER                           _______ _______ _______ _____ _____    ______ ____ROOTATOM      1  N   UNL     1      35.233  46.490  13.599 -0.37 +0.13    -0.180 NA ATOM      2  H   UNL     1      34.453  46.872  13.065 -0.27 -0.13    +0.144 HD ENDROOTBRANCH   1   3ATOM      3  C   UNL     1      34.907  45.921  14.916 -0.28 -0.16    +0.178 C  ATOM      4  C   UNL     1      35.856  44.102  16.394 -0.28 -0.04    +0.108 A  ATOM      5  N   UNL     1      35.947  44.575  17.614 -0.15 +0.08    -0.241 NA ATOM      6  N   UNL     1      35.937  45.126  15.502 -0.14 +0.16    -0.299 N  ATOM      7  C   UNL     1      36.062  45.925  17.428 -0.26 -0.08    +0.139 A  ATOM      8  C   UNL     1      35.759  46.344  16.149 -0.29 -0.08    +0.087 A  ATOM      9  C   UNL     1      35.780  42.683  15.986 -0.41 -0.03    +0.088 C  BRANCH   3  10ATOM     10  C   UNL     1      33.455  45.519  15.145 -0.27 -0.00    +0.000 A  ATOM     11  C   UNL     1      33.032  44.809  16.288 -0.32 -0.01    +0.011 A  ATOM     12  C   UNL     1      32.461  45.874  14.208 -0.28 -0.01    +0.011 A  ATOM     13  C   UNL     1      31.690  44.471  16.485 -0.29 -0.01    +0.039 A  ATOM     14  C   UNL     1      31.118  45.539  14.402 -0.48 -0.03    +0.039 A  ATOM     15  C   UNL     1      30.745  44.840  15.541 -0.29 -0.06    +0.123 A  ATOM     16  F   UNL     1      29.459  44.520  15.729 -0.06 +0.10    -0.207 F  ENDBRANCH   3  10ENDBRANCH   1   3BRANCH   1  17ATOM     17  S   UNL     1      36.636  47.383  13.383 -0.63 -0.11    +0.218 S  ATOM     18  O   UNL     1      36.559  48.400  14.413 -0.42 +0.18    -0.212 OA ATOM     19  O   UNL     1      36.724  47.741  11.986 -1.13 +0.07    -0.212 OA BRANCH  17  20ATOM     20  C   UNL     1      37.960  46.241  13.823 -0.35 -0.06    +0.192 C  BRANCH  20  21ATOM     21  C   UNL     1      38.908  46.939  14.758 -0.45 -0.00    +0.007 A  ATOM     22  C   UNL     1      39.477  48.179  14.432 -0.45 -0.01    +0.047 A  ATOM     23  C   UNL     1      39.256  46.345  15.976 -0.34 -0.03    +0.127 A  ATOM     24  C   UNL     1      40.366  48.788  15.317 -0.50 -0.03    +0.123 A  ATOM     25  C   UNL     1      40.145  46.955  16.858 -0.47 -0.01    +0.042 A  ATOM     26  C   UNL     1      40.705  48.187  16.526 -0.52 -0.01    +0.042 A  ATOM     27  F   UNL     1      38.713  45.169  16.317 -0.05 +0.05    -0.207 F  ATOM     28  F   UNL     1      40.902  49.973  14.998 -0.20 +0.07    -0.207 F  ENDBRANCH  20  21ENDBRANCH  17  20ENDBRANCH   1  17TORSDOF 5TERENDMDL