REMARK SMILES Cc1ncc2n1[C@]2(NS(=O)(=O)Cc1cc(F)ccc1F)c1ccccc1
REMARK SMILES IDX 9 1 10 2 11 3 8 4 7 6 2 7 3 8 6 9 4 10 5 11 1 12 21 13 22 14
REMARK SMILES IDX 26 15 23 16 25 17 24 18 12 19 13 20 14 21 19 22 15 23 18 24
REMARK SMILES IDX 17 25 20 26 16 27
REMARK H PARENT 8 5
ROOT
ATOM      1  S   UNL     1       0.598   0.944  -1.481  1.00  0.00     0.218 S 
ATOM      2  O   UNL     1      -0.670   0.865  -2.177  1.00  0.00    -0.212 OA
ATOM      3  O   UNL     1       1.438   2.112  -1.642  1.00  0.00    -0.212 OA
ENDROOT
BRANCH   1   4
ATOM      4  N   UNL     1       0.322   0.814   0.174  1.00  0.00    -0.180 NA
ATOM      5  H   UNL     1       0.819   1.551   0.680  1.00  0.00     0.144 HD
BRANCH   4   6
ATOM      6  C   UNL     1      -1.088   0.641   0.585  1.00  0.00     0.178 C 
ATOM      7  C   UNL     1      -2.768   2.783   0.514  1.00  0.00     0.108 A 
ATOM      8  N   UNL     1      -2.879   3.241   1.728  1.00  0.00    -0.241 NA
ATOM      9  N   UNL     1      -1.975   1.709   0.365  1.00  0.00    -0.299 N 
ATOM     10  C   UNL     1      -2.118   2.404   2.455  1.00  0.00     0.139 A 
ATOM     11  C   UNL     1      -1.500   1.434   1.735  1.00  0.00     0.087 A 
ATOM     12  C   UNL     1      -3.443   3.360  -0.679  1.00  0.00     0.088 C 
BRANCH   6  13
ATOM     13  C   UNL     1      -1.637  -0.776   0.532  1.00  0.00    -0.000 A 
ATOM     14  C   UNL     1      -2.515  -1.206  -0.481  1.00  0.00     0.008 A 
ATOM     15  C   UNL     1      -1.252  -1.736   1.489  1.00  0.00     0.008 A 
ATOM     16  C   UNL     1      -2.996  -2.518  -0.528  1.00  0.00     0.000 A 
ATOM     17  C   UNL     1      -1.729  -3.049   1.447  1.00  0.00     0.000 A 
ATOM     18  C   UNL     1      -2.604  -3.438   0.439  1.00  0.00     0.000 A 
ENDBRANCH   6  13
ENDBRANCH   4   6
ENDBRANCH   1   4
BRANCH   1  19
ATOM     19  C   UNL     1       1.552  -0.535  -1.855  1.00  0.00     0.192 C 
BRANCH  19  20
ATOM     20  C   UNL     1       2.818  -0.569  -1.045  1.00  0.00     0.007 A 
ATOM     21  C   UNL     1       3.960   0.139  -1.448  1.00  0.00     0.047 A 
ATOM     22  C   UNL     1       2.881  -1.311   0.140  1.00  0.00     0.127 A 
ATOM     23  C   UNL     1       5.118   0.094  -0.673  1.00  0.00     0.123 A 
ATOM     24  C   UNL     1       4.040  -1.354   0.913  1.00  0.00     0.042 A 
ATOM     25  C   UNL     1       5.168  -0.646   0.503  1.00  0.00     0.042 A 
ATOM     26  F   UNL     1       1.812  -2.007   0.547  1.00  0.00    -0.207 F 
ATOM     27  F   UNL     1       6.201   0.774  -1.069  1.00  0.00    -0.207 F 
ENDBRANCH  19  20
ENDBRANCH   1  19
TORSDOF 5
