REMARK SMILES Cc1ncc2n1[C@@]2(NS(=O)(=O)Cc1cc(F)ccc1F)c1ccc(F)cc1
REMARK SMILES IDX 8 1 7 3 2 4 3 5 6 6 4 7 5 8 1 9 21 10 22 11 27 12 23 13
REMARK SMILES IDX 26 14 24 15 25 16 9 17 10 18 11 19 12 20 13 21 14 22 19 23
REMARK SMILES IDX 15 24 18 25 17 26 20 27 16 28
REMARK H PARENT 8 2
ROOT
ATOM      1  N   UNL     1       0.035   1.117   1.569  1.00  0.00    -0.180 NA
ATOM      2  H   UNL     1      -0.083   0.645   2.465  1.00  0.00     0.144 HD
ENDROOT
BRANCH   1   3
ATOM      3  C   UNL     1      -1.082   1.004   0.618  1.00  0.00     0.178 C 
ATOM      4  C   UNL     1      -3.117   2.387   0.035  1.00  0.00     0.108 A 
ATOM      5  N   UNL     1      -3.185   2.479  -1.272  1.00  0.00    -0.241 NA
ATOM      6  N   UNL     1      -1.822   2.207   0.411  1.00  0.00    -0.299 N 
ATOM      7  C   UNL     1      -1.887   2.324  -1.674  1.00  0.00     0.139 A 
ATOM      8  C   UNL     1      -1.046   1.852  -0.687  1.00  0.00     0.087 A 
ATOM      9  C   UNL     1      -4.222   2.548   1.004  1.00  0.00     0.088 C 
BRANCH   3  10
ATOM     10  C   UNL     1      -1.827  -0.325   0.596  1.00  0.00     0.000 A 
ATOM     11  C   UNL     1      -1.844  -1.170  -0.533  1.00  0.00     0.011 A 
ATOM     12  C   UNL     1      -2.520  -0.773   1.741  1.00  0.00     0.011 A 
ATOM     13  C   UNL     1      -2.517  -2.395  -0.521  1.00  0.00     0.039 A 
ATOM     14  C   UNL     1      -3.193  -1.998   1.758  1.00  0.00     0.039 A 
ATOM     15  C   UNL     1      -3.185  -2.798   0.625  1.00  0.00     0.123 A 
ATOM     16  F   UNL     1      -3.828  -3.972   0.640  1.00  0.00    -0.207 F 
ENDBRANCH   3  10
ENDBRANCH   1   3
BRANCH   1  17
ATOM     17  S   UNL     1       1.621   1.044   1.029  1.00  0.00     0.218 S 
ATOM     18  O   UNL     1       2.381   0.755   2.229  1.00  0.00    -0.212 OA
ATOM     19  O   UNL     1       1.880   2.233   0.250  1.00  0.00    -0.212 OA
BRANCH  17  20
ATOM     20  C   UNL     1       1.663  -0.418  -0.025  1.00  0.00     0.192 C 
BRANCH  20  21
ATOM     21  C   UNL     1       3.074  -0.631  -0.498  1.00  0.00     0.007 A 
ATOM     22  C   UNL     1       4.000  -1.358   0.264  1.00  0.00     0.047 A 
ATOM     23  C   UNL     1       3.496  -0.082  -1.714  1.00  0.00     0.127 A 
ATOM     24  C   UNL     1       5.305  -1.520  -0.199  1.00  0.00     0.123 A 
ATOM     25  C   UNL     1       4.801  -0.245  -2.174  1.00  0.00     0.042 A 
ATOM     26  C   UNL     1       5.713  -0.970  -1.410  1.00  0.00     0.042 A 
ATOM     27  F   UNL     1       2.626   0.603  -2.468  1.00  0.00    -0.207 F 
ATOM     28  F   UNL     1       6.180  -2.219   0.535  1.00  0.00    -0.207 F 
ENDBRANCH  20  21
ENDBRANCH  17  20
ENDBRANCH   1  17
TORSDOF 5
