MODEL        7USER    Run = 7USERUSER    Estimated Free Energy of Binding    =  -9.93 kcal/mol  [=(1)+(2)+(3)-(4)]USERUSER    (1) Final Intermolecular Energy     = -11.42 kcal/molUSER        vdW + Hbond + desolv Energy     = -11.39 kcal/molUSER        Electrostatic Energy            =  -0.02 kcal/molUSER        Moving Ligand-Fixed Receptor    = -11.42 kcal/molUSER        Moving Ligand-Moving Receptor   =  +0.00 kcal/molUSER    (2) Final Total Internal Energy     =  -1.37 kcal/molUSER    (3) Torsional Free Energy           =  +1.49 kcal/molUSER    (4) Unbound System's Energy         =  -1.37 kcal/molUSERUSERREMARK SMILES Cc1ncc2n1[C@]2(NS(=O)(=O)Cc1cc(Cl)ccc1Cl)c1ccccc1REMARK SMILES IDX 9 1 10 2 11 3 8 4 7 6 2 7 3 8 6 9 4 10 5 11 1 12 21 13 22 14REMARK SMILES IDX 26 15 23 16 25 17 24 18 12 19 13 20 14 21 19 22 15 23 18 24REMARK SMILES IDX 17 25 20 26 16 27REMARK H PARENT 8 5USER                              x       y       z     vdW  Elec       q    TypeUSER                           _______ _______ _______ _____ _____    ______ ____ROOTATOM      1  S   UNL     1      40.632  46.947  17.483 -0.55 -0.03    +0.218 S  ATOM      2  O   UNL     1      41.737  47.810  17.842 -0.57 +0.01    -0.212 OA ATOM      3  O   UNL     1      39.272  47.352  17.772 -0.27 +0.06    -0.212 OA ENDROOTBRANCH   1   4ATOM      4  N   UNL     1      40.670  46.666  15.822 -0.33 +0.01    -0.180 NA ATOM      5  H   UNL     1      40.233  45.764  15.613 +0.10 -0.01    +0.144 HD BRANCH   4   6ATOM      6  C   UNL     1      40.143  47.764  14.975 -0.45 -0.04    +0.178 C  ATOM      7  C   UNL     1      41.826  49.715  14.091 -0.56 -0.02    +0.108 A  ATOM      8  N   UNL     1      41.665  50.756  14.858 -0.48 +0.06    -0.241 NA ATOM      9  N   UNL     1      41.059  48.652  14.383 -0.29 +0.04    -0.299 N  ATOM     10  C   UNL     1      40.711  50.370  15.723 -0.40 -0.06    +0.139 A  ATOM     11  C   UNL     1      40.268  49.100  15.544 -0.53 -0.03    +0.087 A  ATOM     12  C   UNL     1      42.779  49.634  12.953 -0.57 -0.02    +0.088 C  BRANCH   6  13ATOM     13  C   UNL     1      38.842  47.479  14.244 -0.48 +0.00    -0.000 A  ATOM     14  C   UNL     1      38.441  46.172  13.906 -0.36 -0.00    +0.008 A  ATOM     15  C   UNL     1      37.959  48.523  13.901 -0.47 -0.00    +0.008 A  ATOM     16  C   UNL     1      37.233  45.922  13.249 -0.50 -0.00    +0.000 A  ATOM     17  C   UNL     1      36.750  48.279  13.244 -0.55 -0.00    +0.000 A  ATOM     18  C   UNL     1      36.389  46.976  12.917 -0.63 -0.00    +0.000 A  ENDBRANCH   6  13ENDBRANCH   4   6ENDBRANCH   1   4BRANCH   1  19ATOM     19  C   UNL     1      40.930  45.318  18.188 -0.37 +0.00    +0.191 C  BRANCH  19  20ATOM     20  C   UNL     1      40.114  45.116  19.442 -0.42 +0.00    -0.011 A  ATOM     21  C   UNL     1      38.835  44.530  19.338 -0.35 -0.00    +0.026 A  ATOM     22  C   UNL     1      40.572  45.486  20.718 -0.33 +0.00    +0.045 A  ATOM     23  C   UNL     1      38.051  44.317  20.472 -0.34 -0.00    +0.041 A  ATOM     24  C   UNL     1      39.781  45.267  21.851 -0.29 +0.00    +0.022 A  ATOM     25  C   UNL     1      38.520  44.682  21.730 -0.34 +0.00    +0.022 A  ATOM     26  Cl  UNL     1      42.108  46.235  20.962 -0.49 -0.02    -0.084 Cl ATOM     27  Cl  UNL     1      36.497  43.599  20.315 -0.58 +0.00    -0.084 Cl ENDBRANCH  19  20ENDBRANCH   1  19TORSDOF 5TERENDMDL