MODEL        10USER    Run = 10USERUSER    Estimated Free Energy of Binding    =  -8.28 kcal/mol  [=(1)+(2)+(3)-(4)]USERUSER    (1) Final Intermolecular Energy     =  -9.77 kcal/molUSER        vdW + Hbond + desolv Energy     =  -9.94 kcal/molUSER        Electrostatic Energy            =  +0.17 kcal/molUSER        Moving Ligand-Fixed Receptor    =  -9.77 kcal/molUSER        Moving Ligand-Moving Receptor   =  +0.00 kcal/molUSER    (2) Final Total Internal Energy     =  -1.40 kcal/molUSER    (3) Torsional Free Energy           =  +1.49 kcal/molUSER    (4) Unbound System's Energy         =  -1.40 kcal/molUSERUSERREMARK SMILES Cc1ncc2n1[C@]2(NS(=O)(=O)Cc1cc(F)ccc1F)c1cccc(F)c1REMARK SMILES IDX 8 1 7 3 2 4 3 5 6 6 4 7 5 8 1 9 21 10 22 11 27 12 23 13REMARK SMILES IDX 25 14 24 15 26 16 9 17 10 18 11 19 12 20 13 21 14 22 19 23REMARK SMILES IDX 15 24 18 25 17 26 20 27 16 28REMARK H PARENT 8 2USER                              x       y       z     vdW  Elec       q    TypeUSER                           _______ _______ _______ _____ _____    ______ ____ROOTATOM      1  N   UNL     1      34.353  45.133  19.429 -0.22 +0.06    -0.180 NA ATOM      2  H   UNL     1      33.529  45.390  19.973 -0.35 -0.08    +0.144 HD ENDROOTBRANCH   1   3ATOM      3  C   UNL     1      34.746  43.715  19.442 -0.34 -0.02    +0.178 C  ATOM      4  C   UNL     1      34.867  42.329  17.094 -0.34 -0.04    +0.108 A  ATOM      5  N   UNL     1      33.915  41.442  17.116 -0.17 +0.13    -0.241 NA ATOM      6  N   UNL     1      34.940  43.138  18.167 -0.14 +0.08    -0.299 N  ATOM      7  C   UNL     1      33.240  41.733  18.242 -0.31 -0.03    +0.139 A  ATOM      8  C   UNL     1      33.804  42.706  18.999 -0.34 -0.01    +0.087 A  ATOM      9  C   UNL     1      35.839  42.498  15.982 -0.38 -0.03    +0.088 C  BRANCH   3  10ATOM     10  C   UNL     1      35.782  43.321  20.488 -0.43 -0.00    +0.003 A  ATOM     11  C   UNL     1      35.868  42.019  21.026 -0.48 +0.00    +0.008 A  ATOM     12  C   UNL     1      36.702  44.269  20.978 -0.32 +0.00    +0.047 A  ATOM     13  C   UNL     1      36.815  41.681  22.000 -0.56 +0.00    +0.003 A  ATOM     14  C   UNL     1      37.642  43.927  21.948 -0.30 +0.01    +0.123 A  ATOM     15  C   UNL     1      37.706  42.643  22.464 -0.38 +0.00    +0.039 A  ATOM     16  F   UNL     1      38.496  44.860  22.389 -0.08 -0.01    -0.207 F  ENDBRANCH   3  10ENDBRANCH   1   3BRANCH   1  17ATOM     17  S   UNL     1      34.507  46.054  18.038 -0.51 -0.15    +0.218 S  ATOM     18  O   UNL     1      33.662  45.373  17.076 -0.26 +0.15    -0.212 OA ATOM     19  O   UNL     1      34.277  47.437  18.386 -1.15 +0.21    -0.212 OA BRANCH  17  20ATOM     20  C   UNL     1      36.222  45.817  17.537 -0.28 -0.09    +0.192 C  BRANCH  20  21ATOM     21  C   UNL     1      36.405  46.380  16.155 -0.37 -0.01    +0.007 A  ATOM     22  C   UNL     1      35.516  46.075  15.115 -0.34 -0.04    +0.047 A  ATOM     23  C   UNL     1      37.470  47.248  15.888 -0.31 -0.08    +0.127 A  ATOM     24  C   UNL     1      35.708  46.631  13.851 -0.38 -0.09    +0.123 A  ATOM     25  C   UNL     1      37.659  47.802  14.624 -0.48 -0.02    +0.042 A  ATOM     26  C   UNL     1      36.771  47.491  13.596 -0.53 -0.02    +0.042 A  ATOM     27  F   UNL     1      38.344  47.542  16.861 -0.09 +0.11    -0.207 F  ATOM     28  F   UNL     1      34.855  46.329  12.865 -0.11 +0.15    -0.207 F  ENDBRANCH  20  21ENDBRANCH  17  20ENDBRANCH   1  17TORSDOF 5TERENDMDL