MODEL        6USER    Run = 6USERUSER    Estimated Free Energy of Binding    = -12.74 kcal/mol  [=(1)+(2)+(3)-(4)]USERUSER    (1) Final Intermolecular Energy     = -14.83 kcal/molUSER        vdW + Hbond + desolv Energy     = -14.70 kcal/molUSER        Electrostatic Energy            =  -0.13 kcal/molUSER        Moving Ligand-Fixed Receptor    = -14.83 kcal/molUSER        Moving Ligand-Moving Receptor   =  +0.00 kcal/molUSER    (2) Final Total Internal Energy     =  -2.02 kcal/molUSER    (3) Torsional Free Energy           =  +2.09 kcal/molUSER    (4) Unbound System's Energy         =  -2.02 kcal/molUSERUSERREMARK SMILES CS(=O)(=O)c1ccc(-c2nc3cccnc3nc2-c2ccc(CN3CCC(n4c(O)nc5ccccc54)CC3)cc2)cc1REMARK SMILES IDX 19 1 20 2 21 3 22 4 40 5 41 6 18 7 9 8 10 9 11 10 17 11REMARK SMILES IDX 12 12 16 13 13 14 15 15 14 16 8 17 5 18 6 19 43 20 7 21REMARK SMILES IDX 42 22 2 23 1 24 3 25 4 26 23 27 24 28 25 29 39 30 26 31REMARK SMILES IDX 38 32 27 33 28 34 29 35 37 36 31 37 36 38 32 39 35 40 33 41REMARK SMILES IDX 34 42 30 43REMARK H PARENT 30 44USER                              x       y       z     vdW  Elec       q    TypeUSER                           _______ _______ _______ _____ _____    ______ ____ROOTATOM      1  C   UNL     1      40.074  43.962  22.943 -0.23 +0.00    +0.002 A  ATOM      2  C   UNL     1      40.852  43.274  22.000 -0.27 +0.00    +0.011 A  ATOM      3  C   UNL     1      41.462  43.955  20.944 -0.33 +0.00    +0.006 A  ATOM      4  C   UNL     1      41.338  45.346  20.824 -0.32 -0.00    -0.034 A  ATOM      5  C   UNL     1      40.575  46.038  21.772 -0.22 +0.00    +0.006 A  ATOM      6  C   UNL     1      39.947  45.353  22.816 -0.24 +0.00    +0.011 A  ENDROOTBRANCH   1   7ATOM      7  C   UNL     1      39.423  43.241  24.043 -0.18 +0.00    +0.099 A  ATOM      8  C   UNL     1      38.125  42.714  23.976 -0.25 +0.01    +0.097 A  ATOM      9  N   UNL     1      37.567  42.117  25.059 -0.21 +0.00    -0.242 NA ATOM     10  C   UNL     1      38.329  42.037  26.170 -0.24 -0.00    +0.108 A  ATOM     11  N   UNL     1      40.177  43.149  25.171 -0.10 -0.00    -0.224 NA ATOM     12  C   UNL     1      37.820  41.422  27.302 -0.43 -0.01    +0.034 A  ATOM     13  C   UNL     1      39.646  42.553  26.239 -0.14 -0.00    +0.178 A  ATOM     14  C   UNL     1      38.582  41.325  28.460 -0.21 -0.00    +0.022 A  ATOM     15  N   UNL     1      40.383  42.469  27.353 -0.12 +0.01    -0.235 NA ATOM     16  C   UNL     1      39.852  41.865  28.435 -0.22 +0.00    +0.114 A  BRANCH   8  17ATOM     17  C   UNL     1      37.265  42.739  22.781 -0.42 +0.00    +0.002 A  ATOM     18  C   UNL     1      35.640  42.752  20.487 -0.40 +0.00    +0.067 A  ATOM     19  C   UNL     1      35.854  41.556  21.173 -0.39 +0.00    +0.021 A  ATOM     20  C   UNL     1      36.244  43.936  20.912 -0.36 +0.00    +0.021 A  ATOM     21  C   UNL     1      36.665  41.557  22.313 -0.55 +0.00    +0.012 A  ATOM     22  C   UNL     1      37.050  43.924  22.053 -0.37 +0.00    +0.012 A  BRANCH  18  23ATOM     23  S   UNL     1      34.632  42.772  19.023 -0.46 -0.02    +0.175 S  ATOM     24  C   UNL     1      34.958  44.369  18.325 -0.28 -0.05    +0.163 C  ATOM     25  O   UNL     1      33.244  42.745  19.440 -0.61 -0.00    -0.224 OA ATOM     26  O   UNL     1      35.158  41.764  18.125 -0.52 +0.06    -0.224 OA ENDBRANCH  18  23ENDBRANCH   8  17ENDBRANCH   1   7BRANCH   4  27ATOM     27  C   UNL     1      42.026  46.076  19.690 -0.36 +0.02    +0.120 C  BRANCH  27  28ATOM     28  N   UNL     1      41.154  47.059  19.025 -0.21 +0.00    -0.299 NA ATOM     29  C   UNL     1      41.852  47.788  17.956 -0.48 -0.00    +0.087 C  ATOM     30  C   UNL     1      39.876  46.469  18.607 -0.36 -0.01    +0.087 C  ATOM     31  C   UNL     1      40.948  48.173  16.787 -0.58 -0.01    +0.041 C  ATOM     32  C   UNL     1      39.908  45.871  17.204 -0.46 -0.01    +0.041 C  ATOM     33  C   UNL     1      40.359  46.904  16.155 -0.47 -0.01    +0.095 C  BRANCH  33  34ATOM     34  N   UNL     1      39.335  47.207  15.165 -0.24 +0.08    -0.291 N  ATOM     35  C   UNL     1      39.325  48.266  14.301 -0.22 -0.10    +0.295 A  ATOM     36  C   UNL     1      38.198  46.468  14.906 -0.36 -0.03    +0.072 A  ATOM     37  N   UNL     1      38.282  48.286  13.517 -0.58 +0.05    -0.195 NA ATOM     38  C   UNL     1      37.670  45.285  15.441 -0.34 -0.01    +0.029 A  ATOM     39  C   UNL     1      37.567  47.169  13.875 -0.43 -0.04    +0.092 A  ATOM     40  C   UNL     1      36.469  44.815  14.897 -0.38 -0.00    +0.002 A  ATOM     41  C   UNL     1      36.361  46.684  13.349 -0.53 -0.02    +0.031 A  ATOM     42  C   UNL     1      35.822  45.501  13.869 -0.36 -0.00    +0.002 A  BRANCH  35  43ATOM     43  O   UNL     1      40.266  49.184  14.225 -0.20 +0.17    -0.480 OA ATOM     44  H   UNL     1      39.825  49.944  14.650 -0.05 -0.23    +0.296 HD ENDBRANCH  35  43ENDBRANCH  33  34ENDBRANCH  27  28ENDBRANCH   4  27TORSDOF 7TERENDMDL