REMARK SMILES CS(=O)(=O)c1ccc(-c2nc3cccnc3nc2-c2ccc(CN3CCC(n4c(O)nc5ccccc54)CC3)cc2)cc1
REMARK SMILES IDX 19 1 20 2 21 3 22 4 40 5 41 6 18 7 9 8 10 9 11 10 17 11
REMARK SMILES IDX 12 12 16 13 13 14 15 15 14 16 8 17 5 18 6 19 43 20 7 21
REMARK SMILES IDX 42 22 2 23 1 24 3 25 4 26 23 27 24 28 25 29 39 30 26 31
REMARK SMILES IDX 38 32 27 33 28 34 29 35 37 36 31 37 36 38 32 39 35 40 33 41
REMARK SMILES IDX 34 42 30 43
REMARK H PARENT 30 44
ROOT
ATOM      1  C   UNL     1      -2.419  -2.155  -1.802  1.00  0.00     0.002 A 
ATOM      2  C   UNL     1      -1.861  -1.505  -2.913  1.00  0.00     0.011 A 
ATOM      3  C   UNL     1      -0.498  -1.204  -2.955  1.00  0.00     0.006 A 
ATOM      4  C   UNL     1       0.348  -1.575  -1.901  1.00  0.00    -0.034 A 
ATOM      5  C   UNL     1      -0.202  -2.237  -0.796  1.00  0.00     0.006 A 
ATOM      6  C   UNL     1      -1.570  -2.519  -0.746  1.00  0.00     0.011 A 
ENDROOT
BRANCH   1   7
ATOM      7  C   UNL     1      -3.854  -2.457  -1.756  1.00  0.00     0.099 A 
ATOM      8  C   UNL     1      -4.768  -1.801  -0.919  1.00  0.00     0.097 A 
ATOM      9  N   UNL     1      -6.070  -2.182  -0.886  1.00  0.00    -0.242 NA
ATOM     10  C   UNL     1      -6.429  -3.189  -1.709  1.00  0.00     0.108 A 
ATOM     11  N   UNL     1      -4.236  -3.469  -2.581  1.00  0.00    -0.224 NA
ATOM     12  C   UNL     1      -7.749  -3.611  -1.733  1.00  0.00     0.034 A 
ATOM     13  C   UNL     1      -5.515  -3.846  -2.568  1.00  0.00     0.178 A 
ATOM     14  C   UNL     1      -8.148  -4.645  -2.571  1.00  0.00     0.022 A 
ATOM     15  N   UNL     1      -5.891  -4.847  -3.373  1.00  0.00    -0.235 NA
ATOM     16  C   UNL     1      -7.184  -5.230  -3.366  1.00  0.00     0.114 A 
BRANCH   8  17
ATOM     17  C   UNL     1      -4.439  -0.673  -0.031  1.00  0.00     0.002 A 
ATOM     18  C   UNL     1      -3.846   1.475   1.683  1.00  0.00     0.067 A 
ATOM     19  C   UNL     1      -4.438   0.323   2.201  1.00  0.00     0.021 A 
ATOM     20  C   UNL     1      -3.569   1.583   0.320  1.00  0.00     0.021 A 
ATOM     21  C   UNL     1      -4.732  -0.741   1.343  1.00  0.00     0.012 A 
ATOM     22  C   UNL     1      -3.865   0.512  -0.527  1.00  0.00     0.012 A 
BRANCH  18  23
ATOM     23  S   UNL     1      -3.485   2.850   2.750  1.00  0.00     0.175 S 
ATOM     24  C   UNL     1      -1.738   2.713   3.016  1.00  0.00     0.163 C 
ATOM     25  O   UNL     1      -4.147   2.612   4.018  1.00  0.00    -0.224 OA
ATOM     26  O   UNL     1      -3.740   4.060   1.994  1.00  0.00    -0.224 OA
ENDBRANCH  18  23
ENDBRANCH   8  17
ENDBRANCH   1   7
BRANCH   4  27
ATOM     27  C   UNL     1       1.829  -1.266  -1.969  1.00  0.00     0.120 C 
BRANCH  27  28
ATOM     28  N   UNL     1       2.142   0.132  -1.629  1.00  0.00    -0.299 NA
ATOM     29  C   UNL     1       1.872   0.435  -0.216  1.00  0.00     0.087 C 
ATOM     30  C   UNL     1       3.486   0.521  -2.075  1.00  0.00     0.087 C 
ATOM     31  C   UNL     1       2.826   1.466   0.382  1.00  0.00     0.041 C 
ATOM     32  C   UNL     1       4.575   0.253  -1.041  1.00  0.00     0.041 C 
ATOM     33  C   UNL     1       4.266   0.939   0.302  1.00  0.00     0.095 C 
BRANCH  33  34
ATOM     34  N   UNL     1       5.244   1.953   0.671  1.00  0.00    -0.291 N 
ATOM     35  C   UNL     1       5.545   3.088  -0.030  1.00  0.00     0.295 A 
ATOM     36  C   UNL     1       6.030   1.963   1.806  1.00  0.00     0.072 A 
ATOM     37  N   UNL     1       6.460   3.822   0.541  1.00  0.00    -0.195 NA
ATOM     38  C   UNL     1       6.160   1.097   2.900  1.00  0.00     0.029 A 
ATOM     39  C   UNL     1       6.774   3.140   1.691  1.00  0.00     0.092 A 
ATOM     40  C   UNL     1       7.074   1.456   3.897  1.00  0.00     0.002 A 
ATOM     41  C   UNL     1       7.689   3.478   2.699  1.00  0.00     0.031 A 
ATOM     42  C   UNL     1       7.829   2.626   3.801  1.00  0.00     0.002 A 
BRANCH  35  43
ATOM     43  O   UNL     1       4.976   3.447  -1.162  1.00  0.00    -0.480 OA
ATOM     44  H   UNL     1       5.417   4.300  -1.334  1.00  0.00     0.296 HD
ENDBRANCH  35  43
ENDBRANCH  33  34
ENDBRANCH  27  28
ENDBRANCH   4  27
TORSDOF 7
