REMARK SMILES OCCNC1=C(c2ccc(F)c(-c3ccc(O)cc3)c2)N=C2C=CN=C[C@H]21
REMARK SMILES IDX 5 1 6 2 21 3 22 4 23 5 24 6 25 7 26 8 27 9 4 10 3 12 2 13
REMARK SMILES IDX 1 14 7 16 8 17 20 18 9 19 12 20 10 21 11 22 13 23 14 24
REMARK SMILES IDX 19 25 15 26 18 27 16 28 17 29
REMARK H PARENT 4 11 1 15 17 30
ROOT
ATOM      1  C   UNL     1      -2.300  -0.015   0.150  1.00  0.00     0.052 C 
ATOM      2  C   UNL     1      -1.151  -0.718   0.021  1.00  0.00     0.091 C 
ATOM      3  N   UNL     1      -1.241  -1.794  -0.835  1.00  0.00    -0.250 NA
ATOM      4  C   UNL     1      -2.486  -1.812  -1.183  1.00  0.00     0.057 C 
ATOM      5  C   UNL     1      -3.173  -2.893  -1.891  1.00  0.00     0.045 C 
ATOM      6  C   UNL     1      -4.464  -3.025  -1.552  1.00  0.00     0.112 C 
ATOM      7  N   UNL     1      -5.153  -2.284  -0.614  1.00  0.00    -0.268 NA
ATOM      8  C   UNL     1      -4.605  -1.182  -0.187  1.00  0.00     0.100 C 
ATOM      9  C   UNL     1      -3.321  -0.643  -0.754  1.00  0.00     0.128 C 
ENDROOT
BRANCH   1  10
ATOM     10  N   UNL     1      -2.553   1.138   0.881  1.00  0.00    -0.383 N 
ATOM     11  H   UNL     1      -1.683   1.540   1.241  1.00  0.00     0.160 HD
BRANCH  10  12
ATOM     12  C   UNL     1      -3.506   2.179   0.475  1.00  0.00     0.141 C 
BRANCH  12  13
ATOM     13  C   UNL     1      -3.783   3.096   1.671  1.00  0.00     0.177 C 
BRANCH  13  14
ATOM     14  O   UNL     1      -4.292   2.326   2.759  1.00  0.00    -0.395 OA
ATOM     15  H   UNL     1      -3.777   1.494   2.753  1.00  0.00     0.210 HD
ENDBRANCH  13  14
ENDBRANCH  12  13
ENDBRANCH  10  12
ENDBRANCH   1  10
BRANCH   2  16
ATOM     16  C   UNL     1       0.123  -0.429   0.698  1.00  0.00     0.003 A 
ATOM     17  C   UNL     1       0.185  -0.223   2.081  1.00  0.00     0.013 A 
ATOM     18  C   UNL     1       1.313  -0.395  -0.050  1.00  0.00     0.022 A 
ATOM     19  C   UNL     1       1.408   0.040   2.697  1.00  0.00     0.040 A 
ATOM     20  C   UNL     1       2.561  -0.135   0.549  1.00  0.00     0.018 A 
ATOM     21  C   UNL     1       2.574   0.085   1.935  1.00  0.00     0.131 A 
ATOM     22  F   UNL     1       3.728   0.335   2.572  1.00  0.00    -0.206 F 
BRANCH  20  23
ATOM     23  C   UNL     1       3.794  -0.102  -0.260  1.00  0.00    -0.015 A 
ATOM     24  C   UNL     1       4.085  -1.127  -1.179  1.00  0.00     0.012 A 
ATOM     25  C   UNL     1       4.715   0.955  -0.145  1.00  0.00     0.012 A 
ATOM     26  C   UNL     1       5.248  -1.094  -1.954  1.00  0.00     0.047 A 
ATOM     27  C   UNL     1       5.881   0.990  -0.918  1.00  0.00     0.047 A 
ATOM     28  C   UNL     1       6.136  -0.037  -1.817  1.00  0.00     0.115 A 
BRANCH  28  29
ATOM     29  O   UNL     1       7.259  -0.044  -2.590  1.00  0.00    -0.508 OA
ATOM     30  H   UNL     1       7.792   0.736  -2.367  1.00  0.00     0.293 HD
ENDBRANCH  28  29
ENDBRANCH  20  23
ENDBRANCH   2  16
TORSDOF 7
