REMARK SMILES CN[C@H]1CN(Cc2ccc(C(=O)Nc3cc(Cl)c(F)cc3CN3CCC(c4nnn[nH]4)CC3)cc2)C[C@@H]1O
REMARK SMILES IDX 11 1 12 2 13 3 10 5 7 6 8 7 35 8 9 9 34 10 6 11 5 12 3 13
REMARK SMILES IDX 4 14 37 15 36 16 2 17 1 18 38 20 14 22 15 23 21 24 16 25
REMARK SMILES IDX 20 26 18 27 17 28 19 29 22 30 23 31 24 32 33 33 25 34 32 35
REMARK SMILES IDX 26 36 27 37 28 38 31 39 29 40 30 41
REMARK H PARENT 13 4 2 19 38 21 31 42
ROOT
ATOM      1  C   UNL     1      -0.316  -2.901  -0.471  1.00  0.00     0.255 C 
ATOM      2  O   UNL     1       0.155  -3.936  -0.923  1.00  0.00    -0.269 OA
ATOM      3  N   UNL     1      -1.654  -2.613  -0.287  1.00  0.00    -0.322 N 
ATOM      4  H   UNL     1      -1.886  -1.749   0.198  1.00  0.00     0.170 HD
ENDROOT
BRANCH   1   5
ATOM      5  C   UNL     1       0.615  -1.833  -0.011  1.00  0.00     0.040 A 
ATOM      6  C   UNL     1       2.415   0.129   0.894  1.00  0.00    -0.034 A 
ATOM      7  C   UNL     1       1.222   0.499   0.255  1.00  0.00     0.006 A 
ATOM      8  C   UNL     1       2.697  -1.235   1.067  1.00  0.00     0.006 A 
ATOM      9  C   UNL     1       0.328  -0.475  -0.200  1.00  0.00     0.014 A 
ATOM     10  C   UNL     1       1.810  -2.210   0.608  1.00  0.00     0.014 A 
BRANCH   6  11
ATOM     11  C   UNL     1       3.370   1.185   1.415  1.00  0.00     0.120 C 
BRANCH  11  12
ATOM     12  N   UNL     1       4.748   0.983   0.969  1.00  0.00    -0.295 NA
ATOM     13  C   UNL     1       6.323   1.851  -0.659  1.00  0.00     0.097 C 
ATOM     14  C   UNL     1       4.937   1.185  -0.481  1.00  0.00     0.106 C 
ATOM     15  C   UNL     1       6.934   1.775   0.752  1.00  0.00     0.146 C 
ATOM     16  C   UNL     1       5.692   1.880   1.633  1.00  0.00     0.118 C 
BRANCH  13  17
ATOM     17  N   UNL     1       7.100   1.233  -1.747  1.00  0.00    -0.313 NA
ATOM     18  C   UNL     1       8.373   1.909  -1.964  1.00  0.00     0.101 C 
ATOM     19  H   UNL     1       7.278   0.255  -1.520  1.00  0.00     0.122 HD
ENDBRANCH  13  17
BRANCH  15  20
ATOM     20  O   UNL     1       7.845   2.841   0.998  1.00  0.00    -0.390 OA
ATOM     21  H   UNL     1       8.200   2.712   1.893  1.00  0.00     0.211 HD
ENDBRANCH  15  20
ENDBRANCH  11  12
ENDBRANCH   6  11
ENDBRANCH   1   5
BRANCH   3  22
ATOM     22  C   UNL     1      -2.774  -3.391  -0.654  1.00  0.00     0.047 A 
ATOM     23  C   UNL     1      -2.666  -4.522  -1.474  1.00  0.00     0.050 A 
ATOM     24  C   UNL     1      -4.048  -2.978  -0.193  1.00  0.00    -0.007 A 
ATOM     25  C   UNL     1      -3.806  -5.240  -1.841  1.00  0.00     0.078 A 
ATOM     26  C   UNL     1      -5.183  -3.718  -0.571  1.00  0.00     0.048 A 
ATOM     27  C   UNL     1      -5.056  -4.834  -1.391  1.00  0.00     0.142 A 
ATOM     28  Cl  UNL     1      -3.652  -6.622  -2.856  1.00  0.00    -0.081 Cl
ATOM     29  F   UNL     1      -6.164  -5.509  -1.730  1.00  0.00    -0.205 F 
BRANCH  24  30
ATOM     30  C   UNL     1      -4.241  -1.818   0.774  1.00  0.00     0.122 C 
BRANCH  30  31
ATOM     31  N   UNL     1      -3.542  -0.577   0.369  1.00  0.00    -0.299 NA
ATOM     32  C   UNL     1      -3.460   0.382   1.480  1.00  0.00     0.085 C 
ATOM     33  C   UNL     1      -4.132   0.036  -0.832  1.00  0.00     0.085 C 
ATOM     34  C   UNL     1      -4.783   1.069   1.819  1.00  0.00     0.027 C 
ATOM     35  C   UNL     1      -5.469   0.745  -0.601  1.00  0.00     0.027 C 
ATOM     36  C   UNL     1      -5.458   1.701   0.598  1.00  0.00     0.062 C 
BRANCH  36  37
ATOM     37  C   UNL     1      -4.912   3.057   0.277  1.00  0.00     0.151 A 
ATOM     38  N   UNL     1      -5.527   4.210   0.448  1.00  0.00    -0.114 NA
ATOM     39  N   UNL     1      -3.673   3.329  -0.229  1.00  0.00    -0.243 N 
ATOM     40  N   UNL     1      -4.646   5.182   0.043  1.00  0.00    -0.024 NA
ATOM     41  N   UNL     1      -3.508   4.647  -0.369  1.00  0.00    -0.048 NA
ATOM     42  H   UNL     1      -2.914   2.712  -0.483  1.00  0.00     0.193 HD
ENDBRANCH  36  37
ENDBRANCH  30  31
ENDBRANCH  24  30
ENDBRANCH   3  22
TORSDOF 9
