MODEL        3USER    Run = 3USERUSER    Estimated Free Energy of Binding    = -12.50 kcal/mol  [=(1)+(2)+(3)-(4)]USERUSER    (1) Final Intermolecular Energy     = -15.18 kcal/molUSER        vdW + Hbond + desolv Energy     = -14.93 kcal/molUSER        Electrostatic Energy            =  -0.25 kcal/molUSER        Moving Ligand-Fixed Receptor    = -15.18 kcal/molUSER        Moving Ligand-Moving Receptor   =  +0.00 kcal/molUSER    (2) Final Total Internal Energy     =  -2.66 kcal/molUSER    (3) Torsional Free Energy           =  +2.68 kcal/molUSER    (4) Unbound System's Energy         =  -2.66 kcal/molUSERUSERREMARK SMILES CN[C@H]1CN(Cc2ccc(C(=O)Nc3cc(Cl)c(F)cc3CN3CCC(c4nnn[nH]4)CC3)cc2)C[C@@H]1OREMARK SMILES IDX 11 1 12 2 13 3 10 5 7 6 8 7 35 8 9 9 34 10 6 11 5 12 3 13REMARK SMILES IDX 4 14 37 15 36 16 2 17 1 18 38 20 14 22 15 23 21 24 16 25REMARK SMILES IDX 20 26 18 27 17 28 19 29 22 30 23 31 24 32 33 33 25 34 32 35REMARK SMILES IDX 26 36 27 37 28 38 31 39 29 40 30 41REMARK H PARENT 13 4 2 19 38 21 31 42USER                              x       y       z     vdW  Elec       q    TypeUSER                           _______ _______ _______ _____ _____    ______ ____ROOTATOM      1  C   UNL     1      39.682  45.746  19.190 -0.30 -0.01    +0.255 C  ATOM      2  O   UNL     1      40.730  46.354  19.359 -0.30 -0.00    -0.269 OA ATOM      3  N   UNL     1      38.883  45.772  18.064 -0.21 +0.05    -0.322 N  ATOM      4  H   UNL     1      38.094  45.129  18.033 +0.11 -0.03    +0.170 HD ENDROOTBRANCH   1   5ATOM      5  C   UNL     1      39.205  44.830  20.265 -0.35 -0.00    +0.040 A  ATOM      6  C   UNL     1      38.235  43.107  22.264 -0.31 -0.00    -0.034 A  ATOM      7  C   UNL     1      39.544  43.606  22.329 -0.26 +0.00    +0.006 A  ATOM      8  C   UNL     1      37.421  43.477  21.181 -0.38 +0.00    +0.006 A  ATOM      9  C   UNL     1      40.031  44.459  21.334 -0.30 +0.00    +0.014 A  ATOM     10  C   UNL     1      37.906  44.323  20.182 -0.36 -0.00    +0.014 A  BRANCH   6  11ATOM     11  C   UNL     1      37.697  42.206  23.358 -0.35 +0.01    +0.120 C  BRANCH  11  12ATOM     12  N   UNL     1      36.924  42.929  24.368 -0.20 -0.02    -0.295 NA ATOM     13  C   UNL     1      37.186  43.880  26.584 -0.32 -0.01    +0.097 C  ATOM     14  C   UNL     1      37.285  42.576  25.755 -0.34 -0.01    +0.106 C  ATOM     15  C   UNL     1      36.538  44.873  25.602 -0.21 -0.00    +0.146 C  ATOM     16  C   UNL     1      37.076  44.379  24.262 -0.26 +0.02    +0.118 C  BRANCH  13  17ATOM     17  N   UNL     1      36.491  43.672  27.865 -0.21 +0.08    -0.313 NA ATOM     18  C   UNL     1      35.078  43.364  27.678 -0.58 -0.03    +0.101 C  ATOM     19  H   UNL     1      36.934  42.904  28.368 -0.32 -0.05    +0.122 HD ENDBRANCH  13  17BRANCH  15  20ATOM     20  O   UNL     1      36.931  46.216  25.864 -0.58 +0.02    -0.390 OA ATOM     21  H   UNL     1      36.170  46.663  26.269 -0.44 -0.08    +0.211 HD ENDBRANCH  15  20ENDBRANCH  11  12ENDBRANCH   6  11ENDBRANCH   1   5BRANCH   3  22ATOM     22  C   UNL     1      39.035  46.560  16.902 -0.40 -0.01    +0.047 A  ATOM     23  C   UNL     1      40.008  47.563  16.799 -0.46 -0.01    +0.050 A  ATOM     24  C   UNL     1      38.142  46.335  15.826 -0.39 +0.00    -0.007 A  ATOM     25  C   UNL     1      40.098  48.343  15.644 -0.50 -0.02    +0.078 A  ATOM     26  C   UNL     1      38.253  47.129  14.670 -0.42 -0.02    +0.048 A  ATOM     27  C   UNL     1      39.221  48.124  14.589 -0.41 -0.05    +0.142 A  ATOM     28  Cl  UNL     1      41.295  49.576  15.540 -0.88 +0.01    -0.081 Cl ATOM     29  F   UNL     1      39.290  48.860  13.470 -0.04 +0.06    -0.205 F  BRANCH  24  30ATOM     30  C   UNL     1      37.120  45.206  15.823 -0.33 -0.05    +0.122 C  BRANCH  30  31ATOM     31  N   UNL     1      36.694  44.779  17.175 -0.13 +0.10    -0.299 NA ATOM     32  C   UNL     1      36.053  43.457  17.145 -0.34 -0.03    +0.085 C  ATOM     33  C   UNL     1      35.841  45.778  17.839 -0.34 -0.04    +0.085 C  ATOM     34  C   UNL     1      34.647  43.451  16.544 -0.42 -0.01    +0.027 C  ATOM     35  C   UNL     1      34.409  45.859  17.303 -0.42 -0.02    +0.027 C  ATOM     36  C   UNL     1      33.722  44.494  17.179 -0.33 -0.03    +0.062 C  BRANCH  36  37ATOM     37  C   UNL     1      33.107  44.016  18.457 -0.25 -0.04    +0.151 A  ATOM     38  N   UNL     1      32.608  42.817  18.686 -0.29 +0.01    -0.114 NA ATOM     39  N   UNL     1      32.978  44.736  19.609 -0.26 +0.05    -0.243 N  ATOM     40  N   UNL     1      32.179  42.820  19.990 -0.67 -0.00    -0.024 NA ATOM     41  N   UNL     1      32.407  43.992  20.560 -0.82 -0.00    -0.048 NA ATOM     42  H   UNL     1      33.247  45.685  19.828 -0.36 -0.11    +0.193 HD ENDBRANCH  36  37ENDBRANCH  30  31ENDBRANCH  24  30ENDBRANCH   3  22TORSDOF 9TERENDMDL