MODEL        2USER    Run = 2USERUSER    Estimated Free Energy of Binding    =  -8.46 kcal/mol  [=(1)+(2)+(3)-(4)]USERUSER    (1) Final Intermolecular Energy     = -10.84 kcal/molUSER        vdW + Hbond + desolv Energy     = -10.59 kcal/molUSER        Electrostatic Energy            =  -0.25 kcal/molUSER        Moving Ligand-Fixed Receptor    = -10.84 kcal/molUSER        Moving Ligand-Moving Receptor   =  +0.00 kcal/molUSER    (2) Final Total Internal Energy     =  -1.55 kcal/molUSER    (3) Torsional Free Energy           =  +2.39 kcal/molUSER    (4) Unbound System's Energy         =  -1.55 kcal/molUSERUSERREMARK SMILES COc1cccc(-c2n[nH]c3cc(NCC[C@@H](N)C(N)=O)ccc23)c1CREMARK SMILES IDX 14 1 13 3 8 4 9 5 24 6 10 7 23 8 11 9 22 10 12 11 7 13 3 14REMARK SMILES IDX 4 15 25 16 5 17 6 18 26 19 2 20 1 21 15 22 16 23 17 24 18 25REMARK SMILES IDX 19 28 20 29 21 30REMARK H PARENT 14 2 10 12 18 26 18 27 20 31 20 32USER                              x       y       z     vdW  Elec       q    TypeUSER                           _______ _______ _______ _____ _____    ______ ____ROOTATOM      1  N   UNL     1      42.491  44.469  21.697 -0.10 -0.08    -0.385 N  ATOM      2  H   UNL     1      41.906  43.704  22.030 +0.07 +0.01    +0.160 HD ENDROOTBRANCH   1   3ATOM      3  C   UNL     1      41.843  45.152  20.655 -0.29 +0.01    +0.036 A  ATOM      4  C   UNL     1      40.134  47.174  17.368 -0.41 -0.02    +0.100 A  ATOM      5  N   UNL     1      41.015  48.177  17.224 -0.51 +0.02    -0.174 NA ATOM      6  C   UNL     1      40.504  46.311  18.444 -0.46 -0.00    +0.028 A  ATOM      7  N   UNL     1      41.926  47.953  18.183 -0.35 +0.01    -0.277 N  ATOM      8  C   UNL     1      39.991  45.144  19.033 -0.43 -0.00    +0.015 A  ATOM      9  C   UNL     1      41.674  46.853  18.956 -0.45 +0.00    +0.068 A  ATOM     10  C   UNL     1      40.679  44.577  20.118 -0.36 +0.00    +0.026 A  ATOM     11  C   UNL     1      42.372  46.296  20.038 -0.33 +0.01    +0.054 A  ATOM     12  H   UNL     1      42.705  48.595  18.261 +0.03 +0.01    +0.190 HD BRANCH   4  13ATOM     13  C   UNL     1      38.982  47.040  16.479 -0.44 -0.00    +0.009 A  ATOM     14  C   UNL     1      37.867  47.299  14.328 -0.39 -0.05    +0.122 A  ATOM     15  C   UNL     1      36.724  46.691  14.862 -0.37 -0.03    +0.047 A  ATOM     16  C   UNL     1      39.004  47.499  15.142 -0.49 -0.00    +0.000 A  ATOM     17  C   UNL     1      36.702  46.262  16.189 -0.37 -0.00    +0.005 A  ATOM     18  C   UNL     1      37.826  46.430  16.991 -0.35 -0.00    +0.011 A  ATOM     19  C   UNL     1      40.243  48.143  14.568 -0.52 -0.01    +0.049 C  BRANCH  14  20ATOM     20  O   UNL     1      37.969  47.735  13.032 -0.66 +0.08    -0.496 OA ATOM     21  C   UNL     1      36.923  47.392  12.134 -0.46 -0.09    +0.278 C  ENDBRANCH  14  20ENDBRANCH   4  13ENDBRANCH   1   3BRANCH   1  22ATOM     22  C   UNL     1      43.079  45.233  22.800 -0.16 +0.02    +0.115 C  BRANCH  22  23ATOM     23  C   UNL     1      44.561  45.490  22.517 -0.20 +0.03    +0.050 C  BRANCH  23  24ATOM     24  C   UNL     1      44.933  46.973  22.638 -0.22 +0.08    +0.142 C  BRANCH  24  25ATOM     25  N   UNL     1      45.148  47.577  21.302 -0.56 -0.31    -0.320 NA ATOM     26  H   UNL     1      45.583  48.491  21.427 -0.37 +0.05    +0.119 HD ATOM     27  H   UNL     1      44.234  47.776  20.891 -0.50 +0.04    +0.119 HD ENDBRANCH  24  25BRANCH  24  28ATOM     28  C   UNL     1      43.829  47.767  23.364 -0.22 +0.06    +0.234 C  ATOM     29  N   UNL     1      43.044  48.527  22.536 -0.17 -0.07    -0.368 N  ATOM     30  O   UNL     1      43.607  47.724  24.568 -0.11 -0.04    -0.274 OA ATOM     31  H   UNL     1      42.378  49.135  22.997 +0.03 +0.05    +0.159 HD ATOM     32  H   UNL     1      43.393  48.822  21.633 -0.47 -0.03    +0.159 HD ENDBRANCH  24  28ENDBRANCH  23  24ENDBRANCH  22  23ENDBRANCH   1  22TORSDOF 8TERENDMDL