MODEL        6USER    Run = 6USERUSER    Estimated Free Energy of Binding    =  -8.63 kcal/mol  [=(1)+(2)+(3)-(4)]USERUSER    (1) Final Intermolecular Energy     = -11.31 kcal/molUSER        vdW + Hbond + desolv Energy     = -11.15 kcal/molUSER        Electrostatic Energy            =  -0.17 kcal/molUSER        Moving Ligand-Fixed Receptor    = -11.31 kcal/molUSER        Moving Ligand-Moving Receptor   =  +0.00 kcal/molUSER    (2) Final Total Internal Energy     =  -2.07 kcal/molUSER    (3) Torsional Free Energy           =  +2.68 kcal/molUSER    (4) Unbound System's Energy         =  -2.07 kcal/molUSERUSERREMARK SMILES C[C@H](O)Cn1cnc2c(NCc3ccccc3)nc(Nc3cccc(O)c3)nc21REMARK SMILES IDX 5 1 6 2 7 3 8 4 9 5 18 6 19 7 28 8 29 9 4 10 2 11 1 12 3 13REMARK SMILES IDX 20 15 21 17 22 18 27 19 23 20 25 21 24 22 26 23 10 25 11 27REMARK SMILES IDX 12 28 13 29 17 30 14 31 16 32 15 33REMARK H PARENT 3 14 20 16 26 24 10 26USER                              x       y       z     vdW  Elec       q    TypeUSER                           _______ _______ _______ _____ _____    ______ ____ROOTATOM      1  N   UNL     1      39.709  47.348  15.363 -0.24 +0.08    -0.312 N  ATOM      2  C   UNL     1      38.501  47.048  14.792 -0.30 -0.07    +0.202 A  ATOM      3  N   UNL     1      37.805  46.211  15.532 -0.20 +0.10    -0.231 NA ATOM      4  C   UNL     1      38.615  45.942  16.618 -0.29 -0.04    +0.150 A  ATOM      5  C   UNL     1      38.450  45.128  17.748 -0.28 -0.03    +0.160 A  ATOM      6  N   UNL     1      39.458  45.114  18.661 -0.29 +0.01    -0.193 NA ATOM      7  C   UNL     1      40.576  45.846  18.472 -0.31 -0.01    +0.231 A  ATOM      8  N   UNL     1      40.811  46.645  17.411 -0.35 +0.02    -0.193 NA ATOM      9  C   UNL     1      39.800  46.646  16.533 -0.35 -0.03    +0.167 A  ENDROOTBRANCH   1  10ATOM     10  C   UNL     1      40.714  48.228  14.817 -0.46 -0.02    +0.156 C  BRANCH  10  11ATOM     11  C   UNL     1      41.029  49.442  15.698 -0.62 -0.02    +0.131 C  ATOM     12  C   UNL     1      41.847  50.503  14.971 -0.68 -0.01    +0.040 C  BRANCH  11  13ATOM     13  O   UNL     1      41.782  48.990  16.826 -0.85 -0.07    -0.392 OA ATOM     14  H   UNL     1      42.165  48.124  16.595 -0.36 +0.01    +0.211 HD ENDBRANCH  11  13ENDBRANCH  10  11ENDBRANCH   1  10BRANCH   7  15ATOM     15  N   UNL     1      41.617  45.824  19.401 -0.22 -0.04    -0.324 N  ATOM     16  H   UNL     1      42.450  45.478  18.950 +0.09 +0.04    +0.170 HD BRANCH  15  17ATOM     17  C   UNL     1      41.744  46.235  20.732 -0.33 +0.01    +0.045 A  ATOM     18  C   UNL     1      40.934  45.619  21.703 -0.27 +0.00    +0.026 A  ATOM     19  C   UNL     1      42.610  47.246  21.162 -0.23 +0.01    +0.072 A  ATOM     20  C   UNL     1      40.997  45.986  23.051 -0.20 +0.00    +0.006 A  ATOM     21  C   UNL     1      42.674  47.609  22.508 -0.25 +0.02    +0.117 A  ATOM     22  C   UNL     1      41.875  46.987  23.458 -0.20 +0.01    +0.046 A  BRANCH  21  23ATOM     23  O   UNL     1      43.551  48.596  22.857 -0.57 -0.13    -0.508 OA ATOM     24  H   UNL     1      44.040  48.870  22.065 -0.46 +0.00    +0.293 HD ENDBRANCH  21  23ENDBRANCH  15  17ENDBRANCH   7  15BRANCH   5  25ATOM     25  N   UNL     1      37.302  44.354  17.931 -0.11 +0.08    -0.364 N  ATOM     26  H   UNL     1      36.809  44.226  17.050 +0.11 -0.05    +0.162 HD BRANCH  25  27ATOM     27  C   UNL     1      36.474  44.731  19.058 -0.29 -0.03    +0.150 C  BRANCH  27  28ATOM     28  C   UNL     1      36.755  43.797  20.214 -0.38 +0.00    -0.029 A  ATOM     29  C   UNL     1      36.065  42.580  20.324 -0.46 -0.00    +0.005 A  ATOM     30  C   UNL     1      37.687  44.140  21.204 -0.38 +0.00    +0.005 A  ATOM     31  C   UNL     1      36.310  41.720  21.395 -0.56 +0.00    +0.000 A  ATOM     32  C   UNL     1      37.931  43.277  22.275 -0.36 +0.00    +0.000 A  ATOM     33  C   UNL     1      37.244  42.068  22.368 -0.50 +0.00    +0.000 A  ENDBRANCH  27  28ENDBRANCH  25  27ENDBRANCH   5  25TORSDOF 9TERENDMDL