REMARK SMILES C[C@H](O)Cn1cnc2c(NCc3ccccc3)nc(Nc3cccc(O)c3)nc21
REMARK SMILES IDX 5 1 6 2 7 3 8 4 9 5 18 6 19 7 28 8 29 9 4 10 2 11 1 12 3 13
REMARK SMILES IDX 20 15 21 17 22 18 27 19 23 20 25 21 24 22 26 23 10 25 11 27
REMARK SMILES IDX 12 28 13 29 17 30 14 31 16 32 15 33
REMARK H PARENT 3 14 20 16 26 24 10 26
ROOT
ATOM      1  N   UNL     1      -1.518  -3.069  -1.519  1.00  0.00    -0.312 N 
ATOM      2  C   UNL     1      -0.393  -3.831  -1.352  1.00  0.00     0.202 A 
ATOM      3  N   UNL     1       0.636  -3.105  -0.968  1.00  0.00    -0.231 NA
ATOM      4  C   UNL     1       0.154  -1.812  -0.909  1.00  0.00     0.150 A 
ATOM      5  C   UNL     1       0.752  -0.588  -0.574  1.00  0.00     0.160 A 
ATOM      6  N   UNL     1      -0.037   0.519  -0.592  1.00  0.00    -0.193 NA
ATOM      7  C   UNL     1      -1.340   0.438  -0.935  1.00  0.00     0.231 A 
ATOM      8  N   UNL     1      -1.984  -0.697  -1.276  1.00  0.00    -0.193 NA
ATOM      9  C   UNL     1      -1.186  -1.772  -1.242  1.00  0.00     0.167 A 
ENDROOT
BRANCH   1  10
ATOM     10  C   UNL     1      -2.815  -3.546  -1.935  1.00  0.00     0.156 C 
BRANCH  10  11
ATOM     11  C   UNL     1      -3.878  -3.514  -0.831  1.00  0.00     0.131 C 
ATOM     12  C   UNL     1      -3.551  -4.444   0.332  1.00  0.00     0.040 C 
BRANCH  11  13
ATOM     13  O   UNL     1      -5.123  -3.929  -1.400  1.00  0.00    -0.392 OA
ATOM     14  H   UNL     1      -5.808  -3.824  -0.714  1.00  0.00     0.211 HD
ENDBRANCH  11  13
ENDBRANCH  10  11
ENDBRANCH   1  10
BRANCH   7  15
ATOM     15  N   UNL     1      -2.148   1.575  -0.966  1.00  0.00    -0.324 N 
ATOM     16  H   UNL     1      -3.074   1.309  -1.265  1.00  0.00     0.170 HD
BRANCH  15  17
ATOM     17  C   UNL     1      -1.960   2.915  -0.611  1.00  0.00     0.045 A 
ATOM     18  C   UNL     1      -3.004   3.825  -0.859  1.00  0.00     0.026 A 
ATOM     19  C   UNL     1      -0.784   3.420  -0.048  1.00  0.00     0.072 A 
ATOM     20  C   UNL     1      -2.884   5.182  -0.542  1.00  0.00     0.006 A 
ATOM     21  C   UNL     1      -0.667   4.774   0.270  1.00  0.00     0.117 A 
ATOM     22  C   UNL     1      -1.708   5.661   0.029  1.00  0.00     0.046 A 
BRANCH  21  23
ATOM     23  O   UNL     1       0.506   5.195   0.828  1.00  0.00    -0.508 OA
ATOM     24  H   UNL     1       0.460   6.156   0.958  1.00  0.00     0.293 HD
ENDBRANCH  21  23
ENDBRANCH  15  17
ENDBRANCH   7  15
BRANCH   5  25
ATOM     25  N   UNL     1       2.106  -0.503  -0.241  1.00  0.00    -0.364 N 
ATOM     26  H   UNL     1       2.473  -1.417   0.014  1.00  0.00     0.162 HD
BRANCH  25  27
ATOM     27  C   UNL     1       2.456   0.580   0.656  1.00  0.00     0.150 C 
BRANCH  27  28
ATOM     28  C   UNL     1       3.897   0.420   1.086  1.00  0.00    -0.029 A 
ATOM     29  C   UNL     1       4.938   0.661   0.177  1.00  0.00     0.005 A 
ATOM     30  C   UNL     1       4.216   0.005   2.388  1.00  0.00     0.005 A 
ATOM     31  C   UNL     1       6.269   0.502   0.564  1.00  0.00     0.000 A 
ATOM     32  C   UNL     1       5.549  -0.153   2.773  1.00  0.00     0.000 A 
ATOM     33  C   UNL     1       6.574   0.097   1.862  1.00  0.00     0.000 A 
ENDBRANCH  27  28
ENDBRANCH  25  27
ENDBRANCH   5  25
TORSDOF 9
