MODEL        3USER    Run = 3USERUSER    Estimated Free Energy of Binding    =  -7.37 kcal/mol  [=(1)+(2)+(3)-(4)]USERUSER    (1) Final Intermolecular Energy     = -11.85 kcal/molUSER        vdW + Hbond + desolv Energy     = -11.80 kcal/molUSER        Electrostatic Energy            =  -0.22 kcal/molUSER        Moving Ligand-Fixed Receptor    = -12.02 kcal/molUSER        Moving Ligand-Moving Receptor   =  +0.17 kcal/molUSER    (2) Final Total Internal Energy     =  -2.03 kcal/molUSER    (3) Torsional Free Energy           =  +4.47 kcal/molUSER    (4) Unbound System's Energy         =  -2.03 kcal/molUSERUSERREMARK SMILES O=C(N[C@@H]1CNCCC[C@H]1/C=C/c1ccc(C(=O)c2c(O)ccc(O)c2F)cc1)c1ccncc1REMARK SMILES IDX 11 1 10 2 4 3 3 5 2 6 1 7 30 9 31 10 35 11 32 12 34 13 33 14REMARK SMILES IDX 9 15 8 16 7 17 6 18 5 20 12 22 13 23 14 24 29 25 15 26 28 27REMARK SMILES IDX 16 28 17 29 18 30 19 31 20 32 26 33 22 34 24 35 23 36 27 37REMARK SMILES IDX 21 38 25 40REMARK H PARENT 3 8 6 19 21 39 25 41REMARK Flexibility Score:   99.900USER                              x       y       z     vdW  Elec       q    TypeUSER                           _______ _______ _______ _____ _____    ______ ____ROOTATOM      1  C   UNL     1      33.252  42.805  16.633 -0.37 +0.01    -0.021 C  ENDROOTBRANCH   1   2ATOM      2  C   UNL     1      34.665  43.188  17.041 -0.41 -0.01    +0.035 C  BRANCH   2   3ATOM      3  C   UNL     1      34.745  44.693  17.419 -0.30 -0.05    +0.103 CG0ATOM      4  G   UNL     1      35.731  45.013  18.579 +0.00 +0.00    +0.000 G0 BRANCH   3   5ATOM      5  N   UNL     1      34.991  45.523  16.227 -0.10 +0.27    -0.347 N  ATOM      6  C   UNL     1      36.145  45.393  15.480 -0.24 -0.14    +0.251 C  ATOM      7  O   UNL     1      37.023  44.575  15.724 -0.23 +0.10    -0.269 OA ATOM      8  H   UNL     1      34.434  46.357  16.111 -0.07 -0.25    +0.164 HD BRANCH   6   9ATOM      9  C   UNL     1      36.309  46.344  14.350 -0.40 -0.03    +0.042 A  ATOM     10  C   UNL     1      36.804  47.618  14.626 -0.43 -0.03    +0.034 A  ATOM     11  C   UNL     1      36.010  45.987  13.035 -0.49 -0.02    +0.034 A  ATOM     12  C   UNL     1      36.956  48.497  13.571 -0.46 -0.06    +0.112 A  ATOM     13  C   UNL     1      36.200  46.940  12.050 -0.59 -0.06    +0.112 A  ATOM     14  N   UNL     1      36.656  48.187  12.290 -0.91 +0.08    -0.265 NA ENDBRANCH   6   9ENDBRANCH   3   5ENDBRANCH   2   3BRANCH   2  15ATOM     15  C   UNL     1      35.157  42.185  18.109 -0.45 -0.00    +0.011 C  BRANCH  15  16ATOM     16  C   UNL     1      34.624  42.399  19.529 -0.47 -0.00    +0.016 C  BRANCH  16  17ATOM     17  C   UNL     1      35.418  43.392  20.394 -0.39 -0.00    +0.081 C  BRANCH  17  18ATOM     18  N   UNL     1      35.294  44.775  19.964 -0.09 +0.06    -0.315 NA ATOM     19  H   UNL     1      35.847  45.376  20.576 +0.06 -0.01    +0.122 HD BRANCH  18  20ATOM     20  C   UNL     1      35.730  45.016  18.579 -0.32 -0.03    +0.106 CG0ATOM     21  G   UNL     1      34.744  44.693  17.420 +0.00 +0.00    +0.000 G0 ENDBRANCH  18  20ENDBRANCH  17  18ENDBRANCH  16  17ENDBRANCH  15  16ENDBRANCH   2  15ENDBRANCH   1   2BRANCH   1  22ATOM     22  C   UNL     1      32.548  41.819  17.213 -0.31 -0.00    +0.004 C  BRANCH  22  23ATOM     23  C   UNL     1      31.081  41.681  17.221 -0.30 +0.01    -0.026 A  ATOM     24  C   UNL     1      30.517  40.625  17.956 -0.30 -0.00    +0.009 A  ATOM     25  C   UNL     1      30.220  42.530  16.513 -0.29 -0.00    +0.009 A  ATOM     26  C   UNL     1      29.130  40.434  18.003 -0.23 +0.00    +0.013 A  ATOM     27  C   UNL     1      28.833  42.345  16.557 -0.24 -0.00    +0.013 A  ATOM     28  C   UNL     1      28.284  41.309  17.319 -0.21 -0.00    +0.023 A  BRANCH  28  29ATOM     29  C   UNL     1      26.813  41.133  17.319 -0.16 -0.01    +0.199 C  ATOM     30  O   UNL     1      26.198  41.233  16.257 -0.18 +0.04    -0.288 OA BRANCH  29  31ATOM     31  C   UNL     1      26.044  40.791  18.533 -0.18 -0.01    +0.104 A  ATOM     32  C   UNL     1      25.257  39.630  18.549 -0.25 -0.02    +0.130 A  ATOM     33  C   UNL     1      26.042  41.611  19.660 -0.21 -0.03    +0.179 A  ATOM     34  C   UNL     1      24.534  39.267  19.687 -0.30 -0.03    +0.051 A  ATOM     35  C   UNL     1      25.312  41.253  20.794 -0.33 -0.03    +0.152 A  ATOM     36  C   UNL     1      24.567  40.081  20.819 -0.35 -0.02    +0.053 A  ATOM     37  F   UNL     1      26.717  42.770  19.687 -0.07 +0.04    -0.202 F  BRANCH  32  38ATOM     38  O   UNL     1      25.150  38.793  17.470 -0.62 -0.02    -0.507 OA ATOM     39  H   UNL     1      25.673  39.181  16.733 +0.16 +0.09    +0.293 HD ENDBRANCH  32  38BRANCH  35  40ATOM     40  O   UNL     1      25.310  42.047  21.905 -0.42 +0.09    -0.505 OA ATOM     41  H   UNL     1      25.712  42.901  21.659 -0.35 -0.14    +0.293 HD ENDBRANCH  35  40ENDBRANCH  29  31ENDBRANCH  28  29ENDBRANCH  22  23ENDBRANCH   1  22TORSDOF 9TERENDMDL