REMARK SMILES COc1cccc(-c2n[nH]c3cc(NCC[C@@H](N)C(N)=O)ccc23)c1C
REMARK SMILES IDX 14 1 13 3 8 4 9 5 24 6 10 7 23 8 11 9 22 10 12 11 7 13 3 14
REMARK SMILES IDX 4 15 25 16 5 17 6 18 26 19 2 20 1 21 15 22 16 23 17 24 18 25
REMARK SMILES IDX 19 28 20 29 21 30
REMARK H PARENT 14 2 10 12 18 26 18 27 20 31 20 32
ROOT
ATOM      1  N   UNL     1      -3.081  -0.574   0.034  1.00  0.00    -0.385 N 
ATOM      2  H   UNL     1      -3.216  -1.565   0.230  1.00  0.00     0.160 HD
ENDROOT
BRANCH   1   3
ATOM      3  C   UNL     1      -1.712  -0.289  -0.090  1.00  0.00     0.036 A 
ATOM      4  C   UNL     1       2.349   0.828  -0.360  1.00  0.00     0.100 A 
ATOM      5  N   UNL     1       2.247   1.897  -1.166  1.00  0.00    -0.174 NA
ATOM      6  C   UNL     1       1.068   0.254  -0.097  1.00  0.00     0.028 A 
ATOM      7  N   UNL     1       0.931   2.002  -1.404  1.00  0.00    -0.277 N 
ATOM      8  C   UNL     1       0.573  -0.827   0.651  1.00  0.00     0.015 A 
ATOM      9  C   UNL     1       0.168   1.042  -0.799  1.00  0.00     0.068 A 
ATOM     10  C   UNL     1      -0.810  -1.069   0.653  1.00  0.00     0.026 A 
ATOM     11  C   UNL     1      -1.216   0.813  -0.803  1.00  0.00     0.054 A 
ATOM     12  H   UNL     1       0.612   2.759  -1.997  1.00  0.00     0.190 HD
BRANCH   4  13
ATOM     13  C   UNL     1       3.642   0.387   0.159  1.00  0.00     0.009 A 
ATOM     14  C   UNL     1       5.906  -0.470  -0.118  1.00  0.00     0.122 A 
ATOM     15  C   UNL     1       6.091  -0.394   1.268  1.00  0.00     0.047 A 
ATOM     16  C   UNL     1       4.667  -0.099  -0.685  1.00  0.00     0.000 A 
ATOM     17  C   UNL     1       5.067   0.065   2.096  1.00  0.00     0.005 A 
ATOM     18  C   UNL     1       3.852   0.458   1.545  1.00  0.00     0.011 A 
ATOM     19  C   UNL     1       4.467  -0.169  -2.180  1.00  0.00     0.049 C 
BRANCH  14  20
ATOM     20  O   UNL     1       6.868  -0.898  -0.998  1.00  0.00    -0.496 OA
ATOM     21  C   UNL     1       8.157  -1.192  -0.477  1.00  0.00     0.278 C 
ENDBRANCH  14  20
ENDBRANCH   4  13
ENDBRANCH   1   3
BRANCH   1  22
ATOM     22  C   UNL     1      -4.013  -0.082  -0.984  1.00  0.00     0.115 C 
BRANCH  22  23
ATOM     23  C   UNL     1      -5.440  -0.498  -0.621  1.00  0.00     0.050 C 
BRANCH  23  24
ATOM     24  C   UNL     1      -6.020   0.336   0.528  1.00  0.00     0.142 C 
BRANCH  24  25
ATOM     25  N   UNL     1      -6.370   1.701   0.069  1.00  0.00    -0.320 NA
ATOM     26  H   UNL     1      -6.831   2.191   0.836  1.00  0.00     0.119 HD
ATOM     27  H   UNL     1      -7.084   1.621  -0.657  1.00  0.00     0.119 HD
ENDBRANCH  24  25
BRANCH  24  28
ATOM     28  C   UNL     1      -7.285  -0.324   1.113  1.00  0.00     0.234 C 
ATOM     29  N   UNL     1      -7.765   0.282   2.245  1.00  0.00    -0.368 N 
ATOM     30  O   UNL     1      -7.870  -1.282   0.622  1.00  0.00    -0.274 OA
ATOM     31  H   UNL     1      -8.533  -0.191   2.705  1.00  0.00     0.159 HD
ATOM     32  H   UNL     1      -7.149   0.838   2.825  1.00  0.00     0.159 HD
ENDBRANCH  24  28
ENDBRANCH  23  24
ENDBRANCH  22  23
ENDBRANCH   1  22
TORSDOF 8
