REMARK SMILES O=C(N[C@@H]1CNCCC[C@H]1/C=C/c1ccc(C(=O)c2c(O)ccc(O)c2F)cc1)c1ccncc1
REMARK SMILES IDX 11 1 10 2 4 3 3 5 2 6 1 7 30 9 31 10 35 11 32 12 34 13 33 14
REMARK SMILES IDX 9 15 8 16 7 17 6 18 5 20 12 22 13 23 14 24 29 25 15 26 28 27
REMARK SMILES IDX 16 28 17 29 18 30 19 31 20 32 26 33 22 34 24 35 23 36 27 37
REMARK SMILES IDX 21 38 25 40
REMARK H PARENT 3 8 6 19 21 39 25 41
REMARK Flexibility Score:   99.900
ROOT
ATOM      1  C   UNL     1      -0.556  -0.810  -0.070  1.00  0.00    -0.021 C 
ENDROOT
BRANCH   1   2
ATOM      2  C   UNL     1      -1.999  -0.711   0.398  1.00  0.00     0.035 C 
BRANCH   2   3
ATOM      3  C   UNL     1      -2.950  -0.417  -0.795  1.00  0.00     0.103 CG0
ATOM      4  G   UNL     1      -3.277  -1.656  -1.677  1.00  0.00     0.000 G0
BRANCH   3   5
ATOM      5  N   UNL     1      -4.163   0.286  -0.341  1.00  0.00    -0.347 N 
ATOM      6  C   UNL     1      -4.952   1.006  -1.215  1.00  0.00     0.251 C 
ATOM      7  O   UNL     1      -4.731   1.091  -2.417  1.00  0.00    -0.269 OA
ATOM      8  H   UNL     1      -4.269   0.449   0.650  1.00  0.00     0.164 HD
BRANCH   6   9
ATOM      9  C   UNL     1      -6.101   1.734  -0.618  1.00  0.00     0.042 A 
ATOM     10  C   UNL     1      -6.552   2.891  -1.253  1.00  0.00     0.034 A 
ATOM     11  C   UNL     1      -6.749   1.278   0.531  1.00  0.00     0.034 A 
ATOM     12  C   UNL     1      -7.622   3.563  -0.694  1.00  0.00     0.112 A 
ATOM     13  C   UNL     1      -7.813   2.022   1.009  1.00  0.00     0.112 A 
ATOM     14  N   UNL     1      -8.256   3.157   0.428  1.00  0.00    -0.265 NA
ENDBRANCH   6   9
ENDBRANCH   3   5
ENDBRANCH   2   3
BRANCH   2  15
ATOM     15  C   UNL     1      -2.328  -1.960   1.246  1.00  0.00     0.011 C 
BRANCH  15  16
ATOM     16  C   UNL     1      -3.815  -2.290   1.409  1.00  0.00     0.016 C 
BRANCH  16  17
ATOM     17  C   UNL     1      -4.539  -2.740   0.129  1.00  0.00     0.081 C 
BRANCH  17  18
ATOM     18  N   UNL     1      -3.657  -2.914  -1.014  1.00  0.00    -0.315 NA
ATOM     19  H   UNL     1      -4.108  -3.511  -1.708  1.00  0.00     0.122 HD
BRANCH  18  20
ATOM     20  C   UNL     1      -3.277  -1.656  -1.677  1.00  0.00     0.106 CG0
ATOM     21  G   UNL     1      -2.950  -0.417  -0.795  1.00  0.00     0.000 G0
ENDBRANCH  18  20
ENDBRANCH  17  18
ENDBRANCH  16  17
ENDBRANCH  15  16
ENDBRANCH   2  15
ENDBRANCH   1   2
BRANCH   1  22
ATOM     22  C   UNL     1       0.390   0.095   0.231  1.00  0.00     0.004 C 
BRANCH  22  23
ATOM     23  C   UNL     1       1.805   0.049  -0.180  1.00  0.00    -0.026 A 
ATOM     24  C   UNL     1       2.690   0.985   0.380  1.00  0.00     0.009 A 
ATOM     25  C   UNL     1       2.309  -0.861  -1.119  1.00  0.00     0.009 A 
ATOM     26  C   UNL     1       4.046   1.000   0.030  1.00  0.00     0.013 A 
ATOM     27  C   UNL     1       3.664  -0.853  -1.471  1.00  0.00     0.013 A 
ATOM     28  C   UNL     1       4.539   0.064  -0.881  1.00  0.00     0.023 A 
BRANCH  28  29
ATOM     29  C   UNL     1       5.960   0.056  -1.300  1.00  0.00     0.199 C 
ATOM     30  O   UNL     1       6.235  -0.160  -2.481  1.00  0.00    -0.288 OA
BRANCH  29  31
ATOM     31  C   UNL     1       7.074   0.345  -0.373  1.00  0.00     0.104 A 
ATOM     32  C   UNL     1       8.234   0.966  -0.859  1.00  0.00     0.130 A 
ATOM     33  C   UNL     1       7.027  -0.017   0.972  1.00  0.00     0.179 A 
ATOM     34  C   UNL     1       9.296   1.272  -0.006  1.00  0.00     0.051 A 
ATOM     35  C   UNL     1       8.092   0.281   1.822  1.00  0.00     0.152 A 
ATOM     36  C   UNL     1       9.222   0.933   1.345  1.00  0.00     0.053 A 
ATOM     37  F   UNL     1       5.977  -0.675   1.486  1.00  0.00    -0.202 F 
BRANCH  32  38
ATOM     38  O   UNL     1       8.396   1.306  -2.176  1.00  0.00    -0.507 OA
ATOM     39  H   UNL     1       7.701   0.843  -2.696  1.00  0.00     0.293 HD
ENDBRANCH  32  38
BRANCH  35  40
ATOM     40  O   UNL     1       8.052  -0.064   3.143  1.00  0.00    -0.505 OA
ATOM     41  H   UNL     1       7.217  -0.545   3.298  1.00  0.00     0.293 HD
ENDBRANCH  35  40
ENDBRANCH  29  31
ENDBRANCH  28  29
ENDBRANCH  22  23
ENDBRANCH   1  22
TORSDOF 9
