MODEL        6USER    Run = 6USERUSER    Estimated Free Energy of Binding    = -10.50 kcal/mol  [=(1)+(2)+(3)-(4)]USERUSER    (1) Final Intermolecular Energy     = -12.59 kcal/molUSER        vdW + Hbond + desolv Energy     = -12.25 kcal/molUSER        Electrostatic Energy            =  -0.33 kcal/molUSER        Moving Ligand-Fixed Receptor    = -12.59 kcal/molUSER        Moving Ligand-Moving Receptor   =  +0.00 kcal/molUSER    (2) Final Total Internal Energy     =  -1.80 kcal/molUSER    (3) Torsional Free Energy           =  +2.09 kcal/molUSER    (4) Unbound System's Energy         =  -1.80 kcal/molUSERUSERREMARK SMILES OCCNC1=C(c2ccc(F)c(-c3ccc(O)cc3)c2)N=C2C=CN=C[C@H]21REMARK SMILES IDX 5 1 6 2 21 3 22 4 23 5 24 6 25 7 26 8 27 9 4 10 3 12 2 13REMARK SMILES IDX 1 14 7 16 8 17 20 18 9 19 12 20 10 21 11 22 13 23 14 24REMARK SMILES IDX 19 25 15 26 18 27 16 28 17 29REMARK H PARENT 4 11 1 15 17 30USER                              x       y       z     vdW  Elec       q    TypeUSER                           _______ _______ _______ _____ _____    ______ ____ROOTATOM      1  C   UNL     1      38.651  47.158  15.119 -0.48 -0.02    +0.052 C  ATOM      2  C   UNL     1      38.246  46.028  15.744 -0.38 -0.03    +0.091 C  ATOM      3  N   UNL     1      37.543  45.159  14.938 -0.20 +0.09    -0.250 NA ATOM      4  C   UNL     1      37.437  45.791  13.815 -0.47 -0.02    +0.057 C  ATOM      5  C   UNL     1      36.576  45.423  12.691 -0.57 -0.02    +0.045 C  ATOM      6  C   UNL     1      36.115  46.475  11.998 -0.64 -0.05    +0.112 C  ATOM      7  N   UNL     1      36.348  47.808  12.265 -0.75 +0.12    -0.268 NA ATOM      8  C   UNL     1      37.304  48.104  13.099 -0.42 -0.03    +0.100 C  ATOM      9  C   UNL     1      38.219  47.064  13.684 -0.43 -0.04    +0.128 C  ENDROOTBRANCH   1  10ATOM     10  N   UNL     1      39.411  48.213  15.606 -0.21 +0.15    -0.383 N  ATOM     11  H   UNL     1      39.780  47.999  16.536 +0.11 -0.05    +0.160 HD BRANCH  10  12ATOM     12  C   UNL     1      40.374  48.976  14.801 -0.52 -0.04    +0.141 C  BRANCH  12  13ATOM     13  C   UNL     1      41.347  49.698  15.740 -0.53 -0.02    +0.177 C  BRANCH  13  14ATOM     14  O   UNL     1      41.662  48.855  16.846 -0.84 -0.04    -0.395 OA ATOM     15  H   UNL     1      42.178  48.113  16.470 -0.38 +0.01    +0.210 HD ENDBRANCH  13  14ENDBRANCH  12  13ENDBRANCH  10  12ENDBRANCH   1  10BRANCH   2  16ATOM     16  C   UNL     1      38.490  45.682  17.153 -0.39 -0.00    +0.003 A  ATOM     17  C   UNL     1      37.559  44.948  17.896 -0.35 -0.00    +0.013 A  ATOM     18  C   UNL     1      39.700  46.061  17.760 -0.44 -0.00    +0.022 A  ATOM     19  C   UNL     1      37.821  44.626  19.227 -0.33 -0.00    +0.040 A  ATOM     20  C   UNL     1      39.990  45.746  19.102 -0.43 -0.00    +0.018 A  ATOM     21  C   UNL     1      39.019  45.025  19.815 -0.30 -0.00    +0.131 A  ATOM     22  F   UNL     1      39.230  44.687  21.097 -0.07 -0.01    -0.206 F  BRANCH  20  23ATOM     23  C   UNL     1      41.266  46.159  19.715 -0.41 -0.00    -0.015 A  ATOM     24  C   UNL     1      42.175  46.974  19.016 -0.53 +0.00    +0.012 A  ATOM     25  C   UNL     1      41.613  45.759  21.019 -0.32 +0.00    +0.012 A  ATOM     26  C   UNL     1      43.381  47.375  19.599 -0.37 +0.01    +0.047 A  ATOM     27  C   UNL     1      42.820  46.157  21.603 -0.28 +0.01    +0.047 A  ATOM     28  C   UNL     1      43.694  46.963  20.886 -0.28 +0.06    +0.115 A  BRANCH  28  29ATOM     29  O   UNL     1      44.881  47.375  21.416 -0.65 -0.45    -0.508 OA ATOM     30  H   UNL     1      44.845  48.337  21.542 -0.40 +0.05    +0.293 HD ENDBRANCH  28  29ENDBRANCH  20  23ENDBRANCH   2  16TORSDOF 7TERENDMDL