MODEL        9USER    Run = 9USERUSER    Estimated Free Energy of Binding    = -11.33 kcal/mol  [=(1)+(2)+(3)-(4)]USERUSER    (1) Final Intermolecular Energy     = -13.71 kcal/molUSER        vdW + Hbond + desolv Energy     = -13.29 kcal/molUSER        Electrostatic Energy            =  -0.42 kcal/molUSER        Moving Ligand-Fixed Receptor    = -13.71 kcal/molUSER        Moving Ligand-Moving Receptor   =  +0.00 kcal/molUSER    (2) Final Total Internal Energy     =  -1.28 kcal/molUSER    (3) Torsional Free Energy           =  +2.39 kcal/molUSER    (4) Unbound System's Energy         =  -1.28 kcal/molUSERUSERREMARK SMILES Oc1ccc(Oc2ccc3nc(-c4ccc(CN5CCC(n6c(O)nc7ccccc76)CC5)cc4)cnc3c2)cc1FREMARK SMILES IDX 13 1 14 2 15 3 16 4 34 5 35 6 12 7 7 8 8 9 39 10 9 11 38 12REMARK SMILES IDX 10 13 37 14 11 15 36 16 6 17 5 18 2 19 3 20 41 21 4 22 40 23REMARK SMILES IDX 42 24 1 25 17 27 18 28 19 29 33 30 20 31 32 32 21 33 22 34REMARK SMILES IDX 23 35 31 36 25 37 30 38 26 39 29 40 27 41 28 42 24 43REMARK H PARENT 1 26 24 44USER                              x       y       z     vdW  Elec       q    TypeUSER                           _______ _______ _______ _____ _____    ______ ____ROOTATOM      1  C   UNL     1      31.943  42.732  17.149 -0.31 -0.00    +0.002 A  ATOM      2  C   UNL     1      30.898  43.499  16.605 -0.29 -0.00    +0.011 A  ATOM      3  C   UNL     1      29.706  42.906  16.172 -0.28 -0.00    +0.006 A  ATOM      4  C   UNL     1      29.514  41.522  16.278 -0.32 +0.01    -0.034 A  ATOM      5  C   UNL     1      30.539  40.746  16.827 -0.36 -0.00    +0.006 A  ATOM      6  C   UNL     1      31.730  41.345  17.258 -0.25 -0.00    +0.011 A  ENDROOTBRANCH   1   7ATOM      7  C   UNL     1      33.215  43.335  17.593 -0.26 -0.03    +0.089 A  ATOM      8  C   UNL     1      37.906  44.907  17.845 -0.28 -0.03    +0.129 A  ATOM      9  C   UNL     1      37.766  44.245  16.629 -0.20 -0.01    +0.049 A  ATOM     10  C   UNL     1      36.806  45.006  18.698 -0.25 -0.02    +0.077 A  ATOM     11  C   UNL     1      36.537  43.683  16.277 -0.37 -0.01    +0.034 A  ATOM     12  C   UNL     1      35.578  44.451  18.355 -0.27 -0.03    +0.092 A  ATOM     13  C   UNL     1      35.438  43.776  17.118 -0.27 -0.03    +0.090 A  ATOM     14  N   UNL     1      34.540  44.568  19.201 -0.23 +0.07    -0.252 NA ATOM     15  N   UNL     1      34.267  43.228  16.740 -0.20 +0.10    -0.245 NA ATOM     16  C   UNL     1      33.372  44.006  18.801 -0.29 -0.03    +0.140 A  BRANCH   8  17ATOM     17  O   UNL     1      39.158  45.438  18.078 -0.15 +0.06    -0.457 OA BRANCH  17  18ATOM     18  C   UNL     1      39.537  46.540  17.356 -0.37 -0.03    +0.130 A  ATOM     19  C   UNL     1      40.301  48.832  15.989 -0.45 -0.04    +0.151 A  ATOM     20  C   UNL     1      41.183  48.251  16.899 -0.46 -0.00    +0.053 A  ATOM     21  C   UNL     1      39.040  48.272  15.776 -0.36 -0.08    +0.168 A  ATOM     22  C   UNL     1      40.794  47.103  17.593 -0.48 -0.01    +0.051 A  ATOM     23  C   UNL     1      38.645  47.129  16.462 -0.36 -0.04    +0.090 A  ATOM     24  F   UNL     1      38.186  48.835  14.909 -0.16 +0.14    -0.203 F  BRANCH  19  25ATOM     25  O   UNL     1      40.653  49.955  15.296 -0.28 +0.20    -0.505 OA ATOM     26  H   UNL     1      39.903  50.571  15.281 -0.22 -0.24    +0.293 HD ENDBRANCH  19  25ENDBRANCH  17  18ENDBRANCH   8  17ENDBRANCH   1   7BRANCH   4  27ATOM     27  C   UNL     1      28.232  40.882  15.787 -0.33 -0.02    +0.120 C  BRANCH  27  28ATOM     28  N   UNL     1      27.685  39.892  16.727 -0.13 -0.09    -0.299 NA ATOM     29  C   UNL     1      26.266  39.587  16.507 -0.26 +0.03    +0.087 C  ATOM     30  C   UNL     1      27.920  40.242  18.128 -0.22 +0.01    +0.087 C  ATOM     31  C   UNL     1      25.300  40.686  16.964 -0.21 -0.00    +0.041 C  ATOM     32  C   UNL     1      27.110  41.448  18.594 -0.20 -0.00    +0.041 C  ATOM     33  C   UNL     1      25.602  41.272  18.356 -0.26 -0.01    +0.095 C  BRANCH  33  34ATOM     34  N   UNL     1      24.937  40.662  19.505 -0.13 +0.06    -0.291 N  ATOM     35  C   UNL     1      24.542  39.370  19.702 -0.14 -0.14    +0.295 A  ATOM     36  C   UNL     1      24.562  41.360  20.646 -0.42 -0.02    +0.072 A  ATOM     37  N   UNL     1      23.970  39.168  20.859 -0.24 +0.12    -0.195 NA ATOM     38  C   UNL     1      24.683  42.702  21.037 -0.47 -0.01    +0.029 A  ATOM     39  C   UNL     1      23.969  40.397  21.463 -0.37 -0.03    +0.092 A  ATOM     40  C   UNL     1      24.183  43.051  22.297 -0.68 -0.00    +0.002 A  ATOM     41  C   UNL     1      23.473  40.766  22.722 -0.43 -0.01    +0.031 A  ATOM     42  C   UNL     1      23.587  42.102  23.129 -0.62 -0.00    +0.002 A  BRANCH  35  43ATOM     43  O   UNL     1      24.680  38.384  18.845 -0.16 +0.33    -0.480 OA ATOM     44  H   UNL     1      24.444  37.617  19.399 -0.32 -0.58    +0.296 HD ENDBRANCH  35  43ENDBRANCH  33  34ENDBRANCH  27  28ENDBRANCH   4  27TORSDOF 8TERENDMDL