MODEL        3USER    Run = 3USERUSER    Estimated Free Energy of Binding    =  -6.83 kcal/mol  [=(1)+(2)+(3)-(4)]USERUSER    (1) Final Intermolecular Energy     = -11.30 kcal/molUSER        vdW + Hbond + desolv Energy     = -12.02 kcal/molUSER        Electrostatic Energy            =  -0.10 kcal/molUSER        Moving Ligand-Fixed Receptor    = -12.12 kcal/molUSER        Moving Ligand-Moving Receptor   =  +0.82 kcal/molUSER    (2) Final Total Internal Energy     =  -3.75 kcal/molUSER    (3) Torsional Free Energy           =  +4.47 kcal/molUSER    (4) Unbound System's Energy         =  -3.75 kcal/molUSERUSERREMARK SMILES COc1ccc(O)c(C(=O)c2ccc(C(=O)N[C@@H]3CCCN(S(C)(=O)=O)C[C@H]3NC(=O)c3ccncc3)cc2)c1FREMARK SMILES IDX 15 1 16 2 17 3 14 5 11 6 12 7 39 8 13 9 38 10 9 11 10 12REMARK SMILES IDX 8 13 3 14 4 15 40 16 5 17 6 18 41 19 2 20 1 21 7 22 18 24REMARK SMILES IDX 19 25 28 27 27 28 22 29 21 30 20 31 23 33 24 34 25 35 26 36REMARK SMILES IDX 29 37 30 38 31 40 32 41 33 42 37 43 34 44 36 45 35 46REMARK H PARENT 17 4 7 23 29 39REMARK Flexibility Score:   88.900USER                              x       y       z     vdW  Elec       q    TypeUSER                           _______ _______ _______ _____ _____    ______ ____ROOTATOM      1  C   UNL     1      40.630  44.976  19.083 -0.32 +0.01    +0.251 C  ATOM      2  O   UNL     1      40.828  43.982  18.392 -0.29 -0.01    -0.269 OA ATOM      3  N   UNL     1      40.349  46.231  18.574 -0.23 +0.02    -0.347 N  ATOM      4  H   UNL     1      39.781  46.802  19.188 +0.08 -0.01    +0.164 HD ENDROOTBRANCH   1   5ATOM      5  C   UNL     1      40.626  44.852  20.566 -0.34 +0.00    +0.039 A  ATOM      6  C   UNL     1      40.549  44.692  23.361 -0.16 +0.00    +0.023 A  ATOM      7  C   UNL     1      41.028  43.612  22.610 -0.27 +0.00    +0.013 A  ATOM      8  C   UNL     1      40.077  45.841  22.714 -0.26 +0.00    +0.013 A  ATOM      9  C   UNL     1      41.072  43.694  21.215 -0.27 +0.00    +0.014 A  ATOM     10  C   UNL     1      40.117  45.918  21.320 -0.20 +0.00    +0.014 A  BRANCH   6  11ATOM     11  C   UNL     1      40.480  44.559  24.834 -0.08 +0.00    +0.199 C  ATOM     12  O   UNL     1      41.415  44.027  25.434 -0.04 -0.00    -0.288 OA BRANCH  11  13ATOM     13  C   UNL     1      39.291  44.967  25.611 -0.11 +0.00    +0.104 A  ATOM     14  C   UNL     1      37.756  46.678  26.423 -0.24 -0.01    +0.155 A  ATOM     15  C   UNL     1      36.989  45.688  27.039 -0.32 -0.01    +0.053 A  ATOM     16  C   UNL     1      38.907  46.305  25.713 -0.14 +0.01    +0.179 A  ATOM     17  C   UNL     1      37.385  44.349  26.970 -0.30 -0.01    +0.051 A  ATOM     18  C   UNL     1      38.539  43.996  26.277 -0.14 -0.00    +0.130 A  ATOM     19  F   UNL     1      39.659  47.263  25.147 -0.03 -0.02    -0.202 F  BRANCH  14  20ATOM     20  O   UNL     1      37.482  48.020  26.436 -0.11 +0.01    -0.494 OA ATOM     21  C   UNL     1      36.967  48.591  25.237 -0.31 +0.01    +0.278 C  ENDBRANCH  14  20BRANCH  18  22ATOM     22  O   UNL     1      38.876  42.669  26.281 -0.02 +0.02    -0.507 OA ATOM     23  H   UNL     1      39.839  42.599  26.091 +0.12 -0.01    +0.293 HD ENDBRANCH  18  22ENDBRANCH  11  13ENDBRANCH   6  11ENDBRANCH   1   5BRANCH   3  24ATOM     24  C   UNL     1      40.161  46.434  17.125 -0.46 -0.01    +0.106 C  BRANCH  24  25ATOM     25  C   UNL     1      40.600  47.861  16.729 -0.59 -0.00    +0.028 CG0ATOM     26  G   UNL     1      40.187  48.296  15.326 +0.00 +0.00    +0.000 G0 ENDBRANCH  24  25BRANCH  24  27ATOM     27  C   UNL     1      38.711  46.043  16.692 -0.38 -0.03    +0.120 C  BRANCH  27  28ATOM     28  C   UNL     1      38.573  45.533  15.245 -0.28 -0.03    +0.129 C  BRANCH  28  29ATOM     29  N   UNL     1      38.583  46.700  14.285 -0.29 +0.06    -0.200 NA BRANCH  29  30ATOM     30  C   UNL     1      38.718  47.992  15.010 -0.51 -0.05    +0.102 C  BRANCH  30  31ATOM     31  C   UNL     1      40.182  48.289  15.319 -0.63 -0.00    +0.019 CG0ATOM     32  G   UNL     1      40.599  47.863  16.724 +0.00 +0.00    +0.000 G0 ENDBRANCH  30  31ENDBRANCH  29  30BRANCH  29  33ATOM     33  S   UNL     1      37.294  46.634  13.154 -0.58 -0.08    +0.211 S  ATOM     34  C   UNL     1      35.927  47.311  14.077 -0.27 -0.14    +0.176 C  ATOM     35  O   UNL     1      37.607  47.576  12.101 -1.06 +0.01    -0.213 OA ATOM     36  O   UNL     1      37.038  45.239  12.875 -0.41 +0.07    -0.213 OA ENDBRANCH  29  33ENDBRANCH  28  29ENDBRANCH  27  28BRANCH  27  37ATOM     37  N   UNL     1      38.140  45.059  17.617 -0.15 +0.07    -0.346 N  ATOM     38  C   UNL     1      36.856  45.147  18.094 -0.23 -0.07    +0.251 C  ATOM     39  H   UNL     1      38.733  44.270  17.846 +0.10 -0.02    +0.164 HD ATOM     40  O   UNL     1      36.052  45.995  17.721 -0.25 +0.14    -0.269 OA BRANCH  38  41ATOM     41  C   UNL     1      36.464  44.108  19.082 -0.34 -0.01    +0.042 A  ATOM     42  C   UNL     1      35.267  43.417  18.888 -0.35 -0.01    +0.034 A  ATOM     43  C   UNL     1      37.254  43.828  20.197 -0.36 -0.00    +0.034 A  ATOM     44  C   UNL     1      34.927  42.440  19.808 -0.35 -0.00    +0.112 A  ATOM     45  C   UNL     1      36.822  42.835  21.059 -0.36 +0.00    +0.112 A  ATOM     46  N   UNL     1      35.684  42.129  20.884 -0.30 -0.01    -0.265 NA ENDBRANCH  38  41ENDBRANCH  27  37ENDBRANCH  24  27ENDBRANCH   3  24TORSDOF 9TERENDMDL