REMARK SMILES Oc1ccc(Oc2ccc3nc(-c4ccc(CN5CCC(n6c(O)nc7ccccc76)CC5)cc4)cnc3c2)cc1F
REMARK SMILES IDX 13 1 14 2 15 3 16 4 34 5 35 6 12 7 7 8 8 9 39 10 9 11 38 12
REMARK SMILES IDX 10 13 37 14 11 15 36 16 6 17 5 18 2 19 3 20 41 21 4 22 40 23
REMARK SMILES IDX 42 24 1 25 17 27 18 28 19 29 33 30 20 31 32 32 21 33 22 34
REMARK SMILES IDX 23 35 31 36 25 37 30 38 26 39 29 40 27 41 28 42 24 43
REMARK H PARENT 1 26 24 44
ROOT
ATOM      1  C   UNL     1       1.537   0.179  -0.870  1.00  0.00     0.002 A 
ATOM      2  C   UNL     1       0.840   1.380  -1.089  1.00  0.00     0.011 A 
ATOM      3  C   UNL     1      -0.528   1.385  -1.388  1.00  0.00     0.006 A 
ATOM      4  C   UNL     1      -1.249   0.187  -1.468  1.00  0.00    -0.034 A 
ATOM      5  C   UNL     1      -0.573  -1.015  -1.242  1.00  0.00     0.006 A 
ATOM      6  C   UNL     1       0.796  -1.015  -0.944  1.00  0.00     0.011 A 
ENDROOT
BRANCH   1   7
ATOM      7  C   UNL     1       2.983   0.150  -0.573  1.00  0.00     0.089 A 
ATOM      8  C   UNL     1       7.483  -1.126   1.060  1.00  0.00     0.129 A 
ATOM      9  C   UNL     1       6.596  -2.096   1.518  1.00  0.00     0.049 A 
ATOM     10  C   UNL     1       6.997  -0.066   0.292  1.00  0.00     0.077 A 
ATOM     11  C   UNL     1       5.237  -2.000   1.213  1.00  0.00     0.034 A 
ATOM     12  C   UNL     1       5.645   0.037  -0.017  1.00  0.00     0.092 A 
ATOM     13  C   UNL     1       4.745  -0.950   0.451  1.00  0.00     0.090 A 
ATOM     14  N   UNL     1       5.214   1.070  -0.761  1.00  0.00    -0.252 NA
ATOM     15  N   UNL     1       3.428  -0.896   0.171  1.00  0.00    -0.245 NA
ATOM     16  C   UNL     1       3.885   1.106  -1.027  1.00  0.00     0.140 A 
BRANCH   8  17
ATOM     17  O   UNL     1       8.802  -1.333   1.405  1.00  0.00    -0.457 OA
BRANCH  17  18
ATOM     18  C   UNL     1       9.707  -0.342   1.123  1.00  0.00     0.130 A 
ATOM     19  C   UNL     1      11.621   1.592   0.575  1.00  0.00     0.151 A 
ATOM     20  C   UNL     1      11.470   0.512  -0.294  1.00  0.00     0.053 A 
ATOM     21  C   UNL     1      10.825   1.693   1.717  1.00  0.00     0.168 A 
ATOM     22  C   UNL     1      10.512  -0.465  -0.012  1.00  0.00     0.051 A 
ATOM     23  C   UNL     1       9.869   0.726   2.004  1.00  0.00     0.090 A 
ATOM     24  F   UNL     1      10.976   2.725   2.559  1.00  0.00    -0.203 F 
BRANCH  19  25
ATOM     25  O   UNL     1      12.550   2.562   0.326  1.00  0.00    -0.505 OA
ATOM     26  H   UNL     1      13.035   2.341  -0.485  1.00  0.00     0.293 HD
ENDBRANCH  19  25
ENDBRANCH  17  18
ENDBRANCH   8  17
ENDBRANCH   1   7
BRANCH   4  27
ATOM     27  C   UNL     1      -2.724   0.196  -1.814  1.00  0.00     0.120 C 
BRANCH  27  28
ATOM     28  N   UNL     1      -3.524   1.034  -0.909  1.00  0.00    -0.299 NA
ATOM     29  C   UNL     1      -3.657   0.484   0.445  1.00  0.00     0.087 C 
ATOM     30  C   UNL     1      -4.840   1.371  -1.454  1.00  0.00     0.087 C 
ATOM     31  C   UNL     1      -4.615  -0.708   0.558  1.00  0.00     0.041 C 
ATOM     32  C   UNL     1      -5.786   0.176  -1.531  1.00  0.00     0.041 C 
ATOM     33  C   UNL     1      -5.958  -0.527  -0.175  1.00  0.00     0.095 C 
BRANCH  33  34
ATOM     34  N   UNL     1      -7.075   0.026   0.587  1.00  0.00    -0.291 N 
ATOM     35  C   UNL     1      -7.068   0.855   1.672  1.00  0.00     0.295 A 
ATOM     36  C   UNL     1      -8.410  -0.244   0.315  1.00  0.00     0.072 A 
ATOM     37  N   UNL     1      -8.261   1.157   2.108  1.00  0.00    -0.195 NA
ATOM     38  C   UNL     1      -9.056  -1.025  -0.655  1.00  0.00     0.029 A 
ATOM     39  C   UNL     1      -9.114   0.479   1.278  1.00  0.00     0.092 A 
ATOM     40  C   UNL     1     -10.455  -1.055  -0.627  1.00  0.00     0.002 A 
ATOM     41  C   UNL     1     -10.516   0.436   1.290  1.00  0.00     0.031 A 
ATOM     42  C   UNL     1     -11.177  -0.338   0.328  1.00  0.00     0.002 A 
BRANCH  35  43
ATOM     43  O   UNL     1      -5.999   1.326   2.274  1.00  0.00    -0.480 OA
ATOM     44  H   UNL     1      -6.401   1.864   2.981  1.00  0.00     0.296 HD
ENDBRANCH  35  43
ENDBRANCH  33  34
ENDBRANCH  27  28
ENDBRANCH   4  27
TORSDOF 8
