MODEL        5USER    Run = 5USERUSER    Estimated Free Energy of Binding    = -10.50 kcal/mol  [=(1)+(2)+(3)-(4)]USERUSER    (1) Final Intermolecular Energy     = -12.29 kcal/molUSER        vdW + Hbond + desolv Energy     = -12.34 kcal/molUSER        Electrostatic Energy            =  +0.06 kcal/molUSER        Moving Ligand-Fixed Receptor    = -12.29 kcal/molUSER        Moving Ligand-Moving Receptor   =  +0.00 kcal/molUSER    (2) Final Total Internal Energy     =  -1.19 kcal/molUSER    (3) Torsional Free Energy           =  +1.79 kcal/molUSER    (4) Unbound System's Energy         =  -1.19 kcal/molUSERUSERREMARK SMILES CN1CCN(c2ccc3nc(-c4ccc(CN5CCC(n6c(O)nc7ncccc76)CC5)c(F)c4)cnc3c2)CC1REMARK SMILES IDX 16 1 15 2 12 3 13 4 35 5 14 6 33 7 34 8 11 9 6 10 7 11 39 12REMARK SMILES IDX 8 13 38 14 9 15 37 16 10 17 36 18 5 19 2 20 3 21 41 22 4 23REMARK SMILES IDX 40 24 1 25 17 26 18 27 32 28 19 29 31 30 20 31 21 32 22 33REMARK SMILES IDX 30 34 24 35 29 36 25 37 28 38 26 39 27 40 23 41REMARK H PARENT 23 42USER                              x       y       z     vdW  Elec       q    TypeUSER                           _______ _______ _______ _____ _____    ______ ____ROOTATOM      1  C   UNL     1      25.482  41.048  17.335 -0.17 -0.00    +0.123 C  ENDROOTBRANCH   1   2ATOM      2  C   UNL     1      25.454  42.109  16.261 -0.28 -0.00    +0.002 A  ATOM      3  C   UNL     1      25.445  44.105  14.226 -0.31 -0.00    +0.005 A  ATOM      4  C   UNL     1      25.302  44.436  15.588 -0.34 -0.00    +0.011 A  ATOM      5  C   UNL     1      25.579  42.742  13.911 -0.20 -0.03    +0.050 A  ATOM      6  C   UNL     1      25.312  43.460  16.590 -0.35 -0.00    +0.009 A  ATOM      7  C   UNL     1      25.584  41.771  14.916 -0.24 -0.04    +0.128 A  ATOM      8  F   UNL     1      25.711  40.485  14.559 -0.11 +0.04    -0.207 F  BRANCH   3   9ATOM      9  C   UNL     1      25.443  45.163  13.196 -0.24 -0.01    +0.089 A  ATOM     10  C   UNL     1      26.835  48.765  10.024 -0.39 -0.03    +0.039 A  ATOM     11  C   UNL     1      27.922  48.454  10.848 -0.27 -0.01    +0.028 A  ATOM     12  C   UNL     1      25.646  48.061  10.278 -0.27 -0.05    +0.056 A  ATOM     13  C   UNL     1      27.830  47.476  11.845 -0.43 -0.01    +0.033 A  ATOM     14  C   UNL     1      25.533  47.082  11.265 -0.28 -0.04    +0.091 A  ATOM     15  C   UNL     1      26.656  46.779  12.061 -0.36 -0.04    +0.090 A  ATOM     16  N   UNL     1      24.364  46.434  11.441 -0.38 +0.03    -0.252 NA ATOM     17  N   UNL     1      26.613  45.828  13.017 -0.20 +0.15    -0.245 NA ATOM     18  C   UNL     1      24.344  45.480  12.405 -0.13 +0.03    +0.140 A  BRANCH  10  19ATOM     19  N   UNL     1      26.919  49.716   9.021 -0.19 +0.31    -0.369 N  ATOM     20  N   UNL     1      26.795  51.545   6.642 -0.20 +0.40    -0.303 NA ATOM     21  C   UNL     1      25.654  51.286   7.545 -0.32 -0.11    +0.105 C  ATOM     22  C   UNL     1      28.012  50.841   7.096 -0.51 -0.10    +0.105 C  ATOM     23  C   UNL     1      26.012  50.879   8.996 -0.32 -0.10    +0.132 C  ATOM     24  C   UNL     1      27.729  49.500   7.809 -0.45 -0.13    +0.132 C  ATOM     25  C   UNL     1      27.053  52.973   6.483 -0.41 -0.12    +0.105 C  ENDBRANCH  10  19ENDBRANCH   3   9ENDBRANCH   1   2BRANCH   1  26ATOM     26  N   UNL     1      26.530  41.276  18.342 -0.06 +0.03    -0.299 NA ATOM     27  C   UNL     1      26.671  40.179  19.308 -0.24 -0.01    +0.087 C  ATOM     28  C   UNL     1      27.829  41.602  17.750 -0.18 -0.01    +0.087 C  ATOM     29  C   UNL     1      27.344  38.922  18.746 -0.23 +0.01    +0.041 C  ATOM     30  C   UNL     1      28.490  40.417  17.053 -0.31 +0.00    +0.041 C  ATOM     31  C   UNL     1      28.655  39.202  17.985 -0.26 +0.03    +0.095 C  BRANCH  31  32ATOM     32  N   UNL     1      29.891  39.270  18.762 -0.16 -0.04    -0.289 N  ATOM     33  C   UNL     1      31.024  40.010  18.551 -0.17 +0.00    +0.296 A  ATOM     34  C   UNL     1      30.105  38.584  19.947 -0.30 +0.01    +0.091 A  ATOM     35  N   UNL     1      31.963  39.802  19.434 -0.71 -0.03    -0.175 NA ATOM     36  C   UNL     1      29.335  37.718  20.729 -0.30 +0.00    +0.032 A  ATOM     37  C   UNL     1      31.406  38.920  20.313 -0.31 +0.04    +0.181 A  ATOM     38  C   UNL     1      29.963  37.214  21.867 -0.38 +0.00    +0.022 A  ATOM     39  N   UNL     1      32.023  38.435  21.414 -0.81 -0.06    -0.235 NA ATOM     40  C   UNL     1      31.271  37.591  22.151 -0.35 -0.00    +0.114 A  BRANCH  33  41ATOM     41  O   UNL     1      31.207  40.879  17.580 -0.09 +0.10    -0.480 OA ATOM     42  H   UNL     1      31.668  40.332  16.917 -0.12 -0.12    +0.296 HD ENDBRANCH  33  41ENDBRANCH  31  32ENDBRANCH   1  26TORSDOF 6TERENDMDL