REMARK SMILES CN1CCN(c2ccc3nc(-c4ccc(CN5CCC(n6c(O)nc7ncccc76)CC5)c(F)c4)cnc3c2)CC1
REMARK SMILES IDX 16 1 15 2 12 3 13 4 35 5 14 6 33 7 34 8 11 9 6 10 7 11 39 12
REMARK SMILES IDX 8 13 38 14 9 15 37 16 10 17 36 18 5 19 2 20 3 21 41 22 4 23
REMARK SMILES IDX 40 24 1 25 17 26 18 27 32 28 19 29 31 30 20 31 21 32 22 33
REMARK SMILES IDX 30 34 24 35 29 36 25 37 28 38 26 39 27 40 23 41
REMARK H PARENT 23 42
ROOT
ATOM      1  C   UNL     1       3.828  -1.622  -0.326  1.00  0.00     0.123 C 
ENDROOT
BRANCH   1   2
ATOM      2  C   UNL     1       2.339  -1.440  -0.151  1.00  0.00     0.002 A 
ATOM      3  C   UNL     1      -0.476  -1.141   0.182  1.00  0.00     0.005 A 
ATOM      4  C   UNL     1       0.159  -0.849  -1.041  1.00  0.00     0.011 A 
ATOM      5  C   UNL     1       0.342  -1.575   1.239  1.00  0.00     0.050 A 
ATOM      6  C   UNL     1       1.540  -1.000  -1.210  1.00  0.00     0.009 A 
ATOM      7  C   UNL     1       1.721  -1.720   1.066  1.00  0.00     0.128 A 
ATOM      8  F   UNL     1       2.455  -2.133   2.109  1.00  0.00    -0.207 F 
BRANCH   3   9
ATOM      9  C   UNL     1      -1.938  -0.983   0.321  1.00  0.00     0.089 A 
ATOM     10  C   UNL     1      -6.698   0.374  -0.366  1.00  0.00     0.039 A 
ATOM     11  C   UNL     1      -5.895   1.110  -1.244  1.00  0.00     0.028 A 
ATOM     12  C   UNL     1      -6.024  -0.510   0.494  1.00  0.00     0.056 A 
ATOM     13  C   UNL     1      -4.505   0.947  -1.278  1.00  0.00     0.033 A 
ATOM     14  C   UNL     1      -4.641  -0.689   0.475  1.00  0.00     0.091 A 
ATOM     15  C   UNL     1      -3.866   0.053  -0.439  1.00  0.00     0.090 A 
ATOM     16  N   UNL     1      -4.064  -1.569   1.318  1.00  0.00    -0.252 NA
ATOM     17  N   UNL     1      -2.527  -0.092  -0.517  1.00  0.00    -0.245 NA
ATOM     18  C   UNL     1      -2.718  -1.702   1.220  1.00  0.00     0.140 A 
BRANCH  10  19
ATOM     19  N   UNL     1      -8.076   0.512  -0.336  1.00  0.00    -0.369 N 
ATOM     20  N   UNL     1     -11.059   0.620  -0.663  1.00  0.00    -0.303 NA
ATOM     21  C   UNL     1     -10.278  -0.634  -0.617  1.00  0.00     0.105 C 
ATOM     22  C   UNL     1     -10.194   1.801  -0.465  1.00  0.00     0.105 C 
ATOM     23  C   UNL     1      -8.940  -0.575   0.160  1.00  0.00     0.132 C 
ATOM     24  C   UNL     1      -8.761   1.626  -1.016  1.00  0.00     0.132 C 
ATOM     25  C   UNL     1     -12.156   0.616   0.300  1.00  0.00     0.105 C 
ENDBRANCH  10  19
ENDBRANCH   3   9
ENDBRANCH   1   2
BRANCH   1  26
ATOM     26  N   UNL     1       4.507  -0.399  -0.783  1.00  0.00    -0.299 NA
ATOM     27  C   UNL     1       4.556   0.663   0.230  1.00  0.00     0.087 C 
ATOM     28  C   UNL     1       5.846  -0.656  -1.317  1.00  0.00     0.087 C 
ATOM     29  C   UNL     1       5.556   0.411   1.364  1.00  0.00     0.041 C 
ATOM     30  C   UNL     1       6.859  -1.047  -0.245  1.00  0.00     0.041 C 
ATOM     31  C   UNL     1       6.960  -0.000   0.880  1.00  0.00     0.095 C 
BRANCH  31  32
ATOM     32  N   UNL     1       7.907   1.065   0.556  1.00  0.00    -0.289 N 
ATOM     33  C   UNL     1       7.691   2.400   0.340  1.00  0.00     0.296 A 
ATOM     34  C   UNL     1       9.278   0.885   0.461  1.00  0.00     0.091 A 
ATOM     35  N   UNL     1       8.771   3.067   0.037  1.00  0.00    -0.175 NA
ATOM     36  C   UNL     1      10.136  -0.206   0.627  1.00  0.00     0.032 A 
ATOM     37  C   UNL     1       9.769   2.141   0.112  1.00  0.00     0.181 A 
ATOM     38  C   UNL     1      11.488   0.051   0.403  1.00  0.00     0.022 A 
ATOM     39  N   UNL     1      11.078   2.398  -0.108  1.00  0.00    -0.235 NA
ATOM     40  C   UNL     1      11.891   1.332   0.044  1.00  0.00     0.114 A 
BRANCH  33  41
ATOM     41  O   UNL     1       6.532   3.017   0.429  1.00  0.00    -0.480 OA
ATOM     42  H   UNL     1       6.786   3.935   0.218  1.00  0.00     0.296 HD
ENDBRANCH  33  41
ENDBRANCH  31  32
ENDBRANCH   1  26
TORSDOF 6
