MODEL        9USER    Run = 9USERUSER    Estimated Free Energy of Binding    =  -7.54 kcal/mol  [=(1)+(2)+(3)-(4)]USERUSER    (1) Final Intermolecular Energy     = -12.02 kcal/molUSER        vdW + Hbond + desolv Energy     = -12.44 kcal/molUSER        Electrostatic Energy            =  -0.11 kcal/molUSER        Moving Ligand-Fixed Receptor    = -12.55 kcal/molUSER        Moving Ligand-Moving Receptor   =  +0.53 kcal/molUSER    (2) Final Total Internal Energy     =  -1.87 kcal/molUSER    (3) Torsional Free Energy           =  +4.47 kcal/molUSER    (4) Unbound System's Energy         =  -1.87 kcal/molUSERUSERREMARK SMILES COc1ccc(O)c(C(=O)c2ccc(C(=O)N[C@@H]3CCCN([C@H]4C[C@@H]4F)C[C@H]3NC(=O)c3cnn(C)c3)cc2)c1FREMARK SMILES IDX 15 1 16 2 17 3 14 5 11 6 12 7 39 8 13 9 38 10 9 11 10 12REMARK SMILES IDX 8 13 3 14 4 15 40 16 5 17 6 18 41 19 2 20 1 21 7 22 18 24REMARK SMILES IDX 19 25 28 27 27 28 22 29 21 30 20 31 23 33 24 34 25 35 26 36REMARK SMILES IDX 29 37 30 38 31 40 32 41 33 42 37 43 34 44 35 45 36 46REMARK H PARENT 17 4 7 23 29 39REMARK Flexibility Score:   72.900USER                              x       y       z     vdW  Elec       q    TypeUSER                           _______ _______ _______ _____ _____    ______ ____ROOTATOM      1  C   UNL     1      37.106  43.365  20.173 -0.24 -0.01    +0.251 C  ATOM      2  O   UNL     1      36.901  42.382  19.468 +0.21 +0.02    -0.269 OA ATOM      3  N   UNL     1      37.142  44.653  19.680 -0.13 +0.03    -0.347 N  ATOM      4  H   UNL     1      37.285  45.430  20.310 +0.12 +0.00    +0.164 HD ENDROOTBRANCH   1   5ATOM      5  C   UNL     1      37.323  43.200  21.633 -0.38 +0.00    +0.039 A  ATOM      6  C   UNL     1      37.617  42.855  24.397 -0.33 +0.00    +0.023 A  ATOM      7  C   UNL     1      38.159  43.981  23.768 -0.29 +0.00    +0.013 A  ATOM      8  C   UNL     1      36.901  41.913  23.647 -0.43 +0.00    +0.013 A  ATOM      9  C   UNL     1      38.017  44.155  22.388 -0.34 +0.00    +0.014 A  ATOM     10  C   UNL     1      36.756  42.089  22.268 -0.51 +0.00    +0.014 A  BRANCH   6  11ATOM     11  C   UNL     1      37.746  42.739  25.869 -0.23 -0.01    +0.199 C  ATOM     12  O   UNL     1      38.807  42.338  26.348 -0.16 +0.01    -0.288 OA BRANCH  11  13ATOM     13  C   UNL     1      36.677  43.138  26.807 -0.32 -0.02    +0.104 A  ATOM     14  C   UNL     1      35.587  44.791  28.226 -0.35 -0.04    +0.155 A  ATOM     15  C   UNL     1      34.620  43.847  28.578 -0.55 -0.01    +0.053 A  ATOM     16  C   UNL     1      36.610  44.425  27.340 -0.30 -0.03    +0.179 A  ATOM     17  C   UNL     1      34.664  42.562  28.030 -0.43 -0.02    +0.051 A  ATOM     18  C   UNL     1      35.677  42.218  27.139 -0.44 -0.03    +0.130 A  ATOM     19  F   UNL     1      37.518  45.349  26.983 -0.07 +0.02    -0.202 F  BRANCH  14  20ATOM     20  O   UNL     1      35.634  46.082  28.680 -0.20 +0.13    -0.494 OA ATOM     21  C   UNL     1      34.427  46.636  29.186 -0.31 -0.05    +0.278 C  ENDBRANCH  14  20BRANCH  18  22ATOM     22  O   UNL     1      35.634  40.951  26.624 -0.22 +0.21    -0.507 OA ATOM     23  H   UNL     1      36.559  40.625  26.546 -0.29 -0.13    +0.293 HD ENDBRANCH  18  22ENDBRANCH  11  13ENDBRANCH   6  11ENDBRANCH   1   5BRANCH   3  24ATOM     24  C   UNL     1      36.787  44.943  18.283 -0.33 -0.03    +0.106 C  BRANCH  24  25ATOM     25  C   UNL     1      35.734  43.947  17.786 -0.35 -0.01    +0.028 CG0ATOM     26  G   UNL     1      36.117  43.174  16.510 +0.00 +0.00    +0.000 G0 ENDBRANCH  24  25BRANCH  24  27ATOM     27  C   UNL     1      38.067  44.981  17.396 -0.34 -0.03    +0.118 C  BRANCH  27  28ATOM     28  C   UNL     1      37.869  45.657  16.013 -0.34 -0.04    +0.112 C  BRANCH  28  29ATOM     29  N   UNL     1      36.594  45.395  15.325 -0.15 +0.14    -0.295 NA BRANCH  29  30ATOM     30  C   UNL     1      36.210  43.983  15.212 -0.36 -0.03    +0.085 C  BRANCH  30  31ATOM     31  C   UNL     1      36.117  43.176  16.514 -0.45 -0.01    +0.018 CG0ATOM     32  G   UNL     1      35.728  43.949  17.787 +0.00 +0.00    +0.000 G0 ENDBRANCH  30  31ENDBRANCH  29  30BRANCH  29  33ATOM     33  C   UNL     1      36.543  46.088  14.017 -0.44 -0.05    +0.094 C  ATOM     34  C   UNL     1      35.327  46.917  13.687 -0.43 -0.05    +0.061 C  ATOM     35  C   UNL     1      36.636  47.586  13.941 -0.44 -0.11    +0.185 C  ATOM     36  F   UNL     1      37.295  48.123  12.851 -0.13 +0.05    -0.246 F  ENDBRANCH  29  33ENDBRANCH  28  29ENDBRANCH  27  28BRANCH  27  37ATOM     37  N   UNL     1      39.183  45.560  18.148 -0.19 +0.05    -0.346 N  ATOM     38  C   UNL     1      40.239  44.807  18.606 -0.31 -0.01    +0.254 C  ATOM     39  H   UNL     1      39.031  46.472  18.571 +0.08 -0.03    +0.164 HD ATOM     40  O   UNL     1      40.359  43.611  18.361 -0.21 -0.00    -0.269 OA BRANCH  38  41ATOM     41  C   UNL     1      41.208  45.526  19.414 -0.38 +0.01    +0.077 A  ATOM     42  C   UNL     1      42.158  46.469  18.955 -0.38 +0.02    +0.149 A  ATOM     43  C   UNL     1      41.435  45.475  20.778 -0.27 +0.02    +0.122 A  ATOM     44  N   UNL     1      42.900  46.985  19.939 -0.37 -0.05    -0.181 NA ATOM     45  N   UNL     1      42.441  46.361  21.036 -0.20 -0.06    -0.275 N  ATOM     46  C   UNL     1      43.004  46.684  22.325 -0.24 +0.04    +0.173 C  ENDBRANCH  38  41ENDBRANCH  27  37ENDBRANCH  24  27ENDBRANCH   3  24TORSDOF 9TERENDMDL