MODEL        6USER    Run = 6USERUSER    Estimated Free Energy of Binding    = -12.04 kcal/mol  [=(1)+(2)+(3)-(4)]USERUSER    (1) Final Intermolecular Energy     = -13.83 kcal/molUSER        vdW + Hbond + desolv Energy     = -13.70 kcal/molUSER        Electrostatic Energy            =  -0.13 kcal/molUSER        Moving Ligand-Fixed Receptor    = -13.83 kcal/molUSER        Moving Ligand-Moving Receptor   =  +0.00 kcal/molUSER    (2) Final Total Internal Energy     =  -1.52 kcal/molUSER    (3) Torsional Free Energy           =  +1.79 kcal/molUSER    (4) Unbound System's Energy         =  -1.52 kcal/molUSERUSERREMARK SMILES C[C@@H]1CN(Cc2ccc(-c3nc4ncccc4nc3-c3ccc(F)cc3)cc2)CC[C@@H]1n1c(O)nc2ccccc21REMARK SMILES IDX 5 1 4 2 2 3 3 4 31 5 30 6 29 7 1 8 32 9 33 10 41 11 35 12REMARK SMILES IDX 40 13 36 14 39 15 37 16 38 17 34 18 6 20 7 21 28 22 8 23REMARK SMILES IDX 27 24 9 25 10 26 11 27 19 28 12 29 18 30 13 31 17 32 14 33REMARK SMILES IDX 16 34 15 35 20 36 21 37 26 38 22 39 25 40 23 41 24 42REMARK H PARENT 34 19USER                              x       y       z     vdW  Elec       q    TypeUSER                           _______ _______ _______ _____ _____    ______ ____ROOTATOM      1  C   UNL     1      37.616  42.348  24.488 -0.32 +0.00    +0.120 C  ENDROOTBRANCH   1   2ATOM      2  N   UNL     1      37.883  43.249  25.629 -0.09 +0.01    -0.299 NA ATOM      3  C   UNL     1      37.570  45.566  26.480 -0.35 -0.00    +0.023 C  ATOM      4  C   UNL     1      37.274  44.562  25.359 -0.33 +0.00    +0.090 C  ATOM      5  C   UNL     1      37.210  45.035  27.885 -0.33 -0.02    +0.098 C  ATOM      6  C   UNL     1      37.652  43.578  28.078 -0.37 -0.01    +0.041 C  ATOM      7  C   UNL     1      37.366  42.676  26.881 -0.35 -0.01    +0.087 C  ATOM      8  C   UNL     1      36.963  46.936  26.169 -0.36 -0.00    +0.011 C  BRANCH   5   9ATOM      9  N   UNL     1      35.860  45.300  28.372 -0.28 +0.08    -0.291 N  ATOM     10  C   UNL     1      34.805  44.436  28.484 -0.36 -0.08    +0.295 A  ATOM     11  C   UNL     1      35.405  46.527  28.835 -0.32 -0.02    +0.072 A  ATOM     12  N   UNL     1      33.730  44.981  28.983 -0.63 +0.02    -0.195 NA ATOM     13  C   UNL     1      35.992  47.794  28.960 -0.26 -0.01    +0.029 A  ATOM     14  C   UNL     1      34.081  46.286  29.210 -0.36 -0.02    +0.092 A  ATOM     15  C   UNL     1      35.199  48.825  29.479 -0.30 -0.00    +0.002 A  ATOM     16  C   UNL     1      33.305  47.331  29.734 -0.32 -0.00    +0.031 A  ATOM     17  C   UNL     1      33.877  48.601  29.862 -0.32 -0.00    +0.002 A  BRANCH  10  18ATOM     18  O   UNL     1      34.804  43.171  28.124 -0.27 +0.14    -0.480 OA ATOM     19  H   UNL     1      35.145  42.747  28.933 -0.30 -0.20    +0.296 HD ENDBRANCH  10  18ENDBRANCH   5   9ENDBRANCH   1   2BRANCH   1  20ATOM     20  C   UNL     1      37.711  43.033  23.141 -0.35 -0.00    -0.034 A  ATOM     21  C   UNL     1      38.951  43.449  22.641 -0.28 +0.00    +0.006 A  ATOM     22  C   UNL     1      36.562  43.275  22.381 -0.26 +0.00    +0.006 A  ATOM     23  C   UNL     1      39.040  44.088  21.400 -0.29 +0.00    +0.011 A  ATOM     24  C   UNL     1      36.656  43.909  21.138 -0.39 +0.00    +0.011 A  ATOM     25  C   UNL     1      37.897  44.314  20.615 -0.37 -0.00    +0.002 A  BRANCH  25  26ATOM     26  C   UNL     1      37.969  44.965  19.294 -0.26 -0.01    +0.099 A  ATOM     27  N   UNL     1      39.116  45.676  19.094 -0.27 +0.02    -0.224 NA ATOM     28  C   UNL     1      36.983  44.883  18.298 -0.28 -0.02    +0.097 A  ATOM     29  C   UNL     1      39.304  46.272  17.916 -0.31 -0.03    +0.178 A  ATOM     30  N   UNL     1      37.171  45.470  17.086 -0.19 +0.09    -0.242 NA ATOM     31  N   UNL     1      40.433  46.966  17.729 -0.33 +0.03    -0.235 NA ATOM     32  C   UNL     1      38.318  46.156  16.910 -0.32 -0.03    +0.108 A  ATOM     33  C   UNL     1      40.631  47.567  16.537 -0.44 -0.02    +0.114 A  ATOM     34  C   UNL     1      38.558  46.787  15.700 -0.40 -0.01    +0.034 A  ATOM     35  C   UNL     1      39.728  47.507  15.497 -0.50 -0.01    +0.022 A  BRANCH  28  36ATOM     36  C   UNL     1      35.675  44.215  18.439 -0.33 -0.00    +0.003 A  ATOM     37  C   UNL     1      35.513  42.838  18.189 -0.34 -0.00    +0.013 A  ATOM     38  C   UNL     1      34.547  44.946  18.858 -0.40 -0.00    +0.013 A  ATOM     39  C   UNL     1      34.265  42.222  18.326 -0.39 -0.01    +0.040 A  ATOM     40  C   UNL     1      33.299  44.331  18.998 -0.40 -0.01    +0.040 A  ATOM     41  C   UNL     1      33.170  42.976  18.726 -0.29 -0.02    +0.123 A  ATOM     42  F   UNL     1      31.975  42.385  18.860 -0.06 +0.02    -0.207 F  ENDBRANCH  28  36ENDBRANCH  25  26ENDBRANCH   1  20TORSDOF 6TERENDMDL