REMARK SMILES C[C@@H]1CN(Cc2ccc(-c3nc4ncccc4nc3-c3ccc(F)cc3)cc2)CC[C@@H]1n1c(O)nc2ccccc21
REMARK SMILES IDX 5 1 4 2 2 3 3 4 31 5 30 6 29 7 1 8 32 9 33 10 41 11 35 12
REMARK SMILES IDX 40 13 36 14 39 15 37 16 38 17 34 18 6 20 7 21 28 22 8 23
REMARK SMILES IDX 27 24 9 25 10 26 11 27 19 28 12 29 18 30 13 31 17 32 14 33
REMARK SMILES IDX 16 34 15 35 20 36 21 37 26 38 22 39 25 40 23 41 24 42
REMARK H PARENT 34 19
ROOT
ATOM      1  C   UNL     1      -0.694  -0.237   2.438  1.00  0.00     0.120 C 
ENDROOT
BRANCH   1   2
ATOM      2  N   UNL     1      -1.478  -0.868   1.356  1.00  0.00    -0.299 NA
ATOM      3  C   UNL     1      -3.540  -2.169   0.860  1.00  0.00     0.023 C 
ATOM      4  C   UNL     1      -2.709  -1.441   1.924  1.00  0.00     0.090 C 
ATOM      5  C   UNL     1      -3.822  -1.305  -0.390  1.00  0.00     0.098 C 
ATOM      6  C   UNL     1      -2.578  -0.529  -0.843  1.00  0.00     0.041 C 
ATOM      7  C   UNL     1      -1.789   0.106   0.299  1.00  0.00     0.087 C 
ATOM      8  C   UNL     1      -4.798  -2.791   1.471  1.00  0.00     0.011 C 
BRANCH   5   9
ATOM      9  N   UNL     1      -5.038  -0.497  -0.381  1.00  0.00    -0.291 N 
ATOM     10  C   UNL     1      -5.359   0.557   0.430  1.00  0.00     0.295 A 
ATOM     11  C   UNL     1      -6.114  -0.664  -1.241  1.00  0.00     0.072 A 
ATOM     12  N   UNL     1      -6.521   1.087   0.167  1.00  0.00    -0.195 NA
ATOM     13  C   UNL     1      -6.397  -1.568  -2.275  1.00  0.00     0.029 A 
ATOM     14  C   UNL     1      -7.011   0.341  -0.873  1.00  0.00     0.092 A 
ATOM     15  C   UNL     1      -7.623  -1.430  -2.937  1.00  0.00     0.002 A 
ATOM     16  C   UNL     1      -8.232   0.467  -1.553  1.00  0.00     0.031 A 
ATOM     17  C   UNL     1      -8.528  -0.429  -2.585  1.00  0.00     0.002 A 
BRANCH  10  18
ATOM     18  O   UNL     1      -4.620   1.027   1.411  1.00  0.00    -0.480 OA
ATOM     19  H   UNL     1      -5.188   1.746   1.744  1.00  0.00     0.296 HD
ENDBRANCH  10  18
ENDBRANCH   5   9
ENDBRANCH   1   2
BRANCH   1  20
ATOM     20  C   UNL     1       0.706   0.160   2.019  1.00  0.00    -0.034 A 
ATOM     21  C   UNL     1       1.639  -0.815   1.645  1.00  0.00     0.006 A 
ATOM     22  C   UNL     1       1.096   1.503   2.014  1.00  0.00     0.006 A 
ATOM     23  C   UNL     1       2.935  -0.452   1.265  1.00  0.00     0.011 A 
ATOM     24  C   UNL     1       2.391   1.863   1.627  1.00  0.00     0.011 A 
ATOM     25  C   UNL     1       3.331   0.896   1.230  1.00  0.00     0.002 A 
BRANCH  25  26
ATOM     26  C   UNL     1       4.685   1.305   0.811  1.00  0.00     0.099 A 
ATOM     27  N   UNL     1       5.298   2.152   1.687  1.00  0.00    -0.224 NA
ATOM     28  C   UNL     1       5.330   0.882  -0.362  1.00  0.00     0.097 A 
ATOM     29  C   UNL     1       6.543   2.552   1.427  1.00  0.00     0.178 A 
ATOM     30  N   UNL     1       6.606   1.267  -0.629  1.00  0.00    -0.242 NA
ATOM     31  N   UNL     1       7.137   3.382   2.293  1.00  0.00    -0.235 NA
ATOM     32  C   UNL     1       7.194   2.094   0.259  1.00  0.00     0.108 A 
ATOM     33  C   UNL     1       8.399   3.786   2.037  1.00  0.00     0.114 A 
ATOM     34  C   UNL     1       8.489   2.531   0.031  1.00  0.00     0.034 A 
ATOM     35  C   UNL     1       9.113   3.391   0.926  1.00  0.00     0.022 A 
BRANCH  28  36
ATOM     36  C   UNL     1       4.731   0.038  -1.413  1.00  0.00     0.003 A 
ATOM     37  C   UNL     1       3.489   0.350  -2.000  1.00  0.00     0.013 A 
ATOM     38  C   UNL     1       5.412  -1.104  -1.879  1.00  0.00     0.013 A 
ATOM     39  C   UNL     1       2.937  -0.464  -2.994  1.00  0.00     0.040 A 
ATOM     40  C   UNL     1       4.862  -1.917  -2.874  1.00  0.00     0.040 A 
ATOM     41  C   UNL     1       3.627  -1.591  -3.419  1.00  0.00     0.123 A 
ATOM     42  F   UNL     1       3.099  -2.369  -4.373  1.00  0.00    -0.207 F 
ENDBRANCH  28  36
ENDBRANCH  25  26
ENDBRANCH   1  20
TORSDOF 6
