MODEL        5USER    Run = 5USERUSER    Estimated Free Energy of Binding    = -10.81 kcal/mol  [=(1)+(2)+(3)-(4)]USERUSER    (1) Final Intermolecular Energy     = -12.60 kcal/molUSER        vdW + Hbond + desolv Energy     = -12.34 kcal/molUSER        Electrostatic Energy            =  -0.26 kcal/molUSER        Moving Ligand-Fixed Receptor    = -12.60 kcal/molUSER        Moving Ligand-Moving Receptor   =  +0.00 kcal/molUSER    (2) Final Total Internal Energy     =  -1.32 kcal/molUSER    (3) Torsional Free Energy           =  +1.79 kcal/molUSER    (4) Unbound System's Energy         =  -1.32 kcal/molUSERUSERREMARK SMILES CC(=O)N[C@H]1CCN(C(=O)c2ccc(C(=O)Nc3cccc(N4CCOCC4)c3F)cc2)C1REMARK SMILES IDX 11 1 12 2 13 3 14 4 31 5 32 6 9 7 10 8 8 9 5 10 6 11 33 12REMARK SMILES IDX 7 13 4 14 2 15 1 16 3 17 15 19 17 20 16 21 18 23 19 24 29 25REMARK SMILES IDX 20 26 22 27 21 28 30 29 23 30 24 31 28 32 25 33 27 34 26 35REMARK H PARENT 4 18 17 22USER                              x       y       z     vdW  Elec       q    TypeUSER                           _______ _______ _______ _____ _____    ______ ____ROOTATOM      1  C   UNL     1      27.754  41.207  16.230 -0.26 -0.01    +0.040 A  ATOM      2  C   UNL     1      29.006  40.614  16.032 -0.39 -0.00    +0.014 A  ATOM      3  C   UNL     1      30.159  41.405  16.055 -0.37 -0.01    +0.014 A  ATOM      4  C   UNL     1      30.056  42.782  16.309 -0.27 -0.02    +0.040 A  ATOM      5  C   UNL     1      28.796  43.360  16.532 -0.25 -0.00    +0.014 A  ATOM      6  C   UNL     1      27.644  42.573  16.501 -0.22 -0.00    +0.014 A  ENDROOTBRANCH   1   7ATOM      7  C   UNL     1      26.549  40.358  16.204 -0.23 +0.02    +0.253 C  ATOM      8  O   UNL     1      26.208  39.869  15.131 -0.87 -0.04    -0.269 OA BRANCH   7   9ATOM      9  N   UNL     1      25.864  40.173  17.389 -0.13 -0.01    -0.337 N  ATOM     10  C   UNL     1      24.953  40.350  19.569 -0.29 -0.02    +0.103 C  ATOM     11  C   UNL     1      24.158  39.315  18.769 -0.31 -0.02    +0.048 C  ATOM     12  C   UNL     1      25.684  41.134  18.472 -0.23 -0.01    +0.144 C  ATOM     13  C   UNL     1      25.107  38.958  17.635 -0.34 -0.00    +0.122 C  BRANCH  10  14ATOM     14  N   UNL     1      24.106  41.171  20.416 -0.19 +0.08    -0.352 N  ATOM     15  C   UNL     1      24.534  41.578  21.662 -0.47 -0.04    +0.217 C  ATOM     16  C   UNL     1      23.489  42.320  22.453 -0.64 -0.02    +0.114 C  ATOM     17  O   UNL     1      25.670  41.397  22.086 -0.84 -0.00    -0.275 OA ATOM     18  H   UNL     1      23.116  41.212  20.213 +0.04 -0.03    +0.163 HD ENDBRANCH  10  14ENDBRANCH   7   9ENDBRANCH   1   7BRANCH   4  19ATOM     19  C   UNL     1      31.243  43.683  16.330 -0.20 -0.10    +0.255 C  ATOM     20  N   UNL     1      32.459  43.071  16.087 -0.14 +0.16    -0.319 N  ATOM     21  O   UNL     1      31.037  44.873  16.524 -0.67 +0.06    -0.269 OA ATOM     22  H   UNL     1      32.448  42.108  15.777 -0.48 -0.14    +0.170 HD BRANCH  20  23ATOM     23  C   UNL     1      33.738  43.679  16.138 -0.28 -0.04    +0.079 A  ATOM     24  C   UNL     1      34.631  43.167  17.085 -0.35 -0.01    +0.029 A  ATOM     25  C   UNL     1      34.147  44.769  15.345 -0.11 -0.11    +0.169 A  ATOM     26  C   UNL     1      35.917  43.691  17.191 -0.34 -0.00    +0.005 A  ATOM     27  C   UNL     1      35.448  45.327  15.426 -0.29 -0.05    +0.075 A  ATOM     28  C   UNL     1      36.317  44.744  16.364 -0.32 -0.01    +0.029 A  ATOM     29  F   UNL     1      33.238  45.395  14.580 -0.03 +0.16    -0.202 F  BRANCH  27  30ATOM     30  N   UNL     1      35.879  46.379  14.626 -0.15 +0.27    -0.364 N  ATOM     31  C   UNL     1      37.029  47.216  15.012 -0.38 -0.10    +0.145 C  ATOM     32  C   UNL     1      35.423  46.530  13.234 -0.47 -0.10    +0.145 C  ATOM     33  C   UNL     1      36.996  48.538  14.227 -0.44 -0.13    +0.181 C  ATOM     34  C   UNL     1      36.557  47.097  12.361 -0.60 -0.08    +0.181 C  ATOM     35  O   UNL     1      37.028  48.380  12.798 -0.83 +0.09    -0.378 OA ENDBRANCH  27  30ENDBRANCH  20  23ENDBRANCH   4  19TORSDOF 6TERENDMDL