REMARK SMILES CC(=O)N[C@H]1CCN(C(=O)c2ccc(C(=O)Nc3cccc(N4CCOCC4)c3F)cc2)C1
REMARK SMILES IDX 11 1 12 2 13 3 14 4 31 5 32 6 9 7 10 8 8 9 5 10 6 11 33 12
REMARK SMILES IDX 7 13 4 14 2 15 1 16 3 17 15 19 17 20 16 21 18 23 19 24 29 25
REMARK SMILES IDX 20 26 22 27 21 28 30 29 23 30 24 31 28 32 25 33 27 34 26 35
REMARK H PARENT 4 18 17 22
ROOT
ATOM      1  C   UNL     1       2.653  -2.066  -0.006  1.00  0.00     0.040 A 
ATOM      2  C   UNL     1       2.056  -2.103   1.259  1.00  0.00     0.014 A 
ATOM      3  C   UNL     1       0.778  -1.565   1.439  1.00  0.00     0.014 A 
ATOM      4  C   UNL     1       0.089  -1.022   0.343  1.00  0.00     0.040 A 
ATOM      5  C   UNL     1       0.688  -1.015  -0.927  1.00  0.00     0.014 A 
ATOM      6  C   UNL     1       1.967  -1.544  -1.106  1.00  0.00     0.014 A 
ENDROOT
BRANCH   1   7
ATOM      7  C   UNL     1       4.000  -2.640  -0.178  1.00  0.00     0.253 C 
ATOM      8  O   UNL     1       4.138  -3.850  -0.020  1.00  0.00    -0.269 OA
BRANCH   7   9
ATOM      9  N   UNL     1       5.033  -1.780  -0.492  1.00  0.00    -0.337 N 
ATOM     10  C   UNL     1       6.381   0.088  -1.049  1.00  0.00     0.103 C 
ATOM     11  C   UNL     1       7.275  -1.060  -0.573  1.00  0.00     0.048 C 
ATOM     12  C   UNL     1       5.000  -0.322  -0.522  1.00  0.00     0.144 C 
ATOM     13  C   UNL     1       6.377  -2.278  -0.727  1.00  0.00     0.122 C 
BRANCH  10  14
ATOM     14  N   UNL     1       6.834   1.382  -0.572  1.00  0.00    -0.352 N 
ATOM     15  C   UNL     1       7.767   2.110  -1.280  1.00  0.00     0.217 C 
ATOM     16  C   UNL     1       8.213   3.370  -0.586  1.00  0.00     0.114 C 
ATOM     17  O   UNL     1       8.176   1.796  -2.393  1.00  0.00    -0.275 OA
ATOM     18  H   UNL     1       6.678   1.620   0.399  1.00  0.00     0.163 HD
ENDBRANCH  10  14
ENDBRANCH   7   9
ENDBRANCH   1   7
BRANCH   4  19
ATOM     19  C   UNL     1      -1.267  -0.417   0.470  1.00  0.00     0.255 C 
ATOM     20  N   UNL     1      -2.118  -1.046   1.360  1.00  0.00    -0.319 N 
ATOM     21  O   UNL     1      -1.495   0.588  -0.190  1.00  0.00    -0.269 OA
ATOM     22  H   UNL     1      -1.729  -1.765   1.955  1.00  0.00     0.170 HD
BRANCH  20  23
ATOM     23  C   UNL     1      -3.479  -0.729   1.598  1.00  0.00     0.079 A 
ATOM     24  C   UNL     1      -4.020  -1.183   2.805  1.00  0.00     0.029 A 
ATOM     25  C   UNL     1      -4.317  -0.038   0.701  1.00  0.00     0.169 A 
ATOM     26  C   UNL     1      -5.344  -0.900   3.131  1.00  0.00     0.005 A 
ATOM     27  C   UNL     1      -5.668   0.269   1.000  1.00  0.00     0.075 A 
ATOM     28  C   UNL     1      -6.146  -0.174   2.245  1.00  0.00     0.029 A 
ATOM     29  F   UNL     1      -3.868   0.225  -0.537  1.00  0.00    -0.202 F 
BRANCH  27  30
ATOM     30  N   UNL     1      -6.498   0.981   0.141  1.00  0.00    -0.364 N 
ATOM     31  C   UNL     1      -5.953   1.742  -0.997  1.00  0.00     0.145 C 
ATOM     32  C   UNL     1      -7.956   0.778   0.129  1.00  0.00     0.145 C 
ATOM     33  C   UNL     1      -6.990   2.773  -1.476  1.00  0.00     0.181 C 
ATOM     34  C   UNL     1      -8.502   0.919  -1.303  1.00  0.00     0.181 C 
ATOM     35  O   UNL     1      -8.245   2.204  -1.888  1.00  0.00    -0.378 OA
ENDBRANCH  27  30
ENDBRANCH  20  23
ENDBRANCH   4  19
TORSDOF 6
