REMARK SMILES Cn1nc(NCc2cccnc2)cc1CCc1cccc(OCCN)c1
REMARK SMILES IDX 17 1 18 2 19 3 20 4 21 5 26 6 16 7 15 8 14 9 2 10 3 11 4 12
REMARK SMILES IDX 13 13 1 14 5 15 6 17 7 18 8 19 12 20 9 21 11 22 10 23 22 24
REMARK SMILES IDX 23 25 24 26 25 27
REMARK H PARENT 5 16 25 28 25 29
ROOT
ATOM      1  C   UNL     1       2.810  -1.486  -0.617  1.00  0.00    -0.044 A 
ATOM      2  C   UNL     1       3.329  -2.780  -0.743  1.00  0.00     0.004 A 
ATOM      3  C   UNL     1       4.699  -3.002  -0.617  1.00  0.00     0.004 A 
ATOM      4  C   UNL     1       5.556  -1.932  -0.359  1.00  0.00     0.046 A 
ATOM      5  C   UNL     1       5.056  -0.635  -0.225  1.00  0.00     0.119 A 
ATOM      6  C   UNL     1       3.683  -0.416  -0.353  1.00  0.00     0.050 A 
ENDROOT
BRANCH   1   7
ATOM      7  C   UNL     1       1.324  -1.247  -0.732  1.00  0.00     0.042 C 
BRANCH   7   8
ATOM      8  C   UNL     1       0.640  -1.267   0.639  1.00  0.00     0.060 C 
BRANCH   8   9
ATOM      9  C   UNL     1      -0.833  -1.062   0.518  1.00  0.00     0.041 A 
ATOM     10  N   UNL     1      -1.753  -2.074   0.423  1.00  0.00    -0.271 N 
ATOM     11  N   UNL     1      -3.020  -1.637   0.320  1.00  0.00    -0.155 NA
ATOM     12  C   UNL     1      -2.921  -0.310   0.365  1.00  0.00     0.148 A 
ATOM     13  C   UNL     1      -1.577   0.101   0.486  1.00  0.00     0.072 A 
ATOM     14  C   UNL     1      -1.502  -3.496   0.434  1.00  0.00     0.174 C 
BRANCH  12  15
ATOM     15  N   UNL     1      -3.943   0.563   0.307  1.00  0.00    -0.364 N 
ATOM     16  H   UNL     1      -3.757   1.539   0.110  1.00  0.00     0.162 HD
BRANCH  15  17
ATOM     17  C   UNL     1      -5.267   0.100  -0.055  1.00  0.00     0.152 C 
BRANCH  17  18
ATOM     18  C   UNL     1      -6.238   1.245   0.024  1.00  0.00    -0.010 A 
ATOM     19  C   UNL     1      -6.604   1.982  -1.107  1.00  0.00     0.009 A 
ATOM     20  C   UNL     1      -6.779   1.635   1.245  1.00  0.00     0.116 A 
ATOM     21  C   UNL     1      -7.493   3.045  -0.979  1.00  0.00     0.020 A 
ATOM     22  N   UNL     1      -7.645   2.663   1.398  1.00  0.00    -0.264 NA
ATOM     23  C   UNL     1      -7.983   3.342   0.282  1.00  0.00     0.111 A 
ENDBRANCH  17  18
ENDBRANCH  15  17
ENDBRANCH  12  15
ENDBRANCH   8   9
ENDBRANCH   7   8
ENDBRANCH   1   7
BRANCH   5  24
ATOM     24  O   UNL     1       6.004   0.317   0.029  1.00  0.00    -0.492 OA
BRANCH  24  25
ATOM     25  C   UNL     1       5.553   1.666   0.170  1.00  0.00     0.244 C 
BRANCH  25  26
ATOM     26  C   UNL     1       6.769   2.564   0.440  1.00  0.00     0.119 C 
BRANCH  26  27
ATOM     27  N   UNL     1       7.470   2.210   1.679  1.00  0.00    -0.327 NA
ATOM     28  H   UNL     1       6.817   2.251   2.461  1.00  0.00     0.119 HD
ATOM     29  H   UNL     1       7.736   1.224   1.612  1.00  0.00     0.119 HD
ENDBRANCH  26  27
ENDBRANCH  25  26
ENDBRANCH  24  25
ENDBRANCH   5  24
TORSDOF 10
