MODEL        8USER    Run = 8USERUSER    Estimated Free Energy of Binding    =  -7.49 kcal/mol  [=(1)+(2)+(3)-(4)]USERUSER    (1) Final Intermolecular Energy     = -10.77 kcal/molUSER        vdW + Hbond + desolv Energy     = -10.16 kcal/molUSER        Electrostatic Energy            =  -0.62 kcal/molUSER        Moving Ligand-Fixed Receptor    = -10.77 kcal/molUSER        Moving Ligand-Moving Receptor   =  +0.00 kcal/molUSER    (2) Final Total Internal Energy     =  -1.41 kcal/molUSER    (3) Torsional Free Energy           =  +3.28 kcal/molUSER    (4) Unbound System's Energy         =  -1.41 kcal/molUSERUSERREMARK SMILES COc1ccc(O)cc1C(C)=C(O)C=Cc1nc(N)[nH]c1CC#NREMARK SMILES IDX 14 1 12 2 10 3 11 4 9 5 3 6 4 7 5 8 8 9 6 10 2 11 1 12 7 13REMARK SMILES IDX 13 15 15 17 16 18 17 19 21 20 18 21 20 22 22 24 23 25 24 26REMARK SMILES IDX 19 27REMARK H PARENT 7 14 13 16 20 23 19 28 19 29USER                              x       y       z     vdW  Elec       q    TypeUSER                           _______ _______ _______ _____ _____    ______ ____ROOTATOM      1  C   UNL     1      27.523  33.991  22.835 -0.42 +0.01    +0.049 C  ENDROOTBRANCH   1   2ATOM      2  C   UNL     1      27.712  32.622  23.299 -0.39 +0.05    +0.119 C  BRANCH   2   3ATOM      3  C   UNL     1      28.252  31.623  22.565 -0.53 -0.00    +0.002 C  ATOM      4  C   UNL     1      27.581  30.942  21.400 -0.40 -0.05    +0.049 C  BRANCH   3   5ATOM      5  C   UNL     1      29.606  31.088  22.832 -0.49 +0.00    +0.027 A  ATOM      6  C   UNL     1      29.974  30.617  24.104 -0.46 +0.05    +0.126 A  ATOM      7  C   UNL     1      31.246  30.075  24.321 -0.35 +0.02    +0.051 A  ATOM      8  C   UNL     1      32.174  30.035  23.278 -0.56 +0.01    +0.050 A  ATOM      9  C   UNL     1      30.547  31.047  21.794 -0.44 -0.01    +0.058 A  ATOM     10  C   UNL     1      31.817  30.527  22.026 -0.44 -0.00    +0.116 A  BRANCH   6  11ATOM     11  O   UNL     1      29.047  30.630  25.117 -0.63 -0.40    -0.496 OA ATOM     12  C   UNL     1      28.224  29.464  25.071 -0.30 +0.08    +0.278 C  ENDBRANCH   6  11BRANCH  10  13ATOM     13  O   UNL     1      32.694  30.504  20.981 -0.56 -0.01    -0.508 OA ATOM     14  H   UNL     1      33.596  30.426  21.330 -0.28 -0.07    +0.293 HD ENDBRANCH  10  13ENDBRANCH   3   5ENDBRANCH   2   3BRANCH   2  15ATOM     15  O   UNL     1      27.301  32.435  24.609 -0.61 -0.64    -0.508 OA ATOM     16  H   UNL     1      27.850  31.743  25.008 +0.24 +0.33    +0.293 HD ENDBRANCH   2  15ENDBRANCH   1   2BRANCH   1  17ATOM     17  C   UNL     1      28.451  34.729  22.199 -0.43 -0.00    +0.034 C  BRANCH  17  18ATOM     18  C   UNL     1      28.169  35.848  21.367 -0.29 -0.03    +0.087 A  ATOM     19  N   UNL     1      26.914  36.062  20.858 -0.18 +0.20    -0.214 NA ATOM     20  C   UNL     1      29.054  36.828  20.959 -0.28 -0.00    +0.058 A  ATOM     21  C   UNL     1      27.007  37.161  20.156 -0.19 -0.09    +0.198 A  ATOM     22  N   UNL     1      28.275  37.672  20.193 -0.13 +0.01    -0.327 N  ATOM     23  H   UNL     1      28.565  38.525  19.736 +0.09 +0.01    +0.169 HD BRANCH  20  24ATOM     24  C   UNL     1      30.507  37.039  21.241 -0.37 +0.01    +0.176 C  BRANCH  24  25ATOM     25  C   UNL     1      31.343  36.895  20.039 -0.46 +0.02    +0.069 C  ATOM     26  N   UNL     1      31.972  36.744  19.073 -0.77 -0.06    -0.198 NA ENDBRANCH  24  25ENDBRANCH  20  24BRANCH  21  27ATOM     27  N   UNL     1      26.037  37.776  19.466 -0.10 +0.20    -0.369 N  ATOM     28  H   UNL     1      26.255  38.249  18.596 +0.08 +0.01    +0.159 HD ATOM     29  H   UNL     1      25.170  37.248  19.411 -0.49 -0.27    +0.159 HD ENDBRANCH  21  27ENDBRANCH  17  18ENDBRANCH   1  17TORSDOF 11TERENDMDL