MODEL        6USER    Run = 6USERUSER    Estimated Free Energy of Binding    =  -9.93 kcal/mol  [=(1)+(2)+(3)-(4)]USERUSER    (1) Final Intermolecular Energy     = -11.42 kcal/molUSER        vdW + Hbond + desolv Energy     = -11.25 kcal/molUSER        Electrostatic Energy            =  -0.17 kcal/molUSER        Moving Ligand-Fixed Receptor    = -11.42 kcal/molUSER        Moving Ligand-Moving Receptor   =  +0.00 kcal/molUSER    (2) Final Total Internal Energy     =  -1.42 kcal/molUSER    (3) Torsional Free Energy           =  +1.49 kcal/molUSER    (4) Unbound System's Energy         =  -1.42 kcal/molUSERUSERREMARK SMILES CC(C)Cc1nnc2ccc(-c3ccnc(NC4CCN(C)CC4)c3)cn12REMARK SMILES IDX 5 1 6 2 7 3 8 4 9 5 10 6 11 7 26 8 27 9 4 10 2 11 1 12 3 13REMARK SMILES IDX 12 14 13 15 25 16 14 17 16 18 15 19 17 20 18 22 19 23 24 24REMARK SMILES IDX 20 25 23 26 21 27 22 28REMARK H PARENT 17 21USER                              x       y       z     vdW  Elec       q    TypeUSER                           _______ _______ _______ _____ _____    ______ ____ROOTATOM      1  C   UNL     1      33.356  44.891  17.702 -0.25 -0.06    +0.137 A  ATOM      2  N   UNL     1      32.084  44.665  17.965 -0.26 +0.02    -0.135 NA ATOM      3  N   UNL     1      31.345  44.987  16.851 -0.73 +0.02    -0.130 NA ATOM      4  C   UNL     1      32.178  45.409  15.927 -0.23 -0.11    +0.160 A  ATOM      5  C   UNL     1      31.989  45.863  14.595 -0.43 -0.04    +0.050 A  ATOM      6  C   UNL     1      33.056  46.247  13.867 +0.02 -0.01    +0.014 A  ATOM      7  C   UNL     1      34.417  46.213  14.410 -0.26 +0.00    -0.001 A  ATOM      8  C   UNL     1      34.586  45.777  15.676 -0.19 -0.10    +0.103 A  ATOM      9  N   UNL     1      33.475  45.379  16.418 -0.15 +0.24    -0.286 N  ENDROOTBRANCH   1  10ATOM     10  C   UNL     1      34.496  44.659  18.633 -0.38 -0.03    +0.081 C  BRANCH  10  11ATOM     11  C   UNL     1      35.431  43.529  18.160 -0.38 +0.00    -0.010 C  ATOM     12  C   UNL     1      34.684  42.603  17.199 -0.47 -0.00    +0.008 C  ATOM     13  C   UNL     1      36.689  44.075  17.478 -0.37 -0.00    +0.008 C  ENDBRANCH  10  11ENDBRANCH   1  10BRANCH   7  14ATOM     14  C   UNL     1      35.598  46.623  13.639 -0.50 +0.01    -0.012 A  ATOM     15  C   UNL     1      35.786  46.166  12.339 -0.55 -0.02    +0.029 A  ATOM     16  C   UNL     1      36.548  47.477  14.204 -0.44 -0.04    +0.055 A  ATOM     17  C   UNL     1      36.910  46.598  11.664 -0.56 -0.04    +0.114 A  ATOM     18  C   UNL     1      37.662  47.856  13.459 -0.42 -0.04    +0.126 A  ATOM     19  N   UNL     1      37.835  47.428  12.193 -0.81 +0.01    -0.240 NA BRANCH  18  20ATOM     20  N   UNL     1      38.570  48.749  14.043 -0.13 +0.17    -0.367 N  ATOM     21  H   UNL     1      38.086  49.388  14.666 -0.34 -0.13    +0.162 HD BRANCH  20  22ATOM     22  C   UNL     1      39.774  48.171  14.656 -0.53 -0.02    +0.083 C  ATOM     23  C   UNL     1      40.231  49.116  15.780 -0.63 -0.01    +0.040 C  ATOM     24  C   UNL     1      39.529  46.745  15.176 -0.50 -0.01    +0.040 C  ATOM     25  C   UNL     1      41.040  48.353  16.822 -0.54 -0.01    +0.086 C  ATOM     26  C   UNL     1      39.194  46.731  16.665 -0.44 -0.02    +0.086 C  ATOM     27  N   UNL     1      40.224  47.345  17.512 -0.28 +0.05    -0.306 NA ATOM     28  C   UNL     1      41.072  46.347  18.161 -0.49 -0.00    +0.105 C  ENDBRANCH  20  22ENDBRANCH  18  20ENDBRANCH   7  14TORSDOF 5TERENDMDL