MODEL        2USER    Run = 2USERUSER    Estimated Free Energy of Binding    =  -7.07 kcal/mol  [=(1)+(2)+(3)-(4)]USERUSER    (1) Final Intermolecular Energy     = -11.24 kcal/molUSER        vdW + Hbond + desolv Energy     = -12.01 kcal/molUSER        Electrostatic Energy            =  -0.13 kcal/molUSER        Moving Ligand-Fixed Receptor    = -12.14 kcal/molUSER        Moving Ligand-Moving Receptor   =  +0.90 kcal/molUSER    (2) Final Total Internal Energy     =  -2.98 kcal/molUSER    (3) Torsional Free Energy           =  +4.18 kcal/molUSER    (4) Unbound System's Energy         =  -2.98 kcal/molUSERUSERREMARK SMILES COc1ccc(O)c(C(=O)c2ccc(C(=O)N[C@@H]3CCCN(C)C[C@H]3NC(=O)c3ccncc3)cc2)c1FREMARK SMILES IDX 15 1 16 2 17 3 14 5 11 6 12 7 36 8 13 9 35 10 9 11 10 12REMARK SMILES IDX 8 13 3 14 4 15 37 16 5 17 6 18 38 19 2 20 1 21 7 22 18 24REMARK SMILES IDX 19 25 25 27 24 28 22 29 23 30 21 31 20 32 26 34 27 35 28 37REMARK SMILES IDX 29 38 30 39 34 40 31 41 33 42 32 43REMARK H PARENT 17 4 7 23 26 36REMARK Flexibility Score:   88.900USER                              x       y       z     vdW  Elec       q    TypeUSER                           _______ _______ _______ _____ _____    ______ ____ROOTATOM      1  C   UNL     1      38.978  43.378  22.836 -0.19 +0.01    +0.251 C  ATOM      2  O   UNL     1      39.046  42.154  22.856 -0.18 -0.04    -0.269 OA ATOM      3  N   UNL     1      38.421  44.128  23.852 -0.08 -0.02    -0.347 N  ATOM      4  H   UNL     1      38.504  45.135  23.822 +0.08 +0.01    +0.164 HD ENDROOTBRANCH   1   5ATOM      5  C   UNL     1      39.538  44.138  21.687 -0.26 +0.00    +0.039 A  ATOM      6  C   UNL     1      40.516  45.622  19.521 -0.41 +0.00    +0.023 A  ATOM      7  C   UNL     1      39.222  45.855  19.999 -0.25 -0.00    +0.013 A  ATOM      8  C   UNL     1      41.334  44.676  20.152 -0.35 +0.00    +0.013 A  ATOM      9  C   UNL     1      38.736  45.113  21.079 -0.34 +0.00    +0.014 A  ATOM     10  C   UNL     1      40.846  43.932  21.231 -0.28 +0.00    +0.014 A  BRANCH   6  11ATOM     11  C   UNL     1      41.084  46.409  18.403 -0.42 -0.01    +0.199 C  ATOM     12  O   UNL     1      42.253  46.790  18.480 -0.39 -0.01    -0.288 OA BRANCH  11  13ATOM     13  C   UNL     1      40.300  46.809  17.214 -0.42 -0.02    +0.104 A  ATOM     14  C   UNL     1      38.481  46.445  15.630 -0.30 -0.05    +0.155 A  ATOM     15  C   UNL     1      38.838  47.615  14.956 -0.46 -0.02    +0.053 A  ATOM     16  C   UNL     1      39.223  46.049  16.754 -0.29 -0.04    +0.179 A  ATOM     17  C   UNL     1      39.935  48.365  15.389 -0.52 -0.02    +0.051 A  ATOM     18  C   UNL     1      40.667  47.955  16.501 -0.45 -0.02    +0.130 A  ATOM     19  F   UNL     1      38.893  44.902  17.370 -0.07 +0.03    -0.202 F  BRANCH  14  20ATOM     20  O   UNL     1      37.442  45.621  15.291 -0.05 +0.20    -0.494 OA ATOM     21  C   UNL     1      37.049  45.594  13.925 -0.29 -0.11    +0.278 C  ENDBRANCH  14  20BRANCH  18  22ATOM     22  O   UNL     1      41.744  48.730  16.838 -0.69 -0.06    -0.507 OA ATOM     23  H   UNL     1      42.506  48.131  17.015 -0.29 +0.02    +0.293 HD ENDBRANCH  18  22ENDBRANCH  11  13ENDBRANCH   6  11ENDBRANCH   1   5BRANCH   3  24ATOM     24  C   UNL     1      37.819  43.505  25.030 -0.27 +0.00    +0.106 C  BRANCH  24  25ATOM     25  C   UNL     1      36.769  42.450  24.647 -0.44 +0.00    +0.028 CG0ATOM     26  G   UNL     1      35.945  41.817  25.766 +0.00 +0.00    +0.000 G0 ENDBRANCH  24  25BRANCH  24  27ATOM     27  C   UNL     1      37.340  44.537  26.091 -0.30 -0.01    +0.118 C  BRANCH  27  28ATOM     28  C   UNL     1      36.775  43.930  27.401 -0.39 -0.02    +0.111 C  BRANCH  28  29ATOM     29  N   UNL     1      37.215  42.606  27.845 -0.16 +0.08    -0.304 NA ATOM     30  C   UNL     1      38.632  42.498  28.140 -0.34 -0.01    +0.105 C  BRANCH  29  31ATOM     31  C   UNL     1      36.652  41.502  27.084 -0.52 -0.02    +0.084 C  BRANCH  31  32ATOM     32  C   UNL     1      35.946  41.820  25.768 -0.46 -0.00    +0.018 CG0ATOM     33  G   UNL     1      36.760  42.461  24.646 +0.00 +0.00    +0.000 G0 ENDBRANCH  31  32ENDBRANCH  29  31ENDBRANCH  28  29ENDBRANCH  27  28BRANCH  27  34ATOM     34  N   UNL     1      38.352  45.569  26.354 -0.08 +0.01    -0.346 N  ATOM     35  C   UNL     1      38.428  46.716  25.592 -0.20 +0.01    +0.251 C  ATOM     36  H   UNL     1      39.056  45.390  27.056 +0.06 -0.00    +0.164 HD ATOM     37  O   UNL     1      37.701  46.932  24.629 -0.66 -0.06    -0.269 OA BRANCH  35  38ATOM     38  C   UNL     1      39.475  47.702  25.968 -0.22 +0.00    +0.042 A  ATOM     39  C   UNL     1      40.454  48.013  25.023 -0.26 +0.00    +0.034 A  ATOM     40  C   UNL     1      39.484  48.342  27.207 -0.22 +0.00    +0.034 A  ATOM     41  C   UNL     1      41.422  48.935  25.370 -0.27 +0.02    +0.112 A  ATOM     42  C   UNL     1      40.496  49.253  27.455 -0.23 +0.01    +0.112 A  ATOM     43  N   UNL     1      41.467  49.557  26.567 -0.12 -0.02    -0.265 NA ENDBRANCH  35  38ENDBRANCH  27  34ENDBRANCH  24  27ENDBRANCH   3  24TORSDOF 8TERENDMDL