REMARK SMILES COc1ccc(O)cc1C(C)=C(O)C=Cc1nc(N)[nH]c1CC#N
REMARK SMILES IDX 14 1 12 2 10 3 11 4 9 5 3 6 4 7 5 8 8 9 6 10 2 11 1 12 7 13
REMARK SMILES IDX 13 15 15 17 16 18 17 19 21 20 18 21 20 22 22 24 23 25 24 26
REMARK SMILES IDX 19 27
REMARK H PARENT 7 14 13 16 20 23 19 28 19 29
ROOT
ATOM      1  C   UNL     1       0.391   0.346   0.732  1.00  0.00     0.049 C 
ENDROOT
BRANCH   1   2
ATOM      2  C   UNL     1      -0.494   1.099   1.612  1.00  0.00     0.119 C 
BRANCH   2   3
ATOM      3  C   UNL     1      -1.668   1.656   1.236  1.00  0.00     0.002 C 
ATOM      4  C   UNL     1      -2.571   2.463   2.132  1.00  0.00     0.049 C 
BRANCH   3   5
ATOM      5  C   UNL     1      -2.196   1.534  -0.141  1.00  0.00     0.027 A 
ATOM      6  C   UNL     1      -3.067   0.493  -0.507  1.00  0.00     0.126 A 
ATOM      7  C   UNL     1      -3.587   0.424  -1.804  1.00  0.00     0.051 A 
ATOM      8  C   UNL     1      -3.211   1.372  -2.758  1.00  0.00     0.050 A 
ATOM      9  C   UNL     1      -1.822   2.477  -1.108  1.00  0.00     0.058 A 
ATOM     10  C   UNL     1      -2.327   2.387  -2.402  1.00  0.00     0.116 A 
BRANCH   6  11
ATOM     11  O   UNL     1      -3.457  -0.418   0.443  1.00  0.00    -0.496 OA
ATOM     12  C   UNL     1      -2.976  -1.725   0.125  1.00  0.00     0.278 C 
ENDBRANCH   6  11
BRANCH  10  13
ATOM     13  O   UNL     1      -1.937   3.333  -3.303  1.00  0.00    -0.508 OA
ATOM     14  H   UNL     1      -2.343   3.135  -4.162  1.00  0.00     0.293 HD
ENDBRANCH  10  13
ENDBRANCH   3   5
ENDBRANCH   2   3
BRANCH   2  15
ATOM     15  O   UNL     1      -0.026   1.173   2.913  1.00  0.00    -0.508 OA
ATOM     16  H   UNL     1      -0.747   1.480   3.483  1.00  0.00     0.293 HD
ENDBRANCH   2  15
ENDBRANCH   1   2
BRANCH   1  17
ATOM     17  C   UNL     1       1.570  -0.193   1.093  1.00  0.00     0.034 C 
BRANCH  17  18
ATOM     18  C   UNL     1       2.420  -0.939   0.230  1.00  0.00     0.087 A 
ATOM     19  N   UNL     1       2.047  -1.243  -1.054  1.00  0.00    -0.214 NA
ATOM     20  C   UNL     1       3.670  -1.449   0.528  1.00  0.00     0.058 A 
ATOM     21  C   UNL     1       3.048  -1.919  -1.555  1.00  0.00     0.198 A 
ATOM     22  N   UNL     1       4.060  -2.062  -0.646  1.00  0.00    -0.327 N 
ATOM     23  H   UNL     1       4.935  -2.533  -0.829  1.00  0.00     0.169 HD
BRANCH  20  24
ATOM     24  C   UNL     1       4.502  -1.387   1.768  1.00  0.00     0.176 C 
BRANCH  24  25
ATOM     25  C   UNL     1       5.554  -2.416   1.795  1.00  0.00     0.069 C 
ATOM     26  N   UNL     1       6.382  -3.231   1.766  1.00  0.00    -0.198 NA
ENDBRANCH  24  25
ENDBRANCH  20  24
BRANCH  21  27
ATOM     27  N   UNL     1       3.152  -2.434  -2.787  1.00  0.00    -0.369 N 
ATOM     28  H   UNL     1       3.688  -3.281  -2.940  1.00  0.00     0.159 HD
ATOM     29  H   UNL     1       2.282  -2.429  -3.313  1.00  0.00     0.159 HD
ENDBRANCH  21  27
ENDBRANCH  17  18
ENDBRANCH   1  17
TORSDOF 11
