MODEL        2USER    Run = 2USERUSER    Estimated Free Energy of Binding    =  -9.98 kcal/mol  [=(1)+(2)+(3)-(4)]USERUSER    (1) Final Intermolecular Energy     = -11.47 kcal/molUSER        vdW + Hbond + desolv Energy     = -11.39 kcal/molUSER        Electrostatic Energy            =  -0.08 kcal/molUSER        Moving Ligand-Fixed Receptor    = -11.47 kcal/molUSER        Moving Ligand-Moving Receptor   =  +0.00 kcal/molUSER    (2) Final Total Internal Energy     =  -1.23 kcal/molUSER    (3) Torsional Free Energy           =  +1.49 kcal/molUSER    (4) Unbound System's Energy         =  -1.23 kcal/molUSERUSERREMARK SMILES CC(C)Cc1nnc2ccc(-c3ccnc(NC4CCNCC4)c3)cn12REMARK SMILES IDX 5 1 6 2 7 3 8 4 9 5 10 6 11 7 25 8 26 9 4 10 2 11 1 12 3 13REMARK SMILES IDX 12 14 13 15 24 16 14 17 16 18 15 19 17 20 18 22 19 23 23 24REMARK SMILES IDX 20 25 22 26 21 27REMARK H PARENT 17 21 21 28USER                              x       y       z     vdW  Elec       q    TypeUSER                           _______ _______ _______ _____ _____    ______ ____ROOTATOM      1  C   UNL     1      41.102  48.106  17.219 -0.40 -0.01    +0.137 A  ATOM      2  N   UNL     1      42.125  47.997  18.046 -0.56 +0.00    -0.135 NA ATOM      3  N   UNL     1      41.957  46.863  18.805 -0.45 -0.01    -0.130 NA ATOM      4  C   UNL     1      40.828  46.302  18.440 -0.38 -0.01    +0.160 A  ATOM      5  C   UNL     1      40.155  45.129  18.871 -0.41 -0.00    +0.050 A  ATOM      6  C   UNL     1      38.979  44.792  18.307 -0.39 -0.00    +0.014 A  ATOM      7  C   UNL     1      38.366  45.605  17.254 -0.39 +0.00    -0.001 A  ATOM      8  C   UNL     1      39.014  46.717  16.848 -0.36 -0.03    +0.103 A  ATOM      9  N   UNL     1      40.233  47.055  17.436 -0.30 +0.05    -0.286 N  ENDROOTBRANCH   1  10ATOM     10  C   UNL     1      40.899  49.199  16.224 -0.55 -0.01    +0.081 C  BRANCH  10  11ATOM     11  C   UNL     1      40.902  48.734  14.754 -0.65 +0.00    -0.010 C  ATOM     12  C   UNL     1      41.668  49.682  13.831 -0.69 -0.00    +0.008 C  ATOM     13  C   UNL     1      39.494  48.481  14.210 -0.51 -0.00    +0.008 C  ENDBRANCH  10  11ENDBRANCH   1  10BRANCH   7  14ATOM     14  C   UNL     1      37.084  45.266  16.622 -0.34 +0.00    -0.012 A  ATOM     15  C   UNL     1      36.439  46.180  15.799 -0.35 -0.02    +0.029 A  ATOM     16  C   UNL     1      36.499  44.015  16.837 -0.31 -0.02    +0.055 A  ATOM     17  C   UNL     1      35.232  45.800  15.249 -0.28 -0.09    +0.114 A  ATOM     18  C   UNL     1      35.285  43.702  16.229 -0.29 -0.05    +0.126 A  ATOM     19  N   UNL     1      34.653  44.597  15.455 -0.16 +0.13    -0.240 NA BRANCH  18  20ATOM     20  N   UNL     1      34.722  42.459  16.508 -0.21 +0.16    -0.367 N  ATOM     21  H   UNL     1      34.156  42.158  15.719 -0.32 -0.09    +0.162 HD BRANCH  20  22ATOM     22  C   UNL     1      34.047  42.156  17.783 -0.42 -0.03    +0.083 C  ATOM     23  C   UNL     1      34.968  42.214  19.006 -0.43 -0.01    +0.040 C  ATOM     24  C   UNL     1      32.676  42.823  17.940 -0.36 -0.01    +0.040 C  ATOM     25  C   UNL     1      34.739  43.408  19.924 -0.40 -0.00    +0.083 C  ATOM     26  C   UNL     1      32.638  43.976  18.936 -0.40 -0.01    +0.083 C  ATOM     27  N   UNL     1      33.315  43.624  20.185 -0.75 -0.02    -0.317 NA ATOM     28  H   UNL     1      33.221  44.403  20.837 -0.32 -0.01    +0.122 HD ENDBRANCH  20  22ENDBRANCH  18  20ENDBRANCH   7  14TORSDOF 5TERENDMDL