MODEL        2USER    Run = 2USERUSER    Estimated Free Energy of Binding    =  -8.25 kcal/mol  [=(1)+(2)+(3)-(4)]USERUSER    (1) Final Intermolecular Energy     = -11.23 kcal/molUSER        vdW + Hbond + desolv Energy     = -11.20 kcal/molUSER        Electrostatic Energy            =  -0.03 kcal/molUSER        Moving Ligand-Fixed Receptor    = -11.23 kcal/molUSER        Moving Ligand-Moving Receptor   =  +0.00 kcal/molUSER    (2) Final Total Internal Energy     =  -1.76 kcal/molUSER    (3) Torsional Free Energy           =  +2.98 kcal/molUSER    (4) Unbound System's Energy         =  -1.76 kcal/molUSERUSERREMARK SMILES Cn1nc(NCc2cccnc2)cc1CCc1cccc(OCCN)c1REMARK SMILES IDX 17 1 18 2 19 3 20 4 21 5 26 6 16 7 15 8 14 9 2 10 3 11 4 12REMARK SMILES IDX 13 13 1 14 5 15 6 17 7 18 8 19 12 20 9 21 11 22 10 23 22 24REMARK SMILES IDX 23 25 24 26 25 27REMARK H PARENT 5 16 25 28 25 29USER                              x       y       z     vdW  Elec       q    TypeUSER                           _______ _______ _______ _____ _____    ______ ____ROOTATOM      1  C   UNL     1      37.657  43.591  21.561 -0.35 -0.00    -0.044 A  ATOM      2  C   UNL     1      36.968  42.749  20.679 -0.39 -0.00    +0.004 A  ATOM      3  C   UNL     1      36.260  41.652  21.166 -0.52 +0.00    +0.004 A  ATOM      4  C   UNL     1      36.232  41.395  22.537 -0.48 +0.00    +0.046 A  ATOM      5  C   UNL     1      36.909  42.227  23.432 -0.37 +0.01    +0.119 A  ATOM      6  C   UNL     1      37.619  43.324  22.940 -0.34 +0.00    +0.050 A  ENDROOTBRANCH   1   7ATOM      7  C   UNL     1      38.407  44.791  21.037 -0.38 +0.00    +0.042 C  BRANCH   7   8ATOM      8  C   UNL     1      39.445  44.394  19.981 -0.35 -0.00    +0.060 C  BRANCH   8   9ATOM      9  C   UNL     1      39.565  45.432  18.916 -0.40 -0.00    +0.041 A  ATOM     10  N   UNL     1      40.624  46.293  18.785 -0.28 +0.01    -0.271 N  ATOM     11  N   UNL     1      40.501  47.139  17.748 -0.40 +0.02    -0.155 NA ATOM     12  C   UNL     1      39.342  46.808  17.182 -0.34 -0.04    +0.148 A  ATOM     13  C   UNL     1      38.716  45.750  17.874 -0.36 -0.01    +0.072 A  ATOM     14  C   UNL     1      41.806  46.365  19.611 -0.39 +0.02    +0.174 C  BRANCH  12  15ATOM     15  N   UNL     1      38.800  47.382  16.092 -0.18 +0.15    -0.364 N  ATOM     16  H   UNL     1      39.372  47.533  15.270 +0.13 -0.05    +0.162 HD BRANCH  15  17ATOM     17  C   UNL     1      37.379  47.257  15.843 -0.36 -0.10    +0.152 C  BRANCH  17  18ATOM     18  C   UNL     1      37.147  46.990  14.382 -0.45 +0.01    -0.010 A  ATOM     19  C   UNL     1      36.999  45.692  13.883 -0.44 -0.00    +0.009 A  ATOM     20  C   UNL     1      37.111  48.036  13.465 -0.48 -0.05    +0.116 A  ATOM     21  C   UNL     1      36.805  45.496  12.519 -0.55 -0.01    +0.020 A  ATOM     22  N   UNL     1      36.923  47.874  12.135 -0.99 +0.07    -0.264 NA ATOM     23  C   UNL     1      36.772  46.608  11.694 -0.56 -0.04    +0.111 A  ENDBRANCH  17  18ENDBRANCH  15  17ENDBRANCH  12  15ENDBRANCH   8   9ENDBRANCH   7   8ENDBRANCH   1   7BRANCH   5  24ATOM     24  O   UNL     1      36.796  41.862  24.744 -0.16 +0.03    -0.492 OA BRANCH  24  25ATOM     25  C   UNL     1      36.575  42.906  25.696 -0.28 -0.01    +0.244 C  BRANCH  25  26ATOM     26  C   UNL     1      35.550  42.418  26.730 -0.49 -0.02    +0.119 C  BRANCH  26  27ATOM     27  N   UNL     1      35.161  41.018  26.525 -0.33 +0.14    -0.327 NA ATOM     28  H   UNL     1      34.506  40.959  25.746 -0.30 -0.06    +0.119 HD ATOM     29  H   UNL     1      35.991  40.511  26.207 -0.41 -0.07    +0.119 HD ENDBRANCH  26  27ENDBRANCH  25  26ENDBRANCH  24  25ENDBRANCH   5  24TORSDOF 10TERENDMDL