REMARK SMILES N[C@@H]1OC(c2cc(F)c(O)c(F)c2)=CC=C1C(=O)O
REMARK SMILES IDX 2 1 3 2 4 3 14 4 15 5 16 6 1 7 17 10 18 11 19 12 5 14 6 15
REMARK SMILES IDX 13 16 7 17 11 18 9 19 8 20 12 21 10 22
REMARK H PARENT 1 8 1 9 19 13 10 23
ROOT
ATOM      1  C   UNL     1       2.095   0.927  -0.088  1.00  0.00     0.278 C 
ATOM      2  O   UNL     1       0.671   0.850  -0.303  1.00  0.00    -0.470 OA
ATOM      3  C   UNL     1       0.010  -0.300   0.078  1.00  0.00     0.129 C 
ATOM      4  C   UNL     1       0.640  -1.433   0.429  1.00  0.00     0.048 C 
ATOM      5  C   UNL     1       2.074  -1.511   0.374  1.00  0.00     0.020 C 
ATOM      6  C   UNL     1       2.774  -0.392   0.137  1.00  0.00     0.092 C 
ENDROOT
BRANCH   1   7
ATOM      7  N   UNL     1       2.331   1.856   1.015  1.00  0.00    -0.292 NA
ATOM      8  H   UNL     1       3.298   2.171   0.947  1.00  0.00     0.122 HD
ATOM      9  H   UNL     1       1.751   2.672   0.839  1.00  0.00     0.122 HD
ENDBRANCH   1   7
BRANCH   6  10
ATOM     10  C   UNL     1       4.235  -0.504   0.035  1.00  0.00     0.336 C 
ATOM     11  O   UNL     1       4.894  -1.520   0.170  1.00  0.00    -0.247 OA
BRANCH  10  12
ATOM     12  O   UNL     1       4.834   0.664  -0.254  1.00  0.00    -0.478 OA
ATOM     13  H   UNL     1       5.785   0.424  -0.285  1.00  0.00     0.297 HD
ENDBRANCH  10  12
ENDBRANCH   6  10
BRANCH   3  14
ATOM     14  C   UNL     1      -1.459  -0.177   0.085  1.00  0.00     0.023 A 
ATOM     15  C   UNL     1      -2.058   0.989   0.590  1.00  0.00     0.055 A 
ATOM     16  C   UNL     1      -2.285  -1.189  -0.428  1.00  0.00     0.055 A 
ATOM     17  C   UNL     1      -3.445   1.129   0.591  1.00  0.00     0.168 A 
ATOM     18  C   UNL     1      -3.668  -1.030  -0.418  1.00  0.00     0.168 A 
ATOM     19  C   UNL     1      -4.256   0.122   0.089  1.00  0.00     0.187 A 
ATOM     20  F   UNL     1      -3.983   2.254   1.084  1.00  0.00    -0.203 F 
ATOM     21  F   UNL     1      -4.449  -2.004  -0.911  1.00  0.00    -0.203 F 
BRANCH  19  22
ATOM     22  O   UNL     1      -5.615   0.266   0.093  1.00  0.00    -0.503 OA
ATOM     23  H   UNL     1      -5.995  -0.542  -0.301  1.00  0.00     0.293 HD
ENDBRANCH  19  22
ENDBRANCH   3  14
TORSDOF 5
