REMARK SMILES O=C(CCCC(=O)NCCN1CCOCC1)NC=Cc1cccc(-c2ccccc2)c1O
REMARK SMILES IDX 3 1 2 2 17 3 1 4 18 6 19 7 20 8 21 9 31 10 22 11 24 12 23 13
REMARK SMILES IDX 32 14 25 16 26 17 30 18 27 19 29 20 28 21 4 22 5 23 6 24
REMARK SMILES IDX 8 25 7 26 9 28 10 29 11 30 12 31 16 32 13 33 15 34 14 35
REMARK H PARENT 17 5 32 15 8 27
ROOT
ATOM      1  C   UNL     1       0.376  -0.141   3.090  1.00  0.00     0.101 C 
ENDROOT
BRANCH   1   2
ATOM      2  C   UNL     1      -0.747  -0.534   2.144  1.00  0.00     0.223 C 
ATOM      3  N   UNL     1      -1.419   0.570   1.645  1.00  0.00    -0.333 N 
ATOM      4  O   UNL     1      -1.020  -1.699   1.873  1.00  0.00    -0.275 OA
ATOM      5  H   UNL     1      -1.110   1.492   1.931  1.00  0.00     0.169 HD
BRANCH   3   6
ATOM      6  C   UNL     1      -2.478   0.484   0.777  1.00  0.00     0.086 C 
BRANCH   6   7
ATOM      7  C   UNL     1      -3.088   1.573   0.292  1.00  0.00     0.030 C 
BRANCH   7   8
ATOM      8  C   UNL     1      -4.208   1.509  -0.661  1.00  0.00     0.018 A 
ATOM      9  C   UNL     1      -4.110   2.284  -1.825  1.00  0.00     0.012 A 
ATOM     10  C   UNL     1      -5.372   0.747  -0.451  1.00  0.00     0.130 A 
ATOM     11  C   UNL     1      -5.135   2.282  -2.770  1.00  0.00     0.002 A 
ATOM     12  C   UNL     1      -6.419   0.734  -1.397  1.00  0.00     0.024 A 
ATOM     13  C   UNL     1      -6.277   1.510  -2.558  1.00  0.00     0.012 A 
BRANCH  10  14
ATOM     14  O   UNL     1      -5.468   0.020   0.713  1.00  0.00    -0.507 OA
ATOM     15  H   UNL     1      -6.272  -0.524   0.684  1.00  0.00     0.293 HD
ENDBRANCH  10  14
BRANCH  12  16
ATOM     16  C   UNL     1      -7.646  -0.050  -1.207  1.00  0.00    -0.015 A 
ATOM     17  C   UNL     1      -8.662   0.404  -0.351  1.00  0.00     0.009 A 
ATOM     18  C   UNL     1      -7.822  -1.276  -1.866  1.00  0.00     0.009 A 
ATOM     19  C   UNL     1      -9.821  -0.349  -0.158  1.00  0.00     0.001 A 
ATOM     20  C   UNL     1      -8.982  -2.029  -1.674  1.00  0.00     0.001 A 
ATOM     21  C   UNL     1      -9.980  -1.565  -0.818  1.00  0.00     0.000 A 
ENDBRANCH  12  16
ENDBRANCH   7   8
ENDBRANCH   6   7
ENDBRANCH   3   6
ENDBRANCH   1   2
BRANCH   1  22
ATOM     22  C   UNL     1       1.319  -1.294   3.442  1.00  0.00     0.020 C 
BRANCH  22  23
ATOM     23  C   UNL     1       2.128  -1.829   2.258  1.00  0.00     0.100 C 
BRANCH  23  24
ATOM     24  C   UNL     1       3.115  -0.827   1.691  1.00  0.00     0.220 C 
ATOM     25  N   UNL     1       3.677  -1.244   0.504  1.00  0.00    -0.355 N 
ATOM     26  O   UNL     1       3.400   0.233   2.238  1.00  0.00    -0.275 OA
ATOM     27  H   UNL     1       3.325  -2.088   0.070  1.00  0.00     0.163 HD
BRANCH  25  28
ATOM     28  C   UNL     1       4.566  -0.392  -0.267  1.00  0.00     0.131 C 
BRANCH  28  29
ATOM     29  C   UNL     1       5.976  -0.279   0.347  1.00  0.00     0.106 C 
BRANCH  29  30
ATOM     30  N   UNL     1       6.911   0.515  -0.472  1.00  0.00    -0.297 NA
ATOM     31  C   UNL     1       7.197  -0.127  -1.773  1.00  0.00     0.113 C 
ATOM     32  C   UNL     1       8.169   0.799   0.256  1.00  0.00     0.113 C 
ATOM     33  C   UNL     1       8.543   0.331  -2.355  1.00  0.00     0.175 C 
ATOM     34  C   UNL     1       9.331  -0.124  -0.142  1.00  0.00     0.175 C 
ATOM     35  O   UNL     1       9.656  -0.057  -1.537  1.00  0.00    -0.379 OA
ENDBRANCH  29  30
ENDBRANCH  28  29
ENDBRANCH  25  28
ENDBRANCH  23  24
ENDBRANCH  22  23
ENDBRANCH   1  22
TORSDOF 12
