MODEL        9USER    Run = 9USERUSER    Estimated Free Energy of Binding    =  -8.98 kcal/mol  [=(1)+(2)+(3)-(4)]USERUSER    (1) Final Intermolecular Energy     = -12.56 kcal/molUSER        vdW + Hbond + desolv Energy     = -12.44 kcal/molUSER        Electrostatic Energy            =  -0.12 kcal/molUSER        Moving Ligand-Fixed Receptor    = -12.56 kcal/molUSER        Moving Ligand-Moving Receptor   =  +0.00 kcal/molUSER    (2) Final Total Internal Energy     =  -2.65 kcal/molUSER    (3) Torsional Free Energy           =  +3.58 kcal/molUSER    (4) Unbound System's Energy         =  -2.65 kcal/molUSERUSERREMARK SMILES O=C(CCCC(=O)NCCN1CCOCC1)NC=Cc1cccc(-c2ccccc2)c1OREMARK SMILES IDX 3 1 2 2 17 3 1 4 18 6 19 7 20 8 21 9 31 10 22 11 24 12 23 13REMARK SMILES IDX 32 14 25 16 26 17 30 18 27 19 29 20 28 21 4 22 5 23 6 24REMARK SMILES IDX 8 25 7 26 9 28 10 29 11 30 12 31 16 32 13 33 15 34 14 35REMARK H PARENT 17 5 32 15 8 27USER                              x       y       z     vdW  Elec       q    TypeUSER                           _______ _______ _______ _____ _____    ______ ____ROOTATOM      1  C   UNL     1      34.387  44.421  19.844 -0.20 -0.02    +0.101 C  ENDROOTBRANCH   1   2ATOM      2  C   UNL     1      34.278  45.383  18.672 -0.35 -0.10    +0.223 C  ATOM      3  N   UNL     1      33.666  44.801  17.574 -0.11 +0.16    -0.333 N  ATOM      4  O   UNL     1      34.698  46.536  18.708 -0.60 +0.15    -0.275 OA ATOM      5  H   UNL     1      33.351  43.840  17.651 +0.13 -0.06    +0.169 HD BRANCH   3   6ATOM      6  C   UNL     1      33.454  45.457  16.388 -0.28 -0.08    +0.086 C  BRANCH   6   7ATOM      7  C   UNL     1      34.153  45.167  15.283 -0.32 -0.02    +0.030 C  BRANCH   7   8ATOM      8  C   UNL     1      35.210  46.042  14.749 -0.37 -0.01    +0.018 A  ATOM      9  C   UNL     1      35.030  46.557  13.457 -0.44 -0.01    +0.012 A  ATOM     10  C   UNL     1      36.392  46.356  15.444 -0.28 -0.09    +0.130 A  ATOM     11  C   UNL     1      35.992  47.385  12.881 -0.62 -0.00    +0.002 A  ATOM     12  C   UNL     1      37.376  47.192  14.875 -0.42 -0.01    +0.024 A  ATOM     13  C   UNL     1      37.152  47.702  13.587 -0.56 -0.01    +0.012 A  BRANCH  10  14ATOM     14  O   UNL     1      36.569  45.813  16.696 -0.05 +0.27    -0.507 OA ATOM     15  H   UNL     1      36.064  46.333  17.343 +0.19 -0.19    +0.293 HD ENDBRANCH  10  14BRANCH  12  16ATOM     16  C   UNL     1      38.620  47.538  15.575 -0.46 +0.01    -0.015 A  ATOM     17  C   UNL     1      39.246  48.775  15.355 -0.51 -0.00    +0.009 A  ATOM     18  C   UNL     1      39.215  46.633  16.467 -0.44 -0.00    +0.009 A  ATOM     19  C   UNL     1      40.437  49.097  16.008 -0.57 -0.00    +0.001 A  ATOM     20  C   UNL     1      40.406  46.956  17.121 -0.51 -0.00    +0.001 A  ATOM     21  C   UNL     1      41.017  48.187  16.889 -0.54 -0.00    +0.000 A  ENDBRANCH  12  16ENDBRANCH   7   8ENDBRANCH   6   7ENDBRANCH   3   6ENDBRANCH   1   2BRANCH   1  22ATOM     22  C   UNL     1      35.370  43.272  19.609 -0.47 -0.00    +0.020 C  BRANCH  22  23ATOM     23  C   UNL     1      34.972  42.326  18.473 -0.40 -0.02    +0.100 C  BRANCH  23  24ATOM     24  C   UNL     1      33.540  41.835  18.561 -0.31 -0.03    +0.220 C  ATOM     25  N   UNL     1      33.312  40.712  17.796 -0.15 +0.13    -0.355 N  ATOM     26  O   UNL     1      32.670  42.388  19.225 -0.40 +0.00    -0.275 OA ATOM     27  H   UNL     1      34.101  40.261  17.348 -0.45 -0.14    +0.163 HD BRANCH  25  28ATOM     28  C   UNL     1      32.040  40.011  17.818 -0.39 -0.02    +0.131 C  BRANCH  28  29ATOM     29  C   UNL     1      32.154  38.569  18.352 -0.45 +0.01    +0.106 C  BRANCH  29  30ATOM     30  N   UNL     1      32.031  38.474  19.818 -0.50 -0.08    -0.297 NA ATOM     31  C   UNL     1      32.010  37.071  20.287 -0.45 +0.03    +0.113 C  ATOM     32  C   UNL     1      30.844  39.206  20.315 -0.35 +0.01    +0.113 C  ATOM     33  C   UNL     1      31.317  36.932  21.651 -0.38 +0.01    +0.175 C  ATOM     34  C   UNL     1      29.644  38.297  20.619 -0.23 +0.01    +0.175 C  ATOM     35  O   UNL     1      29.928  37.291  21.600 -0.17 -0.01    -0.379 OA ENDBRANCH  29  30ENDBRANCH  28  29ENDBRANCH  25  28ENDBRANCH  23  24ENDBRANCH  22  23ENDBRANCH   1  22TORSDOF 12TERENDMDL