MODEL        2USER    Run = 2USERUSER    Estimated Free Energy of Binding    =  -7.27 kcal/mol  [=(1)+(2)+(3)-(4)]USERUSER    (1) Final Intermolecular Energy     =  -8.76 kcal/molUSER        vdW + Hbond + desolv Energy     =  -8.32 kcal/molUSER        Electrostatic Energy            =  -0.44 kcal/molUSER        Moving Ligand-Fixed Receptor    =  -8.76 kcal/molUSER        Moving Ligand-Moving Receptor   =  +0.00 kcal/molUSER    (2) Final Total Internal Energy     =  -1.05 kcal/molUSER    (3) Torsional Free Energy           =  +1.49 kcal/molUSER    (4) Unbound System's Energy         =  -1.05 kcal/molUSERUSERREMARK SMILES N[C@@H]1OC(c2cc(F)c(O)c(F)c2)=CC=C1C(=O)OREMARK SMILES IDX 2 1 3 2 4 3 14 4 15 5 16 6 1 7 17 10 18 11 19 12 5 14 6 15REMARK SMILES IDX 13 16 7 17 11 18 9 19 8 20 12 21 10 22REMARK H PARENT 1 8 1 9 19 13 10 23USER                              x       y       z     vdW  Elec       q    TypeUSER                           _______ _______ _______ _____ _____    ______ ____ROOTATOM      1  C   UNL     1      34.765  45.820  18.454 -0.27 -0.14    +0.278 C  ATOM      2  O   UNL     1      35.533  46.091  17.264 -0.12 +0.34    -0.470 OA ATOM      3  C   UNL     1      35.204  45.422  16.103 -0.30 -0.09    +0.129 C  ATOM      4  C   UNL     1      34.364  44.375  16.066 -0.35 -0.03    +0.048 C  ATOM      5  C   UNL     1      33.791  43.862  17.281 -0.35 -0.01    +0.020 C  ATOM      6  C   UNL     1      33.970  44.548  18.419 -0.37 -0.03    +0.092 C  ENDROOTBRANCH   1   7ATOM      7  N   UNL     1      33.920  46.983  18.715 -0.93 +0.21    -0.292 NA ATOM      8  H   UNL     1      33.401  47.182  17.860 -0.41 -0.19    +0.122 HD ATOM      9  H   UNL     1      33.232  46.695  19.407 -0.45 -0.07    +0.122 HD ENDBRANCH   1   7BRANCH   6  10ATOM     10  C   UNL     1      33.420  43.980  19.657 -0.24 -0.04    +0.336 C  ATOM     11  O   UNL     1      33.756  42.935  20.185 -0.78 -0.04    -0.247 OA BRANCH  10  12ATOM     12  O   UNL     1      32.470  44.751  20.213 -0.11 +0.06    -0.478 OA ATOM     13  H   UNL     1      32.848  45.654  20.144 -0.32 -0.16    +0.297 HD ENDBRANCH  10  12ENDBRANCH   6  10BRANCH   3  14ATOM     14  C   UNL     1      35.844  45.966  14.891 -0.37 -0.02    +0.023 A  ATOM     15  C   UNL     1      36.112  45.117  13.804 -0.24 -0.02    +0.055 A  ATOM     16  C   UNL     1      36.172  47.326  14.779 -0.27 -0.05    +0.055 A  ATOM     17  C   UNL     1      36.703  45.617  12.645 -0.42 -0.06    +0.168 A  ATOM     18  C   UNL     1      36.761  47.805  13.613 -0.43 -0.09    +0.168 A  ATOM     19  C   UNL     1      37.031  46.961  12.543 -0.48 -0.06    +0.187 A  ATOM     20  F   UNL     1      36.947  44.778  11.628 -0.20 +0.06    -0.203 F  ATOM     21  F   UNL     1      37.071  49.108  13.516 -0.15 +0.10    -0.203 F  BRANCH  19  22ATOM     22  O   UNL     1      37.610  47.444  11.403 -0.66 +0.05    -0.503 OA ATOM     23  H   UNL     1      36.920  47.923  10.906 -0.10 -0.16    +0.293 HD ENDBRANCH  19  22ENDBRANCH   3  14TORSDOF 5TERENDMDL