MODEL        4USER    Run = 4USERUSER    Estimated Free Energy of Binding    =  -9.92 kcal/mol  [=(1)+(2)+(3)-(4)]USERUSER    (1) Final Intermolecular Energy     = -11.71 kcal/molUSER        vdW + Hbond + desolv Energy     = -11.56 kcal/molUSER        Electrostatic Energy            =  -0.14 kcal/molUSER        Moving Ligand-Fixed Receptor    = -11.71 kcal/molUSER        Moving Ligand-Moving Receptor   =  +0.00 kcal/molUSER    (2) Final Total Internal Energy     =  -1.16 kcal/molUSER    (3) Torsional Free Energy           =  +1.79 kcal/molUSER    (4) Unbound System's Energy         =  -1.16 kcal/molUSERUSERREMARK SMILES CC(C)Cc1nnc2ccc(-c3ccnc(NCc4cccnc4)c3)cn12REMARK SMILES IDX 5 1 6 2 7 3 8 4 9 5 10 6 11 7 26 8 27 9 4 10 2 11 1 12 3 13REMARK SMILES IDX 12 14 13 15 25 16 14 17 16 18 15 19 17 20 18 22 19 23 20 24REMARK SMILES IDX 24 25 21 26 23 27 22 28REMARK H PARENT 17 21USER                              x       y       z     vdW  Elec       q    TypeUSER                           _______ _______ _______ _____ _____    ______ ____ROOTATOM      1  C   UNL     1      32.666  43.730  18.663 -0.28 -0.02    +0.137 A  ATOM      2  N   UNL     1      32.873  43.166  19.838 -0.86 -0.01    -0.135 NA ATOM      3  N   UNL     1      34.188  43.350  20.192 -0.70 -0.01    -0.130 NA ATOM      4  C   UNL     1      34.769  44.029  19.229 -0.27 -0.03    +0.160 A  ATOM      5  C   UNL     1      36.095  44.506  19.050 -0.33 -0.01    +0.050 A  ATOM      6  C   UNL     1      36.407  45.190  17.933 -0.33 -0.00    +0.014 A  ATOM      7  C   UNL     1      35.419  45.460  16.887 -0.34 +0.00    -0.001 A  ATOM      8  C   UNL     1      34.161  45.006  17.069 -0.25 -0.06    +0.103 A  ATOM      9  N   UNL     1      33.848  44.299  18.229 -0.14 +0.09    -0.286 N  ENDROOTBRANCH   1  10ATOM     10  C   UNL     1      31.394  43.791  17.882 -0.25 -0.01    +0.081 C  BRANCH  10  11ATOM     11  C   UNL     1      31.459  43.313  16.420 -0.37 +0.00    -0.010 C  ATOM     12  C   UNL     1      30.529  42.133  16.136 -0.39 -0.00    +0.008 C  ATOM     13  C   UNL     1      31.246  44.442  15.409 -0.43 -0.00    +0.008 C  ENDBRANCH  10  11ENDBRANCH   1  10BRANCH   7  14ATOM     14  C   UNL     1      35.734  46.206  15.660 -0.36 +0.01    -0.012 A  ATOM     15  C   UNL     1      35.070  45.924  14.471 -0.36 -0.02    +0.029 A  ATOM     16  C   UNL     1      36.721  47.194  15.669 -0.35 -0.05    +0.055 A  ATOM     17  C   UNL     1      35.423  46.649  13.350 -0.43 -0.08    +0.114 A  ATOM     18  C   UNL     1      37.014  47.885  14.496 -0.40 -0.09    +0.126 A  ATOM     19  N   UNL     1      36.368  47.616  13.344 -0.43 +0.13    -0.240 NA BRANCH  18  20ATOM     20  N   UNL     1      38.022  48.861  14.548 -0.23 +0.24    -0.366 N  ATOM     21  H   UNL     1      37.763  49.626  13.936 -0.45 -0.12    +0.162 HD BRANCH  20  22ATOM     22  C   UNL     1      39.382  48.399  14.292 -0.41 -0.05    +0.152 C  BRANCH  22  23ATOM     23  C   UNL     1      40.112  48.123  15.578 -0.55 +0.00    -0.010 A  ATOM     24  C   UNL     1      39.902  46.953  16.309 -0.48 -0.00    +0.009 A  ATOM     25  C   UNL     1      41.023  49.041  16.094 -0.51 -0.02    +0.116 A  ATOM     26  C   UNL     1      40.606  46.737  17.491 -0.49 -0.00    +0.020 A  ATOM     27  N   UNL     1      41.731  48.856  17.233 -0.73 -0.03    -0.264 NA ATOM     28  C   UNL     1      41.503  47.709  17.906 -0.42 -0.01    +0.111 A  ENDBRANCH  22  23ENDBRANCH  20  22ENDBRANCH  18  20ENDBRANCH   7  14TORSDOF 6TERENDMDL