REMARK SMILES CNC(=O)c1ccc(Nc2nc3c(s2)CCC[C@H]3C(=O)N2CCN(C)CC2)cc1F
REMARK SMILES IDX 9 1 8 3 5 4 6 5 29 6 7 7 28 8 30 9 3 10 2 11 1 12 4 14 10 15
REMARK SMILES IDX 11 16 14 17 12 18 13 19 18 20 15 21 17 22 16 23 19 24 21 25
REMARK SMILES IDX 22 26 27 27 23 28 26 29 24 30 20 31 25 32
REMARK H PARENT 9 2 2 13
ROOT
ATOM      1  N   UNL     1       2.530  -0.354  -1.425  1.00  0.00    -0.331 N 
ATOM      2  H   UNL     1       2.201   0.445  -1.963  1.00  0.00     0.169 HD
ENDROOT
BRANCH   1   3
ATOM      3  C   UNL     1       3.675   0.016  -0.680  1.00  0.00     0.043 A 
ATOM      4  C   UNL     1       6.001   0.883   0.682  1.00  0.00     0.075 A 
ATOM      5  C   UNL     1       4.746   0.924   1.314  1.00  0.00     0.019 A 
ATOM      6  C   UNL     1       6.066   0.449  -0.645  1.00  0.00     0.138 A 
ATOM      7  C   UNL     1       3.594   0.495   0.638  1.00  0.00     0.027 A 
ATOM      8  C   UNL     1       4.919   0.035  -1.326  1.00  0.00     0.066 A 
ATOM      9  F   UNL     1       7.235   0.424  -1.312  1.00  0.00    -0.206 F 
BRANCH   4  10
ATOM     10  C   UNL     1       7.200   1.291   1.461  1.00  0.00     0.253 C 
ATOM     11  N   UNL     1       8.433   1.088   0.878  1.00  0.00    -0.355 N 
ATOM     12  C   UNL     1       9.648   1.447   1.553  1.00  0.00     0.143 C 
ATOM     13  H   UNL     1       8.485   0.767  -0.091  1.00  0.00     0.163 HD
ATOM     14  O   UNL     1       7.064   1.785   2.574  1.00  0.00    -0.269 OA
ENDBRANCH   4  10
ENDBRANCH   1   3
BRANCH   1  15
ATOM     15  C   UNL     1       1.476  -1.033  -0.897  1.00  0.00     0.187 A 
ATOM     16  N   UNL     1       0.231  -0.722  -1.186  1.00  0.00    -0.224 NA
ATOM     17  S   UNL     1       1.652  -2.425   0.122  1.00  0.00    -0.102 S 
ATOM     18  C   UNL     1      -0.640  -1.534  -0.485  1.00  0.00     0.069 A 
ATOM     19  C   UNL     1      -0.034  -2.550   0.225  1.00  0.00     0.031 A 
ATOM     20  C   UNL     1      -2.134  -1.364  -0.584  1.00  0.00     0.129 C 
ATOM     21  C   UNL     1      -0.754  -3.597   0.995  1.00  0.00     0.049 C 
ATOM     22  C   UNL     1      -2.880  -2.393   0.309  1.00  0.00     0.020 C 
ATOM     23  C   UNL     1      -2.165  -3.754   0.405  1.00  0.00     0.007 C 
BRANCH  20  24
ATOM     24  C   UNL     1      -2.550   0.045  -0.154  1.00  0.00     0.231 C 
ATOM     25  N   UNL     1      -3.674   0.619  -0.739  1.00  0.00    -0.340 N 
ATOM     26  C   UNL     1      -4.589  -0.009  -1.698  1.00  0.00     0.135 C 
ATOM     27  C   UNL     1      -4.005   1.995  -0.351  1.00  0.00     0.135 C 
ATOM     28  C   UNL     1      -6.061   0.309  -1.341  1.00  0.00     0.105 C 
ATOM     29  C   UNL     1      -5.165   2.591  -1.173  1.00  0.00     0.105 C 
ATOM     30  N   UNL     1      -6.385   1.754  -1.226  1.00  0.00    -0.303 NA
ATOM     31  O   UNL     1      -1.940   0.642   0.739  1.00  0.00    -0.274 OA
ATOM     32  C   UNL     1      -7.256   1.991  -0.060  1.00  0.00     0.105 C 
ENDBRANCH  20  24
ENDBRANCH   1  15
TORSDOF 4
