REMARK SMILES CNC(=O)c1ccc(Nc2nc3c(s2)CCC[C@@H]3C(=O)N2CCOCC2)cc1N(C)C
REMARK SMILES IDX 9 1 8 3 5 4 6 5 28 6 7 7 27 8 3 9 2 10 1 11 4 13 29 14 30 15
REMARK SMILES IDX 31 16 10 17 11 18 14 19 12 20 13 21 18 22 15 23 17 24 16 25
REMARK SMILES IDX 19 26 21 27 22 28 26 29 23 30 25 31 24 32 20 33
REMARK H PARENT 9 2 2 12
ROOT
ATOM      1  N   UNL     1       0.242  -0.088  -0.627  1.00  0.00    -0.331 N 
ATOM      2  H   UNL     1      -0.147  -1.021  -0.549  1.00  0.00     0.169 HD
ENDROOT
BRANCH   1   3
ATOM      3  C   UNL     1       1.627  -0.060  -0.382  1.00  0.00     0.042 A 
ATOM      4  C   UNL     1       4.434  -0.140  -0.055  1.00  0.00     0.063 A 
ATOM      5  C   UNL     1       3.687   0.959   0.397  1.00  0.00     0.018 A 
ATOM      6  C   UNL     1       3.800  -1.226  -0.683  1.00  0.00     0.051 A 
ATOM      7  C   UNL     1       2.299   0.995   0.234  1.00  0.00     0.027 A 
ATOM      8  C   UNL     1       2.398  -1.146  -0.839  1.00  0.00     0.052 A 
BRANCH   4   9
ATOM      9  C   UNL     1       5.900  -0.045   0.124  1.00  0.00     0.253 C 
ATOM     10  N   UNL     1       6.315  -0.018   1.440  1.00  0.00    -0.355 N 
ATOM     11  C   UNL     1       7.702   0.162   1.780  1.00  0.00     0.143 C 
ATOM     12  H   UNL     1       5.623  -0.021   2.178  1.00  0.00     0.163 HD
ATOM     13  O   UNL     1       6.652   0.027  -0.839  1.00  0.00    -0.269 OA
ENDBRANCH   4   9
BRANCH   6  14
ATOM     14  N   UNL     1       4.405  -2.401  -1.178  1.00  0.00    -0.377 N 
ATOM     15  C   UNL     1       5.431  -3.020  -0.340  1.00  0.00     0.143 C 
ATOM     16  C   UNL     1       4.798  -2.242  -2.583  1.00  0.00     0.143 C 
ENDBRANCH   6  14
ENDBRANCH   1   3
BRANCH   1  17
ATOM     17  C   UNL     1      -0.689   0.894  -0.613  1.00  0.00     0.187 A 
ATOM     18  N   UNL     1      -1.957   0.614  -0.383  1.00  0.00    -0.224 NA
ATOM     19  S   UNL     1      -0.405   2.553  -1.018  1.00  0.00    -0.102 S 
ATOM     20  C   UNL     1      -2.735   1.755  -0.425  1.00  0.00     0.069 A 
ATOM     21  C   UNL     1      -2.050   2.897  -0.785  1.00  0.00     0.031 A 
ATOM     22  C   UNL     1      -4.223   1.728  -0.199  1.00  0.00     0.129 C 
ATOM     23  C   UNL     1      -2.643   4.254  -0.947  1.00  0.00     0.049 C 
ATOM     24  C   UNL     1      -4.757   3.181  -0.029  1.00  0.00     0.020 C 
ATOM     25  C   UNL     1      -4.171   4.142  -1.077  1.00  0.00     0.007 C 
BRANCH  22  26
ATOM     26  C   UNL     1      -4.609   0.882   1.024  1.00  0.00     0.231 C 
ATOM     27  N   UNL     1      -4.709  -0.497   0.889  1.00  0.00    -0.337 N 
ATOM     28  C   UNL     1      -5.023  -1.299   2.075  1.00  0.00     0.148 C 
ATOM     29  C   UNL     1      -4.460  -1.272  -0.332  1.00  0.00     0.148 C 
ATOM     30  C   UNL     1      -4.452  -2.715   1.959  1.00  0.00     0.181 C 
ATOM     31  C   UNL     1      -5.241  -2.592  -0.309  1.00  0.00     0.181 C 
ATOM     32  O   UNL     1      -4.926  -3.432   0.810  1.00  0.00    -0.378 OA
ATOM     33  O   UNL     1      -4.848   1.420   2.111  1.00  0.00    -0.274 OA
ENDBRANCH  22  26
ENDBRANCH   1  17
TORSDOF 5
