REMARK SMILES C[C@H]1N=C(CCc2ccc(C(=O)N3CCN(S(=O)(=O)c4ccc(F)cc4)CC3)cc2)c2cccc(F)c2N1
REMARK SMILES IDX 7 1 8 2 9 3 10 4 29 5 30 6 6 7 5 8 4 9 2 10 3 11 38 12 37 13
REMARK SMILES IDX 31 14 35 15 32 16 34 17 33 18 1 19 36 21 11 22 13 23 14 24
REMARK SMILES IDX 28 25 15 26 27 27 16 28 12 29 17 30 18 31 19 32 20 33 21 34
REMARK SMILES IDX 26 35 22 36 25 37 23 38 24 39
REMARK H PARENT 38 20
ROOT
ATOM      1  C   UNL     1      -1.963  -0.138   0.063  1.00  0.00    -0.048 A 
ATOM      2  C   UNL     1      -1.138  -0.025  -1.068  1.00  0.00     0.004 A 
ATOM      3  C   UNL     1       0.112   0.587  -0.971  1.00  0.00     0.014 A 
ATOM      4  C   UNL     1       0.537   1.092   0.262  1.00  0.00     0.040 A 
ATOM      5  C   UNL     1      -0.280   1.006   1.391  1.00  0.00     0.014 A 
ATOM      6  C   UNL     1      -1.524   0.383   1.291  1.00  0.00     0.004 A 
ENDROOT
BRANCH   1   7
ATOM      7  C   UNL     1      -3.326  -0.778  -0.046  1.00  0.00     0.042 C 
BRANCH   7   8
ATOM      8  C   UNL     1      -4.430   0.274  -0.184  1.00  0.00     0.061 C 
BRANCH   8   9
ATOM      9  C   UNL     1      -5.826  -0.337  -0.182  1.00  0.00     0.047 C 
ATOM     10  C   UNL     1      -7.308  -2.128  -0.574  1.00  0.00     0.194 C 
ATOM     11  N   UNL     1      -5.966  -1.548  -0.607  1.00  0.00    -0.265 NA
ATOM     12  N   UNL     1      -8.227  -1.583   0.409  1.00  0.00    -0.361 N 
ATOM     13  C   UNL     1      -8.160  -0.188   0.545  1.00  0.00     0.081 A 
ATOM     14  C   UNL     1      -6.968   0.495   0.286  1.00  0.00     0.022 A 
ATOM     15  C   UNL     1      -9.239   0.540   1.060  1.00  0.00     0.147 A 
ATOM     16  C   UNL     1      -6.887   1.884   0.458  1.00  0.00     0.012 A 
ATOM     17  C   UNL     1      -9.168   1.917   1.251  1.00  0.00     0.041 A 
ATOM     18  C   UNL     1      -7.991   2.594   0.939  1.00  0.00     0.004 A 
ATOM     19  C   UNL     1      -7.912  -2.058  -1.978  1.00  0.00     0.057 C 
ATOM     20  H   UNL     1      -9.185  -1.916   0.317  1.00  0.00     0.162 HD
ATOM     21  F   UNL     1     -10.384  -0.093   1.356  1.00  0.00    -0.205 F 
ENDBRANCH   8   9
ENDBRANCH   7   8
ENDBRANCH   1   7
BRANCH   4  22
ATOM     22  C   UNL     1       1.848   1.757   0.378  1.00  0.00     0.253 C 
ATOM     23  N   UNL     1       2.992   0.978   0.268  1.00  0.00    -0.336 N 
ATOM     24  C   UNL     1       3.015  -0.492   0.249  1.00  0.00     0.136 C 
ATOM     25  C   UNL     1       4.294   1.643   0.337  1.00  0.00     0.136 C 
ATOM     26  C   UNL     1       4.243  -1.047   0.983  1.00  0.00     0.124 C 
ATOM     27  C   UNL     1       5.413   0.790  -0.271  1.00  0.00     0.124 C 
ATOM     28  N   UNL     1       5.534  -0.556   0.386  1.00  0.00    -0.194 NA
ATOM     29  O   UNL     1       1.865   2.969   0.572  1.00  0.00    -0.269 OA
BRANCH  28  30
ATOM     30  S   UNL     1       6.845  -0.732   1.468  1.00  0.00     0.243 S 
ATOM     31  O   UNL     1       6.821  -2.083   1.986  1.00  0.00    -0.207 OA
ATOM     32  O   UNL     1       6.824   0.415   2.350  1.00  0.00    -0.207 OA
BRANCH  30  33
ATOM     33  C   UNL     1       8.262  -0.604   0.404  1.00  0.00     0.082 A 
ATOM     34  C   UNL     1       9.205   0.412   0.609  1.00  0.00     0.025 A 
ATOM     35  C   UNL     1       8.428  -1.545  -0.620  1.00  0.00     0.025 A 
ATOM     36  C   UNL     1      10.321   0.487  -0.226  1.00  0.00     0.040 A 
ATOM     37  C   UNL     1       9.546  -1.460  -1.452  1.00  0.00     0.040 A 
ATOM     38  C   UNL     1      10.479  -0.445  -1.249  1.00  0.00     0.123 A 
ATOM     39  F   UNL     1      11.542  -0.357  -2.056  1.00  0.00    -0.207 F 
ENDBRANCH  30  33
ENDBRANCH  28  30
ENDBRANCH   4  22
TORSDOF 6
