REMARK SMILES CN1CCCC[C@H]1Cc1ccc2c(c1)CN(S(=O)(=O)c1ccc(O)cc1F)c1ccccc1[C@H]2C(N)=O
REMARK SMILES IDX 9 1 10 2 11 3 12 4 13 5 14 6 15 7 16 8 28 9 29 10 30 11
REMARK SMILES IDX 31 12 32 13 33 14 34 15 8 16 7 17 2 18 3 19 4 20 6 21 5 22
REMARK SMILES IDX 1 23 35 24 36 25 37 26 17 29 18 30 19 31 20 32 21 33 26 34
REMARK SMILES IDX 22 35 25 36 23 37 27 38 24 39
REMARK H PARENT 36 27 36 28 24 40
ROOT
ATOM      1  C   UNL     1      -1.833   0.711  -1.298  1.00  0.00    -0.046 A 
ATOM      2  C   UNL     1      -2.042  -0.485  -1.990  1.00  0.00     0.004 A 
ATOM      3  C   UNL     1      -1.203  -1.581  -1.786  1.00  0.00     0.005 A 
ATOM      4  C   UNL     1      -0.136  -1.511  -0.874  1.00  0.00    -0.026 A 
ATOM      5  C   UNL     1       0.077  -0.314  -0.172  1.00  0.00    -0.023 A 
ATOM      6  C   UNL     1      -0.764   0.789  -0.397  1.00  0.00     0.009 A 
ATOM      7  C   UNL     1       1.277  -0.188   0.726  1.00  0.00     0.171 C 
ATOM      8  N   UNL     1       2.499  -0.224  -0.093  1.00  0.00    -0.261 N 
ATOM      9  C   UNL     1       3.050  -1.499  -0.522  1.00  0.00     0.057 A 
ATOM     10  C   UNL     1       4.443  -1.642  -0.692  1.00  0.00     0.027 A 
ATOM     11  C   UNL     1       5.030  -2.835  -1.122  1.00  0.00     0.002 A 
ATOM     12  C   UNL     1       4.237  -3.934  -1.390  1.00  0.00     0.000 A 
ATOM     13  C   UNL     1       2.861  -3.833  -1.219  1.00  0.00     0.007 A 
ATOM     14  C   UNL     1       2.236  -2.629  -0.790  1.00  0.00    -0.007 A 
ATOM     15  C   UNL     1       0.717  -2.743  -0.603  1.00  0.00     0.141 C 
ENDROOT
BRANCH   1  16
ATOM     16  C   UNL     1      -2.729   1.906  -1.536  1.00  0.00     0.054 C 
BRANCH  16  17
ATOM     17  C   UNL     1      -4.099   1.889  -0.807  1.00  0.00     0.060 C 
ATOM     18  N   UNL     1      -4.988   0.804  -1.296  1.00  0.00    -0.303 NA
ATOM     19  C   UNL     1      -5.914   0.290  -0.276  1.00  0.00     0.084 C 
ATOM     20  C   UNL     1      -6.407   1.362   0.691  1.00  0.00     0.016 C 
ATOM     21  C   UNL     1      -3.915   1.849   0.723  1.00  0.00     0.019 C 
ATOM     22  C   UNL     1      -5.250   2.009   1.449  1.00  0.00     0.003 C 
ATOM     23  C   UNL     1      -5.706   1.207  -2.507  1.00  0.00     0.105 C 
ENDBRANCH  16  17
ENDBRANCH   1  16
BRANCH  15  24
ATOM     24  C   UNL     1       0.351  -3.375   0.760  1.00  0.00     0.229 C 
ATOM     25  N   UNL     1      -0.929  -3.857   0.867  1.00  0.00    -0.369 N 
ATOM     26  O   UNL     1       1.117  -3.489   1.714  1.00  0.00    -0.274 OA
ATOM     27  H   UNL     1      -1.205  -4.172   1.789  1.00  0.00     0.159 HD
ATOM     28  H   UNL     1      -1.663  -3.489   0.273  1.00  0.00     0.159 HD
ENDBRANCH  15  24
BRANCH   8  29
ATOM     29  S   UNL     1       3.315   1.261  -0.251  1.00  0.00     0.267 S 
ATOM     30  O   UNL     1       4.201   1.209  -1.396  1.00  0.00    -0.201 OA
ATOM     31  O   UNL     1       2.336   2.322  -0.117  1.00  0.00    -0.201 OA
BRANCH  29  32
ATOM     32  C   UNL     1       4.343   1.383   1.188  1.00  0.00     0.123 A 
ATOM     33  C   UNL     1       4.382   0.406   2.187  1.00  0.00     0.029 A 
ATOM     34  C   UNL     1       5.123   2.530   1.308  1.00  0.00     0.147 A 
ATOM     35  C   UNL     1       5.209   0.593   3.298  1.00  0.00     0.048 A 
ATOM     36  C   UNL     1       5.947   2.720   2.415  1.00  0.00     0.086 A 
ATOM     37  C   UNL     1       5.982   1.746   3.405  1.00  0.00     0.118 A 
ATOM     38  F   UNL     1       5.102   3.483   0.366  1.00  0.00    -0.205 F 
BRANCH  37  39
ATOM     39  O   UNL     1       6.767   1.881   4.510  1.00  0.00    -0.508 OA
ATOM     40  H   UNL     1       7.247   2.725   4.459  1.00  0.00     0.293 HD
ENDBRANCH  37  39
ENDBRANCH  29  32
ENDBRANCH   8  29
TORSDOF 6
