MODEL        4USER    Run = 4USERUSER    Estimated Free Energy of Binding    = -11.42 kcal/mol  [=(1)+(2)+(3)-(4)]USERUSER    (1) Final Intermolecular Energy     = -13.21 kcal/molUSER        vdW + Hbond + desolv Energy     = -13.18 kcal/molUSER        Electrostatic Energy            =  -0.03 kcal/molUSER        Moving Ligand-Fixed Receptor    = -13.21 kcal/molUSER        Moving Ligand-Moving Receptor   =  +0.00 kcal/molUSER    (2) Final Total Internal Energy     =  -1.46 kcal/molUSER    (3) Torsional Free Energy           =  +1.79 kcal/molUSER    (4) Unbound System's Energy         =  -1.46 kcal/molUSERUSERREMARK SMILES C[C@H]1N=C(CCc2ccc(C(=O)N3CCN(S(=O)(=O)c4ccc(F)cc4)CC3)cc2)c2cccc(F)c2N1REMARK SMILES IDX 7 1 8 2 9 3 10 4 29 5 30 6 6 7 5 8 4 9 2 10 3 11 38 12 37 13REMARK SMILES IDX 31 14 35 15 32 16 34 17 33 18 1 19 36 21 11 22 13 23 14 24REMARK SMILES IDX 28 25 15 26 27 27 16 28 12 29 17 30 18 31 19 32 20 33 21 34REMARK SMILES IDX 26 35 22 36 25 37 23 38 24 39REMARK H PARENT 38 20USER                              x       y       z     vdW  Elec       q    TypeUSER                           _______ _______ _______ _____ _____    ______ ____ROOTATOM      1  C   UNL     1      34.703  43.622  16.566 -0.33 +0.02    -0.048 A  ATOM      2  C   UNL     1      34.936  42.301  16.982 -0.41 -0.00    +0.004 A  ATOM      3  C   UNL     1      33.940  41.584  17.645 -0.35 -0.01    +0.014 A  ATOM      4  C   UNL     1      32.706  42.192  17.897 -0.34 -0.01    +0.040 A  ATOM      5  C   UNL     1      32.466  43.512  17.508 -0.30 -0.00    +0.014 A  ATOM      6  C   UNL     1      33.462  44.220  16.835 -0.31 -0.00    +0.004 A  ENDROOTBRANCH   1   7ATOM      7  C   UNL     1      35.789  44.407  15.870 -0.38 -0.02    +0.042 C  BRANCH   7   8ATOM      8  C   UNL     1      35.829  45.859  16.355 -0.37 -0.04    +0.061 C  BRANCH   8   9ATOM      9  C   UNL     1      36.609  46.770  15.414 -0.42 -0.03    +0.047 C  ATOM     10  C   UNL     1      36.768  48.111  13.482 -0.49 -0.10    +0.194 C  ATOM     11  N   UNL     1      36.013  47.217  14.360 -0.22 +0.22    -0.265 NA ATOM     12  N   UNL     1      37.844  48.868  14.096 -0.22 +0.21    -0.361 N  ATOM     13  C   UNL     1      38.602  48.138  15.024 -0.46 -0.04    +0.081 A  ATOM     14  C   UNL     1      38.027  47.084  15.739 -0.41 -0.01    +0.022 A  ATOM     15  C   UNL     1      39.909  48.520  15.348 -0.45 -0.05    +0.147 A  ATOM     16  C   UNL     1      38.771  46.377  16.695 -0.41 -0.00    +0.012 A  ATOM     17  C   UNL     1      40.655  47.838  16.305 -0.52 -0.01    +0.041 A  ATOM     18  C   UNL     1      40.087  46.755  16.974 -0.49 -0.00    +0.004 A  ATOM     19  C   UNL     1      37.284  47.309  12.285 -0.60 -0.01    +0.057 C  ATOM     20  H   UNL     1      38.428  49.377  13.435 -0.34 -0.08    +0.162 HD ATOM     21  F   UNL     1      40.476  49.553  14.707 -0.15 +0.08    -0.205 F  ENDBRANCH   8   9ENDBRANCH   7   8ENDBRANCH   1   7BRANCH   4  22ATOM     22  C   UNL     1      31.648  41.454  18.611 -0.21 -0.02    +0.253 C  ATOM     23  N   UNL     1      30.637  40.867  17.863 -0.11 +0.04    -0.336 N  ATOM     24  C   UNL     1      30.410  41.088  16.427 -0.31 -0.04    +0.136 C  ATOM     25  C   UNL     1      29.611  40.096  18.567 -0.14 +0.01    +0.136 C  ATOM     26  C   UNL     1      28.914  41.108  16.088 -0.34 -0.03    +0.124 C  ATOM     27  C   UNL     1      28.873  39.128  17.636 -0.17 +0.05    +0.124 C  ATOM     28  N   UNL     1      28.225  39.827  16.474 -0.09 -0.06    -0.194 NA ATOM     29  O   UNL     1      31.711  41.398  19.836 -0.15 -0.03    -0.269 OA BRANCH  28  30ATOM     30  S   UNL     1      26.531  40.021  16.584 -0.31 +0.05    +0.243 S  ATOM     31  O   UNL     1      26.047  39.155  17.638 -0.55 -0.05    -0.207 OA ATOM     32  O   UNL     1      26.006  39.939  15.238 -0.87 -0.02    -0.207 OA BRANCH  30  33ATOM     33  C   UNL     1      26.356  41.693  17.160 -0.19 -0.01    +0.082 A  ATOM     34  C   UNL     1      25.960  42.704  16.274 -0.27 -0.00    +0.025 A  ATOM     35  C   UNL     1      26.598  41.974  18.511 -0.23 -0.00    +0.025 A  ATOM     36  C   UNL     1      25.812  44.008  16.747 -0.35 -0.00    +0.040 A  ATOM     37  C   UNL     1      26.450  43.282  18.974 -0.36 -0.01    +0.040 A  ATOM     38  C   UNL     1      26.062  44.286  18.089 -0.37 -0.01    +0.123 A  ATOM     39  F   UNL     1      25.934  45.541  18.533 -0.20 -0.00    -0.207 F  ENDBRANCH  30  33ENDBRANCH  28  30ENDBRANCH   4  22TORSDOF 6TERENDMDL