MODEL        7USER    Run = 7USERUSER    Estimated Free Energy of Binding    = -11.00 kcal/mol  [=(1)+(2)+(3)-(4)]USERUSER    (1) Final Intermolecular Energy     = -12.79 kcal/molUSER        vdW + Hbond + desolv Energy     = -12.80 kcal/molUSER        Electrostatic Energy            =  +0.01 kcal/molUSER        Moving Ligand-Fixed Receptor    = -12.79 kcal/molUSER        Moving Ligand-Moving Receptor   =  +0.00 kcal/molUSER    (2) Final Total Internal Energy     =  -1.63 kcal/molUSER    (3) Torsional Free Energy           =  +1.79 kcal/molUSER    (4) Unbound System's Energy         =  -1.63 kcal/molUSERUSERREMARK SMILES C[C@H]1N=C(CCc2ccc(C(=O)N3CCN(S(=O)(=O)c4ccc(F)cc4)CC3)cc2)c2cccc(F)c2N1CREMARK SMILES IDX 7 1 8 2 9 3 10 4 29 5 30 6 6 7 5 8 4 9 2 10 3 11 38 12 37 13REMARK SMILES IDX 31 14 35 15 32 16 34 17 33 18 1 19 39 20 36 21 11 22 13 23REMARK SMILES IDX 14 24 28 25 15 26 27 27 16 28 12 29 17 30 18 31 19 32 20 33REMARK SMILES IDX 21 34 26 35 22 36 25 37 23 38 24 39REMARK H PARENTUSER                              x       y       z     vdW  Elec       q    TypeUSER                           _______ _______ _______ _____ _____    ______ ____ROOTATOM      1  C   UNL     1      38.190  43.017  22.935 -0.31 -0.00    -0.048 A  ATOM      2  C   UNL     1      38.042  44.244  22.267 -0.35 +0.00    +0.004 A  ATOM      3  C   UNL     1      37.090  44.388  21.257 -0.35 +0.00    +0.014 A  ATOM      4  C   UNL     1      36.284  43.298  20.913 -0.40 +0.00    +0.040 A  ATOM      5  C   UNL     1      36.438  42.062  21.548 -0.52 +0.00    +0.014 A  ATOM      6  C   UNL     1      37.387  41.926  22.562 -0.48 +0.00    +0.004 A  ENDROOTBRANCH   1   7ATOM      7  C   UNL     1      39.235  42.858  24.011 -0.25 +0.00    +0.042 C  BRANCH   7   8ATOM      8  C   UNL     1      39.591  44.198  24.650 -0.17 +0.00    +0.061 C  BRANCH   8   9ATOM      9  C   UNL     1      38.427  44.703  25.486 -0.23 +0.00    +0.047 C  ATOM     10  C   UNL     1      36.761  44.317  27.092 -0.32 -0.03    +0.197 C  ATOM     11  N   UNL     1      37.875  43.845  26.273 -0.10 +0.01    -0.265 NA ATOM     12  N   UNL     1      36.772  45.733  27.441 -0.18 +0.08    -0.350 N  ATOM     13  C   UNL     1      37.163  46.604  26.423 -0.28 -0.01    +0.084 A  ATOM     14  C   UNL     1      38.007  46.132  25.397 -0.29 +0.00    +0.022 A  ATOM     15  C   UNL     1      36.807  47.965  26.363 -0.31 -0.01    +0.147 A  ATOM     16  C   UNL     1      38.445  46.974  24.360 -0.33 +0.00    +0.012 A  ATOM     17  C   UNL     1      37.240  48.807  25.338 -0.43 +0.00    +0.041 A  ATOM     18  C   UNL     1      38.058  48.312  24.332 -0.36 +0.00    +0.004 A  ATOM     19  C   UNL     1      35.454  43.923  26.396 -0.28 -0.01    +0.057 C  ATOM     20  C   UNL     1      35.864  46.171  28.496 -0.28 -0.04    +0.146 C  ATOM     21  F   UNL     1      36.005  48.512  27.294 -0.11 +0.03    -0.205 F  ENDBRANCH   8   9ENDBRANCH   7   8ENDBRANCH   1   7BRANCH   4  22ATOM     22  C   UNL     1      35.279  43.427  19.842 -0.30 -0.02    +0.253 C  ATOM     23  N   UNL     1      35.716  43.750  18.562 -0.11 +0.07    -0.336 N  ATOM     24  C   UNL     1      37.106  44.054  18.195 -0.25 -0.03    +0.136 C  ATOM     25  C   UNL     1      34.723  43.834  17.490 -0.27 -0.05    +0.136 C  ATOM     26  C   UNL     1      37.194  44.979  16.973 -0.32 -0.04    +0.124 C  ATOM     27  C   UNL     1      35.318  43.534  16.111 -0.37 -0.05    +0.124 C  ATOM     28  N   UNL     1      36.487  44.402  15.795 -0.24 +0.07    -0.194 NA ATOM     29  O   UNL     1      34.099  43.242  20.133 -0.73 -0.02    -0.269 OA BRANCH  28  30ATOM     30  S   UNL     1      36.424  45.349  14.394 -0.40 -0.11    +0.243 S  ATOM     31  O   UNL     1      36.860  44.528  13.282 -0.38 +0.07    -0.207 OA ATOM     32  O   UNL     1      35.152  46.037  14.364 -0.35 +0.16    -0.207 OA BRANCH  30  33ATOM     33  C   UNL     1      37.686  46.580  14.670 -0.36 -0.04    +0.082 A  ATOM     34  C   UNL     1      37.314  47.879  15.039 -0.47 -0.02    +0.025 A  ATOM     35  C   UNL     1      39.037  46.219  14.592 -0.40 -0.01    +0.025 A  ATOM     36  C   UNL     1      38.304  48.831  15.297 -0.45 -0.03    +0.040 A  ATOM     37  C   UNL     1      40.019  47.179  14.846 -0.43 -0.01    +0.040 A  ATOM     38  C   UNL     1      39.644  48.473  15.194 -0.45 -0.05    +0.123 A  ATOM     39  F   UNL     1      40.591  49.385  15.457 -0.18 +0.06    -0.207 F  ENDBRANCH  30  33ENDBRANCH  28  30ENDBRANCH   4  22TORSDOF 6TERENDMDL