MODEL        3USER    Run = 3USERUSER    Estimated Free Energy of Binding    = -10.56 kcal/mol  [=(1)+(2)+(3)-(4)]USERUSER    (1) Final Intermolecular Energy     = -12.35 kcal/molUSER        vdW + Hbond + desolv Energy     = -12.22 kcal/molUSER        Electrostatic Energy            =  -0.13 kcal/molUSER        Moving Ligand-Fixed Receptor    = -12.35 kcal/molUSER        Moving Ligand-Moving Receptor   =  +0.00 kcal/molUSER    (2) Final Total Internal Energy     =  -1.68 kcal/molUSER    (3) Torsional Free Energy           =  +1.79 kcal/molUSER    (4) Unbound System's Energy         =  -1.68 kcal/molUSERUSERREMARK SMILES CN1CCCC[C@H]1Cc1ccc2c(c1)CN(S(=O)(=O)c1ccc(O)cc1F)c1ccccc1[C@H]2C(N)=OREMARK SMILES IDX 9 1 10 2 11 3 12 4 13 5 14 6 15 7 16 8 28 9 29 10 30 11REMARK SMILES IDX 31 12 32 13 33 14 34 15 8 16 7 17 2 18 3 19 4 20 6 21 5 22REMARK SMILES IDX 1 23 35 24 36 25 37 26 17 29 18 30 19 31 20 32 21 33 26 34REMARK SMILES IDX 22 35 25 36 23 37 27 38 24 39REMARK H PARENT 36 27 36 28 24 40USER                              x       y       z     vdW  Elec       q    TypeUSER                           _______ _______ _______ _____ _____    ______ ____ROOTATOM      1  C   UNL     1      36.938  43.574  21.602 -0.38 -0.00    -0.046 A  ATOM      2  C   UNL     1      36.963  42.185  21.747 -0.50 +0.00    +0.004 A  ATOM      3  C   UNL     1      37.005  41.602  23.014 -0.44 +0.00    +0.005 A  ATOM      4  C   UNL     1      37.014  42.398  24.172 -0.40 -0.00    -0.026 A  ATOM      5  C   UNL     1      36.984  43.795  24.034 -0.31 -0.00    -0.023 A  ATOM      6  C   UNL     1      36.958  44.372  22.753 -0.15 +0.00    +0.009 A  ATOM      7  C   UNL     1      37.101  44.661  25.258 -0.28 +0.01    +0.171 C  ATOM      8  N   UNL     1      38.440  44.491  25.844 -0.08 +0.00    -0.261 N  ATOM      9  C   UNL     1      38.715  43.359  26.713 -0.20 -0.00    +0.057 A  ATOM     10  C   UNL     1      39.653  43.487  27.759 -0.17 -0.00    +0.027 A  ATOM     11  C   UNL     1      39.976  42.429  28.614 -0.25 +0.00    +0.002 A  ATOM     12  C   UNL     1      39.360  41.203  28.453 -0.20 +0.00    +0.000 A  ATOM     13  C   UNL     1      38.420  41.045  27.441 -0.43 -0.00    +0.007 A  ATOM     14  C   UNL     1      38.078  42.102  26.552 -0.34 +0.00    -0.007 A  ATOM     15  C   UNL     1      36.975  41.744  25.547 -0.30 -0.02    +0.141 C  ENDROOTBRANCH   1  16ATOM     16  C   UNL     1      36.915  44.206  20.228 -0.41 -0.00    +0.054 C  BRANCH  16  17ATOM     17  C   UNL     1      38.298  44.459  19.569 -0.38 -0.00    +0.060 C  ATOM     18  N   UNL     1      38.222  45.433  18.449 -0.20 +0.05    -0.303 NA ATOM     19  C   UNL     1      39.451  46.218  18.262 -0.43 -0.01    +0.084 C  ATOM     20  C   UNL     1      40.724  45.433  18.563 -0.51 -0.00    +0.016 C  ATOM     21  C   UNL     1      39.351  44.858  20.621 -0.40 +0.00    +0.019 C  ATOM     22  C   UNL     1      40.749  44.937  20.007 -0.44 +0.00    +0.003 C  ATOM     23  C   UNL     1      37.815  44.782  17.202 -0.34 -0.03    +0.105 C  ENDBRANCH  16  17ENDBRANCH   1  16BRANCH  15  24ATOM     24  C   UNL     1      35.566  41.864  26.172 -0.32 -0.05    +0.229 C  ATOM     25  N   UNL     1      34.835  40.704  26.216 -0.17 +0.19    -0.369 N  ATOM     26  O   UNL     1      35.085  42.894  26.638 -0.37 +0.04    -0.274 OA ATOM     27  H   UNL     1      33.875  40.800  26.524 -0.24 -0.09    +0.159 HD ATOM     28  H   UNL     1      35.030  39.954  25.563 -0.47 -0.13    +0.159 HD ENDBRANCH  15  24BRANCH   8  29ATOM     29  S   UNL     1      39.495  45.812  25.647 -0.15 +0.01    +0.267 S  ATOM     30  O   UNL     1      40.281  45.989  26.850 -0.28 -0.01    -0.201 OA ATOM     31  O   UNL     1      40.136  45.678  24.353 -0.10 -0.01    -0.201 OA BRANCH  29  32ATOM     32  C   UNL     1      38.443  47.232  25.507 -0.24 +0.01    +0.123 A  ATOM     33  C   UNL     1      38.497  48.122  24.431 -0.40 +0.00    +0.029 A  ATOM     34  C   UNL     1      37.544  47.452  26.546 -0.26 -0.01    +0.147 A  ATOM     35  C   UNL     1      37.642  49.228  24.411 -0.28 +0.00    +0.048 A  ATOM     36  C   UNL     1      36.691  48.554  26.531 -0.36 -0.01    +0.086 A  ATOM     37  C   UNL     1      36.749  49.436  25.459 -0.39 -0.00    +0.118 A  ATOM     38  F   UNL     1      37.474  46.615  27.591 -0.09 +0.04    -0.205 F  BRANCH  37  39ATOM     39  O   UNL     1      35.941  50.531  25.393 -0.18 +0.03    -0.508 OA ATOM     40  H   UNL     1      35.434  50.504  24.564 -0.38 -0.14    +0.293 HD ENDBRANCH  37  39ENDBRANCH  29  32ENDBRANCH   8  29TORSDOF 6TERENDMDL