REMARK SMILES NC(=O)c1cc(F)ccc1CCNc1cnccc1C1=CC=C(C(=O)N2CCOCC2)[C@H]1F
REMARK SMILES IDX 12 1 11 2 10 3 4 4 5 5 6 6 9 7 8 8 7 9 2 10 1 11 3 14 13 15
REMARK SMILES IDX 14 17 15 18 19 19 16 20 18 21 17 22 20 23 21 24 32 25 22 26
REMARK SMILES IDX 23 27 33 28 24 29 26 30 27 31 31 32 28 33 30 34 29 35 25 36
REMARK H PARENT 1 12 1 13 13 16
ROOT
ATOM      1  C   UNL     1       3.431  -2.442  -0.015  1.00  0.00     0.118 C 
ENDROOT
BRANCH   1   2
ATOM      2  C   UNL     1       4.012  -1.103   0.475  1.00  0.00     0.057 C 
BRANCH   2   3
ATOM      3  C   UNL     1       3.428   0.106  -0.230  1.00  0.00    -0.033 A 
ATOM      4  C   UNL     1       3.815   0.485  -1.530  1.00  0.00     0.045 A 
ATOM      5  C   UNL     1       3.196   1.546  -2.194  1.00  0.00     0.053 A 
ATOM      6  C   UNL     1       2.193   2.251  -1.546  1.00  0.00     0.124 A 
ATOM      7  C   UNL     1       2.419   0.852   0.404  1.00  0.00     0.007 A 
ATOM      8  C   UNL     1       1.804   1.920  -0.254  1.00  0.00     0.039 A 
ATOM      9  F   UNL     1       1.594   3.268  -2.177  1.00  0.00    -0.207 F 
BRANCH   4  10
ATOM     10  C   UNL     1       4.888  -0.220  -2.253  1.00  0.00     0.249 C 
ATOM     11  N   UNL     1       6.154   0.175  -1.938  1.00  0.00    -0.366 N 
ATOM     12  H   UNL     1       6.914  -0.221  -2.476  1.00  0.00     0.159 HD
ATOM     13  H   UNL     1       6.345   0.967  -1.340  1.00  0.00     0.159 HD
ATOM     14  O   UNL     1       4.641  -1.082  -3.080  1.00  0.00    -0.270 OA
ENDBRANCH   4  10
ENDBRANCH   2   3
ENDBRANCH   1   2
BRANCH   1  15
ATOM     15  N   UNL     1       1.986  -2.534   0.206  1.00  0.00    -0.383 N 
ATOM     16  H   UNL     1       1.491  -1.802  -0.298  1.00  0.00     0.160 HD
BRANCH  15  17
ATOM     17  C   UNL     1       1.446  -2.779   1.476  1.00  0.00     0.060 A 
ATOM     18  C   UNL     1       2.099  -3.554   2.443  1.00  0.00     0.137 A 
ATOM     19  C   UNL     1       0.145  -2.341   1.821  1.00  0.00     0.007 A 
ATOM     20  N   UNL     1       1.623  -3.849   3.677  1.00  0.00    -0.263 NA
ATOM     21  C   UNL     1      -0.367  -2.640   3.093  1.00  0.00     0.031 A 
ATOM     22  C   UNL     1       0.398  -3.383   3.972  1.00  0.00     0.112 A 
BRANCH  19  23
ATOM     23  C   UNL     1      -0.688  -1.532   0.922  1.00  0.00     0.000 C 
ATOM     24  C   UNL     1      -1.014  -1.796  -0.357  1.00  0.00     0.008 C 
ATOM     25  C   UNL     1      -1.299  -0.215   1.340  1.00  0.00     0.233 C 
ATOM     26  C   UNL     1      -1.753  -0.683  -0.901  1.00  0.00     0.013 C 
ATOM     27  C   UNL     1      -1.935   0.231   0.064  1.00  0.00     0.056 C 
ATOM     28  F   UNL     1      -2.241  -0.394   2.307  1.00  0.00    -0.237 F 
BRANCH  27  29
ATOM     29  C   UNL     1      -2.453   1.597  -0.058  1.00  0.00     0.253 C 
ATOM     30  N   UNL     1      -3.706   1.782  -0.611  1.00  0.00    -0.334 N 
ATOM     31  C   UNL     1      -4.705   0.719  -0.793  1.00  0.00     0.148 C 
ATOM     32  C   UNL     1      -4.241   3.145  -0.698  1.00  0.00     0.148 C 
ATOM     33  C   UNL     1      -5.962   1.239  -1.499  1.00  0.00     0.181 C 
ATOM     34  C   UNL     1      -5.665   3.202  -0.137  1.00  0.00     0.181 C 
ATOM     35  O   UNL     1      -6.586   2.334  -0.815  1.00  0.00    -0.378 OA
ATOM     36  O   UNL     1      -1.750   2.516   0.360  1.00  0.00    -0.269 OA
ENDBRANCH  27  29
ENDBRANCH  19  23
ENDBRANCH  15  17
ENDBRANCH   1  15
TORSDOF 7
