MODEL        2USER    Run = 2USERUSER    Estimated Free Energy of Binding    =  -9.85 kcal/mol  [=(1)+(2)+(3)-(4)]USERUSER    (1) Final Intermolecular Energy     = -11.94 kcal/molUSER        vdW + Hbond + desolv Energy     = -11.79 kcal/molUSER        Electrostatic Energy            =  -0.15 kcal/molUSER        Moving Ligand-Fixed Receptor    = -11.94 kcal/molUSER        Moving Ligand-Moving Receptor   =  +0.00 kcal/molUSER    (2) Final Total Internal Energy     =  -1.62 kcal/molUSER    (3) Torsional Free Energy           =  +2.09 kcal/molUSER    (4) Unbound System's Energy         =  -1.62 kcal/molUSERUSERREMARK SMILES NC(=O)c1cc(F)ccc1CCNc1cnccc1C1=CC=C(C(=O)N2CCOCC2)[C@H]1FREMARK SMILES IDX 12 1 11 2 10 3 4 4 5 5 6 6 9 7 8 8 7 9 2 10 1 11 3 14 13 15REMARK SMILES IDX 14 17 15 18 19 19 16 20 18 21 17 22 20 23 21 24 32 25 22 26REMARK SMILES IDX 23 27 33 28 24 29 26 30 27 31 31 32 28 33 30 34 29 35 25 36REMARK H PARENT 1 12 1 13 13 16USER                              x       y       z     vdW  Elec       q    TypeUSER                           _______ _______ _______ _____ _____    ______ ____ROOTATOM      1  C   UNL     1      39.546  46.316  18.528 -0.35 -0.01    +0.118 C  ENDROOTBRANCH   1   2ATOM      2  C   UNL     1      40.190  46.143  17.140 -0.48 -0.01    +0.057 C  BRANCH   2   3ATOM      3  C   UNL     1      39.361  46.723  16.011 -0.43 +0.01    -0.033 A  ATOM      4  C   UNL     1      39.570  48.022  15.507 -0.50 -0.02    +0.045 A  ATOM      5  C   UNL     1      38.857  48.499  14.405 -0.46 -0.02    +0.053 A  ATOM      6  C   UNL     1      37.909  47.680  13.811 -0.43 -0.05    +0.124 A  ATOM      7  C   UNL     1      38.381  45.925  15.395 -0.38 -0.00    +0.007 A  ATOM      8  C   UNL     1      37.660  46.403  14.298 -0.40 -0.02    +0.039 A  ATOM      9  F   UNL     1      37.224  48.130  12.754 -0.17 +0.04    -0.207 F  BRANCH   4  10ATOM     10  C   UNL     1      40.552  48.937  16.115 -0.43 -0.06    +0.249 C  ATOM     11  N   UNL     1      40.278  50.264  15.961 -0.16 +0.17    -0.366 N  ATOM     12  H   UNL     1      40.972  50.924  16.286 -0.34 -0.07    +0.159 HD ATOM     13  H   UNL     1      39.523  50.601  15.380 -0.40 -0.16    +0.159 HD ATOM     14  O   UNL     1      41.539  48.519  16.697 -0.88 -0.00    -0.270 OA ENDBRANCH   4  10ENDBRANCH   2   3ENDBRANCH   1   2BRANCH   1  15ATOM     15  N   UNL     1      38.299  45.559  18.660 -0.14 +0.06    -0.383 N  ATOM     16  H   UNL     1      37.501  46.111  18.352 +0.08 -0.04    +0.160 HD BRANCH  15  17ATOM     17  C   UNL     1      38.019  44.786  19.795 -0.30 -0.00    +0.060 A  ATOM     18  C   UNL     1      38.844  44.772  20.927 -0.27 +0.00    +0.137 A  ATOM     19  C   UNL     1      36.930  43.882  19.821 -0.38 -0.00    +0.007 A  ATOM     20  N   UNL     1      38.644  44.031  22.044 -0.15 -0.01    -0.263 NA ATOM     21  C   UNL     1      36.710  43.103  20.968 -0.41 +0.00    +0.031 A  ATOM     22  C   UNL     1      37.579  43.213  22.036 -0.32 +0.01    +0.112 A  BRANCH  19  23ATOM     23  C   UNL     1      35.974  43.754  18.714 -0.40 -0.00    +0.000 C  ATOM     24  C   UNL     1      35.501  42.621  18.162 -0.39 -0.00    +0.008 C  ATOM     25  C   UNL     1      35.386  44.949  18.001 -0.24 -0.09    +0.233 C  ATOM     26  C   UNL     1      34.674  42.951  17.027 -0.45 -0.00    +0.013 C  ATOM     27  C   UNL     1      34.588  44.286  16.926 -0.33 -0.03    +0.056 C  ATOM     28  F   UNL     1      34.573  45.665  18.827 -0.11 +0.11    -0.237 F  BRANCH  27  29ATOM     29  C   UNL     1      34.025  45.084  15.833 -0.20 -0.19    +0.253 C  ATOM     30  N   UNL     1      32.661  45.042  15.618 -0.14 +0.23    -0.334 N  ATOM     31  C   UNL     1      31.678  44.527  16.582 -0.25 -0.05    +0.148 C  ATOM     32  C   UNL     1      32.092  45.870  14.549 -0.40 -0.12    +0.148 C  ATOM     33  C   UNL     1      30.256  44.555  16.011 -0.26 -0.07    +0.181 C  ATOM     34  C   UNL     1      30.898  46.676  15.069 -0.37 -0.08    +0.181 C  ATOM     35  O   UNL     1      29.838  45.861  15.592 -0.29 +0.09    -0.378 OA ATOM     36  O   UNL     1      34.799  45.773  15.169 -0.25 +0.24    -0.269 OA ENDBRANCH  27  29ENDBRANCH  19  23ENDBRANCH  15  17ENDBRANCH   1  15TORSDOF 7TERENDMDL