MODEL        2USER    Run = 2USERUSER    Estimated Free Energy of Binding    = -11.60 kcal/mol  [=(1)+(2)+(3)-(4)]USERUSER    (1) Final Intermolecular Energy     = -14.28 kcal/molUSER        vdW + Hbond + desolv Energy     = -14.11 kcal/molUSER        Electrostatic Energy            =  -0.17 kcal/molUSER        Moving Ligand-Fixed Receptor    = -14.28 kcal/molUSER        Moving Ligand-Moving Receptor   =  +0.00 kcal/molUSER    (2) Final Total Internal Energy     =  -2.22 kcal/molUSER    (3) Torsional Free Energy           =  +2.68 kcal/molUSER    (4) Unbound System's Energy         =  -2.22 kcal/molUSERUSERREMARK SMILES Cc1[nH]c2ccccc2c1CCCC[C@H](c1ccc(-c2nnn[nH]2)cc1)[C@@H](C)OREMARK SMILES IDX 13 1 12 2 11 3 10 4 2 5 3 6 4 7 9 8 5 9 8 10 6 11 7 12 1 13REMARK SMILES IDX 14 15 15 16 16 17 17 18 26 19 18 20 25 21 19 22 20 23 21 24REMARK SMILES IDX 24 25 22 26 23 27 27 29 28 30 29 31REMARK H PARENT 3 14 24 28 29 32USER                              x       y       z     vdW  Elec       q    TypeUSER                           _______ _______ _______ _____ _____    ______ ____ROOTATOM      1  C   UNL     1      37.189  43.674  19.860 -0.42 -0.00    +0.001 C  ENDROOTBRANCH   1   2ATOM      2  C   UNL     1      38.166  44.807  19.532 -0.41 -0.00    +0.005 C  BRANCH   2   3ATOM      3  C   UNL     1      38.382  45.013  18.031 -0.42 -0.01    +0.038 C  BRANCH   3   4ATOM      4  C   UNL     1      39.553  45.905  17.753 -0.43 +0.00    -0.020 A  ATOM      5  C   UNL     1      40.820  45.797  18.303 -0.47 -0.00    +0.016 A  ATOM      6  N   UNL     1      41.587  46.811  17.783 -0.17 +0.03    -0.358 N  ATOM      7  C   UNL     1      40.851  47.578  16.913 -0.47 -0.01    +0.046 A  ATOM      8  C   UNL     1      39.568  47.035  16.872 -0.47 -0.00    +0.003 A  ATOM      9  C   UNL     1      41.224  48.703  16.167 -0.49 -0.00    +0.026 A  ATOM     10  C   UNL     1      38.606  47.649  16.044 -0.45 -0.00    +0.010 A  ATOM     11  C   UNL     1      40.252  49.292  15.353 -0.58 -0.00    +0.002 A  ATOM     12  C   UNL     1      38.961  48.775  15.290 -0.50 -0.00    +0.001 A  ATOM     13  C   UNL     1      41.374  44.826  19.281 -0.34 +0.01    +0.064 C  ATOM     14  H   UNL     1      42.558  46.980  18.009 -0.39 -0.02    +0.166 HD ENDBRANCH   3   4ENDBRANCH   2   3ENDBRANCH   1   2BRANCH   1  15ATOM     15  C   UNL     1      35.699  44.048  19.856 -0.46 -0.00    +0.011 C  BRANCH  15  16ATOM     16  C   UNL     1      34.901  43.624  18.598 -0.37 -0.01    +0.048 C  BRANCH  16  17ATOM     17  C   UNL     1      35.317  44.428  17.364 -0.28 +0.02    -0.042 A  ATOM     18  C   UNL     1      35.924  43.764  16.288 -0.39 -0.00    +0.005 A  ATOM     19  C   UNL     1      35.105  45.809  17.251 -0.37 -0.00    +0.005 A  ATOM     20  C   UNL     1      36.311  44.460  15.140 -0.37 -0.00    +0.012 A  ATOM     21  C   UNL     1      35.496  46.507  16.099 -0.25 -0.01    +0.012 A  ATOM     22  C   UNL     1      36.106  45.841  15.028 -0.36 -0.01    +0.021 A  BRANCH  22  23ATOM     23  C   UNL     1      36.530  46.530  13.811 -0.34 -0.10    +0.179 A  ATOM     24  N   UNL     1      37.753  46.608  13.317 -0.42 +0.03    -0.109 NA ATOM     25  N   UNL     1      35.717  47.235  12.963 -0.41 +0.15    -0.239 N  ATOM     26  N   UNL     1      37.668  47.354  12.167 -1.16 +0.00    -0.024 NA ATOM     27  N   UNL     1      36.422  47.741  11.945 -1.01 +0.02    -0.048 NA ATOM     28  H   UNL     1      34.724  47.413  13.014 -0.11 -0.16    +0.194 HD ENDBRANCH  22  23ENDBRANCH  16  17BRANCH  16  29ATOM     29  C   UNL     1      33.363  43.597  18.813 -0.36 -0.02    +0.118 C  ATOM     30  C   UNL     1      32.629  42.403  18.212 -0.39 -0.01    +0.039 C  BRANCH  29  31ATOM     31  O   UNL     1      33.052  43.670  20.209 -0.81 -0.03    -0.393 OA ATOM     32  H   UNL     1      33.019  44.612  20.453 -0.25 -0.04    +0.210 HD ENDBRANCH  29  31ENDBRANCH  16  29ENDBRANCH  15  16ENDBRANCH   1  15TORSDOF 9TERENDMDL