MODEL        5USER    Run = 5USERUSER    Estimated Free Energy of Binding    =  -6.69 kcal/mol  [=(1)+(2)+(3)-(4)]USERUSER    (1) Final Intermolecular Energy     = -11.16 kcal/molUSER        vdW + Hbond + desolv Energy     = -11.57 kcal/molUSER        Electrostatic Energy            =  -0.20 kcal/molUSER        Moving Ligand-Fixed Receptor    = -11.77 kcal/molUSER        Moving Ligand-Moving Receptor   =  +0.61 kcal/molUSER    (2) Final Total Internal Energy     =  -3.03 kcal/molUSER    (3) Torsional Free Energy           =  +4.47 kcal/molUSER    (4) Unbound System's Energy         =  -3.03 kcal/molUSERUSERREMARK SMILES COc1ccc(O)c(C(=O)c2ccc(C(=O)O[C@@H]3CCCNC[C@H]3NC(=O)c3ccncc3)cc2)c1FREMARK SMILES IDX 17 1 15 2 16 3 14 4 11 5 12 6 35 7 13 8 34 9 9 10 10 11 8 12REMARK SMILES IDX 3 13 4 14 36 15 5 16 6 17 37 18 2 19 1 20 7 21 18 23 24 25REMARK SMILES IDX 23 26 22 27 21 29 20 30 19 31 25 33 26 34 27 36 28 37 29 38REMARK SMILES IDX 33 39 30 40 32 41 31 42REMARK H PARENT 7 22 22 28 25 35REMARK Flexibility Score:   99.900USER                              x       y       z     vdW  Elec       q    TypeUSER                           _______ _______ _______ _____ _____    ______ ____ROOTATOM      1  O   UNL     1      37.030  45.512  15.102 -0.08 +0.20    -0.457 OA ENDROOTBRANCH   1   2ATOM      2  C   UNL     1      35.707  45.618  14.819 -0.19 -0.21    +0.338 C  ATOM      3  O   UNL     1      35.203  46.235  13.890 -0.37 +0.18    -0.246 OA BRANCH   2   4ATOM      4  C   UNL     1      34.922  44.820  15.792 -0.29 -0.04    +0.060 A  ATOM      5  C   UNL     1      33.404  43.376  17.662 -0.31 -0.01    +0.023 A  ATOM      6  C   UNL     1      34.446  42.748  16.966 -0.40 -0.01    +0.013 A  ATOM      7  C   UNL     1      33.130  44.730  17.421 -0.32 -0.01    +0.013 A  ATOM      8  C   UNL     1      35.202  43.468  16.034 -0.38 -0.01    +0.016 A  ATOM      9  C   UNL     1      33.891  45.452  16.497 -0.30 -0.01    +0.016 A  BRANCH   5  10ATOM     10  C   UNL     1      32.553  42.650  18.643 -0.28 -0.02    +0.199 C  ATOM     11  O   UNL     1      32.583  42.933  19.837 -0.73 -0.03    -0.288 OA BRANCH  10  12ATOM     12  C   UNL     1      31.658  41.573  18.204 -0.27 -0.02    +0.104 A  ATOM     13  C   UNL     1      29.985  40.781  16.636 -0.28 -0.03    +0.155 A  ATOM     14  C   UNL     1      29.897  39.584  17.358 -0.30 +0.01    +0.053 A  ATOM     15  C   UNL     1      30.868  41.775  17.075 -0.20 -0.05    +0.179 A  ATOM     16  C   UNL     1      30.702  39.375  18.485 -0.35 +0.00    +0.051 A  ATOM     17  C   UNL     1      31.588  40.367  18.901 -0.29 +0.00    +0.130 A  ATOM     18  F   UNL     1      30.985  42.913  16.372 -0.05 +0.08    -0.202 F  BRANCH  13  19ATOM     19  O   UNL     1      29.287  41.073  15.495 -0.19 +0.17    -0.494 OA ATOM     20  C   UNL     1      28.061  41.778  15.640 -0.14 -0.14    +0.278 C  ENDBRANCH  13  19BRANCH  17  21ATOM     21  O   UNL     1      32.392  40.161  19.985 -0.65 -0.21    -0.507 OA ATOM     22  H   UNL     1      32.903  40.963  20.179 +0.20 +0.11    +0.293 HD ENDBRANCH  17  21ENDBRANCH  10  12ENDBRANCH   5  10ENDBRANCH   2   4ENDBRANCH   1   2BRANCH   1  23ATOM     23  C   UNL     1      37.626  46.609  15.844 -0.31 -0.10    +0.200 CG0ATOM     24  G   UNL     1      38.189  47.591  14.817 +0.00 +0.00    +0.000 G0 BRANCH  23  25ATOM     25  C   UNL     1      38.684  45.998  16.786 -0.37 -0.04    +0.137 C  BRANCH  25  26ATOM     26  C   UNL     1      39.662  47.019  17.400 -0.43 -0.02    +0.109 C  BRANCH  26  27ATOM     27  N   UNL     1      40.665  47.531  16.464 -0.27 +0.05    -0.315 NA ATOM     28  H   UNL     1      41.585  47.420  16.892 -0.30 -0.02    +0.122 HD BRANCH  27  29ATOM     29  C   UNL     1      40.687  46.904  15.140 -0.38 -0.00    +0.081 C  BRANCH  29  30ATOM     30  C   UNL     1      39.528  47.201  14.179 -0.36 -0.00    +0.019 C  BRANCH  30  31ATOM     31  C   UNL     1      38.190  47.591  14.820 -0.52 -0.02    +0.049 CG0ATOM     32  G   UNL     1      37.620  46.613  15.847 +0.00 +0.00    +0.000 G0 ENDBRANCH  30  31ENDBRANCH  29  30ENDBRANCH  27  29ENDBRANCH  26  27ENDBRANCH  25  26BRANCH  25  33ATOM     33  N   UNL     1      38.004  45.246  17.849 -0.16 +0.08    -0.344 N  ATOM     34  C   UNL     1      38.688  44.659  18.885 -0.27 -0.02    +0.251 C  ATOM     35  H   UNL     1      37.017  45.437  17.961 +0.10 -0.05    +0.164 HD ATOM     36  O   UNL     1      39.907  44.666  18.990 -0.28 +0.01    -0.269 OA BRANCH  34  37ATOM     37  C   UNL     1      37.855  44.000  19.918 -0.31 -0.00    +0.042 A  ATOM     38  C   UNL     1      36.634  43.444  19.539 -0.33 -0.00    +0.034 A  ATOM     39  C   UNL     1      38.251  43.965  21.254 -0.32 +0.00    +0.034 A  ATOM     40  C   UNL     1      35.865  42.846  20.519 -0.38 -0.00    +0.112 A  ATOM     41  C   UNL     1      37.405  43.348  22.158 -0.32 +0.01    +0.112 A  ATOM     42  N   UNL     1      36.226  42.783  21.818 -0.22 -0.02    -0.265 NA ENDBRANCH  34  37ENDBRANCH  25  33ENDBRANCH  23  25ENDBRANCH   1  23TORSDOF 9TERENDMDL