MODEL        2USER    Run = 2USERUSER    Estimated Free Energy of Binding    =  -7.90 kcal/mol  [=(1)+(2)+(3)-(4)]USERUSER    (1) Final Intermolecular Energy     = -12.38 kcal/molUSER        vdW + Hbond + desolv Energy     = -13.13 kcal/molUSER        Electrostatic Energy            =  -0.13 kcal/molUSER        Moving Ligand-Fixed Receptor    = -13.26 kcal/molUSER        Moving Ligand-Moving Receptor   =  +0.89 kcal/molUSER    (2) Final Total Internal Energy     =  -1.97 kcal/molUSER    (3) Torsional Free Energy           =  +4.47 kcal/molUSER    (4) Unbound System's Energy         =  -1.97 kcal/molUSERUSERREMARK SMILES COc1ccc(O)c(C(=O)c2ccc(/C=C/[C@@H]3CCCNC[C@H]3NC(=O)c3ccncc3)cc2)c1FREMARK SMILES IDX 16 1 15 2 14 3 11 4 12 5 34 6 13 7 33 8 9 9 10 10 8 11 3 12REMARK SMILES IDX 4 13 35 14 5 15 6 16 36 17 2 18 1 19 7 20 17 22 18 23 23 25REMARK SMILES IDX 22 26 21 27 20 29 19 30 24 32 25 33 26 35 27 36 28 37 32 38REMARK SMILES IDX 29 39 31 40 30 41REMARK H PARENT 7 21 21 28 24 34REMARK Flexibility Score:   99.900USER                              x       y       z     vdW  Elec       q    TypeUSER                           _______ _______ _______ _____ _____    ______ ____ROOTATOM      1  C   UNL     1      34.163  42.610  18.432 -0.43 +0.00    -0.021 C  ENDROOTBRANCH   1   2ATOM      2  C   UNL     1      35.419  42.306  18.793 -0.45 -0.00    +0.004 C  BRANCH   2   3ATOM      3  C   UNL     1      36.025  42.739  20.058 -0.42 +0.00    -0.026 A  ATOM      4  C   UNL     1      37.212  43.493  22.488 -0.37 +0.00    +0.023 A  ATOM      5  C   UNL     1      36.708  42.198  22.330 -0.50 +0.00    +0.013 A  ATOM      6  C   UNL     1      37.160  44.398  21.425 -0.35 +0.00    +0.013 A  ATOM      7  C   UNL     1      36.121  41.826  21.115 -0.52 +0.00    +0.009 A  ATOM      8  C   UNL     1      36.562  44.024  20.219 -0.40 -0.00    +0.009 A  BRANCH   4   9ATOM      9  C   UNL     1      37.867  43.913  23.745 -0.25 +0.02    +0.199 C  ATOM     10  O   UNL     1      39.015  44.357  23.697 -0.11 -0.01    -0.288 OA BRANCH   9  11ATOM     11  C   UNL     1      37.224  43.777  25.071 -0.27 +0.00    +0.104 A  ATOM     12  C   UNL     1      36.235  42.414  26.836 -0.35 -0.03    +0.155 A  ATOM     13  C   UNL     1      36.008  43.565  27.592 -0.44 -0.01    +0.053 A  ATOM     14  C   UNL     1      36.841  42.532  25.576 -0.27 -0.01    +0.179 A  ATOM     15  C   UNL     1      36.362  44.818  27.084 -0.27 -0.01    +0.051 A  ATOM     16  C   UNL     1      36.952  44.922  25.828 -0.27 -0.01    +0.130 A  ATOM     17  F   UNL     1      37.019  41.422  24.842 -0.07 +0.02    -0.202 F  BRANCH  12  18ATOM     18  O   UNL     1      35.915  41.139  27.218 -0.25 +0.18    -0.494 OA ATOM     19  C   UNL     1      34.603  40.679  26.921 -0.37 -0.14    +0.278 C  ENDBRANCH  12  18BRANCH  16  20ATOM     20  O   UNL     1      37.239  46.189  25.394 -0.69 -0.05    -0.507 OA ATOM     21  H   UNL     1      37.965  46.123  24.732 +0.14 +0.04    +0.293 HD ENDBRANCH  16  20ENDBRANCH   9  11ENDBRANCH   4   9ENDBRANCH   2   3ENDBRANCH   1   2BRANCH   1  22ATOM     22  C   UNL     1      33.731  43.830  17.620 -0.34 -0.01    +0.035 C  BRANCH  22  23ATOM     23  C   UNL     1      32.396  44.314  18.219 -0.36 -0.00    +0.011 CG0ATOM     24  G   UNL     1      31.270  43.301  18.393 +0.00 +0.00    +0.000 G0 ENDBRANCH  22  23BRANCH  22  25ATOM     25  C   UNL     1      33.715  43.665  16.070 -0.32 -0.05    +0.103 C  BRANCH  25  26ATOM     26  C   UNL     1      32.258  43.583  15.528 -0.32 -0.06    +0.106 C  BRANCH  26  27ATOM     27  N   UNL     1      31.391  42.531  16.045 -0.14 +0.16    -0.315 NA ATOM     28  H   UNL     1      31.960  41.733  16.329 -0.45 -0.08    +0.122 HD BRANCH  27  29ATOM     29  C   UNL     1      30.504  42.934  17.126 -0.27 -0.02    +0.081 C  BRANCH  29  30ATOM     30  C   UNL     1      31.265  43.300  18.391 -0.31 -0.00    +0.016 CG0ATOM     31  G   UNL     1      32.387  44.317  18.212 +0.00 +0.00    +0.000 G0 ENDBRANCH  29  30ENDBRANCH  27  29ENDBRANCH  26  27ENDBRANCH  25  26BRANCH  25  32ATOM     32  N   UNL     1      34.395  44.787  15.406 -0.10 +0.21    -0.347 N  ATOM     33  C   UNL     1      35.720  44.716  15.035 -0.19 -0.12    +0.251 C  ATOM     34  H   UNL     1      33.822  45.543  15.055 +0.08 -0.15    +0.164 HD ATOM     35  O   UNL     1      36.426  43.735  15.226 -0.31 +0.09    -0.269 OA BRANCH  33  36ATOM     36  C   UNL     1      36.267  45.907  14.339 -0.39 -0.02    +0.042 A  ATOM     37  C   UNL     1      36.907  46.934  15.034 -0.39 -0.02    +0.034 A  ATOM     38  C   UNL     1      36.162  45.970  12.950 -0.52 -0.02    +0.034 A  ATOM     39  C   UNL     1      37.393  48.001  14.302 -0.44 -0.06    +0.112 A  ATOM     40  C   UNL     1      36.679  47.082  12.313 -0.59 -0.04    +0.112 A  ATOM     41  N   UNL     1      37.283  48.103  12.960 -0.88 +0.07    -0.265 NA ENDBRANCH  33  36ENDBRANCH  25  32ENDBRANCH  22  25ENDBRANCH   1  22TORSDOF 9TERENDMDL