REMARK SMILES COc1ccc(O)c(C(=O)c2ccc(CN[C@@H]3CCCNC[C@H]3NC(=O)c3ccncc3)cc2)c1F
REMARK SMILES IDX 16 1 15 3 14 4 11 5 12 6 34 7 13 8 33 9 9 10 10 11 8 12 3 13
REMARK SMILES IDX 4 14 35 15 5 16 6 17 36 18 2 19 1 20 7 21 17 23 18 24 23 26
REMARK SMILES IDX 22 27 21 28 20 30 19 31 24 33 25 34 26 36 27 37 28 38 32 39
REMARK SMILES IDX 29 40 31 41 30 42
REMARK H PARENT 16 2 7 22 21 29 24 35
REMARK Flexibility Score:   99.900
ROOT
ATOM      1  N   UNL     1      -1.606  -0.017  -1.018  1.00  0.00    -0.308 NA
ATOM      2  H   UNL     1      -2.429   0.319  -1.523  1.00  0.00     0.123 HD
ENDROOT
BRANCH   1   3
ATOM      3  C   UNL     1      -0.919   1.132  -0.424  1.00  0.00     0.117 C 
BRANCH   3   4
ATOM      4  C   UNL     1       0.468   0.814   0.079  1.00  0.00    -0.034 A 
ATOM      5  C   UNL     1       3.061   0.224   0.995  1.00  0.00     0.023 A 
ATOM      6  C   UNL     1       2.760   0.122  -0.367  1.00  0.00     0.012 A 
ATOM      7  C   UNL     1       2.060   0.595   1.900  1.00  0.00     0.012 A 
ATOM      8  C   UNL     1       1.473   0.424  -0.820  1.00  0.00     0.006 A 
ATOM      9  C   UNL     1       0.774   0.894   1.444  1.00  0.00     0.006 A 
BRANCH   5  10
ATOM     10  C   UNL     1       4.399  -0.125   1.530  1.00  0.00     0.199 C 
ATOM     11  O   UNL     1       4.477  -0.691   2.622  1.00  0.00    -0.288 OA
BRANCH  10  12
ATOM     12  C   UNL     1       5.657   0.116   0.791  1.00  0.00     0.104 A 
ATOM     13  C   UNL     1       7.027   1.441  -0.730  1.00  0.00     0.155 A 
ATOM     14  C   UNL     1       8.064   0.516  -0.597  1.00  0.00     0.053 A 
ATOM     15  C   UNL     1       5.831   1.234  -0.026  1.00  0.00     0.179 A 
ATOM     16  C   UNL     1       7.914  -0.589   0.246  1.00  0.00     0.051 A 
ATOM     17  C   UNL     1       6.725  -0.776   0.946  1.00  0.00     0.130 A 
ATOM     18  F   UNL     1       4.855   2.151  -0.131  1.00  0.00    -0.202 F 
BRANCH  13  19
ATOM     19  O   UNL     1       7.066   2.569  -1.506  1.00  0.00    -0.494 OA
ATOM     20  C   UNL     1       8.273   2.835  -2.208  1.00  0.00     0.278 C 
ENDBRANCH  13  19
BRANCH  17  21
ATOM     21  O   UNL     1       6.673  -1.863   1.778  1.00  0.00    -0.507 OA
ATOM     22  H   UNL     1       5.890  -1.753   2.366  1.00  0.00     0.293 HD
ENDBRANCH  17  21
ENDBRANCH  10  12
ENDBRANCH   5  10
ENDBRANCH   3   4
ENDBRANCH   1   3
BRANCH   1  23
ATOM     23  C   UNL     1      -2.051  -1.030  -0.022  1.00  0.00     0.077 C 
BRANCH  23  24
ATOM     24  C   UNL     1      -1.182  -2.278  -0.224  1.00  0.00     0.022 CG0
ATOM     25  G   UNL     1      -1.512  -3.458   0.689  1.00  0.00     0.000 G0
ENDBRANCH  23  24
BRANCH  23  26
ATOM     26  C   UNL     1      -3.579  -1.302  -0.188  1.00  0.00     0.113 C 
BRANCH  26  27
ATOM     27  C   UNL     1      -4.145  -2.144   0.982  1.00  0.00     0.107 C 
BRANCH  27  28
ATOM     28  N   UNL     1      -4.022  -3.597   0.926  1.00  0.00    -0.315 NA
ATOM     29  H   UNL     1      -4.836  -3.981   0.440  1.00  0.00     0.122 HD
BRANCH  28  30
ATOM     30  C   UNL     1      -2.821  -4.149   0.317  1.00  0.00     0.081 C 
BRANCH  30  31
ATOM     31  C   UNL     1      -1.512  -3.458   0.689  1.00  0.00     0.017 CG0
ATOM     32  G   UNL     1      -1.182  -2.278  -0.224  1.00  0.00     0.000 G0
ENDBRANCH  30  31
ENDBRANCH  28  30
ENDBRANCH  27  28
ENDBRANCH  26  27
BRANCH  26  33
ATOM     33  N   UNL     1      -4.303  -0.018  -0.268  1.00  0.00    -0.346 N 
ATOM     34  C   UNL     1      -5.526   0.081  -0.895  1.00  0.00     0.251 C 
ATOM     35  H   UNL     1      -3.913   0.769   0.230  1.00  0.00     0.164 HD
ATOM     36  O   UNL     1      -6.047  -0.846  -1.503  1.00  0.00    -0.269 OA
BRANCH  34  37
ATOM     37  C   UNL     1      -6.204   1.402  -0.835  1.00  0.00     0.042 A 
ATOM     38  C   UNL     1      -7.049   1.754  -1.888  1.00  0.00     0.034 A 
ATOM     39  C   UNL     1      -6.046   2.272   0.244  1.00  0.00     0.034 A 
ATOM     40  C   UNL     1      -7.681   2.981  -1.833  1.00  0.00     0.112 A 
ATOM     41  C   UNL     1      -6.726   3.477   0.205  1.00  0.00     0.112 A 
ATOM     42  N   UNL     1      -7.529   3.853  -0.812  1.00  0.00    -0.265 NA
ENDBRANCH  34  37
ENDBRANCH  26  33
ENDBRANCH  23  26
ENDBRANCH   1  23
TORSDOF 9
