MODEL        2USER    Run = 2USERUSER    Estimated Free Energy of Binding    = -12.74 kcal/mol  [=(1)+(2)+(3)-(4)]USERUSER    (1) Final Intermolecular Energy     = -14.53 kcal/molUSER        vdW + Hbond + desolv Energy     = -14.52 kcal/molUSER        Electrostatic Energy            =  -0.01 kcal/molUSER        Moving Ligand-Fixed Receptor    = -14.53 kcal/molUSER        Moving Ligand-Moving Receptor   =  +0.00 kcal/molUSER    (2) Final Total Internal Energy     =  -0.76 kcal/molUSER    (3) Torsional Free Energy           =  +1.79 kcal/molUSER    (4) Unbound System's Energy         =  -0.76 kcal/molUSERUSERREMARK SMILES Cn1ccc2ccc3c4[nH]c5c(CCCN[C@H]6CC[C@H](O)CC6)cccc5c4c4c(c3c21)C(=O)NC4=OREMARK SMILES IDX 15 1 14 2 13 3 12 4 2 5 3 6 32 7 4 8 31 9 5 10 30 11 8 12REMARK SMILES IDX 6 13 29 14 33 15 7 16 9 17 28 18 36 19 35 20 10 21 27 22REMARK SMILES IDX 11 23 26 24 25 25 24 26 1 27 34 28 37 29 16 32 17 34 23 35REMARK SMILES IDX 18 36 22 37 19 38 20 39 21 40REMARK H PARENT 35 30 10 31 16 33 21 41USER                              x       y       z     vdW  Elec       q    TypeUSER                           _______ _______ _______ _____ _____    ______ ____ROOTATOM      1  C   UNL     1      37.996  45.167  25.071 -0.28 +0.00    +0.081 C  ENDROOTBRANCH   1   2ATOM      2  C   UNL     1      38.109  45.193  23.544 -0.33 +0.00    +0.020 C  BRANCH   2   3ATOM      3  C   UNL     1      38.432  43.821  22.942 -0.33 +0.00    +0.039 C  BRANCH   3   4ATOM      4  C   UNL     1      37.591  43.462  21.741 -0.37 -0.00    -0.024 A  ATOM      5  N   UNL     1      39.290  48.058  14.585 -0.24 +0.12    -0.350 N  ATOM      6  C   UNL     1      40.365  48.845  14.244 -0.34 -0.02    +0.086 A  ATOM      7  C   UNL     1      39.540  47.377  15.770 -0.46 -0.02    +0.057 A  ATOM      8  C   UNL     1      41.227  48.857  15.307 -0.54 -0.00    +0.028 A  ATOM      9  C   UNL     1      38.855  46.328  16.492 -0.40 -0.01    +0.022 A  ATOM     10  C   UNL     1      40.683  48.003  16.301 -0.56 -0.00    +0.000 A  ATOM     11  C   UNL     1      37.859  45.453  16.029 -0.31 -0.02    +0.063 A  ATOM     12  C   UNL     1      39.256  46.153  17.853 -0.43 -0.00    +0.009 A  ATOM     13  C   UNL     1      41.097  47.715  17.612 -0.52 -0.00    +0.011 A  ATOM     14  C   UNL     1      37.182  44.566  16.875 -0.30 -0.02    +0.063 A  ATOM     15  C   UNL     1      37.403  45.114  14.670 -0.25 -0.09    +0.259 C  ATOM     16  C   UNL     1      40.355  46.837  18.395 -0.39 -0.00    +0.012 A  ATOM     17  C   UNL     1      38.539  45.243  18.691 -0.36 -0.01    +0.055 A  ATOM     18  C   UNL     1      37.478  44.450  18.235 -0.33 -0.00    +0.022 A  ATOM     19  C   UNL     1      36.235  43.803  16.065 -0.28 -0.09    +0.259 C  ATOM     20  N   UNL     1      36.343  44.277  14.799 -0.19 +0.11    -0.288 N  ATOM     21  N   UNL     1      38.696  44.941  20.026 -0.16 +0.01    -0.354 N  ATOM     22  C   UNL     1      36.994  43.685  19.350 -0.32 -0.00    +0.008 A  ATOM     23  C   UNL     1      37.775  44.016  20.457 -0.33 -0.00    +0.050 A  ATOM     24  C   UNL     1      35.964  42.739  19.530 -0.39 -0.00    +0.011 A  ATOM     25  C   UNL     1      35.753  42.167  20.788 -0.48 +0.00    +0.001 A  ATOM     26  C   UNL     1      36.553  42.522  21.869 -0.47 +0.00    +0.006 A  ATOM     27  C   UNL     1      38.028  48.200  13.889 -0.47 -0.06    +0.149 C  ATOM     28  O   UNL     1      37.930  45.418  13.619 -0.29 +0.08    -0.269 OA ATOM     29  O   UNL     1      35.528  42.882  16.417 -0.34 +0.10    -0.269 OA ATOM     30  H   UNL     1      35.939  43.792  14.013 +0.18 -0.06    +0.173 HD ATOM     31  H   UNL     1      39.385  45.362  20.630 +0.09 +0.00    +0.167 HD ENDBRANCH   3   4ENDBRANCH   2   3ENDBRANCH   1   2BRANCH   1  32ATOM     32  N   UNL     1      36.586  45.043  25.446 -0.34 -0.00    -0.314 NA ATOM     33  H   UNL     1      36.159  45.966  25.511 -0.54 -0.01    +0.122 HD BRANCH  32  34ATOM     34  C   UNL     1      36.395  44.312  26.707 -0.40 -0.01    +0.053 C  ATOM     35  C   UNL     1      35.274  43.254  26.627 -0.50 -0.00    +0.021 C  ATOM     36  C   UNL     1      37.755  43.686  27.076 -0.34 -0.00    +0.021 C  ATOM     37  C   UNL     1      35.807  41.866  26.277 -0.55 -0.01    +0.033 C  ATOM     38  C   UNL     1      37.580  42.498  28.012 -0.32 -0.01    +0.033 C  ATOM     39  C   UNL     1      36.799  41.368  27.335 -0.52 -0.03    +0.114 C  BRANCH  39  40ATOM     40  O   UNL     1      36.100  40.653  28.353 -0.39 +0.19    -0.393 OA ATOM     41  H   UNL     1      36.535  40.847  29.201 -0.45 -0.14    +0.210 HD ENDBRANCH  39  40ENDBRANCH  32  34ENDBRANCH   1  32TORSDOF 6TERENDMDL