MODEL        8USER    Run = 8USERUSER    Estimated Free Energy of Binding    =  -6.28 kcal/mol  [=(1)+(2)+(3)-(4)]USERUSER    (1) Final Intermolecular Energy     = -10.76 kcal/molUSER        vdW + Hbond + desolv Energy     = -11.12 kcal/molUSER        Electrostatic Energy            =  -0.31 kcal/molUSER        Moving Ligand-Fixed Receptor    = -11.43 kcal/molUSER        Moving Ligand-Moving Receptor   =  +0.67 kcal/molUSER    (2) Final Total Internal Energy     =  -3.01 kcal/molUSER    (3) Torsional Free Energy           =  +4.47 kcal/molUSER    (4) Unbound System's Energy         =  -3.01 kcal/molUSERUSERREMARK SMILES COc1ccc(O)c(C(=O)c2ccc(NC[C@@H]3CCCNC[C@@H]3NC(=O)c3ccncc3)cc2)c1FREMARK SMILES IDX 16 1 15 2 14 4 11 5 12 6 34 7 13 8 33 9 9 10 10 11 8 12 3 13REMARK SMILES IDX 4 14 35 15 5 16 6 17 36 18 2 19 1 20 7 21 17 23 18 24 23 26REMARK SMILES IDX 22 27 21 28 20 30 19 31 24 33 25 34 26 36 27 37 28 38 32 39REMARK SMILES IDX 29 40 31 41 30 42REMARK H PARENT 15 3 7 22 21 29 24 35REMARK Flexibility Score:   99.900USER                              x       y       z     vdW  Elec       q    TypeUSER                           _______ _______ _______ _____ _____    ______ ____ROOTATOM      1  C   UNL     1      38.666  43.615  24.250 -0.22 +0.01    +0.118 C  ENDROOTBRANCH   1   2ATOM      2  N   UNL     1      39.823  43.276  23.417 -0.06 -0.02    -0.385 N  ATOM      3  H   UNL     1      40.614  42.930  23.951 +0.06 +0.00    +0.160 HD BRANCH   2   4ATOM      4  C   UNL     1      40.185  44.021  22.298 -0.24 +0.00    +0.034 A  ATOM      5  C   UNL     1      40.983  45.384  19.949 -0.39 +0.00    +0.023 A  ATOM      6  C   UNL     1      39.757  45.671  20.552 -0.30 +0.00    +0.014 A  ATOM      7  C   UNL     1      41.789  44.377  20.483 -0.25 +0.00    +0.014 A  ATOM      8  C   UNL     1      39.362  44.988  21.710 -0.31 +0.00    +0.026 A  ATOM      9  C   UNL     1      41.383  43.703  21.642 -0.32 +0.00    +0.026 A  BRANCH   5  10ATOM     10  C   UNL     1      41.346  46.106  18.707 -0.41 +0.00    +0.199 C  ATOM     11  O   UNL     1      42.532  46.355  18.483 -0.31 -0.03    -0.288 OA BRANCH  10  12ATOM     12  C   UNL     1      40.347  46.599  17.733 -0.42 -0.01    +0.104 A  ATOM     13  C   UNL     1      38.224  46.391  16.549 -0.29 -0.06    +0.155 A  ATOM     14  C   UNL     1      38.482  47.591  15.884 -0.41 -0.03    +0.053 A  ATOM     15  C   UNL     1      39.168  45.901  17.465 -0.30 -0.03    +0.179 A  ATOM     16  C   UNL     1      39.673  48.281  16.119 -0.47 -0.02    +0.051 A  ATOM     17  C   UNL     1      40.604  47.779  17.025 -0.42 -0.02    +0.130 A  ATOM     18  F   UNL     1      38.929  44.724  18.067 -0.09 +0.02    -0.202 F  BRANCH  13  19ATOM     19  O   UNL     1      37.104  45.620  16.389 -0.05 +0.21    -0.494 OA ATOM     20  C   UNL     1      35.846  46.283  16.417 -0.23 -0.23    +0.278 C  ENDBRANCH  13  19BRANCH  17  21ATOM     21  O   UNL     1      41.759  48.499  17.172 -0.62 -0.03    -0.507 OA ATOM     22  H   UNL     1      42.507  47.861  17.223 -0.34 -0.03    +0.293 HD ENDBRANCH  17  21ENDBRANCH  10  12ENDBRANCH   5  10ENDBRANCH   2   4ENDBRANCH   1   2BRANCH   1  23ATOM     23  C   UNL     1      38.968  43.445  25.760 -0.21 -0.00    +0.032 C  BRANCH  23  24ATOM     24  C   UNL     1      38.062  42.351  26.361 -0.36 -0.00    +0.009 CG0ATOM     25  G   UNL     1      36.670  42.743  26.859 +0.00 +0.00    +0.000 G0 ENDBRANCH  23  24BRANCH  23  26ATOM     26  C   UNL     1      38.920  44.814  26.477 -0.18 -0.00    +0.101 C  BRANCH  26  27ATOM     27  C   UNL     1      37.465  45.294  26.689 -0.31 -0.01    +0.106 C  BRANCH  27  28ATOM     28  N   UNL     1      36.516  44.888  25.645 -0.24 +0.01    -0.315 NA ATOM     29  H   UNL     1      35.804  45.620  25.578 -0.55 -0.03    +0.122 HD BRANCH  28  30ATOM     30  C   UNL     1      35.838  43.627  25.948 -0.33 -0.00    +0.081 C  BRANCH  30  31ATOM     31  C   UNL     1      36.673  42.738  26.860 -0.46 -0.00    +0.016 CG0ATOM     32  G   UNL     1      38.065  42.353  26.355 +0.00 +0.00    +0.000 G0 ENDBRANCH  30  31ENDBRANCH  28  30ENDBRANCH  27  28ENDBRANCH  26  27BRANCH  26  33ATOM     33  N   UNL     1      39.680  45.852  25.784 -0.03 -0.01    -0.348 N  ATOM     34  C   UNL     1      40.899  45.625  25.190 -0.05 +0.01    +0.251 C  ATOM     35  H   UNL     1      39.301  46.786  25.873 +0.07 +0.01    +0.164 HD ATOM     36  O   UNL     1      41.453  44.532  25.199 -0.04 -0.01    -0.269 OA BRANCH  34  37ATOM     37  C   UNL     1      41.555  46.789  24.538 -0.14 +0.00    +0.042 A  ATOM     38  C   UNL     1      42.240  46.571  23.342 -0.17 +0.00    +0.034 A  ATOM     39  C   UNL     1      41.483  48.081  25.061 -0.25 +0.00    +0.034 A  ATOM     40  C   UNL     1      42.846  47.652  22.730 -0.27 +0.02    +0.112 A  ATOM     41  C   UNL     1      42.123  49.095  24.371 -0.33 +0.03    +0.112 A  ATOM     42  N   UNL     1      42.806  48.908  23.223 -0.88 -0.08    -0.265 NA ENDBRANCH  34  37ENDBRANCH  26  33ENDBRANCH  23  26ENDBRANCH   1  23TORSDOF 9TERENDMDL