MODEL        1USER    Run = 1USERUSER    Estimated Free Energy of Binding    = -12.91 kcal/mol  [=(1)+(2)+(3)-(4)]USERUSER    (1) Final Intermolecular Energy     = -15.30 kcal/molUSER        vdW + Hbond + desolv Energy     = -15.18 kcal/molUSER        Electrostatic Energy            =  -0.12 kcal/molUSER        Moving Ligand-Fixed Receptor    = -15.30 kcal/molUSER        Moving Ligand-Moving Receptor   =  +0.00 kcal/molUSER    (2) Final Total Internal Energy     =  -2.50 kcal/molUSER    (3) Torsional Free Energy           =  +2.39 kcal/molUSER    (4) Unbound System's Energy         =  -2.50 kcal/molUSERUSERREMARK SMILES N#Cc1cnc(-c2ccc(CNCc3ccc(-c4csnn4)cc3)cc2)c(-c2ccccc2)c1REMARK SMILES IDX 11 1 10 2 7 3 8 4 26 5 9 6 25 7 6 8 3 9 4 10 34 11 5 12REMARK SMILES IDX 27 13 2 14 1 15 28 16 29 17 33 18 30 19 32 20 31 21 12 22REMARK SMILES IDX 13 24 14 25 15 26 24 27 16 28 23 29 17 30 18 31 19 32 22 33REMARK SMILES IDX 20 34 21 35REMARK H PARENT 12 23USER                              x       y       z     vdW  Elec       q    TypeUSER                           _______ _______ _______ _____ _____    ______ ____ROOTATOM      1  C   UNL     1      36.354  43.313  20.321 -0.40 -0.00    +0.117 C  ENDROOTBRANCH   1   2ATOM      2  C   UNL     1      35.491  43.844  19.201 -0.36 +0.01    -0.034 A  ATOM      3  C   UNL     1      33.838  44.853  17.123 -0.32 -0.00    +0.001 A  ATOM      4  C   UNL     1      34.293  43.522  17.113 -0.33 -0.00    +0.011 A  ATOM      5  C   UNL     1      34.244  45.672  18.190 -0.45 -0.01    +0.011 A  ATOM      6  C   UNL     1      35.102  43.021  18.139 -0.36 -0.00    +0.006 A  ATOM      7  C   UNL     1      35.051  45.173  19.219 -0.25 -0.00    +0.006 A  BRANCH   3   8ATOM      8  C   UNL     1      32.984  45.356  16.029 -0.24 -0.06    +0.078 A  ATOM      9  C   UNL     1      31.147  46.200  14.140 -0.51 -0.05    +0.071 A  ATOM     10  C   UNL     1      30.772  45.736  15.385 -0.36 -0.06    +0.131 A  ATOM     11  C   UNL     1      32.509  46.250  13.845 -0.17 -0.03    +0.032 A  ATOM     12  N   UNL     1      31.651  45.324  16.327 -0.68 +0.10    -0.254 NA ATOM     13  C   UNL     1      33.466  45.830  14.791 -0.14 -0.01    +0.009 A  BRANCH   9  14ATOM     14  C   UNL     1      30.165  46.623  13.195 -0.57 -0.06    +0.101 C  ATOM     15  N   UNL     1      29.367  46.969  12.427 -0.71 +0.09    -0.192 NA ENDBRANCH   9  14BRANCH  13  16ATOM     16  C   UNL     1      34.895  45.943  14.450 -0.34 +0.01    -0.016 A  ATOM     17  C   UNL     1      35.358  46.990  13.635 -0.41 -0.01    +0.009 A  ATOM     18  C   UNL     1      35.834  45.022  14.942 -0.35 -0.00    +0.009 A  ATOM     19  C   UNL     1      36.712  47.106  13.313 -0.58 -0.00    +0.001 A  ATOM     20  C   UNL     1      37.188  45.135  14.619 -0.39 -0.00    +0.001 A  ATOM     21  C   UNL     1      37.627  46.177  13.804 -0.45 -0.00    +0.000 A  ENDBRANCH  13  16ENDBRANCH   3   8ENDBRANCH   1   2BRANCH   1  22ATOM     22  N   UNL     1      37.315  44.328  20.752 -0.20 +0.00    -0.309 NA ATOM     23  H   UNL     1      37.338  44.333  21.770 +0.06 +0.01    +0.123 HD BRANCH  22  24ATOM     24  C   UNL     1      38.663  44.061  20.249 -0.24 -0.00    +0.117 C  BRANCH  24  25ATOM     25  C   UNL     1      39.146  45.088  19.251 -0.38 +0.00    -0.034 A  ATOM     26  C   UNL     1      38.351  45.454  18.157 -0.39 -0.00    +0.006 A  ATOM     27  C   UNL     1      40.407  45.679  19.392 -0.43 +0.00    +0.006 A  ATOM     28  C   UNL     1      38.806  46.399  17.230 -0.41 -0.00    +0.011 A  ATOM     29  C   UNL     1      40.862  46.621  18.465 -0.49 -0.00    +0.011 A  ATOM     30  C   UNL     1      40.065  46.999  17.375 -0.49 -0.00    +0.003 A  BRANCH  30  31ATOM     31  C   UNL     1      40.568  47.988  16.426 -0.47 -0.02    +0.105 A  ATOM     32  C   UNL     1      40.237  48.030  15.082 -0.45 -0.03    +0.118 A  ATOM     33  N   UNL     1      41.429  49.005  16.836 -1.02 -0.00    -0.138 NA ATOM     34  S   UNL     1      41.060  49.368  14.389 -0.84 +0.00    -0.020 S  ATOM     35  N   UNL     1      41.769  49.802  15.839 -1.05 -0.00    -0.091 NA ENDBRANCH  30  31ENDBRANCH  24  25ENDBRANCH  22  24ENDBRANCH   1  22TORSDOF 8TERENDMDL