MODEL        2USER    Run = 2USERUSER    Estimated Free Energy of Binding    =  -7.33 kcal/mol  [=(1)+(2)+(3)-(4)]USERUSER    (1) Final Intermolecular Energy     = -11.51 kcal/molUSER        vdW + Hbond + desolv Energy     = -11.24 kcal/molUSER        Electrostatic Energy            =  -0.51 kcal/molUSER        Moving Ligand-Fixed Receptor    = -11.75 kcal/molUSER        Moving Ligand-Moving Receptor   =  +0.24 kcal/molUSER    (2) Final Total Internal Energy     =  -2.16 kcal/molUSER    (3) Torsional Free Energy           =  +4.18 kcal/molUSER    (4) Unbound System's Energy         =  -2.16 kcal/molUSERUSERREMARK SMILES COc1ccc(O)c(C(=O)c2ccc(C(=O)N[C@@H]3CCCNC[C@H]3NC(=O)c3ccncc3)cc2)c1FREMARK SMILES IDX 15 1 16 2 17 3 14 5 11 6 12 7 35 8 13 9 34 10 9 11 10 12REMARK SMILES IDX 8 13 3 14 4 15 36 16 5 17 6 18 37 19 2 20 1 21 7 22 18 24REMARK SMILES IDX 19 25 24 27 23 28 22 29 21 31 20 32 25 34 26 35 27 37 28 38REMARK SMILES IDX 29 39 33 40 30 41 32 42 31 43REMARK H PARENT 17 4 7 23 22 30 25 36REMARK Flexibility Score:   88.900USER                              x       y       z     vdW  Elec       q    TypeUSER                           _______ _______ _______ _____ _____    ______ ____ROOTATOM      1  C   UNL     1      25.302  45.499  14.700 -0.20 +0.01    +0.251 C  ATOM      2  O   UNL     1      24.613  45.675  15.699 -0.77 -0.13    -0.269 OA ATOM      3  N   UNL     1      26.228  44.482  14.587 -0.11 +0.18    -0.347 N  ATOM      4  H   UNL     1      26.894  44.529  13.828 -0.36 -0.23    +0.164 HD ENDROOTBRANCH   1   5ATOM      5  C   UNL     1      25.221  46.449  13.555 -0.27 -0.00    +0.039 A  ATOM      6  C   UNL     1      25.114  48.338  11.486 -0.27 -0.01    +0.023 A  ATOM      7  C   UNL     1      24.749  48.702  12.786 -0.21 -0.00    +0.013 A  ATOM      8  C   UNL     1      25.532  47.029  11.219 -0.32 -0.01    +0.013 A  ATOM      9  C   UNL     1      24.791  47.757  13.815 -0.24 +0.00    +0.014 A  ATOM     10  C   UNL     1      25.575  46.081  12.251 -0.30 -0.00    +0.014 A  BRANCH   6  11ATOM     11  C   UNL     1      25.130  49.393  10.449 -0.22 -0.15    +0.199 C  ATOM     12  O   UNL     1      26.212  49.691   9.942 -0.25 +0.21    -0.288 OA BRANCH  11  13ATOM     13  C   UNL     1      23.918  50.082   9.948 -0.16 -0.08    +0.104 A  ATOM     14  C   UNL     1      21.755  51.156  10.302 -0.16 -0.04    +0.155 A  ATOM     15  C   UNL     1      21.647  51.396   8.930 -0.13 -0.02    +0.053 A  ATOM     16  C   UNL     1      22.895  50.502  10.799 -0.16 -0.07    +0.179 A  ATOM     17  C   UNL     1      22.678  51.006   8.070 -0.14 -0.04    +0.051 A  ATOM     18  C   UNL     1      23.807  50.369   8.579 -0.08 -0.15    +0.130 A  ATOM     19  F   UNL     1      22.998  50.312  12.125 -0.08 +0.03    -0.202 F  BRANCH  14  20ATOM     20  O   UNL     1      20.821  51.505  11.241 -0.66 -0.06    -0.494 OA ATOM     21  C   UNL     1      19.492  51.736  10.783 -0.15 +0.02    +0.278 C  ENDBRANCH  14  20BRANCH  18  22ATOM     22  O   UNL     1      24.778  50.051   7.667 +0.02 +0.81    -0.507 OA ATOM     23  H   UNL     1      25.246  49.249   8.002 -0.44 -0.63    +0.293 HD ENDBRANCH  18  22ENDBRANCH  11  13ENDBRANCH   6  11ENDBRANCH   1   5BRANCH   3  24ATOM     24  C   UNL     1      26.591  43.662  15.749 -0.26 -0.04    +0.106 C  BRANCH  24  25ATOM     25  C   UNL     1      28.055  43.217  15.633 -0.22 -0.02    +0.028 CG0ATOM     26  G   UNL     1      28.386  41.848  16.249 +0.00 +0.00    +0.000 G0 ENDBRANCH  24  25BRANCH  24  27ATOM     27  C   UNL     1      25.586  42.488  15.919 -0.29 -0.02    +0.118 C  BRANCH  27  28ATOM     28  C   UNL     1      25.759  41.329  14.909 -0.32 -0.04    +0.108 C  BRANCH  28  29ATOM     29  N   UNL     1      26.679  40.250  15.279 -0.61 -0.01    -0.315 NA ATOM     30  H   UNL     1      26.365  39.807  16.140 +0.06 +0.04    +0.122 HD BRANCH  29  31ATOM     31  C   UNL     1      28.086  40.615  15.398 -0.35 -0.01    +0.081 C  BRANCH  31  32ATOM     32  C   UNL     1      28.386  41.846  16.250 -0.31 -0.01    +0.017 CG0ATOM     33  G   UNL     1      28.054  43.215  15.635 +0.00 +0.00    +0.000 G0 ENDBRANCH  31  32ENDBRANCH  29  31ENDBRANCH  28  29ENDBRANCH  27  28BRANCH  27  34ATOM     34  N   UNL     1      25.618  41.991  17.301 -0.08 +0.03    -0.346 N  ATOM     35  C   UNL     1      25.244  42.784  18.361 -0.26 -0.03    +0.251 C  ATOM     36  H   UNL     1      25.650  40.992  17.429 +0.10 -0.01    +0.164 HD ATOM     37  O   UNL     1      24.948  43.968  18.252 -0.33 +0.03    -0.269 OA BRANCH  35  38ATOM     38  C   UNL     1      25.179  42.124  19.688 -0.38 -0.01    +0.042 A  ATOM     39  C   UNL     1      24.158  42.496  20.563 -0.35 -0.01    +0.034 A  ATOM     40  C   UNL     1      26.119  41.172  20.087 -0.30 -0.01    +0.034 A  ATOM     41  C   UNL     1      24.105  41.880  21.798 -0.53 -0.02    +0.112 A  ATOM     42  C   UNL     1      25.980  40.616  21.345 -0.32 -0.01    +0.112 A  ATOM     43  N   UNL     1      24.990  40.945  22.206 -0.83 +0.02    -0.265 NA ENDBRANCH  35  38ENDBRANCH  27  34ENDBRANCH  24  27ENDBRANCH   3  24TORSDOF 8TERENDMDL