MODEL        9USER    Run = 9USERUSER    Estimated Free Energy of Binding    =  -7.32 kcal/mol  [=(1)+(2)+(3)-(4)]USERUSER    (1) Final Intermolecular Energy     = -11.79 kcal/molUSER        vdW + Hbond + desolv Energy     = -11.71 kcal/molUSER        Electrostatic Energy            =  -0.32 kcal/molUSER        Moving Ligand-Fixed Receptor    = -12.03 kcal/molUSER        Moving Ligand-Moving Receptor   =  +0.24 kcal/molUSER    (2) Final Total Internal Energy     =  -3.48 kcal/molUSER    (3) Torsional Free Energy           =  +4.47 kcal/molUSER    (4) Unbound System's Energy         =  -3.48 kcal/molUSERUSERREMARK SMILES COc1ccc(O)c(C(=O)c2ccc(CN[C@@H]3CCCNC[C@H]3NC(=O)c3ccncc3)cc2)c1FREMARK SMILES IDX 16 1 15 3 14 4 11 5 12 6 34 7 13 8 33 9 9 10 10 11 8 12 3 13REMARK SMILES IDX 4 14 35 15 5 16 6 17 36 18 2 19 1 20 7 21 17 23 18 24 23 26REMARK SMILES IDX 22 27 21 28 20 30 19 31 24 33 25 34 26 36 27 37 28 38 32 39REMARK SMILES IDX 29 40 31 41 30 42REMARK H PARENT 16 2 7 22 21 29 24 35REMARK Flexibility Score:   99.900USER                              x       y       z     vdW  Elec       q    TypeUSER                           _______ _______ _______ _____ _____    ______ ____ROOTATOM      1  N   UNL     1      38.066  45.474  19.417 -0.07 +0.02    -0.308 NA ATOM      2  H   UNL     1      37.634  46.309  19.015 +0.10 -0.02    +0.123 HD ENDROOTBRANCH   1   3ATOM      3  C   UNL     1      37.550  44.296  18.716 -0.31 -0.02    +0.117 C  BRANCH   3   4ATOM      4  C   UNL     1      36.361  44.590  17.833 -0.30 +0.01    -0.034 A  ATOM      5  C   UNL     1      34.150  45.117  16.178 -0.31 -0.02    +0.023 A  ATOM      6  C   UNL     1      35.066  44.120  15.825 -0.32 -0.01    +0.012 A  ATOM      7  C   UNL     1      34.354  45.866  17.342 -0.38 -0.01    +0.012 A  ATOM      8  C   UNL     1      36.159  43.855  16.654 -0.36 -0.00    +0.006 A  ATOM      9  C   UNL     1      35.449  45.600  18.167 -0.34 -0.00    +0.006 A  BRANCH   5  10ATOM     10  C   UNL     1      32.997  45.463  15.311 -0.23 -0.18    +0.199 C  ATOM     11  O   UNL     1      33.182  46.189  14.333 -0.29 +0.31    -0.288 OA BRANCH  10  12ATOM     12  C   UNL     1      31.634  44.932  15.523 -0.31 -0.06    +0.104 A  ATOM     13  C   UNL     1      30.102  43.100  16.018 -0.20 -0.07    +0.155 A  ATOM     14  C   UNL     1      29.022  43.976  15.903 -0.24 -0.03    +0.053 A  ATOM     15  C   UNL     1      31.404  43.591  15.833 -0.22 -0.09    +0.179 A  ATOM     16  C   UNL     1      29.242  45.329  15.627 -0.14 -0.02    +0.051 A  ATOM     17  C   UNL     1      30.540  45.803  15.456 -0.35 -0.05    +0.130 A  ATOM     18  F   UNL     1      32.438  42.747  15.985 -0.06 +0.11    -0.202 F  BRANCH  13  19ATOM     19  O   UNL     1      30.012  41.764  16.305 -0.09 +0.17    -0.494 OA ATOM     20  C   UNL     1      28.957  41.036  15.691 -0.27 -0.08    +0.278 C  ENDBRANCH  13  19BRANCH  17  21ATOM     21  O   UNL     1      30.671  47.147  15.225 -0.60 +0.11    -0.507 OA ATOM     22  H   UNL     1      31.631  47.366  15.268 -0.35 -0.40    +0.293 HD ENDBRANCH  17  21ENDBRANCH  10  12ENDBRANCH   5  10ENDBRANCH   3   4ENDBRANCH   1   3BRANCH   1  23ATOM     23  C   UNL     1      39.544  45.624  19.329 -0.41 -0.00    +0.077 C  BRANCH  23  24ATOM     24  C   UNL     1      40.059  45.892  20.749 -0.27 +0.00    +0.022 CG0ATOM     25  G   UNL     1      41.575  45.810  20.920 +0.00 +0.00    +0.000 G0 ENDBRANCH  23  24BRANCH  23  26ATOM     26  C   UNL     1      39.904  46.754  18.313 -0.32 -0.01    +0.113 C  BRANCH  26  27ATOM     27  C   UNL     1      41.310  46.550  17.698 -0.38 -0.01    +0.107 C  BRANCH  27  28ATOM     28  N   UNL     1      42.433  46.273  18.589 -0.19 -0.04    -0.315 NA ATOM     29  H   UNL     1      43.285  46.664  18.180 -0.41 +0.01    +0.122 HD BRANCH  28  30ATOM     30  C   UNL     1      42.331  46.734  19.966 -0.43 +0.01    +0.081 C  BRANCH  30  31ATOM     31  C   UNL     1      41.577  45.810  20.919 -0.38 +0.00    +0.017 CG0ATOM     32  G   UNL     1      40.060  45.889  20.748 +0.00 +0.00    +0.000 G0 ENDBRANCH  30  31ENDBRANCH  28  30ENDBRANCH  27  28ENDBRANCH  26  27BRANCH  26  33ATOM     33  N   UNL     1      38.894  46.788  17.236 -0.20 +0.10    -0.346 N  ATOM     34  C   UNL     1      39.054  47.588  16.125 -0.34 -0.10    +0.251 C  ATOM     35  H   UNL     1      38.124  46.138  17.298 +0.10 -0.05    +0.164 HD ATOM     36  O   UNL     1      39.976  48.384  15.997 -0.38 +0.08    -0.269 OA BRANCH  34  37ATOM     37  C   UNL     1      38.020  47.473  15.064 -0.44 -0.02    +0.042 A  ATOM     38  C   UNL     1      37.584  46.196  14.708 -0.38 -0.01    +0.034 A  ATOM     39  C   UNL     1      37.459  48.591  14.446 -0.51 -0.02    +0.034 A  ATOM     40  C   UNL     1      36.623  46.088  13.722 -0.39 -0.05    +0.112 A  ATOM     41  C   UNL     1      36.500  48.375  13.472 -0.34 -0.06    +0.112 A  ATOM     42  N   UNL     1      36.079  47.151  13.091 -0.39 +0.15    -0.265 NA ENDBRANCH  34  37ENDBRANCH  26  33ENDBRANCH  23  26ENDBRANCH   1  23TORSDOF 9TERENDMDL