MODEL        10USER    Run = 10USERUSER    Estimated Free Energy of Binding    =  -6.95 kcal/mol  [=(1)+(2)+(3)-(4)]USERUSER    (1) Final Intermolecular Energy     = -11.43 kcal/molUSER        vdW + Hbond + desolv Energy     = -11.50 kcal/molUSER        Electrostatic Energy            =  -0.26 kcal/molUSER        Moving Ligand-Fixed Receptor    = -11.75 kcal/molUSER        Moving Ligand-Moving Receptor   =  +0.33 kcal/molUSER    (2) Final Total Internal Energy     =  -3.62 kcal/molUSER    (3) Torsional Free Energy           =  +4.47 kcal/molUSER    (4) Unbound System's Energy         =  -3.62 kcal/molUSERUSERREMARK SMILES COc1ccc(O)c(C(=O)c2ccc(CO[C@@H]3CCCNC[C@@H]3NC(=O)c3ccncc3)cc2)c1FREMARK SMILES IDX 16 1 15 2 14 3 11 4 12 5 34 6 13 7 33 8 9 9 10 10 8 11 3 12REMARK SMILES IDX 4 13 35 14 5 15 6 16 36 17 2 18 1 19 7 20 17 22 18 23 23 25REMARK SMILES IDX 22 26 21 27 20 29 19 30 24 32 25 33 26 35 27 36 28 37 32 38REMARK SMILES IDX 29 39 31 40 30 41REMARK H PARENT 7 21 21 28 24 34REMARK Flexibility Score:   99.900USER                              x       y       z     vdW  Elec       q    TypeUSER                           _______ _______ _______ _____ _____    ______ ____ROOTATOM      1  O   UNL     1      40.596  47.320  27.431 -0.54 -0.04    -0.371 OA ENDROOTBRANCH   1   2ATOM      2  C   UNL     1      41.945  47.720  27.199 -0.12 +0.02    +0.196 C  BRANCH   2   3ATOM      3  C   UNL     1      42.265  47.478  25.746 -0.13 -0.00    -0.022 A  ATOM      4  C   UNL     1      42.891  47.014  23.047 -0.23 +0.00    +0.023 A  ATOM      5  C   UNL     1      42.979  45.972  23.974 -0.10 +0.00    +0.012 A  ATOM      6  C   UNL     1      42.459  48.278  23.462 -0.36 +0.00    +0.012 A  ATOM      7  C   UNL     1      42.674  46.207  25.316 -0.06 +0.00    +0.007 A  ATOM      8  C   UNL     1      42.153  48.511  24.805 -0.32 +0.00    +0.007 A  BRANCH   4   9ATOM      9  C   UNL     1      43.172  46.804  21.606 -0.28 +0.06    +0.199 C  ATOM     10  O   UNL     1      44.318  46.989  21.186 -0.62 -0.23    -0.288 OA BRANCH   9  11ATOM     11  C   UNL     1      42.131  46.442  20.621 -0.31 +0.02    +0.104 A  ATOM     12  C   UNL     1      40.095  45.255  19.995 -0.30 +0.00    +0.155 A  ATOM     13  C   UNL     1      40.173  45.803  18.712 -0.42 -0.00    +0.053 A  ATOM     14  C   UNL     1      41.084  45.576  20.937 -0.23 +0.02    +0.179 A  ATOM     15  C   UNL     1      41.236  46.644  18.375 -0.49 -0.00    +0.051 A  ATOM     16  C   UNL     1      42.214  46.949  19.319 -0.41 +0.01    +0.130 A  ATOM     17  F   UNL     1      41.018  45.016  22.156 -0.03 -0.02    -0.202 F  BRANCH  12  18ATOM     18  O   UNL     1      39.114  44.409  20.436 -0.08 -0.00    -0.494 OA ATOM     19  C   UNL     1      38.296  44.859  21.509 -0.22 +0.01    +0.278 C  ENDBRANCH  12  18BRANCH  16  20ATOM     20  O   UNL     1      43.237  47.755  18.896 -0.29 -0.05    -0.507 OA ATOM     21  H   UNL     1      43.532  48.296  19.666 -0.41 -0.06    +0.293 HD ENDBRANCH  16  20ENDBRANCH   9  11ENDBRANCH   4   9ENDBRANCH   2   3ENDBRANCH   1   2BRANCH   1  22ATOM     22  C   UNL     1      39.630  48.106  26.700 -0.22 +0.01    +0.142 C  BRANCH  22  23ATOM     23  C   UNL     1      38.826  48.839  27.784 -0.21 -0.00    +0.035 CG0ATOM     24  G   UNL     1      37.429  49.352  27.457 +0.00 +0.00    +0.000 G0 ENDBRANCH  22  23BRANCH  22  25ATOM     25  C   UNL     1      38.818  47.179  25.765 -0.24 +0.01    +0.125 C  BRANCH  25  26ATOM     26  C   UNL     1      37.669  47.955  25.074 -0.39 +0.01    +0.108 C  BRANCH  26  27ATOM     27  N   UNL     1      36.364  47.921  25.731 -0.43 +0.02    -0.315 NA ATOM     28  H   UNL     1      35.965  46.990  25.606 -0.44 -0.03    +0.122 HD BRANCH  27  29ATOM     29  C   UNL     1      36.386  48.287  27.140 -0.36 -0.01    +0.081 C  BRANCH  29  30ATOM     30  C   UNL     1      37.429  49.350  27.454 -0.29 +0.00    +0.018 CG0ATOM     31  G   UNL     1      38.828  48.841  27.784 +0.00 +0.00    +0.000 G0 ENDBRANCH  29  30ENDBRANCH  27  29ENDBRANCH  26  27ENDBRANCH  25  26BRANCH  25  32ATOM     32  N   UNL     1      38.386  45.962  26.467 -0.09 +0.01    -0.345 N  ATOM     33  C   UNL     1      37.523  45.062  25.877 -0.22 -0.01    +0.251 C  ATOM     34  H   UNL     1      39.083  45.563  27.085 +0.05 -0.00    +0.164 HD ATOM     35  O   UNL     1      36.977  45.250  24.798 -0.63 -0.04    -0.269 OA BRANCH  33  36ATOM     36  C   UNL     1      37.302  43.786  26.610 -0.29 -0.00    +0.042 A  ATOM     37  C   UNL     1      38.402  43.162  27.199 -0.27 -0.00    +0.034 A  ATOM     38  C   UNL     1      36.045  43.187  26.692 -0.42 -0.01    +0.034 A  ATOM     39  C   UNL     1      38.193  41.967  27.863 -0.33 -0.02    +0.112 A  ATOM     40  C   UNL     1      35.942  41.990  27.378 -0.46 -0.03    +0.112 A  ATOM     41  N   UNL     1      36.986  41.372  27.969 -0.31 +0.09    -0.265 NA ENDBRANCH  33  36ENDBRANCH  25  32ENDBRANCH  22  25ENDBRANCH   1  22TORSDOF 9TERENDMDL