MODEL        4USER    Run = 4USERUSER    Estimated Free Energy of Binding    = -12.48 kcal/mol  [=(1)+(2)+(3)-(4)]USERUSER    (1) Final Intermolecular Energy     = -14.27 kcal/molUSER        vdW + Hbond + desolv Energy     = -14.16 kcal/molUSER        Electrostatic Energy            =  -0.12 kcal/molUSER        Moving Ligand-Fixed Receptor    = -14.27 kcal/molUSER        Moving Ligand-Moving Receptor   =  +0.00 kcal/molUSER    (2) Final Total Internal Energy     =  -1.93 kcal/molUSER    (3) Torsional Free Energy           =  +1.79 kcal/molUSER    (4) Unbound System's Energy         =  -1.93 kcal/molUSERUSERREMARK SMILES Oc1nc2ccccc2n1C1CCN(Cc2ccc(-c3cc4ccccc4nc3-c3ccccc3)cc2)CC1REMARK SMILES IDX 11 1 12 2 13 3 14 4 38 5 39 6 10 7 2 8 3 9 4 10 9 11 5 12REMARK SMILES IDX 8 13 6 14 7 15 1 16 15 18 16 19 17 20 37 21 18 22 36 23REMARK SMILES IDX 19 24 20 25 21 26 29 27 22 28 28 29 23 30 27 31 24 32 26 33REMARK SMILES IDX 25 34 30 35 31 36 35 37 32 38 34 39 33 40REMARK H PARENT 1 17USER                              x       y       z     vdW  Elec       q    TypeUSER                           _______ _______ _______ _____ _____    ______ ____ROOTATOM      1  C   UNL     1      31.240  39.883  17.390 -0.25 -0.01    +0.095 C  ATOM      2  C   UNL     1      32.420  40.733  17.886 -0.44 -0.01    +0.041 C  ATOM      3  C   UNL     1      32.049  42.151  18.306 -0.34 -0.01    +0.087 C  ATOM      4  N   UNL     1      31.164  42.843  17.366 -0.10 +0.08    -0.299 NA ATOM      5  C   UNL     1      29.921  42.091  17.175 -0.26 -0.02    +0.087 C  ATOM      6  C   UNL     1      30.119  40.659  16.684 -0.41 -0.01    +0.041 C  ENDROOTBRANCH   1   7ATOM      7  N   UNL     1      30.772  38.889  18.354 -0.22 -0.05    -0.291 N  ATOM      8  C   UNL     1      31.538  37.830  18.779 -0.28 +0.07    +0.295 A  ATOM      9  N   UNL     1      30.926  37.043  19.618 -0.63 -0.07    -0.195 NA ATOM     10  C   UNL     1      29.689  37.610  19.768 -0.31 +0.02    +0.092 A  ATOM     11  C   UNL     1      29.557  38.775  18.999 -0.31 +0.01    +0.072 A  ATOM     12  C   UNL     1      28.619  37.167  20.563 -0.30 -0.00    +0.031 A  ATOM     13  C   UNL     1      28.372  39.521  19.016 -0.23 +0.00    +0.029 A  ATOM     14  C   UNL     1      27.433  37.904  20.578 -0.29 -0.00    +0.002 A  ATOM     15  C   UNL     1      27.316  39.064  19.816 -0.26 -0.00    +0.002 A  BRANCH   8  16ATOM     16  O   UNL     1      32.777  37.592  18.399 -0.21 -0.04    -0.480 OA ATOM     17  H   UNL     1      32.833  38.138  17.594 +0.22 -0.03    +0.296 HD ENDBRANCH   8  16ENDBRANCH   1   7BRANCH   4  18ATOM     18  C   UNL     1      31.849  43.191  16.110 -0.31 -0.06    +0.120 C  BRANCH  18  19ATOM     19  C   UNL     1      33.241  43.745  16.323 -0.31 +0.02    -0.034 A  ATOM     20  C   UNL     1      34.373  42.945  16.125 -0.37 -0.00    +0.006 A  ATOM     21  C   UNL     1      33.418  45.076  16.726 -0.32 -0.00    +0.006 A  ATOM     22  C   UNL     1      35.655  43.466  16.327 -0.40 -0.00    +0.009 A  ATOM     23  C   UNL     1      34.699  45.591  16.936 -0.34 -0.01    +0.009 A  ATOM     24  C   UNL     1      35.836  44.793  16.745 -0.31 +0.01    -0.016 A  BRANCH  24  25ATOM     25  C   UNL     1      37.184  45.340  16.957 -0.35 -0.00    +0.009 A  ATOM     26  C   UNL     1      37.832  45.107  18.180 -0.36 -0.00    +0.021 A  ATOM     27  C   UNL     1      37.896  46.065  15.988 -0.32 -0.03    +0.079 A  ATOM     28  C   UNL     1      39.133  45.571  18.404 -0.42 -0.00    +0.001 A  ATOM     29  N   UNL     1      39.170  46.510  16.188 -0.24 +0.06    -0.247 NA ATOM     30  C   UNL     1      39.802  45.346  19.621 -0.40 -0.00    +0.010 A  ATOM     31  C   UNL     1      39.769  46.273  17.365 -0.41 -0.01    +0.071 A  ATOM     32  C   UNL     1      41.100  45.816  19.810 -0.42 +0.00    +0.001 A  ATOM     33  C   UNL     1      41.064  46.730  17.578 -0.47 -0.00    +0.029 A  ATOM     34  C   UNL     1      41.734  46.510  18.784 -0.52 +0.00    +0.002 A  BRANCH  27  35ATOM     35  C   UNL     1      37.355  46.422  14.663 -0.41 -0.00    +0.001 A  ATOM     36  C   UNL     1      37.128  45.428  13.694 -0.45 -0.00    +0.010 A  ATOM     37  C   UNL     1      37.071  47.754  14.315 -0.51 -0.01    +0.010 A  ATOM     38  C   UNL     1      36.612  45.751  12.436 -0.60 -0.00    +0.001 A  ATOM     39  C   UNL     1      36.557  48.079  13.057 -0.62 -0.00    +0.001 A  ATOM     40  C   UNL     1      36.323  47.076  12.119 -0.69 -0.00    +0.000 A  ENDBRANCH  27  35ENDBRANCH  24  25ENDBRANCH  18  19ENDBRANCH   4  18TORSDOF 6TERENDMDL