REMARK SMILES COc1ccc(O)c(C(=O)c2ccc(/C=C/[C@@H]3CCNC[C@H]3NC(=O)c3ccncc3)cc2)c1F
REMARK SMILES IDX 11 1 12 2 13 3 14 4 32 5 33 6 9 7 10 8 8 9 3 10 4 11 34 12
REMARK SMILES IDX 5 13 6 14 35 15 2 16 1 17 7 18 15 20 16 21 17 22 18 23 22 24
REMARK SMILES IDX 19 25 21 26 20 27 23 29 24 30 25 32 26 33 27 34 31 35 28 36
REMARK SMILES IDX 30 37 29 38
REMARK H PARENT 7 19 20 28 23 31
ROOT
ATOM      1  C   UNL     1       3.795  -0.790   1.835  1.00  0.00     0.023 A 
ATOM      2  C   UNL     1       3.326  -0.194   3.009  1.00  0.00     0.013 A 
ATOM      3  C   UNL     1       1.966   0.101   3.145  1.00  0.00     0.009 A 
ATOM      4  C   UNL     1       1.058  -0.205   2.119  1.00  0.00    -0.026 A 
ATOM      5  C   UNL     1       1.537  -0.835   0.961  1.00  0.00     0.009 A 
ATOM      6  C   UNL     1       2.898  -1.126   0.816  1.00  0.00     0.013 A 
ENDROOT
BRANCH   1   7
ATOM      7  C   UNL     1       5.231  -1.128   1.737  1.00  0.00     0.199 C 
ATOM      8  O   UNL     1       5.800  -1.606   2.719  1.00  0.00    -0.288 OA
BRANCH   7   9
ATOM      9  C   UNL     1       6.011  -0.973   0.491  1.00  0.00     0.104 A 
ATOM     10  C   UNL     1       6.491   0.184  -1.601  1.00  0.00     0.155 A 
ATOM     11  C   UNL     1       7.516  -0.729  -1.867  1.00  0.00     0.053 A 
ATOM     12  C   UNL     1       5.748   0.053  -0.419  1.00  0.00     0.179 A 
ATOM     13  C   UNL     1       7.806  -1.741  -0.949  1.00  0.00     0.051 A 
ATOM     14  C   UNL     1       7.069  -1.850   0.229  1.00  0.00     0.130 A 
ATOM     15  F   UNL     1       4.788   0.956  -0.159  1.00  0.00    -0.202 F 
BRANCH  10  16
ATOM     16  O   UNL     1       6.131   1.229  -2.410  1.00  0.00    -0.494 OA
ATOM     17  C   UNL     1       6.936   1.472  -3.556  1.00  0.00     0.278 C 
ENDBRANCH  10  16
BRANCH  14  18
ATOM     18  O   UNL     1       7.436  -2.848   1.094  1.00  0.00    -0.507 OA
ATOM     19  H   UNL     1       6.990  -2.690   1.955  1.00  0.00     0.293 HD
ENDBRANCH  14  18
ENDBRANCH   7   9
ENDBRANCH   1   7
BRANCH   4  20
ATOM     20  C   UNL     1      -0.370   0.091   2.331  1.00  0.00     0.004 C 
BRANCH  20  21
ATOM     21  C   UNL     1      -1.251   0.354   1.351  1.00  0.00    -0.021 C 
BRANCH  21  22
ATOM     22  C   UNL     1      -2.724   0.689   1.504  1.00  0.00     0.037 C 
ATOM     23  C   UNL     1      -3.212   0.915   2.946  1.00  0.00     0.025 C 
ATOM     24  C   UNL     1      -3.620  -0.344   0.756  1.00  0.00     0.103 C 
ATOM     25  C   UNL     1      -4.729   1.101   2.966  1.00  0.00     0.081 C 
ATOM     26  C   UNL     1      -4.633  -1.009   1.715  1.00  0.00     0.106 C 
ATOM     27  N   UNL     1      -5.466  -0.055   2.458  1.00  0.00    -0.315 NA
ATOM     28  H   UNL     1      -6.241   0.254   1.868  1.00  0.00     0.122 HD
BRANCH  24  29
ATOM     29  N   UNL     1      -4.322   0.295  -0.368  1.00  0.00    -0.347 N 
ATOM     30  C   UNL     1      -4.784  -0.447  -1.436  1.00  0.00     0.251 C 
ATOM     31  H   UNL     1      -4.549   1.272  -0.288  1.00  0.00     0.164 HD
ATOM     32  O   UNL     1      -4.554  -1.644  -1.571  1.00  0.00    -0.269 OA
BRANCH  30  33
ATOM     33  C   UNL     1      -5.578   0.274  -2.466  1.00  0.00     0.042 A 
ATOM     34  C   UNL     1      -5.599  -0.252  -3.760  1.00  0.00     0.034 A 
ATOM     35  C   UNL     1      -6.319   1.420  -2.179  1.00  0.00     0.034 A 
ATOM     36  C   UNL     1      -6.346   0.406  -4.719  1.00  0.00     0.112 A 
ATOM     37  C   UNL     1      -7.034   2.004  -3.211  1.00  0.00     0.112 A 
ATOM     38  N   UNL     1      -7.059   1.526  -4.473  1.00  0.00    -0.265 NA
ENDBRANCH  30  33
ENDBRANCH  24  29
ENDBRANCH  21  22
ENDBRANCH  20  21
ENDBRANCH   4  20
TORSDOF 9
