REMARK SMILES O=C(O)c1cccc(-c2c[nH]c3ccc(-c4nnc[nH]4)cc23)c1C(F)F
REMARK SMILES IDX 4 1 5 2 6 3 7 4 8 5 23 6 2 7 1 8 3 9 24 11 25 12 26 13 9 14
REMARK SMILES IDX 10 15 22 16 11 17 21 18 12 19 15 20 13 21 14 22 16 24 17 25
REMARK SMILES IDX 20 26 18 27 19 28
REMARK H PARENT 3 10 11 23 20 29
ROOT
ATOM      1  C   UNL     1      -3.155   1.120   0.345  1.00  0.00     0.069 A 
ATOM      2  C   UNL     1      -3.992   0.809  -0.742  1.00  0.00     0.016 A 
ATOM      3  C   UNL     1      -3.742  -0.307  -1.530  1.00  0.00     0.002 A 
ATOM      4  C   UNL     1      -2.643  -1.110  -1.250  1.00  0.00     0.009 A 
ATOM      5  C   UNL     1      -1.790  -0.822  -0.168  1.00  0.00    -0.006 A 
ATOM      6  C   UNL     1      -2.052   0.289   0.668  1.00  0.00     0.040 A 
ENDROOT
BRANCH   1   7
ATOM      7  C   UNL     1      -3.435   2.366   1.108  1.00  0.00     0.336 C 
ATOM      8  O   UNL     1      -2.631   3.014   1.749  1.00  0.00    -0.246 OA
BRANCH   7   9
ATOM      9  O   UNL     1      -4.729   2.725   1.049  1.00  0.00    -0.478 OA
ATOM     10  H   UNL     1      -4.785   3.542   1.589  1.00  0.00     0.297 HD
ENDBRANCH   7   9
ENDBRANCH   1   7
BRANCH   6  11
ATOM     11  C   UNL     1      -1.180   0.610   1.863  1.00  0.00     0.374 C 
ATOM     12  F   UNL     1      -0.603  -0.477   2.451  1.00  0.00    -0.205 F 
ATOM     13  F   UNL     1      -0.153   1.450   1.542  1.00  0.00    -0.205 F 
ENDBRANCH   6  11
BRANCH   5  14
ATOM     14  C   UNL     1      -0.634  -1.690   0.004  1.00  0.00     0.008 A 
ATOM     15  C   UNL     1      -0.745  -3.037   0.287  1.00  0.00     0.092 A 
ATOM     16  C   UNL     1       0.760  -1.395  -0.114  1.00  0.00     0.008 A 
ATOM     17  N   UNL     1       0.520  -3.559   0.360  1.00  0.00    -0.361 N 
ATOM     18  C   UNL     1       1.498  -0.225  -0.394  1.00  0.00     0.023 A 
ATOM     19  C   UNL     1       1.456  -2.581   0.112  1.00  0.00     0.046 A 
ATOM     20  C   UNL     1       2.902  -0.259  -0.404  1.00  0.00     0.020 A 
ATOM     21  C   UNL     1       2.851  -2.659   0.070  1.00  0.00     0.027 A 
ATOM     22  C   UNL     1       3.557  -1.478  -0.191  1.00  0.00     0.014 A 
ATOM     23  H   UNL     1       0.742  -4.524   0.564  1.00  0.00     0.166 HD
BRANCH  20  24
ATOM     24  C   UNL     1       3.686   0.955  -0.616  1.00  0.00     0.161 A 
ATOM     25  N   UNL     1       4.922   1.045  -1.073  1.00  0.00    -0.131 NA
ATOM     26  N   UNL     1       3.255   2.223  -0.311  1.00  0.00    -0.328 N 
ATOM     27  N   UNL     1       5.287   2.372  -1.089  1.00  0.00    -0.139 NA
ATOM     28  C   UNL     1       4.277   3.064  -0.622  1.00  0.00     0.223 A 
ATOM     29  H   UNL     1       2.368   2.469   0.102  1.00  0.00     0.169 HD
ENDBRANCH  20  24
ENDBRANCH   5  14
TORSDOF 5
