MODEL        7USER    Run = 7USERUSER    Estimated Free Energy of Binding    =  -8.39 kcal/mol  [=(1)+(2)+(3)-(4)]USERUSER    (1) Final Intermolecular Energy     = -11.07 kcal/molUSER        vdW + Hbond + desolv Energy     = -11.18 kcal/molUSER        Electrostatic Energy            =  +0.11 kcal/molUSER        Moving Ligand-Fixed Receptor    = -11.07 kcal/molUSER        Moving Ligand-Moving Receptor   =  +0.00 kcal/molUSER    (2) Final Total Internal Energy     =  -2.20 kcal/molUSER    (3) Torsional Free Energy           =  +2.68 kcal/molUSER    (4) Unbound System's Energy         =  -2.20 kcal/molUSERUSERREMARK SMILES COc1ccc(O)c(C(=O)c2ccc(/C=C/[C@@H]3CCNC[C@H]3NC(=O)c3ccncc3)cc2)c1FREMARK SMILES IDX 11 1 12 2 13 3 14 4 32 5 33 6 9 7 10 8 8 9 3 10 4 11 34 12REMARK SMILES IDX 5 13 6 14 35 15 2 16 1 17 7 18 15 20 16 21 17 22 18 23 22 24REMARK SMILES IDX 19 25 21 26 20 27 23 29 24 30 25 32 26 33 27 34 31 35 28 36REMARK SMILES IDX 30 37 29 38REMARK H PARENT 7 19 20 28 23 31USER                              x       y       z     vdW  Elec       q    TypeUSER                           _______ _______ _______ _____ _____    ______ ____ROOTATOM      1  C   UNL     1      15.885 -13.090  -8.294 -0.38 -0.01    +0.023 A  ATOM      2  C   UNL     1      17.122 -13.560  -8.745 -0.35 -0.00    +0.013 A  ATOM      3  C   UNL     1      17.258 -14.011 -10.061 -0.38 -0.00    +0.009 A  ATOM      4  C   UNL     1      16.168 -13.986 -10.946 -0.38 +0.01    -0.026 A  ATOM      5  C   UNL     1      14.942 -13.479 -10.491 -0.33 -0.00    +0.009 A  ATOM      6  C   UNL     1      14.798 -13.034  -9.172 -0.36 -0.01    +0.013 A  ENDROOTBRANCH   1   7ATOM      7  C   UNL     1      15.782 -12.582  -6.910 -0.28 -0.08    +0.199 C  ATOM      8  O   UNL     1      14.694 -12.172  -6.504 -0.28 +0.21    -0.288 OA BRANCH   7   9ATOM      9  C   UNL     1      16.916 -12.594  -5.962 -0.37 -0.01    +0.104 A  ATOM     10  C   UNL     1      18.807 -13.713  -4.904 -0.41 +0.04    +0.155 A  ATOM     11  C   UNL     1      19.051 -12.569  -4.138 -0.45 +0.01    +0.053 A  ATOM     12  C   UNL     1      17.739 -13.712  -5.813 -0.30 +0.00    +0.179 A  ATOM     13  C   UNL     1      18.252 -11.436  -4.301 -0.46 +0.01    +0.051 A  ATOM     14  C   UNL     1      17.203 -11.444  -5.219 -0.39 -0.00    +0.130 A  ATOM     15  F   UNL     1      17.535 -14.805  -6.567 -0.13 +0.00    -0.202 F  BRANCH  10  16ATOM     16  O   UNL     1      19.534 -14.872  -4.852 -0.19 -0.22    -0.494 OA ATOM     17  C   UNL     1      19.798 -15.418  -3.566 -0.40 +0.24    +0.278 C  ENDBRANCH  10  16BRANCH  14  18ATOM     18  O   UNL     1      16.486 -10.282  -5.344 -0.11 +0.12    -0.507 OA ATOM     19  H   UNL     1      15.531 -10.500  -5.274 -0.21 -0.15    +0.293 HD ENDBRANCH  14  18ENDBRANCH   7   9ENDBRANCH   1   7BRANCH   4  20ATOM     20  C   UNL     1      16.378 -14.435 -12.334 -0.50 -0.00    +0.004 C  BRANCH  20  21ATOM     21  C   UNL     1      15.771 -15.495 -12.895 -0.45 +0.01    -0.021 C  BRANCH  21  22ATOM     22  C   UNL     1      14.352 -15.977 -12.654 -0.33 -0.01    +0.037 C  ATOM     23  C   UNL     1      14.197 -17.481 -12.366 -0.40 -0.01    +0.025 C  ATOM     24  C   UNL     1      13.395 -15.514 -13.794 -0.25 -0.03    +0.103 C  ATOM     25  C   UNL     1      12.716 -17.852 -12.285 -0.42 -0.01    +0.081 C  ATOM     26  C   UNL     1      12.693 -16.718 -14.462 -0.23 -0.02    +0.106 C  ATOM     27  N   UNL     1      11.980 -17.590 -13.520 -0.14 +0.03    -0.315 NA ATOM     28  H   UNL     1      11.065 -17.187 -13.306 +0.07 +0.00    +0.122 HD BRANCH  24  29ATOM     29  N   UNL     1      12.400 -14.560 -13.281 -0.04 +0.11    -0.347 N  ATOM     30  C   UNL     1      12.681 -13.211 -13.198 -0.24 -0.12    +0.251 C  ATOM     31  H   UNL     1      11.473 -14.901 -13.092 +0.12 -0.03    +0.164 HD ATOM     32  O   UNL     1      13.787 -12.740 -13.438 -0.21 +0.15    -0.269 OA BRANCH  30  33ATOM     33  C   UNL     1      11.572 -12.316 -12.773 -0.36 -0.02    +0.042 A  ATOM     34  C   UNL     1      11.798 -11.468 -11.686 -0.41 -0.02    +0.034 A  ATOM     35  C   UNL     1      10.346 -12.269 -13.436 -0.27 -0.02    +0.034 A  ATOM     36  C   UNL     1      10.776 -10.623 -11.295 -0.38 -0.03    +0.112 A  ATOM     37  C   UNL     1       9.388 -11.388 -12.965 -0.21 -0.05    +0.112 A  ATOM     38  N   UNL     1       9.574 -10.570 -11.908 -0.35 +0.04    -0.265 NA ENDBRANCH  30  33ENDBRANCH  24  29ENDBRANCH  21  22ENDBRANCH  20  21ENDBRANCH   4  20TORSDOF 9TERENDMDL