REMARK SMILES C=C1N=C(Nc2cccc(-c3ccncc3)c2)NC=C1C
REMARK SMILES IDX 1 1 2 2 3 3 4 4 5 5 18 6 19 7 20 8 21 9 6 12 7 13 17 14 8 15
REMARK SMILES IDX 10 16 9 17 11 18 12 19 16 20 13 21 15 22 14 23
REMARK H PARENT 5 10 18 11
ROOT
ATOM      1  C   UNL     1       4.543  -0.965  -1.576  1.00  0.00     0.039 C 
ATOM      2  C   UNL     1       3.969  -0.625  -0.413  1.00  0.00     0.064 C 
ATOM      3  N   UNL     1       2.612  -0.355  -0.425  1.00  0.00    -0.215 NA
ATOM      4  C   UNL     1       2.011  -0.079   0.697  1.00  0.00     0.205 C 
ATOM      5  N   UNL     1       0.672   0.192   0.854  1.00  0.00    -0.326 N 
ATOM      6  N   UNL     1       2.661  -0.045   1.911  1.00  0.00    -0.332 N 
ATOM      7  C   UNL     1       4.018  -0.215   1.962  1.00  0.00     0.091 C 
ATOM      8  C   UNL     1       4.712  -0.514   0.852  1.00  0.00    -0.010 C 
ATOM      9  C   UNL     1       6.198  -0.711   0.889  1.00  0.00     0.048 C 
ATOM     10  H   UNL     1       0.292  -0.156   1.722  1.00  0.00     0.170 HD
ATOM     11  H   UNL     1       2.250   0.497   2.657  1.00  0.00     0.169 HD
ENDROOT
BRANCH   5  12
ATOM     12  C   UNL     1      -0.308   0.340  -0.151  1.00  0.00     0.041 A 
ATOM     13  C   UNL     1      -0.011   0.669  -1.476  1.00  0.00     0.026 A 
ATOM     14  C   UNL     1      -1.665   0.240   0.210  1.00  0.00     0.034 A 
ATOM     15  C   UNL     1      -1.025   0.845  -2.421  1.00  0.00     0.003 A 
ATOM     16  C   UNL     1      -2.705   0.413  -0.724  1.00  0.00    -0.016 A 
ATOM     17  C   UNL     1      -2.361   0.711  -2.048  1.00  0.00     0.009 A 
BRANCH  16  18
ATOM     18  C   UNL     1      -4.112   0.285  -0.319  1.00  0.00    -0.015 A 
ATOM     19  C   UNL     1      -4.649   1.085   0.696  1.00  0.00     0.029 A 
ATOM     20  C   UNL     1      -4.960  -0.642  -0.936  1.00  0.00     0.029 A 
ATOM     21  C   UNL     1      -5.981   0.926   1.043  1.00  0.00     0.111 A 
ATOM     22  C   UNL     1      -6.278  -0.730  -0.518  1.00  0.00     0.111 A 
ATOM     23  N   UNL     1      -6.808   0.035   0.460  1.00  0.00    -0.265 NA
ENDBRANCH  16  18
ENDBRANCH   5  12
TORSDOF 2
