MODEL        6USER    Run = 6USERUSER    Estimated Free Energy of Binding    =  -8.37 kcal/mol  [=(1)+(2)+(3)-(4)]USERUSER    (1) Final Intermolecular Energy     = -10.16 kcal/molUSER        vdW + Hbond + desolv Energy     = -10.09 kcal/molUSER        Electrostatic Energy            =  -0.07 kcal/molUSER        Moving Ligand-Fixed Receptor    = -10.16 kcal/molUSER        Moving Ligand-Moving Receptor   =  +0.00 kcal/molUSER    (2) Final Total Internal Energy     =  -1.22 kcal/molUSER    (3) Torsional Free Energy           =  +1.79 kcal/molUSER    (4) Unbound System's Energy         =  -1.22 kcal/molUSERUSERREMARK SMILES COc1c(C(=O)O)ccc(Nc2cc(-c3cnc4cccnn34)ccn2)c1CREMARK SMILES IDX 3 1 4 2 8 3 9 4 10 5 27 6 28 7 2 8 1 9 5 10 6 11 7 12 11 14REMARK SMILES IDX 12 16 13 17 26 18 14 19 25 20 24 21 15 22 16 23 23 24 17 25REMARK SMILES IDX 22 26 18 27 21 28 19 29 20 30REMARK H PARENT 7 13 11 15USER                              x       y       z     vdW  Elec       q    TypeUSER                           _______ _______ _______ _____ _____    ______ ____ROOTATOM      1  C   UNL     1      13.983 -16.596 -11.573 -0.23 -0.03    +0.138 A  ATOM      2  C   UNL     1      14.887 -16.219 -12.576 -0.27 -0.03    +0.102 A  ATOM      3  C   UNL     1      15.473 -14.954 -12.525 -0.40 -0.01    +0.022 A  ATOM      4  C   UNL     1      15.141 -14.067 -11.498 -0.32 -0.01    +0.027 A  ATOM      5  C   UNL     1      14.231 -14.417 -10.487 -0.29 -0.02    +0.046 A  ATOM      6  C   UNL     1      13.600 -15.684 -10.559 -0.36 -0.01    +0.015 A  ATOM      7  C   UNL     1      12.556 -16.083  -9.546 -0.54 -0.02    +0.051 C  ENDROOTBRANCH   1   8ATOM      8  O   UNL     1      13.417 -17.850 -11.562 -0.13 +0.10    -0.495 OA ATOM      9  C   UNL     1      12.247 -17.875 -12.383 -0.31 -0.03    +0.278 C  ENDBRANCH   1   8BRANCH   2  10ATOM     10  C   UNL     1      15.280 -17.084 -13.711 -0.22 -0.10    +0.339 C  ATOM     11  O   UNL     1      15.319 -16.738 -14.878 -0.28 +0.08    -0.246 OA BRANCH  10  12ATOM     12  O   UNL     1      15.529 -18.355 -13.355 -0.16 +0.13    -0.478 OA ATOM     13  H   UNL     1      14.651 -18.720 -13.125 -0.30 -0.11    +0.297 HD ENDBRANCH  10  12ENDBRANCH   2  10BRANCH   5  14ATOM     14  N   UNL     1      13.858 -13.480  -9.490 -0.11 +0.31    -0.340 N  ATOM     15  H   UNL     1      13.344 -13.911  -8.732 +0.05 -0.26    +0.168 HD BRANCH  14  16ATOM     16  C   UNL     1      14.612 -12.404  -8.954 -0.23 -0.08    +0.130 A  ATOM     17  C   UNL     1      15.371 -12.661  -7.810 -0.35 -0.03    +0.057 A  ATOM     18  N   UNL     1      14.594 -11.181  -9.520 -0.20 +0.11    -0.239 NA ATOM     19  C   UNL     1      16.144 -11.646  -7.234 -0.46 -0.00    +0.007 A  ATOM     20  C   UNL     1      15.341 -10.209  -8.956 -0.49 -0.04    +0.114 A  ATOM     21  C   UNL     1      16.120 -10.388  -7.829 -0.54 -0.01    +0.030 A  BRANCH  19  22ATOM     22  C   UNL     1      16.928 -11.914  -6.026 -0.39 -0.01    +0.093 A  ATOM     23  C   UNL     1      16.955 -11.239  -4.815 -0.42 -0.01    +0.142 A  ATOM     24  N   UNL     1      17.818 -12.959  -5.846 -0.29 -0.00    -0.213 N  ATOM     25  N   UNL     1      17.816 -11.817  -3.919 -0.77 -0.07    -0.235 NA ATOM     26  N   UNL     1      18.128 -13.933  -6.762 -0.29 -0.00    -0.175 NA ATOM     27  C   UNL     1      18.323 -12.848  -4.556 -0.37 +0.03    +0.154 A  ATOM     28  C   UNL     1      18.986 -14.795  -6.317 -0.36 +0.02    +0.134 A  ATOM     29  C   UNL     1      19.260 -13.819  -4.136 -0.54 +0.02    +0.051 A  ATOM     30  C   UNL     1      19.614 -14.798  -4.975 -0.53 +0.01    +0.026 A  ENDBRANCH  19  22ENDBRANCH  14  16ENDBRANCH   5  14TORSDOF 6TERENDMDL