MODEL        3USER    Run = 3USERUSER    Estimated Free Energy of Binding    =  -7.82 kcal/mol  [=(1)+(2)+(3)-(4)]USERUSER    (1) Final Intermolecular Energy     =  -8.42 kcal/molUSER        vdW + Hbond + desolv Energy     =  -8.44 kcal/molUSER        Electrostatic Energy            =  +0.02 kcal/molUSER        Moving Ligand-Fixed Receptor    =  -8.42 kcal/molUSER        Moving Ligand-Moving Receptor   =  +0.00 kcal/molUSER    (2) Final Total Internal Energy     =  -0.58 kcal/molUSER    (3) Torsional Free Energy           =  +0.60 kcal/molUSER    (4) Unbound System's Energy         =  -0.58 kcal/molUSERUSERREMARK SMILES C=C1N=C(Nc2cccc(-c3ccncc3)c2)NC=C1CREMARK SMILES IDX 1 1 2 2 3 3 4 4 5 5 18 6 19 7 20 8 21 9 6 12 7 13 17 14 8 15REMARK SMILES IDX 10 16 9 17 11 18 12 19 16 20 13 21 15 22 14 23REMARK H PARENT 5 10 18 11USER                              x       y       z     vdW  Elec       q    TypeUSER                           _______ _______ _______ _____ _____    ______ ____ROOTATOM      1  C   UNL     1      15.896 -15.860 -10.407 -0.36 -0.01    +0.039 C  ATOM      2  C   UNL     1      16.530 -16.659  -9.537 -0.37 -0.00    +0.064 C  ATOM      3  N   UNL     1      17.095 -16.067  -8.422 -0.25 +0.01    -0.215 NA ATOM      4  C   UNL     1      17.668 -16.821  -7.527 -0.30 +0.02    +0.205 C  ATOM      5  N   UNL     1      18.256 -16.390  -6.361 -0.21 -0.06    -0.326 N  ATOM      6  N   UNL     1      17.738 -18.193  -7.631 -0.18 -0.05    -0.332 N  ATOM      7  C   UNL     1      17.275 -18.815  -8.758 -0.40 +0.01    +0.091 C  ATOM      8  C   UNL     1      16.661 -18.112  -9.724 -0.45 -0.00    -0.010 C  ATOM      9  C   UNL     1      16.140 -18.777 -10.963 -0.43 -0.00    +0.048 C  ATOM     10  H   UNL     1      18.139 -17.034  -5.592 +0.07 +0.05    +0.170 HD ATOM     11  H   UNL     1      18.466 -18.673  -7.122 +0.09 +0.03    +0.169 HD ENDROOTBRANCH   5  12ATOM     12  C   UNL     1      18.467 -15.062  -5.934 -0.43 +0.01    +0.041 A  ATOM     13  C   UNL     1      19.366 -14.710  -4.923 -0.53 +0.01    +0.026 A  ATOM     14  C   UNL     1      17.672 -14.040  -6.488 -0.39 -0.00    +0.034 A  ATOM     15  C   UNL     1      19.504 -13.382  -4.510 -0.58 +0.00    +0.003 A  ATOM     16  C   UNL     1      17.793 -12.695  -6.088 -0.42 +0.00    -0.016 A  ATOM     17  C   UNL     1      18.728 -12.382  -5.094 -0.44 +0.00    +0.009 A  BRANCH  16  18ATOM     18  C   UNL     1      16.960 -11.649  -6.699 -0.42 +0.00    -0.015 A  ATOM     19  C   UNL     1      16.125 -10.841  -5.918 -0.52 -0.01    +0.029 A  ATOM     20  C   UNL     1      16.976 -11.428  -8.081 -0.41 -0.01    +0.029 A  ATOM     21  C   UNL     1      15.358  -9.870  -6.540 -0.54 -0.04    +0.111 A  ATOM     22  C   UNL     1      16.170 -10.433  -8.611 -0.48 -0.03    +0.111 A  ATOM     23  N   UNL     1      15.360  -9.648  -7.870 -0.47 +0.09    -0.265 NA ENDBRANCH  16  18ENDBRANCH   5  12TORSDOF 2TERENDMDL