REMARK SMILES COc1c(C(=O)O)ccc(Nc2cc(-c3cnc4cccnn34)ccn2)c1C
REMARK SMILES IDX 3 1 4 2 8 3 9 4 10 5 27 6 28 7 2 8 1 9 5 10 6 11 7 12 11 14
REMARK SMILES IDX 12 16 13 17 26 18 14 19 25 20 24 21 15 22 16 23 23 24 17 25
REMARK SMILES IDX 22 26 18 27 21 28 19 29 20 30
REMARK H PARENT 7 13 11 15
ROOT
ATOM      1  C   UNL     1      -4.550  -0.292   0.001  1.00  0.00     0.138 A 
ATOM      2  C   UNL     1      -4.829   1.019  -0.411  1.00  0.00     0.102 A 
ATOM      3  C   UNL     1      -3.780   1.928  -0.547  1.00  0.00     0.022 A 
ATOM      4  C   UNL     1      -2.471   1.540  -0.251  1.00  0.00     0.027 A 
ATOM      5  C   UNL     1      -2.166   0.237   0.173  1.00  0.00     0.046 A 
ATOM      6  C   UNL     1      -3.234  -0.678   0.355  1.00  0.00     0.015 A 
ATOM      7  C   UNL     1      -2.976  -2.067   0.884  1.00  0.00     0.051 C 
ENDROOT
BRANCH   1   8
ATOM      8  O   UNL     1      -5.549  -1.231   0.105  1.00  0.00    -0.495 OA
ATOM      9  C   UNL     1      -5.799  -1.835  -1.166  1.00  0.00     0.278 C 
ENDBRANCH   1   8
BRANCH   2  10
ATOM     10  C   UNL     1      -6.185   1.522  -0.725  1.00  0.00     0.339 C 
ATOM     11  O   UNL     1      -6.442   2.382  -1.549  1.00  0.00    -0.246 OA
BRANCH  10  12
ATOM     12  O   UNL     1      -7.146   0.994   0.050  1.00  0.00    -0.478 OA
ATOM     13  H   UNL     1      -7.965   1.449  -0.233  1.00  0.00     0.297 HD
ENDBRANCH  10  12
ENDBRANCH   2  10
BRANCH   5  14
ATOM     14  N   UNL     1      -0.841  -0.119   0.531  1.00  0.00    -0.340 N 
ATOM     15  H   UNL     1      -0.728  -1.120   0.634  1.00  0.00     0.168 HD
BRANCH  14  16
ATOM     16  C   UNL     1       0.383   0.415   0.053  1.00  0.00     0.130 A 
ATOM     17  C   UNL     1       1.547   0.065   0.741  1.00  0.00     0.057 A 
ATOM     18  N   UNL     1       0.424   1.232  -1.018  1.00  0.00    -0.239 NA
ATOM     19  C   UNL     1       2.790   0.551   0.317  1.00  0.00     0.007 A 
ATOM     20  C   UNL     1       1.626   1.697  -1.418  1.00  0.00     0.114 A 
ATOM     21  C   UNL     1       2.820   1.391  -0.792  1.00  0.00     0.030 A 
BRANCH  19  22
ATOM     22  C   UNL     1       4.008   0.195   1.049  1.00  0.00     0.093 A 
ATOM     23  C   UNL     1       4.212   0.027   2.410  1.00  0.00     0.142 A 
ATOM     24  N   UNL     1       5.245  -0.078   0.490  1.00  0.00    -0.213 N 
ATOM     25  N   UNL     1       5.503  -0.327   2.700  1.00  0.00    -0.235 NA
ATOM     26  N   UNL     1       5.556  -0.067  -0.847  1.00  0.00    -0.175 NA
ATOM     27  C   UNL     1       6.107  -0.386   1.535  1.00  0.00     0.154 A 
ATOM     28  C   UNL     1       6.791  -0.376  -1.084  1.00  0.00     0.134 A 
ATOM     29  C   UNL     1       7.443  -0.708   1.207  1.00  0.00     0.051 A 
ATOM     30  C   UNL     1       7.822  -0.715  -0.076  1.00  0.00     0.026 A 
ENDBRANCH  19  22
ENDBRANCH  14  16
ENDBRANCH   5  14
TORSDOF 6
