MODEL        8USER    Run = 8USERUSER    Estimated Free Energy of Binding    =  -7.51 kcal/mol  [=(1)+(2)+(3)-(4)]USERUSER    (1) Final Intermolecular Energy     =  -9.01 kcal/molUSER        vdW + Hbond + desolv Energy     =  -8.93 kcal/molUSER        Electrostatic Energy            =  -0.07 kcal/molUSER        Moving Ligand-Fixed Receptor    =  -9.01 kcal/molUSER        Moving Ligand-Moving Receptor   =  +0.00 kcal/molUSER    (2) Final Total Internal Energy     =  -1.27 kcal/molUSER    (3) Torsional Free Energy           =  +1.49 kcal/molUSER    (4) Unbound System's Energy         =  -1.27 kcal/molUSERUSERREMARK SMILES CNC(=O)c1ccc(C(F)(F)F)cc1NC1=N/C(=C\c2ccc3c(c2)OCO3)C(=O)N1CREMARK SMILES IDX 5 1 6 2 7 3 8 4 13 5 14 6 3 7 2 8 1 9 4 11 15 12 16 13 17 14REMARK SMILES IDX 31 15 18 16 29 17 32 19 30 20 19 21 20 22 21 23 25 24 22 25REMARK SMILES IDX 24 26 23 27 26 28 28 29 27 30 9 31 10 32 11 33 12 34REMARK H PARENT 2 10 15 18USER                              x       y       z     vdW  Elec       q    TypeUSER                           _______ _______ _______ _____ _____    ______ ____ROOTATOM      1  C   UNL     1       4.683   3.354  -7.397 -0.42 -0.01    +0.063 A  ATOM      2  C   UNL     1       5.242   4.416  -8.129 -0.53 -0.00    +0.016 A  ATOM      3  C   UNL     1       4.499   5.061  -9.116 -0.52 -0.00    +0.014 A  ATOM      4  C   UNL     1       3.189   4.655  -9.391 -0.32 -0.01    +0.058 A  ATOM      5  C   UNL     1       2.644   3.574  -8.671 -0.25 -0.01    +0.040 A  ATOM      6  C   UNL     1       3.373   2.892  -7.684 -0.30 -0.01    +0.054 A  ENDROOTBRANCH   1   7ATOM      7  C   UNL     1       5.488   2.690  -6.323 -0.45 -0.04    +0.253 C  ATOM      8  N   UNL     1       6.377   3.484  -5.629 -0.33 +0.01    -0.355 N  ATOM      9  C   UNL     1       7.104   2.960  -4.500 -0.72 -0.01    +0.143 C  ATOM     10  H   UNL     1       6.288   4.490  -5.696 +0.09 +0.01    +0.163 HD ATOM     11  O   UNL     1       5.302   1.503  -6.064 -0.61 +0.03    -0.269 OA ENDBRANCH   1   7BRANCH   6  12ATOM     12  N   UNL     1       2.829   1.816  -6.944 -0.15 +0.03    -0.325 N  ATOM     13  C   UNL     1       1.771   1.776  -6.082 -0.31 +0.01    +0.210 C  ATOM     14  N   UNL     1       1.075   2.789  -5.654 -0.28 +0.01    -0.209 NA ATOM     15  N   UNL     1       1.361   0.575  -5.567 -0.25 -0.07    -0.280 N  ATOM     16  C   UNL     1       0.131   2.262  -4.807 -0.35 +0.01    +0.133 C  ATOM     17  C   UNL     1       0.301   0.788  -4.734 -0.21 +0.09    +0.279 C  ATOM     18  H   UNL     1       3.279   0.929  -7.175 +0.10 -0.01    +0.170 HD ATOM     19  C   UNL     1       1.911  -0.736  -5.832 -0.37 +0.03    +0.157 C  ATOM     20  O   UNL     1      -0.356  -0.006  -4.086 -0.10 -0.11    -0.267 OA BRANCH  16  21ATOM     21  C   UNL     1      -0.831   2.906  -4.137 -0.26 -0.00    +0.042 C  BRANCH  21  22ATOM     22  C   UNL     1      -1.643   2.351  -3.042 -0.32 +0.00    -0.019 A  ATOM     23  C   UNL     1      -1.095   2.337  -1.739 -0.35 -0.00    +0.012 A  ATOM     24  C   UNL     1      -2.953   1.886  -3.239 -0.22 +0.00    +0.058 A  ATOM     25  C   UNL     1      -1.823   1.840  -0.651 -0.31 -0.01    +0.051 A  ATOM     26  C   UNL     1      -3.647   1.403  -2.151 -0.19 +0.00    +0.166 A  ATOM     27  C   UNL     1      -3.096   1.377  -0.892 -0.22 -0.01    +0.165 A  ATOM     28  O   UNL     1      -4.916   0.913  -2.171 -0.09 +0.01    -0.454 OA ATOM     29  O   UNL     1      -3.945   0.861   0.037 -0.14 +0.05    -0.454 OA ATOM     30  C   UNL     1      -5.088   0.548  -0.787 -0.08 -0.07    +0.468 C  ENDBRANCH  21  22ENDBRANCH  16  21ENDBRANCH   6  12BRANCH   4  31ATOM     31  C   UNL     1       2.359   5.341 -10.452 -0.15 -0.03    +0.416 C  ATOM     32  F   UNL     1       1.017   5.217 -10.243 -0.07 +0.01    -0.166 F  ATOM     33  F   UNL     1       2.600   6.678 -10.517 -0.14 +0.00    -0.166 F  ATOM     34  F   UNL     1       2.586   4.848 -11.699 -0.10 +0.02    -0.166 F  ENDBRANCH   4  31TORSDOF 5TERENDMDL