REMARK SMILES CNC(=O)c1ccc(C(F)(F)F)cc1NC1=N/C(=C\c2ccc3c(c2)OCO3)C(=O)N1C
REMARK SMILES IDX 5 1 6 2 7 3 8 4 13 5 14 6 3 7 2 8 1 9 4 11 15 12 16 13 17 14
REMARK SMILES IDX 31 15 18 16 29 17 32 19 30 20 19 21 20 22 21 23 25 24 22 25
REMARK SMILES IDX 24 26 23 27 26 28 28 29 27 30 9 31 10 32 11 33 12 34
REMARK H PARENT 2 10 15 18
ROOT
ATOM      1  C   UNL     1      -3.278   0.309  -0.614  1.00  0.00     0.063 A 
ATOM      2  C   UNL     1      -3.696  -0.331  -1.793  1.00  0.00     0.016 A 
ATOM      3  C   UNL     1      -2.758  -0.838  -2.691  1.00  0.00     0.014 A 
ATOM      4  C   UNL     1      -1.390  -0.711  -2.429  1.00  0.00     0.058 A 
ATOM      5  C   UNL     1      -0.978  -0.046  -1.258  1.00  0.00     0.040 A 
ATOM      6  C   UNL     1      -1.897   0.492  -0.343  1.00  0.00     0.054 A 
ENDROOT
BRANCH   1   7
ATOM      7  C   UNL     1      -4.300   0.825   0.351  1.00  0.00     0.253 C 
ATOM      8  N   UNL     1      -5.507   0.158   0.396  1.00  0.00    -0.355 N 
ATOM      9  C   UNL     1      -6.503   0.507   1.378  1.00  0.00     0.143 C 
ATOM     10  H   UNL     1      -5.573  -0.760  -0.025  1.00  0.00     0.163 HD
ATOM     11  O   UNL     1      -4.024   1.768   1.090  1.00  0.00    -0.269 OA
ENDBRANCH   1   7
BRANCH   6  12
ATOM     12  N   UNL     1      -1.494   1.147   0.844  1.00  0.00    -0.325 N 
ATOM     13  C   UNL     1      -0.259   1.280   1.410  1.00  0.00     0.210 C 
ATOM     14  N   UNL     1       0.844   0.712   1.016  1.00  0.00    -0.209 NA
ATOM     15  N   UNL     1      -0.102   2.067   2.519  1.00  0.00    -0.280 N 
ATOM     16  C   UNL     1       1.814   1.134   1.892  1.00  0.00     0.133 C 
ATOM     17  C   UNL     1       1.208   2.039   2.902  1.00  0.00     0.279 C 
ATOM     18  H   UNL     1      -2.266   1.653   1.281  1.00  0.00     0.170 HD
ATOM     19  C   UNL     1      -1.114   2.835   3.210  1.00  0.00     0.157 C 
ATOM     20  O   UNL     1       1.764   2.601   3.827  1.00  0.00    -0.267 OA
BRANCH  16  21
ATOM     21  C   UNL     1       3.119   0.837   1.888  1.00  0.00     0.042 C 
BRANCH  21  22
ATOM     22  C   UNL     1       3.805  -0.032   0.919  1.00  0.00    -0.019 A 
ATOM     23  C   UNL     1       5.124   0.301   0.534  1.00  0.00     0.012 A 
ATOM     24  C   UNL     1       3.217  -1.200   0.409  1.00  0.00     0.058 A 
ATOM     25  C   UNL     1       5.839  -0.495  -0.369  1.00  0.00     0.051 A 
ATOM     26  C   UNL     1       3.943  -1.965  -0.478  1.00  0.00     0.166 A 
ATOM     27  C   UNL     1       5.218  -1.621  -0.860  1.00  0.00     0.165 A 
ATOM     28  O   UNL     1       3.520  -3.117  -1.066  1.00  0.00    -0.454 OA
ATOM     29  O   UNL     1       5.754  -2.507  -1.741  1.00  0.00    -0.454 OA
ATOM     30  C   UNL     1       4.662  -3.439  -1.884  1.00  0.00     0.468 C 
ENDBRANCH  21  22
ENDBRANCH  16  21
ENDBRANCH   6  12
BRANCH   4  31
ATOM     31  C   UNL     1      -0.352  -1.257  -3.383  1.00  0.00     0.416 C 
ATOM     32  F   UNL     1      -0.896  -1.937  -4.432  1.00  0.00    -0.166 F 
ATOM     33  F   UNL     1       0.414  -0.278  -3.935  1.00  0.00    -0.166 F 
ATOM     34  F   UNL     1       0.507  -2.126  -2.786  1.00  0.00    -0.166 F 
ENDBRANCH   4  31
TORSDOF 5
