REMARK SMILES COCCNCc1ccccc1C=Cc1cncc(-c2cccc(O)c2C#N)n1
REMARK SMILES IDX 7 1 8 2 9 3 10 4 11 5 12 6 6 7 5 8 4 10 3 11 2 12 1 13 13 14
REMARK SMILES IDX 14 15 15 16 16 17 29 18 17 19 19 20 18 21 20 22 21 23 26 24
REMARK SMILES IDX 22 25 24 26 23 27 27 28 28 29 25 30
REMARK H PARENT 5 9 25 31
ROOT
ATOM      1  C   UNL     1      -2.415   0.342  -1.457  1.00  0.00    -0.027 A 
ATOM      2  C   UNL     1      -3.015  -0.336  -2.537  1.00  0.00     0.005 A 
ATOM      3  C   UNL     1      -2.722  -1.673  -2.802  1.00  0.00     0.000 A 
ATOM      4  C   UNL     1      -1.825  -2.359  -1.991  1.00  0.00     0.001 A 
ATOM      5  C   UNL     1      -1.220  -1.707  -0.918  1.00  0.00     0.008 A 
ATOM      6  C   UNL     1      -1.499  -0.357  -0.646  1.00  0.00    -0.021 A 
ENDROOT
BRANCH   1   7
ATOM      7  C   UNL     1      -2.765   1.800  -1.238  1.00  0.00     0.117 C 
BRANCH   7   8
ATOM      8  N   UNL     1      -4.197   2.030  -1.003  1.00  0.00    -0.310 NA
ATOM      9  H   UNL     1      -4.366   3.035  -1.042  1.00  0.00     0.123 HD
BRANCH   8  10
ATOM     10  C   UNL     1      -4.618   1.536   0.315  1.00  0.00     0.109 C 
BRANCH  10  11
ATOM     11  C   UNL     1      -6.109   1.813   0.562  1.00  0.00     0.175 C 
BRANCH  11  12
ATOM     12  O   UNL     1      -6.500   1.471   1.895  1.00  0.00    -0.383 OA
ATOM     13  C   UNL     1      -6.724   0.077   2.066  1.00  0.00     0.194 C 
ENDBRANCH  11  12
ENDBRANCH  10  11
ENDBRANCH   8  10
ENDBRANCH   7   8
ENDBRANCH   1   7
BRANCH   6  14
ATOM     14  C   UNL     1      -0.835   0.275   0.501  1.00  0.00     0.011 C 
BRANCH  14  15
ATOM     15  C   UNL     1       0.481   0.510   0.640  1.00  0.00     0.030 C 
BRANCH  15  16
ATOM     16  C   UNL     1       1.575   0.240  -0.296  1.00  0.00     0.082 A 
ATOM     17  C   UNL     1       1.503   0.436  -1.672  1.00  0.00     0.139 A 
ATOM     18  N   UNL     1       2.734  -0.145   0.294  1.00  0.00    -0.245 NA
ATOM     19  N   UNL     1       2.557   0.236  -2.504  1.00  0.00    -0.260 NA
ATOM     20  C   UNL     1       3.803  -0.336  -0.518  1.00  0.00     0.091 A 
ATOM     21  C   UNL     1       3.701  -0.150  -1.895  1.00  0.00     0.140 A 
BRANCH  20  22
ATOM     22  C   UNL     1       5.045  -0.753   0.144  1.00  0.00     0.023 A 
ATOM     23  C   UNL     1       5.670  -1.956  -0.247  1.00  0.00     0.012 A 
ATOM     24  C   UNL     1       5.638   0.004   1.180  1.00  0.00     0.103 A 
ATOM     25  C   UNL     1       6.844  -2.397   0.366  1.00  0.00     0.005 A 
ATOM     26  C   UNL     1       6.820  -0.453   1.785  1.00  0.00     0.134 A 
ATOM     27  C   UNL     1       7.422  -1.645   1.384  1.00  0.00     0.047 A 
BRANCH  24  28
ATOM     28  C   UNL     1       5.069   1.257   1.602  1.00  0.00     0.104 C 
ATOM     29  N   UNL     1       4.622   2.283   1.917  1.00  0.00    -0.192 NA
ENDBRANCH  24  28
BRANCH  26  30
ATOM     30  O   UNL     1       7.396   0.286   2.782  1.00  0.00    -0.507 OA
ATOM     31  H   UNL     1       8.186  -0.170   3.118  1.00  0.00     0.293 HD
ENDBRANCH  26  30
ENDBRANCH  20  22
ENDBRANCH  15  16
ENDBRANCH  14  15
ENDBRANCH   6  14
TORSDOF 11
