MODEL        6USER    Run = 6USERUSER    Estimated Free Energy of Binding    =  -7.76 kcal/mol  [=(1)+(2)+(3)-(4)]USERUSER    (1) Final Intermolecular Energy     =  -9.25 kcal/molUSER        vdW + Hbond + desolv Energy     =  -8.53 kcal/molUSER        Electrostatic Energy            =  -0.72 kcal/molUSER        Moving Ligand-Fixed Receptor    =  -9.25 kcal/molUSER        Moving Ligand-Moving Receptor   =  +0.00 kcal/molUSER    (2) Final Total Internal Energy     =  -1.01 kcal/molUSER    (3) Torsional Free Energy           =  +1.49 kcal/molUSER    (4) Unbound System's Energy         =  -1.01 kcal/molUSERUSERREMARK SMILES O=C(O)c1cccc(-c2c[nH]c3ccc(-c4nnc[nH]4)cc23)c1C(F)FREMARK SMILES IDX 4 1 5 2 6 3 7 4 8 5 23 6 2 7 1 8 3 9 24 11 25 12 26 13 9 14REMARK SMILES IDX 10 15 22 16 11 17 21 18 12 19 15 20 13 21 14 22 16 24 17 25REMARK SMILES IDX 20 26 18 27 19 28REMARK H PARENT 3 10 11 23 20 29USER                              x       y       z     vdW  Elec       q    TypeUSER                           _______ _______ _______ _____ _____    ______ ____ROOTATOM      1  C   UNL     1      17.147  -0.005   0.844 -0.18 +0.01    +0.069 A  ATOM      2  C   UNL     1      17.465   1.316   1.210 -0.28 -0.00    +0.016 A  ATOM      3  C   UNL     1      16.472   2.191   1.631 -0.39 -0.00    +0.002 A  ATOM      4  C   UNL     1      15.152   1.760   1.671 -0.37 +0.00    +0.009 A  ATOM      5  C   UNL     1      14.806   0.444   1.311 -0.27 -0.00    -0.006 A  ATOM      6  C   UNL     1      15.810  -0.472   0.917 -0.20 +0.01    +0.040 A  ENDROOTBRANCH   1   7ATOM      7  C   UNL     1      18.244  -0.872   0.336 -0.10 +0.22    +0.336 C  ATOM      8  O   UNL     1      18.385  -2.059   0.558 -0.51 -0.31    -0.246 OA BRANCH   7   9ATOM      9  O   UNL     1      19.132  -0.193  -0.410 -0.10 -0.30    -0.478 OA ATOM     10  H   UNL     1      18.593   0.238  -1.107 -0.33 -0.37    +0.297 HD ENDBRANCH   7   9ENDBRANCH   1   7BRANCH   6  11ATOM     11  C   UNL     1      15.484  -1.906   0.559 -0.08 +0.07    +0.374 C  ATOM     12  F   UNL     1      15.115  -2.684   1.616 -0.03 +0.10    -0.205 F  ATOM     13  F   UNL     1      14.462  -1.993  -0.343 -0.08 -0.04    -0.205 F  ENDBRANCH   6  11BRANCH   5  14ATOM     14  C   UNL     1      13.390   0.110   1.331 -0.33 +0.00    +0.008 A  ATOM     15  C   UNL     1      12.477   0.666   0.456 -0.45 +0.01    +0.092 A  ATOM     16  C   UNL     1      12.678  -0.821   2.151 -0.29 -0.00    +0.008 A  ATOM     17  N   UNL     1      11.248   0.122   0.726 -0.18 +0.04    -0.361 N  ATOM     18  C   UNL     1      13.046  -1.689   3.201 -0.24 -0.00    +0.023 A  ATOM     19  C   UNL     1      11.344  -0.792   1.750 -0.42 -0.01    +0.046 A  ATOM     20  C   UNL     1      12.075  -2.473   3.845 -0.37 -0.00    +0.020 A  ATOM     21  C   UNL     1      10.359  -1.589   2.342 -0.56 -0.00    +0.027 A  ATOM     22  C   UNL     1      10.751  -2.426   3.394 -0.57 -0.00    +0.014 A  ATOM     23  H   UNL     1      10.390   0.354   0.245 -0.45 -0.05    +0.166 HD BRANCH  20  24ATOM     24  C   UNL     1      12.421  -3.321   4.983 -0.29 +0.00    +0.161 A  ATOM     25  N   UNL     1      11.618  -3.749   5.941 -0.36 -0.05    -0.131 NA ATOM     26  N   UNL     1      13.688  -3.771   5.262 -0.09 +0.10    -0.328 N  ATOM     27  N   UNL     1      12.357  -4.497   6.829 -0.80 -0.11    -0.139 NA ATOM     28  C   UNL     1      13.598  -4.493   6.410 -0.19 +0.07    +0.223 A  ATOM     29  H   UNL     1      14.524  -3.565   4.736 -0.03 -0.10    +0.169 HD ENDBRANCH  20  24ENDBRANCH   5  14TORSDOF 5TERENDMDL