REMARK SMILES Cn1cncc1C=Nc1ccc(C#N)c(-c2ccc(C(=O)N3CCNCC3)c(F)c2)n1
REMARK SMILES IDX 9 1 10 2 11 3 12 4 15 5 31 6 8 7 7 8 6 9 2 10 3 11 4 12 5 13
REMARK SMILES IDX 1 14 16 15 17 16 30 17 18 18 28 19 19 20 29 21 20 22 22 23
REMARK SMILES IDX 23 24 27 25 24 26 26 27 25 28 21 29 13 31 14 32
REMARK H PARENT 25 30
ROOT
ATOM      1  C   UNL     1       3.762  -1.852  -0.026  1.00  0.00     0.152 A 
ATOM      2  C   UNL     1       4.096  -2.115   1.294  1.00  0.00     0.050 A 
ATOM      3  C   UNL     1       3.144  -1.890   2.283  1.00  0.00     0.025 A 
ATOM      4  C   UNL     1       1.870  -1.445   1.921  1.00  0.00     0.078 A 
ATOM      5  C   UNL     1       1.599  -1.236   0.564  1.00  0.00     0.091 A 
ATOM      6  N   UNL     1       2.543  -1.410  -0.400  1.00  0.00    -0.227 NA
ENDROOT
BRANCH   1   7
ATOM      7  N   UNL     1       4.636  -2.127  -1.074  1.00  0.00    -0.235 NA
BRANCH   7   8
ATOM      8  C   UNL     1       5.693  -1.404  -1.275  1.00  0.00     0.141 C 
BRANCH   8   9
ATOM      9  C   UNL     1       6.100  -0.228  -0.558  1.00  0.00     0.079 A 
ATOM     10  N   UNL     1       5.430   0.965  -0.433  1.00  0.00    -0.333 N 
ATOM     11  C   UNL     1       6.197   1.798   0.334  1.00  0.00     0.199 A 
ATOM     12  N   UNL     1       7.329   1.229   0.678  1.00  0.00    -0.245 NA
ATOM     13  C   UNL     1       7.291  -0.015   0.109  1.00  0.00     0.140 A 
ATOM     14  C   UNL     1       4.189   1.353  -1.056  1.00  0.00     0.151 C 
ENDBRANCH   8   9
ENDBRANCH   7   8
ENDBRANCH   1   7
BRANCH   5  15
ATOM     15  C   UNL     1       0.283  -0.819   0.046  1.00  0.00     0.005 A 
ATOM     16  C   UNL     1       0.147   0.367  -0.699  1.00  0.00     0.011 A 
ATOM     17  C   UNL     1      -0.865  -1.605   0.250  1.00  0.00     0.050 A 
ATOM     18  C   UNL     1      -1.098   0.778  -1.186  1.00  0.00     0.017 A 
ATOM     19  C   UNL     1      -2.106  -1.196  -0.239  1.00  0.00     0.136 A 
ATOM     20  C   UNL     1      -2.233   0.004  -0.931  1.00  0.00     0.075 A 
ATOM     21  F   UNL     1      -3.166  -1.990  -0.033  1.00  0.00    -0.206 F 
BRANCH  20  22
ATOM     22  C   UNL     1      -3.531   0.449  -1.471  1.00  0.00     0.256 C 
ATOM     23  N   UNL     1      -4.607   0.619  -0.610  1.00  0.00    -0.336 N 
ATOM     24  C   UNL     1      -4.534   0.598   0.857  1.00  0.00     0.135 C 
ATOM     25  C   UNL     1      -5.900   1.001  -1.181  1.00  0.00     0.135 C 
ATOM     26  C   UNL     1      -5.604   1.496   1.506  1.00  0.00     0.102 C 
ATOM     27  C   UNL     1      -7.068   0.630  -0.254  1.00  0.00     0.102 C 
ATOM     28  N   UNL     1      -6.989   1.210   1.100  1.00  0.00    -0.313 NA
ATOM     29  O   UNL     1      -3.587   0.684  -2.676  1.00  0.00    -0.269 OA
ATOM     30  H   UNL     1      -7.414   0.556   1.756  1.00  0.00     0.122 HD
ENDBRANCH  20  22
ENDBRANCH   5  15
BRANCH   4  31
ATOM     31  C   UNL     1       0.893  -1.200   2.937  1.00  0.00     0.101 C 
ATOM     32  N   UNL     1       0.100  -1.002   3.760  1.00  0.00    -0.192 NA
ENDBRANCH   4  31
TORSDOF 6
