MODEL        4USER    Run = 4USERUSER    Estimated Free Energy of Binding    =  -8.65 kcal/mol  [=(1)+(2)+(3)-(4)]USERUSER    (1) Final Intermolecular Energy     = -10.44 kcal/molUSER        vdW + Hbond + desolv Energy     =  -9.52 kcal/molUSER        Electrostatic Energy            =  -0.92 kcal/molUSER        Moving Ligand-Fixed Receptor    = -10.44 kcal/molUSER        Moving Ligand-Moving Receptor   =  +0.00 kcal/molUSER    (2) Final Total Internal Energy     =  -0.84 kcal/molUSER    (3) Torsional Free Energy           =  +1.79 kcal/molUSER    (4) Unbound System's Energy         =  -0.84 kcal/molUSERUSERREMARK SMILES COc1ccc(O)c(C(=O)c2ccc(C(=O)N[C@@H]3CCNC3)cc2)c1FREMARK SMILES IDX 11 1 12 2 13 3 14 4 23 5 24 6 9 7 10 8 8 9 3 10 4 11 25 12REMARK SMILES IDX 5 13 6 14 26 15 2 16 1 17 7 18 15 20 17 21 16 22 18 24 19 25REMARK SMILES IDX 22 26 20 27 21 28REMARK H PARENT 7 19 17 23 21 29USER                              x       y       z     vdW  Elec       q    TypeUSER                           _______ _______ _______ _____ _____    ______ ____ROOTATOM      1  C   UNL     1      27.396  36.351  20.730 -0.31 -0.01    +0.023 A  ATOM      2  C   UNL     1      27.092  35.068  20.256 -0.29 -0.01    +0.013 A  ATOM      3  C   UNL     1      27.328  33.951  21.064 -0.37 -0.01    +0.014 A  ATOM      4  C   UNL     1      27.858  34.112  22.351 -0.39 -0.00    +0.039 A  ATOM      5  C   UNL     1      28.118  35.399  22.837 -0.33 +0.00    +0.014 A  ATOM      6  C   UNL     1      27.887  36.516  22.030 -0.33 -0.00    +0.013 A  ENDROOTBRANCH   1   7ATOM      7  C   UNL     1      27.140  37.563  19.915 -0.23 -0.05    +0.199 C  ATOM      8  O   UNL     1      27.984  37.910  19.086 -0.15 -0.07    -0.288 OA BRANCH   7   9ATOM      9  C   UNL     1      25.942  38.415  20.080 -0.22 -0.06    +0.104 A  ATOM     10  C   UNL     1      24.626  40.043  21.333 -0.31 -0.05    +0.155 A  ATOM     11  C   UNL     1      23.652  40.023  20.333 -0.32 -0.02    +0.053 A  ATOM     12  C   UNL     1      25.762  39.231  21.199 -0.24 -0.07    +0.179 A  ATOM     13  C   UNL     1      23.806  39.187  19.224 -0.33 -0.03    +0.051 A  ATOM     14  C   UNL     1      24.935  38.380  19.108 -0.21 -0.09    +0.130 A  ATOM     15  F   UNL     1      26.673  39.234  22.186 +0.01 +0.04    -0.202 F  BRANCH  10  16ATOM     16  O   UNL     1      24.581  40.808  22.469 -0.68 +0.06    -0.494 OA ATOM     17  C   UNL     1      24.159  42.159  22.327 -0.51 -0.06    +0.278 C  ENDBRANCH  10  16BRANCH  14  18ATOM     18  O   UNL     1      24.991  37.571  18.005 -0.39 +0.15    -0.507 OA ATOM     19  H   UNL     1      24.522  36.732  18.221 -0.34 -0.44    +0.293 HD ENDBRANCH  14  18ENDBRANCH   7   9ENDBRANCH   1   7BRANCH   4  20ATOM     20  C   UNL     1      28.122  32.950  23.243 -0.31 +0.10    +0.251 C  ATOM     21  N   UNL     1      29.179  32.135  22.887 -0.18 -0.05    -0.348 N  ATOM     22  O   UNL     1      27.445  32.775  24.248 -0.75 -0.30    -0.269 OA ATOM     23  H   UNL     1      29.846  32.486  22.215 +0.11 +0.00    +0.164 HD BRANCH  21  24ATOM     24  C   UNL     1      29.591  31.034  23.759 -0.52 +0.03    +0.097 C  ATOM     25  C   UNL     1      31.029  31.211  24.227 -0.56 +0.02    +0.041 C  ATOM     26  C   UNL     1      29.674  29.700  23.014 -0.51 -0.02    +0.105 C  ATOM     27  C   UNL     1      31.876  30.481  23.189 -0.61 +0.01    +0.083 C  ATOM     28  N   UNL     1      30.958  29.774  22.287 -0.27 +0.03    -0.315 NA ATOM     29  H   UNL     1      30.796  30.363  21.468 +0.01 -0.02    +0.122 HD ENDBRANCH  21  24ENDBRANCH   4  20TORSDOF 6TERENDMDL