MODEL        2USER    Run = 2USERUSER    Estimated Free Energy of Binding    =  -8.67 kcal/mol  [=(1)+(2)+(3)-(4)]USERUSER    (1) Final Intermolecular Energy     =  -9.87 kcal/molUSER        vdW + Hbond + desolv Energy     =  -9.64 kcal/molUSER        Electrostatic Energy            =  -0.23 kcal/molUSER        Moving Ligand-Fixed Receptor    =  -9.87 kcal/molUSER        Moving Ligand-Moving Receptor   =  +0.00 kcal/molUSER    (2) Final Total Internal Energy     =  -0.95 kcal/molUSER    (3) Torsional Free Energy           =  +1.19 kcal/molUSER    (4) Unbound System's Energy         =  -0.95 kcal/molUSERUSERREMARK SMILES Nc1ccc(-c2cnc3cnc(-c4cccs4)cn23)cc1OREMARK SMILES IDX 2 1 3 2 4 3 5 4 20 5 21 6 1 7 22 10 6 12 7 13 19 14 8 15REMARK SMILES IDX 18 16 9 17 12 18 10 19 11 20 13 21 14 22 17 23 15 24 16 25REMARK H PARENT 1 8 1 9 22 11USER                              x       y       z     vdW  Elec       q    TypeUSER                           _______ _______ _______ _____ _____    ______ ____ROOTATOM      1  C   UNL     1      35.907  47.007  13.732 -0.44 -0.05    +0.074 A  ATOM      2  C   UNL     1      36.102  46.746  15.089 -0.35 -0.03    +0.030 A  ATOM      3  C   UNL     1      37.302  47.093  15.719 -0.41 -0.01    +0.013 A  ATOM      4  C   UNL     1      38.350  47.667  14.990 -0.49 -0.00    +0.004 A  ATOM      5  C   UNL     1      38.181  47.881  13.619 -0.42 -0.02    +0.058 A  ATOM      6  C   UNL     1      36.984  47.522  13.001 -0.50 -0.05    +0.139 A  ENDROOTBRANCH   1   7ATOM      7  N   UNL     1      34.726  46.565  13.118 -0.08 +0.31    -0.396 N  ATOM      8  H   UNL     1      34.795  46.570  12.103 -0.22 -0.14    +0.156 HD ATOM      9  H   UNL     1      33.881  47.016  13.450 -0.29 -0.16    +0.156 HD ENDBRANCH   1   7BRANCH   6  10ATOM     10  O   UNL     1      36.916  47.673  11.643 -0.78 +0.16    -0.506 OA ATOM     11  H   UNL     1      36.266  48.373  11.475 -0.17 -0.17    +0.293 HD ENDBRANCH   6  10BRANCH   4  12ATOM     12  C   UNL     1      39.591  48.031  15.660 -0.47 -0.02    +0.073 A  ATOM     13  C   UNL     1      40.561  48.959  15.305 -0.50 -0.04    +0.140 A  ATOM     14  N   UNL     1      40.051  47.511  16.855 -0.29 +0.07    -0.296 N  ATOM     15  N   UNL     1      41.589  49.006  16.215 -0.88 -0.02    -0.235 NA ATOM     16  C   UNL     1      39.539  46.581  17.746 -0.36 -0.02    +0.123 A  ATOM     17  C   UNL     1      41.247  48.123  17.122 -0.37 -0.01    +0.155 A  ATOM     18  C   UNL     1      40.249  46.282  18.855 -0.36 -0.01    +0.097 A  ATOM     19  C   UNL     1      41.948  47.760  18.318 -0.37 -0.00    +0.159 A  ATOM     20  N   UNL     1      41.475  46.876  19.154 -0.30 -0.01    -0.250 NA BRANCH  18  21ATOM     21  C   UNL     1      39.790  45.331  19.834 -0.36 -0.00    +0.054 A  ATOM     22  C   UNL     1      38.493  44.867  20.027 -0.34 -0.00    +0.022 A  ATOM     23  S   UNL     1      40.834  44.596  21.005 -0.39 -0.01    -0.142 S  ATOM     24  C   UNL     1      38.365  43.930  21.091 -0.31 +0.00    +0.012 A  ATOM     25  C   UNL     1      39.569  43.693  21.706 -0.18 +0.00    +0.065 A  ENDBRANCH  18  21ENDBRANCH   4  12TORSDOF 4TERENDMDL