MODEL        10USER    Run = 10USERUSER    Estimated Free Energy of Binding    =  -9.17 kcal/mol  [=(1)+(2)+(3)-(4)]USERUSER    (1) Final Intermolecular Energy     = -10.06 kcal/molUSER        vdW + Hbond + desolv Energy     =  -9.92 kcal/molUSER        Electrostatic Energy            =  -0.14 kcal/molUSER        Moving Ligand-Fixed Receptor    = -10.06 kcal/molUSER        Moving Ligand-Moving Receptor   =  +0.00 kcal/molUSER    (2) Final Total Internal Energy     =  -0.53 kcal/molUSER    (3) Torsional Free Energy           =  +0.89 kcal/molUSER    (4) Unbound System's Energy         =  -0.53 kcal/molUSERUSERREMARK SMILES FC(F)(F)c1cccc(-n2nnc3cc(-c4cn[nH]c4)cnc32)c1REMARK SMILES IDX 10 1 11 2 12 3 13 4 14 5 15 6 21 7 22 8 23 9 9 10 5 11 6 12REMARK SMILES IDX 24 13 7 14 8 15 2 16 1 17 3 18 4 19 16 20 17 21 20 22 18 23REMARK SMILES IDX 19 24REMARK H PARENT 19 25USER                              x       y       z     vdW  Elec       q    TypeUSER                           _______ _______ _______ _____ _____    ______ ____ROOTATOM      1  N   UNL     1      41.199  47.555  17.827 -0.41 +0.02    -0.194 N  ATOM      2  N   UNL     1      41.869  48.698  17.493 -0.74 -0.01    -0.060 NA ATOM      3  N   UNL     1      41.350  49.191  16.376 -1.06 +0.00    -0.128 NA ATOM      4  C   UNL     1      40.341  48.366  15.984 -0.46 -0.03    +0.133 A  ATOM      5  C   UNL     1      39.476  48.425  14.883 -0.51 -0.02    +0.044 A  ATOM      6  C   UNL     1      38.517  47.412  14.749 -0.48 -0.00    +0.006 A  ATOM      7  C   UNL     1      38.494  46.407  15.720 -0.32 -0.04    +0.122 A  ATOM      8  N   UNL     1      39.310  46.305  16.803 -0.26 +0.05    -0.234 NA ATOM      9  C   UNL     1      40.210  47.313  16.880 -0.37 -0.04    +0.183 A  ENDROOTBRANCH   1  10ATOM     10  C   UNL     1      41.555  46.818  18.993 -0.43 +0.00    +0.069 A  ATOM     11  C   UNL     1      42.875  46.530  21.028 -0.32 +0.02    +0.058 A  ATOM     12  C   UNL     1      42.215  45.317  21.273 -0.28 +0.00    +0.013 A  ATOM     13  C   UNL     1      42.541  47.272  19.880 -0.39 +0.01    +0.041 A  ATOM     14  C   UNL     1      41.233  44.859  20.396 -0.36 +0.00    +0.003 A  ATOM     15  C   UNL     1      40.902  45.604  19.263 -0.43 +0.00    +0.028 A  BRANCH  11  16ATOM     16  C   UNL     1      43.952  47.027  21.962 -0.16 +0.18    +0.416 C  ATOM     17  F   UNL     1      44.327  46.108  22.896 -0.04 -0.07    -0.166 F  ATOM     18  F   UNL     1      43.574  48.133  22.663 -0.14 -0.04    -0.166 F  ATOM     19  F   UNL     1      45.091  47.373  21.301 -0.10 -0.18    -0.166 F  ENDBRANCH  11  16ENDBRANCH   1  10BRANCH   6  20ATOM     20  C   UNL     1      37.594  47.417  13.628 -0.52 -0.01    +0.021 A  ATOM     21  C   UNL     1      37.277  46.409  12.687 -0.44 -0.05    +0.143 A  ATOM     22  C   UNL     1      36.819  48.488  13.234 -0.38 -0.05    +0.114 A  ATOM     23  N   UNL     1      36.377  46.807  11.785 -0.58 +0.08    -0.184 NA ATOM     24  N   UNL     1      36.116  48.075  12.137 -0.39 +0.14    -0.285 N  ATOM     25  H   UNL     1      35.449  48.601  11.581 -0.34 -0.13    +0.189 HD ENDBRANCH   6  20TORSDOF 3TERENDMDL