REMARK SMILES FC(F)(F)c1cccc(-n2nnc3cc(-c4cn[nH]c4)cnc32)c1
REMARK SMILES IDX 10 1 11 2 12 3 13 4 14 5 15 6 21 7 22 8 23 9 9 10 5 11 6 12
REMARK SMILES IDX 24 13 7 14 8 15 2 16 1 17 3 18 4 19 16 20 17 21 20 22 18 23
REMARK SMILES IDX 19 24
REMARK H PARENT 19 25
ROOT
ATOM      1  N   UNL     1      -0.938  -1.465   0.519  1.00  0.00    -0.194 N 
ATOM      2  N   UNL     1      -0.623  -2.715   0.973  1.00  0.00    -0.060 NA
ATOM      3  N   UNL     1       0.697  -2.836   1.024  1.00  0.00    -0.128 NA
ATOM      4  C   UNL     1       1.241  -1.661   0.603  1.00  0.00     0.133 A 
ATOM      5  C   UNL     1       2.576  -1.259   0.466  1.00  0.00     0.044 A 
ATOM      6  C   UNL     1       2.825   0.040   0.003  1.00  0.00     0.006 A 
ATOM      7  C   UNL     1       1.722   0.845  -0.297  1.00  0.00     0.122 A 
ATOM      8  N   UNL     1       0.411   0.502  -0.181  1.00  0.00    -0.234 NA
ATOM      9  C   UNL     1       0.236  -0.761   0.273  1.00  0.00     0.183 A 
ENDROOT
BRANCH   1  10
ATOM     10  C   UNL     1      -2.297  -1.067   0.368  1.00  0.00     0.069 A 
ATOM     11  C   UNL     1      -3.994   0.581  -0.242  1.00  0.00     0.058 A 
ATOM     12  C   UNL     1      -4.996  -0.340   0.096  1.00  0.00     0.013 A 
ATOM     13  C   UNL     1      -2.644   0.209  -0.097  1.00  0.00     0.041 A 
ATOM     14  C   UNL     1      -4.659  -1.611   0.558  1.00  0.00     0.003 A 
ATOM     15  C   UNL     1      -3.318  -1.975   0.693  1.00  0.00     0.028 A 
BRANCH  11  16
ATOM     16  C   UNL     1      -4.348   1.966  -0.728  1.00  0.00     0.416 C 
ATOM     17  F   UNL     1      -5.643   2.084  -1.135  1.00  0.00    -0.166 F 
ATOM     18  F   UNL     1      -3.590   2.364  -1.788  1.00  0.00    -0.166 F 
ATOM     19  F   UNL     1      -4.172   2.913   0.235  1.00  0.00    -0.166 F 
ENDBRANCH  11  16
ENDBRANCH   1  10
BRANCH   6  20
ATOM     20  C   UNL     1       4.188   0.513  -0.162  1.00  0.00     0.021 A 
ATOM     21  C   UNL     1       5.392  -0.197  -0.383  1.00  0.00     0.143 A 
ATOM     22  C   UNL     1       4.590   1.831  -0.109  1.00  0.00     0.114 A 
ATOM     23  N   UNL     1       6.457   0.604  -0.468  1.00  0.00    -0.184 NA
ATOM     24  N   UNL     1       5.944   1.831  -0.296  1.00  0.00    -0.285 N 
ATOM     25  H   UNL     1       6.577   2.624  -0.315  1.00  0.00     0.189 HD
ENDBRANCH   6  20
TORSDOF 3
