MODEL        8USER    Run = 8USERUSER    Estimated Free Energy of Binding    =  -9.70 kcal/mol  [=(1)+(2)+(3)-(4)]USERUSER    (1) Final Intermolecular Energy     = -11.49 kcal/molUSER        vdW + Hbond + desolv Energy     = -11.29 kcal/molUSER        Electrostatic Energy            =  -0.20 kcal/molUSER        Moving Ligand-Fixed Receptor    = -11.49 kcal/molUSER        Moving Ligand-Moving Receptor   =  +0.00 kcal/molUSER    (2) Final Total Internal Energy     =  -0.72 kcal/molUSER    (3) Torsional Free Energy           =  +1.79 kcal/molUSER    (4) Unbound System's Energy         =  -0.72 kcal/molUSERUSERREMARK SMILES Cn1cncc1C=Nc1ccc(C#N)c(-c2ccc(C(=O)N3CCNCC3)c(F)c2)n1REMARK SMILES IDX 9 1 10 2 11 3 12 4 15 5 31 6 8 7 7 8 6 9 2 10 3 11 4 12 5 13REMARK SMILES IDX 1 14 16 15 17 16 30 17 18 18 28 19 19 20 29 21 20 22 22 23REMARK SMILES IDX 23 24 27 25 24 26 26 27 25 28 21 29 13 31 14 32REMARK H PARENT 25 30USER                              x       y       z     vdW  Elec       q    TypeUSER                           _______ _______ _______ _____ _____    ______ ____ROOTATOM      1  C   UNL     1      38.258  45.538  16.541 -0.26 -0.04    +0.152 A  ATOM      2  C   UNL     1      38.223  46.368  15.431 -0.36 -0.02    +0.050 A  ATOM      3  C   UNL     1      39.111  47.437  15.366 -0.47 -0.01    +0.025 A  ATOM      4  C   UNL     1      40.036  47.624  16.395 -0.46 -0.02    +0.078 A  ATOM      5  C   UNL     1      40.032  46.723  17.466 -0.42 -0.01    +0.091 A  ATOM      6  N   UNL     1      39.133  45.705  17.554 -0.26 +0.04    -0.227 NA ENDROOTBRANCH   1   7ATOM      7  N   UNL     1      37.454  44.406  16.638 -0.20 +0.07    -0.235 NA BRANCH   7   8ATOM      8  C   UNL     1      36.772  44.156  17.712 -0.28 -0.04    +0.141 C  BRANCH   8   9ATOM      9  C   UNL     1      35.558  44.788  18.147 -0.29 -0.03    +0.079 A  ATOM     10  N   UNL     1      34.484  44.216  18.784 -0.13 +0.09    -0.333 N  ATOM     11  C   UNL     1      33.554  45.196  19.000 -0.24 -0.08    +0.199 A  ATOM     12  N   UNL     1      33.948  46.349  18.512 -0.50 +0.17    -0.245 NA ATOM     13  C   UNL     1      35.175  46.102  17.958 -0.29 -0.09    +0.140 A  ATOM     14  C   UNL     1      34.281  42.824  19.103 -0.36 -0.02    +0.151 C  ENDBRANCH   8   9ENDBRANCH   7   8ENDBRANCH   1   7BRANCH   5  15ATOM     15  C   UNL     1      40.988  46.778  18.587 -0.48 -0.00    +0.005 A  ATOM     16  C   UNL     1      42.236  47.409  18.436 -0.51 -0.00    +0.011 A  ATOM     17  C   UNL     1      40.672  46.233  19.844 -0.28 +0.00    +0.050 A  ATOM     18  C   UNL     1      43.156  47.458  19.489 -0.41 +0.00    +0.017 A  ATOM     19  C   UNL     1      41.588  46.285  20.895 -0.23 +0.02    +0.136 A  ATOM     20  C   UNL     1      42.838  46.869  20.716 -0.35 +0.02    +0.075 A  ATOM     21  F   UNL     1      41.231  45.767  22.079 -0.04 -0.02    -0.206 F  BRANCH  20  22ATOM     22  C   UNL     1      43.816  46.949  21.816 -0.24 +0.11    +0.256 C  ATOM     23  N   UNL     1      43.562  47.784  22.896 -0.17 -0.08    -0.336 N  ATOM     24  C   UNL     1      42.287  48.463  23.166 -0.29 +0.03    +0.135 C  ATOM     25  C   UNL     1      44.579  47.892  23.944 -0.21 +0.03    +0.135 C  ATOM     26  C   UNL     1      42.045  48.671  24.672 -0.35 +0.02    +0.102 C  ATOM     27  C   UNL     1      44.435  49.193  24.750 -0.27 +0.02    +0.102 C  ATOM     28  N   UNL     1      43.118  49.384  25.384 -0.24 -0.04    -0.313 NA ATOM     29  O   UNL     1      44.812  46.234  21.736 -0.62 -0.31    -0.269 OA ATOM     30  H   UNL     1      42.913  50.382  25.408 -0.54 +0.01    +0.122 HD ENDBRANCH  20  22ENDBRANCH   5  15BRANCH   4  31ATOM     31  C   UNL     1      40.942  48.730  16.337 -0.56 -0.01    +0.101 C  ATOM     32  N   UNL     1      41.677  49.626  16.290 -0.99 -0.02    -0.192 NA ENDBRANCH   4  31TORSDOF 6TERENDMDL