MODEL        7USER    Run = 7USERUSER    Estimated Free Energy of Binding    =  -8.41 kcal/mol  [=(1)+(2)+(3)-(4)]USERUSER    (1) Final Intermolecular Energy     =  -9.31 kcal/molUSER        vdW + Hbond + desolv Energy     =  -9.19 kcal/molUSER        Electrostatic Energy            =  -0.12 kcal/molUSER        Moving Ligand-Fixed Receptor    =  -9.31 kcal/molUSER        Moving Ligand-Moving Receptor   =  +0.00 kcal/molUSER    (2) Final Total Internal Energy     =  -0.28 kcal/molUSER    (3) Torsional Free Energy           =  +0.89 kcal/molUSER    (4) Unbound System's Energy         =  -0.28 kcal/molUSERUSERREMARK SMILES Cc1c(C(=O)Nc2nc3ccccc3s2)ccnc1NREMARK SMILES IDX 1 1 2 2 3 3 16 4 17 5 18 6 19 7 4 8 6 9 5 10 7 12 8 13 15 14REMARK SMILES IDX 9 15 14 16 10 17 13 18 11 19 12 20 20 21REMARK H PARENT 6 11 20 22 20 23USER                              x       y       z     vdW  Elec       q    TypeUSER                           _______ _______ _______ _____ _____    ______ ____ROOTATOM      1  C   UNL     1      36.803  30.878  23.428 -0.46 +0.00    +0.049 C  ATOM      2  C   UNL     1      36.957  30.070  22.172 -0.37 -0.00    +0.004 A  ATOM      3  C   UNL     1      35.955  29.202  21.705 -0.35 -0.01    +0.048 A  ATOM      4  C   UNL     1      36.168  28.403  20.583 -0.28 -0.01    +0.034 A  ATOM      5  C   UNL     1      37.370  28.538  19.925 -0.21 -0.01    +0.114 A  ATOM      6  N   UNL     1      38.332  29.402  20.304 -0.18 -0.03    -0.239 NA ATOM      7  C   UNL     1      38.119  30.147  21.404 -0.31 +0.01    +0.127 A  ENDROOTBRANCH   3   8ATOM      8  C   UNL     1      34.634  29.068  22.365 -0.35 -0.04    +0.257 C  ATOM      9  N   UNL     1      33.704  29.978  21.924 -0.30 +0.04    -0.298 N  ATOM     10  O   UNL     1      34.488  28.161  23.172 -0.28 +0.03    -0.269 OA ATOM     11  H   UNL     1      33.939  30.619  21.180 -0.46 -0.07    +0.172 HD BRANCH   9  12ATOM     12  C   UNL     1      32.409  30.112  22.353 -0.42 +0.00    +0.190 A  ATOM     13  N   UNL     1      31.473  30.513  21.526 -0.83 +0.01    -0.220 NA ATOM     14  S   UNL     1      31.922  29.800  23.950 -0.59 -0.02    -0.097 S  ATOM     15  C   UNL     1      30.260  30.576  22.193 -0.50 -0.01    +0.084 A  ATOM     16  C   UNL     1      30.303  30.219  23.542 -0.56 +0.01    +0.056 A  ATOM     17  C   UNL     1      29.025  30.960  21.633 -0.38 -0.01    +0.030 A  ATOM     18  C   UNL     1      29.156  30.233  24.352 -0.56 +0.01    +0.021 A  ATOM     19  C   UNL     1      27.876  30.978  22.430 -0.48 -0.00    +0.002 A  ATOM     20  C   UNL     1      27.943  30.619  23.773 -0.50 +0.00    +0.002 A  ENDBRANCH   9  12ENDBRANCH   3   8BRANCH   7  21ATOM     21  N   UNL     1      39.170  30.995  21.742 -0.15 -0.07    -0.383 N  ATOM     22  H   UNL     1      39.562  31.459  20.933 -0.40 +0.02    +0.158 HD ATOM     23  H   UNL     1      39.865  30.423  22.217 -0.28 +0.04    +0.158 HD ENDBRANCH   7  21TORSDOF 3TERENDMDL