MODEL        1USER    Run = 1USERUSER    Estimated Free Energy of Binding    =  -8.49 kcal/mol  [=(1)+(2)+(3)-(4)]USERUSER    (1) Final Intermolecular Energy     = -10.28 kcal/molUSER        vdW + Hbond + desolv Energy     =  -9.90 kcal/molUSER        Electrostatic Energy            =  -0.38 kcal/molUSER        Moving Ligand-Fixed Receptor    = -10.28 kcal/molUSER        Moving Ligand-Moving Receptor   =  +0.00 kcal/molUSER    (2) Final Total Internal Energy     =  -1.30 kcal/molUSER    (3) Torsional Free Energy           =  +1.79 kcal/molUSER    (4) Unbound System's Energy         =  -1.30 kcal/molUSERUSERREMARK SMILES COc1ccc(O)c(C(=O)c2ccc(C(=O)NC3CCNCC3)cc2)c1FREMARK SMILES IDX 11 1 12 2 13 3 14 4 24 5 25 6 9 7 10 8 8 9 3 10 4 11 26 12REMARK SMILES IDX 5 13 6 14 27 15 2 16 1 17 7 18 15 20 17 21 16 22 18 24 19 25REMARK SMILES IDX 23 26 20 27 22 28 21 29REMARK H PARENT 7 19 17 23 21 30USER                              x       y       z     vdW  Elec       q    TypeUSER                           _______ _______ _______ _____ _____    ______ ____ROOTATOM      1  C   UNL     1      27.887  37.250  20.365 -0.30 -0.00    +0.023 A  ATOM      2  C   UNL     1      27.136  36.181  19.867 -0.27 -0.01    +0.013 A  ATOM      3  C   UNL     1      27.167  34.946  20.521 -0.31 -0.01    +0.014 A  ATOM      4  C   UNL     1      27.941  34.772  21.677 -0.35 -0.01    +0.039 A  ATOM      5  C   UNL     1      28.660  35.856  22.196 -0.36 -0.00    +0.014 A  ATOM      6  C   UNL     1      28.630  37.092  21.542 -0.30 -0.00    +0.013 A  ENDROOTBRANCH   1   7ATOM      7  C   UNL     1      27.860  38.587  19.725 -0.21 +0.00    +0.199 C  ATOM      8  O   UNL     1      28.840  38.954  19.073 -0.18 -0.05    -0.288 OA BRANCH   7   9ATOM      9  C   UNL     1      26.732  39.533  19.870 -0.20 -0.02    +0.104 A  ATOM     10  C   UNL     1      25.063  40.680  21.229 -0.33 -0.03    +0.155 A  ATOM     11  C   UNL     1      24.606  41.351  20.093 -0.37 -0.01    +0.053 A  ATOM     12  C   UNL     1      26.122  39.768  21.103 -0.23 -0.04    +0.179 A  ATOM     13  C   UNL     1      25.187  41.098  18.848 -0.23 -0.01    +0.051 A  ATOM     14  C   UNL     1      26.232  40.186  18.737 -0.18 -0.01    +0.130 A  ATOM     15  F   UNL     1      26.527  39.097  22.194 -0.07 +0.06    -0.202 F  BRANCH  10  16ATOM     16  O   UNL     1      24.562  40.829  22.495 -0.67 +0.06    -0.494 OA ATOM     17  C   UNL     1      23.846  42.024  22.776 -0.50 -0.06    +0.278 C  ENDBRANCH  10  16BRANCH  14  18ATOM     18  O   UNL     1      26.723  39.972  17.477 -0.06 -0.07    -0.507 OA ATOM     19  H   UNL     1      27.706  39.947  17.535 +0.15 +0.06    +0.293 HD ENDBRANCH  14  18ENDBRANCH   7   9ENDBRANCH   1   7BRANCH   4  20ATOM     20  C   UNL     1      27.933  33.438  22.335 -0.31 -0.02    +0.251 C  ATOM     21  N   UNL     1      28.814  32.500  21.838 -0.17 +0.07    -0.349 N  ATOM     22  O   UNL     1      27.151  33.215  23.253 -0.62 -0.17    -0.269 OA ATOM     23  H   UNL     1      29.424  32.741  21.070 +0.03 -0.05    +0.164 HD BRANCH  21  24ATOM     24  C   UNL     1      28.961  31.187  22.456 -0.49 -0.01    +0.084 C  ATOM     25  C   UNL     1      28.907  31.285  23.980 -0.53 +0.02    +0.040 C  ATOM     26  C   UNL     1      30.252  30.493  21.993 -0.60 -0.01    +0.040 C  ATOM     27  C   UNL     1      29.028  29.896  24.611 -0.57 +0.03    +0.083 C  ATOM     28  C   UNL     1      30.939  29.717  23.116 -0.60 +0.00    +0.083 C  ATOM     29  N   UNL     1      29.981  28.997  23.948 -0.68 -0.02    -0.317 NA ATOM     30  H   UNL     1      29.465  28.331  23.370 -0.37 -0.05    +0.122 HD ENDBRANCH  21  24ENDBRANCH   4  20TORSDOF 6TERENDMDL