MODEL        1USER    Run = 1USERUSER    Estimated Free Energy of Binding    = -12.70 kcal/mol  [=(1)+(2)+(3)-(4)]USERUSER    (1) Final Intermolecular Energy     = -15.08 kcal/molUSER        vdW + Hbond + desolv Energy     = -14.90 kcal/molUSER        Electrostatic Energy            =  -0.18 kcal/molUSER        Moving Ligand-Fixed Receptor    = -15.08 kcal/molUSER        Moving Ligand-Moving Receptor   =  +0.00 kcal/molUSER    (2) Final Total Internal Energy     =  -2.04 kcal/molUSER    (3) Torsional Free Energy           =  +2.39 kcal/molUSER    (4) Unbound System's Energy         =  -2.04 kcal/molUSERUSERREMARK SMILES CNS(=O)(=O)c1ccc(-c2nc3cccnc3nc2-c2ccc(CN3CC[C@H](n4c(O)nc5ncccc54)[C@H](C)C3)cc2)cc1REMARK SMILES IDX 20 1 21 2 22 3 23 4 42 5 43 6 19 7 10 8 11 9 12 10 18 11REMARK SMILES IDX 13 12 17 13 14 14 16 15 15 16 9 17 6 18 7 19 45 20 8 21REMARK SMILES IDX 44 22 3 23 4 24 5 25 2 26 1 27 24 29 25 30 26 31 41 32 27 33REMARK SMILES IDX 39 34 28 35 40 36 29 37 30 38 38 39 32 40 37 41 33 42 36 43REMARK SMILES IDX 34 44 35 45 31 46REMARK H PARENT 2 28 31 47USER                              x       y       z     vdW  Elec       q    TypeUSER                           _______ _______ _______ _____ _____    ______ ____ROOTATOM      1  C   UNL     1      36.163  43.783  19.507 -0.39 -0.00    +0.002 A  ATOM      2  C   UNL     1      37.333  44.164  18.831 -0.32 -0.00    +0.011 A  ATOM      3  C   UNL     1      38.447  44.646  19.529 -0.37 -0.00    +0.006 A  ATOM      4  C   UNL     1      38.427  44.750  20.925 -0.34 -0.00    -0.034 A  ATOM      5  C   UNL     1      37.275  44.339  21.608 -0.38 +0.00    +0.006 A  ATOM      6  C   UNL     1      36.162  43.862  20.910 -0.37 +0.00    +0.011 A  ENDROOTBRANCH   1   7ATOM      7  C   UNL     1      34.989  43.302  18.760 -0.30 -0.02    +0.099 A  ATOM      8  C   UNL     1      34.609  43.766  17.491 -0.25 -0.03    +0.097 A  ATOM      9  N   UNL     1      33.469  43.323  16.900 -0.17 +0.10    -0.242 NA ATOM     10  C   UNL     1      32.752  42.402  17.578 -0.27 -0.03    +0.108 A  ATOM     11  N   UNL     1      34.258  42.359  19.417 -0.35 +0.01    -0.224 NA ATOM     12  C   UNL     1      31.581  41.907  17.026 -0.24 -0.01    +0.034 A  ATOM     13  C   UNL     1      33.143  41.904  18.843 -0.27 -0.01    +0.178 A  ATOM     14  C   UNL     1      30.829  40.952  17.700 -0.31 -0.00    +0.022 A  ATOM     15  N   UNL     1      32.425  40.983  19.496 -0.55 -0.03    -0.235 NA ATOM     16  C   UNL     1      31.291  40.525  18.926 -0.24 +0.00    +0.114 A  BRANCH   8  17ATOM     17  C   UNL     1      35.382  44.717  16.674 -0.31 -0.00    +0.002 A  ATOM     18  C   UNL     1      36.852  46.554  15.135 -0.34 -0.05    +0.082 A  ATOM     19  C   UNL     1      36.104  47.007  16.223 -0.27 -0.02    +0.022 A  ATOM     20  C   UNL     1      36.883  45.197  14.808 -0.37 -0.01    +0.022 A  ATOM     21  C   UNL     1      35.366  46.091  16.978 -0.35 -0.01    +0.012 A  ATOM     22  C   UNL     1      36.143  44.289  15.570 -0.37 -0.00    +0.012 A  BRANCH  18  23ATOM     23  S   UNL     1      37.802  47.714  14.183 -0.54 -0.11    +0.240 S  ATOM     24  O   UNL     1      39.083  47.113  13.890 -0.37 +0.04    -0.207 OA ATOM     25  O   UNL     1      37.692  49.004  14.828 -0.48 +0.16    -0.207 OA BRANCH  23  26ATOM     26  N   UNL     1      36.926  47.814  12.760 -0.97 +0.07    -0.214 NA ATOM     27  C   UNL     1      36.738  46.633  11.931 -0.65 -0.05    +0.120 C  ATOM     28  H   UNL     1      36.217  48.543  12.751 +0.07 -0.06    +0.141 HD ENDBRANCH  23  26ENDBRANCH  18  23ENDBRANCH   8  17ENDBRANCH   1   7BRANCH   4  29ATOM     29  C   UNL     1      39.634  45.263  21.682 -0.30 +0.01    +0.120 C  BRANCH  29  30ATOM     30  N   UNL     1      39.471  45.468  23.127 -0.11 -0.02    -0.299 NA ATOM     31  C   UNL     1      39.818  44.303  23.939 -0.17 +0.00    +0.087 C  ATOM     32  C   UNL     1      40.037  46.707  23.642 -0.26 +0.01    +0.090 C  ATOM     33  C   UNL     1      39.999  44.613  25.427 -0.13 +0.00    +0.041 C  ATOM     34  C   UNL     1      39.338  47.081  24.961 -0.29 +0.00    +0.023 C  ATOM     35  C   UNL     1      39.269  45.870  25.936 -0.17 +0.00    +0.098 C  ATOM     36  C   UNL     1      38.008  47.796  24.694 -0.41 +0.00    +0.011 C  BRANCH  35  37ATOM     37  N   UNL     1      37.986  45.584  26.568 -0.14 +0.02    -0.289 N  ATOM     38  C   UNL     1      37.349  46.445  27.430 -0.16 -0.05    +0.296 A  ATOM     39  C   UNL     1      37.202  44.453  26.508 -0.28 -0.01    +0.091 A  ATOM     40  N   UNL     1      36.256  45.963  27.948 -0.28 +0.05    -0.175 NA ATOM     41  C   UNL     1      37.243  43.246  25.806 -0.31 -0.00    +0.032 A  ATOM     42  C   UNL     1      36.150  44.722  27.389 -0.25 -0.05    +0.181 A  ATOM     43  C   UNL     1      36.204  42.352  26.060 -0.43 -0.00    +0.022 A  ATOM     44  N   UNL     1      35.141  43.859  27.644 -0.38 +0.06    -0.235 NA ATOM     45  C   UNL     1      35.212  42.697  26.966 -0.45 -0.02    +0.114 A  BRANCH  38  46ATOM     46  O   UNL     1      37.776  47.656  27.735 -0.07 +0.09    -0.480 OA ATOM     47  H   UNL     1      38.064  47.531  28.657 -0.25 -0.18    +0.296 HD ENDBRANCH  38  46ENDBRANCH  35  37ENDBRANCH  29  30ENDBRANCH   4  29TORSDOF 8TERENDMDL