MODEL        10USER    Run = 10USERUSER    Estimated Free Energy of Binding    =  -9.90 kcal/mol  [=(1)+(2)+(3)-(4)]USERUSER    (1) Final Intermolecular Energy     = -11.39 kcal/molUSER        vdW + Hbond + desolv Energy     = -11.33 kcal/molUSER        Electrostatic Energy            =  -0.06 kcal/molUSER        Moving Ligand-Fixed Receptor    = -11.39 kcal/molUSER        Moving Ligand-Moving Receptor   =  +0.00 kcal/molUSER    (2) Final Total Internal Energy     =  -1.20 kcal/molUSER    (3) Torsional Free Energy           =  +1.49 kcal/molUSER    (4) Unbound System's Energy         =  -1.20 kcal/molUSERUSERREMARK SMILES Cn1cncc1-c1cccc(-c2ccnc(NC(=O)c3cc(N4CCOCC4)nn3C)c2F)n1REMARK SMILES IDX 12 1 13 2 14 3 15 4 16 5 32 6 33 7 11 8 7 9 8 10 34 11 9 12REMARK SMILES IDX 10 13 6 14 2 15 3 16 4 17 5 18 1 19 17 20 18 21 19 23 20 24REMARK SMILES IDX 21 25 30 26 22 27 29 28 31 29 23 30 24 31 28 32 25 33 27 34REMARK SMILES IDX 26 35REMARK H PARENT 17 22USER                              x       y       z     vdW  Elec       q    TypeUSER                           _______ _______ _______ _____ _____    ______ ____ROOTATOM      1  C   UNL     1      35.747  45.327  16.782 -0.31 -0.02    +0.041 A  ATOM      2  C   UNL     1      34.474  44.827  16.478 -0.29 -0.02    +0.033 A  ATOM      3  C   UNL     1      33.794  44.096  17.439 -0.23 -0.04    +0.114 A  ATOM      4  N   UNL     1      34.286  43.829  18.665 -0.18 +0.06    -0.236 NA ATOM      5  C   UNL     1      35.510  44.299  18.963 -0.25 -0.04    +0.169 A  ATOM      6  C   UNL     1      36.259  45.046  18.053 -0.22 -0.06    +0.175 A  ATOM      7  F   UNL     1      37.484  45.469  18.412 -0.09 +0.04    -0.202 F  ENDROOTBRANCH   1   8ATOM      8  C   UNL     1      36.503  46.130  15.818 -0.32 -0.05    +0.074 A  ATOM      9  C   UNL     1      38.385  47.434  15.446 -0.40 -0.04    +0.089 A  ATOM     10  C   UNL     1      38.023  47.678  14.130 -0.49 -0.01    +0.031 A  ATOM     11  N   UNL     1      37.651  46.675  16.287 -0.22 +0.12    -0.246 NA ATOM     12  C   UNL     1      36.840  47.122  13.657 -0.53 -0.00    +0.005 A  ATOM     13  C   UNL     1      36.066  46.340  14.511 -0.40 -0.02    +0.029 A  BRANCH   9  14ATOM     14  C   UNL     1      39.607  47.955  16.031 -0.45 -0.03    +0.086 A  ATOM     15  N   UNL     1      40.375  47.357  17.006 -0.27 +0.06    -0.332 N  ATOM     16  C   UNL     1      41.436  48.176  17.271 -0.30 -0.01    +0.199 A  ATOM     17  N   UNL     1      41.423  49.247  16.514 -0.99 -0.00    -0.244 NA ATOM     18  C   UNL     1      40.312  49.105  15.723 -0.49 -0.05    +0.141 A  ATOM     19  C   UNL     1      40.172  46.062  17.607 -0.42 -0.02    +0.151 C  ENDBRANCH   9  14ENDBRANCH   1   8BRANCH   5  20ATOM     20  N   UNL     1      36.088  44.075  20.222 -0.22 +0.02    -0.303 N  ATOM     21  C   UNL     1      36.439  42.850  20.744 -0.31 +0.00    +0.275 C  ATOM     22  H   UNL     1      36.334  44.909  20.738 +0.09 -0.00    +0.172 HD ATOM     23  O   UNL     1      36.414  41.783  20.145 -0.33 +0.01    -0.267 OA BRANCH  21  24ATOM     24  C   UNL     1      36.928  42.931  22.101 -0.35 +0.01    +0.128 A  ATOM     25  C   UNL     1      36.451  42.265  23.216 -0.30 +0.01    +0.082 A  ATOM     26  N   UNL     1      37.911  43.748  22.594 -0.20 -0.02    -0.261 N  ATOM     27  C   UNL     1      37.265  42.662  24.301 -0.28 +0.01    +0.151 A  ATOM     28  N   UNL     1      38.181  43.542  23.893 -0.20 -0.01    -0.155 NA ATOM     29  C   UNL     1      38.616  44.805  21.908 -0.29 +0.01    +0.174 C  BRANCH  27  30ATOM     30  N   UNL     1      37.142  42.208  25.573 -0.15 +0.03    -0.351 N  ATOM     31  C   UNL     1      35.841  42.259  26.256 -0.42 -0.02    +0.146 C  ATOM     32  C   UNL     1      38.191  41.447  26.256 -0.24 -0.01    +0.146 C  ATOM     33  C   UNL     1      35.649  40.999  27.110 -0.53 -0.07    +0.181 C  ATOM     34  C   UNL     1      37.916  41.406  27.768 -0.39 -0.03    +0.181 C  ATOM     35  O   UNL     1      36.658  40.811  28.115 -0.37 +0.14    -0.378 OA ENDBRANCH  27  30ENDBRANCH  21  24ENDBRANCH   5  20TORSDOF 5TERENDMDL