REMARK SMILES O=C(c1ccc(C2=NNC=NC=C2)cc1)N1CCN(CCCc2ccccc2)CC1
REMARK SMILES IDX 3 1 4 2 5 3 6 4 14 5 15 6 2 7 16 8 17 9 30 10 18 11 29 12
REMARK SMILES IDX 19 13 1 14 20 15 21 16 22 17 23 18 24 19 28 20 25 21 27 22
REMARK SMILES IDX 26 23 7 24 8 26 9 27 10 28 11 30 12 31 13 32
REMARK H PARENT 9 29
REMARK Flexibility Score:  130.900
ROOT
ATOM      1  C   UNL     1       2.534  -1.140  -1.074  1.00  0.00     0.040 A 
ATOM      2  C   UNL     1       3.299  -1.278   0.089  1.00  0.00     0.014 A 
ATOM      3  C   UNL     1       4.510  -0.591   0.208  1.00  0.00     0.011 A 
ATOM      4  C   UNL     1       4.971   0.211  -0.845  1.00  0.00     0.002 A 
ATOM      5  C   UNL     1       4.207   0.338  -2.014  1.00  0.00     0.011 A 
ATOM      6  C   UNL     1       2.995  -0.347  -2.131  1.00  0.00     0.014 A 
ENDROOT
BRANCH   1   7
ATOM      7  C   UNL     1       1.259  -1.874  -1.241  1.00  0.00     0.253 C 
ATOM      8  N   UNL     1       0.284  -1.766  -0.258  1.00  0.00    -0.336 N 
ATOM      9  C   UNL     1      -0.926  -2.577  -0.391  1.00  0.00     0.135 C 
ATOM     10  C   UNL     1       0.248  -0.733   0.786  1.00  0.00     0.135 C 
ATOM     11  C   UNL     1      -1.673  -2.720   0.947  1.00  0.00     0.106 C 
ATOM     12  C   UNL     1      -1.196  -0.323   1.139  1.00  0.00     0.106 C 
ATOM     13  N   UNL     1      -2.037  -1.446   1.608  1.00  0.00    -0.300 NA
ATOM     14  O   UNL     1       1.122  -2.554  -2.255  1.00  0.00    -0.269 OA
BRANCH  13  15
ATOM     15  C   UNL     1      -3.475  -1.159   1.459  1.00  0.00     0.085 C 
BRANCH  15  16
ATOM     16  C   UNL     1      -3.934   0.043   2.299  1.00  0.00     0.020 C 
BRANCH  16  17
ATOM     17  C   UNL     1      -5.458   0.213   2.299  1.00  0.00     0.037 C 
BRANCH  17  18
ATOM     18  C   UNL     1      -6.029   0.566   0.947  1.00  0.00    -0.048 A 
ATOM     19  C   UNL     1      -6.773  -0.374   0.222  1.00  0.00     0.004 A 
ATOM     20  C   UNL     1      -5.816   1.836   0.395  1.00  0.00     0.004 A 
ATOM     21  C   UNL     1      -7.290  -0.051  -1.034  1.00  0.00     0.000 A 
ATOM     22  C   UNL     1      -6.334   2.158  -0.861  1.00  0.00     0.000 A 
ATOM     23  C   UNL     1      -7.070   1.215  -1.575  1.00  0.00     0.000 A 
ENDBRANCH  17  18
ENDBRANCH  16  17
ENDBRANCH  15  16
ENDBRANCH  13  15
ENDBRANCH   1   7
BRANCH   4  24
ATOM     24  C   UNL     1       6.270   0.938  -0.685  1.00  0.00     0.092 CG0
ATOM     25  G   UNL     1       7.137   0.902  -1.892  1.00  0.00     0.000 G0
BRANCH  24  26
ATOM     26  N   UNL     1       6.513   1.452   0.477  1.00  0.00    -0.174 NA
BRANCH  26  27
ATOM     27  N   UNL     1       7.665   2.142   0.696  1.00  0.00    -0.267 N 
ATOM     28  C   UNL     1       8.364   2.911  -0.206  1.00  0.00     0.214 C 
ATOM     29  H   UNL     1       7.726   2.492   1.650  1.00  0.00     0.191 HD
BRANCH  28  30
ATOM     30  N   UNL     1       8.578   2.837  -1.474  1.00  0.00    -0.245 NA
BRANCH  30  31
ATOM     31  C   UNL     1       8.120   1.761  -2.171  1.00  0.00     0.115 C 
BRANCH  31  32
ATOM     32  C   UNL     1       7.137   0.902  -1.892  1.00  0.00     0.051 CG0
ATOM     33  G   UNL     1       6.270   0.938  -0.685  1.00  0.00     0.000 G0
ENDBRANCH  31  32
ENDBRANCH  30  31
ENDBRANCH  28  30
ENDBRANCH  26  27
ENDBRANCH  24  26
ENDBRANCH   4  24
TORSDOF 6
