MODEL        5USER    Run = 5USERUSER    Estimated Free Energy of Binding    =  -8.66 kcal/mol  [=(1)+(2)+(3)-(4)]USERUSER    (1) Final Intermolecular Energy     = -10.15 kcal/molUSER        vdW + Hbond + desolv Energy     =  -9.98 kcal/molUSER        Electrostatic Energy            =  -0.17 kcal/molUSER        Moving Ligand-Fixed Receptor    = -10.15 kcal/molUSER        Moving Ligand-Moving Receptor   =  +0.00 kcal/molUSER    (2) Final Total Internal Energy     =  -0.56 kcal/molUSER    (3) Torsional Free Energy           =  +1.49 kcal/molUSER    (4) Unbound System's Energy         =  -0.56 kcal/molUSERUSERREMARK SMILES COCC(C)(C)c1ccc(C=C2C(=O)Nc3ccccc3C2=O)o1REMARK SMILES IDX 7 1 8 2 9 3 10 4 24 5 4 6 5 7 6 8 3 9 2 10 1 11 11 12 12 13REMARK SMILES IDX 13 14 22 15 15 16 21 17 16 18 20 19 17 20 19 21 18 22 14 23REMARK SMILES IDX 23 24REMARK H PARENT 15 25USER                              x       y       z     vdW  Elec       q    TypeUSER                           _______ _______ _______ _____ _____    ______ ____ROOTATOM      1  C   UNL     1      41.615  46.113  21.142 -0.25 +0.01    +0.112 A  ATOM      2  C   UNL     1      41.075  44.927  20.698 -0.32 +0.00    +0.047 A  ATOM      3  C   UNL     1      40.893  45.070  19.304 -0.39 +0.00    +0.050 A  ATOM      4  C   UNL     1      41.309  46.345  18.941 -0.40 +0.00    +0.128 A  ATOM      5  O   UNL     1      41.777  46.956  20.084 -0.14 -0.04    -0.461 OA ENDROOTBRANCH   1   6ATOM      6  C   UNL     1      42.052  46.608  22.504 -0.27 +0.01    +0.046 C  ATOM      7  C   UNL     1      40.806  46.988  23.325 -0.27 +0.00    +0.022 C  ATOM      8  C   UNL     1      42.823  45.509  23.266 -0.16 +0.00    +0.022 C  BRANCH   6   9ATOM      9  C   UNL     1      43.002  47.825  22.350 -0.28 +0.03    +0.174 C  BRANCH   9  10ATOM     10  O   UNL     1      42.622  48.906  23.210 -0.90 -0.12    -0.384 OA ATOM     11  C   UNL     1      43.316  48.861  24.449 -0.29 +0.05    +0.194 C  ENDBRANCH   9  10ENDBRANCH   6   9ENDBRANCH   1   6BRANCH   4  12ATOM     12  C   UNL     1      41.393  46.992  17.679 -0.43 -0.01    +0.065 C  BRANCH  12  13ATOM     13  C   UNL     1      40.389  47.273  16.824 -0.51 -0.02    +0.091 C  ATOM     14  C   UNL     1      40.519  48.594  16.135 -0.43 -0.06    +0.259 C  ATOM     15  C   UNL     1      39.200  46.415  16.551 -0.35 -0.05    +0.200 C  ATOM     16  N   UNL     1      39.575  48.897  15.197 -0.28 +0.15    -0.321 N  ATOM     17  C   UNL     1      38.287  46.862  15.480 -0.39 -0.02    +0.046 A  ATOM     18  C   UNL     1      38.501  48.082  14.845 -0.49 -0.02    +0.052 A  ATOM     19  C   UNL     1      37.195  46.065  15.112 -0.37 -0.01    +0.014 A  ATOM     20  C   UNL     1      37.629  48.512  13.841 -0.51 -0.01    +0.027 A  ATOM     21  C   UNL     1      36.325  46.492  14.108 -0.46 -0.00    +0.001 A  ATOM     22  C   UNL     1      36.543  47.714  13.474 -0.59 -0.00    +0.002 A  ATOM     23  O   UNL     1      41.426  49.393  16.359 -1.09 -0.00    -0.269 OA ATOM     24  O   UNL     1      38.929  45.390  17.164 -0.23 +0.06    -0.288 OA ATOM     25  H   UNL     1      39.705  49.791  14.738 -0.20 -0.13    +0.170 HD ENDBRANCH  12  13ENDBRANCH   4  12TORSDOF 5TERENDMDL