MODEL        7USER    Run = 7USERUSER    Estimated Free Energy of Binding    = -10.19 kcal/mol  [=(1)+(2)+(3)-(4)]USERUSER    (1) Final Intermolecular Energy     = -11.98 kcal/molUSER        vdW + Hbond + desolv Energy     = -11.88 kcal/molUSER        Electrostatic Energy            =  -0.10 kcal/molUSER        Moving Ligand-Fixed Receptor    = -11.98 kcal/molUSER        Moving Ligand-Moving Receptor   =  +0.00 kcal/molUSER    (2) Final Total Internal Energy     =  -0.82 kcal/molUSER    (3) Torsional Free Energy           =  +1.79 kcal/molUSER    (4) Unbound System's Energy         =  -0.82 kcal/molUSERUSERREMARK SMILES Cc1c(C=c2cc3c(cn2)=C(NCC2CC2)NN=C3)cccc1C(C)CREMARK SMILES IDX 5 1 6 2 7 3 8 4 9 5 10 6 11 7 17 8 18 9 19 10 4 12 3 13 2 14REMARK SMILES IDX 23 15 20 16 22 17 21 18 1 19 24 20 25 21 26 22 12 23 13 25REMARK SMILES IDX 14 26 15 27 16 28REMARK H PARENT 17 11 12 24USER                              x       y       z     vdW  Elec       q    TypeUSER                           _______ _______ _______ _____ _____    ______ ____ROOTATOM      1  C   UNL     1      39.321  45.403  17.930 -0.38 -0.01    +0.064 A  ATOM      2  C   UNL     1      40.365  46.424  17.948 -0.46 -0.00    +0.039 A  ATOM      3  C   UNL     1      40.372  47.431  17.066 -0.51 -0.00    +0.009 A  ATOM      4  C   UNL     1      39.350  47.536  16.059 -0.46 -0.01    +0.044 A  ATOM      5  C   UNL     1      38.338  46.455  16.120 -0.31 -0.05    +0.124 A  ATOM      6  N   UNL     1      38.328  45.476  16.972 -0.20 +0.07    -0.256 NA ATOM      7  C   UNL     1      39.373  48.570  15.182 -0.50 -0.06    +0.129 C  ATOM      8  N   UNL     1      40.410  49.494  15.329 -0.39 +0.10    -0.263 N  ATOM      9  N   UNL     1      41.423  49.482  16.250 -1.07 +0.00    -0.182 NA ATOM     10  C   UNL     1      41.405  48.484  17.080 -0.40 -0.00    +0.142 C  ATOM     11  H   UNL     1      40.347  50.314  14.736 -0.16 -0.13    +0.192 HD ENDROOTBRANCH   1  12ATOM     12  C   UNL     1      39.276  44.387  18.813 -0.40 -0.00    +0.036 C  BRANCH  12  13ATOM     13  C   UNL     1      39.180  44.510  20.275 -0.33 +0.00    -0.020 A  ATOM     14  C   UNL     1      38.084  44.004  21.013 -0.33 -0.00    -0.040 A  ATOM     15  C   UNL     1      38.083  44.135  22.428 -0.32 -0.00    -0.042 A  ATOM     16  C   UNL     1      40.245  45.142  20.932 -0.34 +0.00    +0.008 A  ATOM     17  C   UNL     1      39.178  44.766  23.054 -0.26 +0.00    +0.004 A  ATOM     18  C   UNL     1      40.245  45.269  22.316 -0.26 +0.00    +0.001 A  ATOM     19  C   UNL     1      36.927  43.333  20.309 -0.42 -0.00    +0.045 C  BRANCH  15  20ATOM     20  C   UNL     1      36.942  43.608  23.296 -0.37 +0.00    +0.013 C  ATOM     21  C   UNL     1      36.989  44.192  24.713 -0.37 +0.00    +0.012 C  ATOM     22  C   UNL     1      36.929  42.076  23.334 -0.52 +0.00    +0.012 C  ENDBRANCH  15  20ENDBRANCH  12  13ENDBRANCH   1  12BRANCH   7  23ATOM     23  N   UNL     1      38.425  48.735  14.182 -0.16 +0.19    -0.370 N  ATOM     24  H   UNL     1      38.589  49.529  13.574 -0.33 -0.10    +0.162 HD BRANCH  23  25ATOM     25  C   UNL     1      37.020  48.382  14.239 -0.50 -0.08    +0.118 C  BRANCH  25  26ATOM     26  C   UNL     1      36.535  48.014  12.872 -0.71 -0.00    +0.008 C  ATOM     27  C   UNL     1      37.263  46.985  12.042 -0.71 -0.00    +0.006 C  ATOM     28  C   UNL     1      35.913  46.661  12.624 -0.70 -0.00    +0.006 C  ENDBRANCH  25  26ENDBRANCH  23  25ENDBRANCH   7  23TORSDOF 6TERENDMDL