REMARK SMILES Cc1c(C=c2cc3c(cn2)=C(NCC2CC2)NN=C3)cccc1C(C)C
REMARK SMILES IDX 5 1 6 2 7 3 8 4 9 5 10 6 11 7 17 8 18 9 19 10 4 12 3 13 2 14
REMARK SMILES IDX 23 15 20 16 22 17 21 18 1 19 24 20 25 21 26 22 12 23 13 25
REMARK SMILES IDX 14 26 15 27 16 28
REMARK H PARENT 17 11 12 24
ROOT
ATOM      1  C   UNL     1       0.136  -0.344  -1.559  1.00  0.00     0.064 A 
ATOM      2  C   UNL     1      -0.069  -0.944  -0.243  1.00  0.00     0.039 A 
ATOM      3  C   UNL     1      -1.297  -1.162   0.242  1.00  0.00     0.009 A 
ATOM      4  C   UNL     1      -2.464  -0.800  -0.518  1.00  0.00     0.044 A 
ATOM      5  C   UNL     1      -2.156  -0.197  -1.836  1.00  0.00     0.124 A 
ATOM      6  N   UNL     1      -0.966   0.017  -2.310  1.00  0.00    -0.256 NA
ATOM      7  C   UNL     1      -3.698  -1.038  -0.009  1.00  0.00     0.129 C 
ATOM      8  N   UNL     1      -3.753  -1.646   1.247  1.00  0.00    -0.263 N 
ATOM      9  N   UNL     1      -2.706  -2.026   2.043  1.00  0.00    -0.182 NA
ATOM     10  C   UNL     1      -1.526  -1.786   1.559  1.00  0.00     0.142 C 
ATOM     11  H   UNL     1      -4.680  -1.913   1.560  1.00  0.00     0.192 HD
ENDROOT
BRANCH   1  12
ATOM     12  C   UNL     1       1.358  -0.127  -2.082  1.00  0.00     0.036 C 
BRANCH  12  13
ATOM     13  C   UNL     1       2.644  -0.448  -1.446  1.00  0.00    -0.020 A 
ATOM     14  C   UNL     1       3.390   0.503  -0.710  1.00  0.00    -0.040 A 
ATOM     15  C   UNL     1       4.608   0.104  -0.098  1.00  0.00    -0.042 A 
ATOM     16  C   UNL     1       3.109  -1.764  -1.577  1.00  0.00     0.008 A 
ATOM     17  C   UNL     1       5.037  -1.231  -0.243  1.00  0.00     0.004 A 
ATOM     18  C   UNL     1       4.300  -2.155  -0.978  1.00  0.00     0.001 A 
ATOM     19  C   UNL     1       2.900   1.927  -0.575  1.00  0.00     0.045 C 
BRANCH  15  20
ATOM     20  C   UNL     1       5.466   1.069   0.719  1.00  0.00     0.013 C 
ATOM     21  C   UNL     1       6.874   1.216   0.130  1.00  0.00     0.012 C 
ATOM     22  C   UNL     1       5.529   0.651   2.192  1.00  0.00     0.012 C 
ENDBRANCH  15  20
ENDBRANCH  12  13
ENDBRANCH   1  12
BRANCH   7  23
ATOM     23  N   UNL     1      -4.869  -0.713  -0.681  1.00  0.00    -0.370 N 
ATOM     24  H   UNL     1      -4.749  -0.050  -1.438  1.00  0.00     0.162 HD
BRANCH  23  25
ATOM     25  C   UNL     1      -6.210  -0.668  -0.133  1.00  0.00     0.118 C 
BRANCH  25  26
ATOM     26  C   UNL     1      -6.394   0.595   0.650  1.00  0.00     0.008 C 
ATOM     27  C   UNL     1      -6.703   1.899  -0.043  1.00  0.00     0.006 C 
ATOM     28  C   UNL     1      -7.763   1.217   0.780  1.00  0.00     0.006 C 
ENDBRANCH  25  26
ENDBRANCH  23  25
ENDBRANCH   7  23
TORSDOF 6
