REMARK SMILES Cc1cc(Br)ccc1S(=O)(=O)Nc1ccc(N2CCCCC2)cc1
REMARK SMILES IDX 9 1 10 2 11 3 8 4 2 5 3 6 4 7 7 8 6 9 1 10 5 11 12 12 13 14
REMARK SMILES IDX 14 15 24 16 15 17 23 18 16 19 17 20 18 21 22 22 19 23 21 24
REMARK SMILES IDX 20 25
REMARK H PARENT 12 13
ROOT
ATOM      1  S   UNL     1       3.237   0.859   2.249  1.00  0.00     0.262 S 
ATOM      2  O   UNL     1       4.246   1.821   2.642  1.00  0.00    -0.201 OA
ATOM      3  O   UNL     1       2.991  -0.315   3.061  1.00  0.00    -0.201 OA
ENDROOT
BRANCH   1   4
ATOM      4  C   UNL     1       3.600   0.318   0.579  1.00  0.00     0.090 A 
ATOM      5  C   UNL     1       4.116   1.190  -0.402  1.00  0.00    -0.029 A 
ATOM      6  C   UNL     1       4.404   0.662  -1.675  1.00  0.00     0.020 A 
ATOM      7  C   UNL     1       4.174  -0.685  -1.963  1.00  0.00     0.018 A 
ATOM      8  C   UNL     1       3.379  -1.038   0.280  1.00  0.00     0.024 A 
ATOM      9  C   UNL     1       3.661  -1.537  -0.992  1.00  0.00     0.017 A 
ATOM     10  C   UNL     1       4.407   2.643  -0.154  1.00  0.00     0.046 C 
ATOM     11  Br  UNL     1       4.571  -1.360  -3.685  1.00  0.00    -0.051 Br
ENDBRANCH   1   4
BRANCH   1  12
ATOM     12  N   UNL     1       1.796   1.718   2.078  1.00  0.00    -0.280 N 
ATOM     13  H   UNL     1       1.950   2.718   1.965  1.00  0.00     0.180 HD
BRANCH  12  14
ATOM     14  C   UNL     1       0.690   1.128   1.409  1.00  0.00     0.049 A 
ATOM     15  C   UNL     1       0.184   1.748   0.272  1.00  0.00     0.029 A 
ATOM     16  C   UNL     1       0.108  -0.051   1.863  1.00  0.00     0.029 A 
ATOM     17  C   UNL     1      -0.898   1.181  -0.409  1.00  0.00     0.028 A 
ATOM     18  C   UNL     1      -0.975  -0.613   1.175  1.00  0.00     0.028 A 
ATOM     19  C   UNL     1      -1.506  -0.009   0.026  1.00  0.00     0.037 A 
BRANCH  19  20
ATOM     20  N   UNL     1      -2.596  -0.525  -0.685  1.00  0.00    -0.372 N 
ATOM     21  C   UNL     1      -2.899  -1.962  -0.614  1.00  0.00     0.116 C 
ATOM     22  C   UNL     1      -3.752   0.395  -0.731  1.00  0.00     0.116 C 
ATOM     23  C   UNL     1      -4.115  -2.213   0.271  1.00  0.00     0.021 C 
ATOM     24  C   UNL     1      -5.021  -0.325  -1.183  1.00  0.00     0.021 C 
ATOM     25  C   UNL     1      -5.359  -1.503  -0.268  1.00  0.00     0.004 C 
ENDBRANCH  19  20
ENDBRANCH  12  14
ENDBRANCH   1  12
TORSDOF 4
