MODEL        3USER    Run = 3USERUSER    Estimated Free Energy of Binding    =  -6.49 kcal/mol  [=(1)+(2)+(3)-(4)]USERUSER    (1) Final Intermolecular Energy     =  -9.18 kcal/molUSER        vdW + Hbond + desolv Energy     =  -9.09 kcal/molUSER        Electrostatic Energy            =  -0.26 kcal/molUSER        Moving Ligand-Fixed Receptor    =  -9.35 kcal/molUSER        Moving Ligand-Moving Receptor   =  +0.17 kcal/molUSER    (2) Final Total Internal Energy     =  -1.80 kcal/molUSER    (3) Torsional Free Energy           =  +2.68 kcal/molUSER    (4) Unbound System's Energy         =  -1.80 kcal/molUSERUSERREMARK SMILES CNCC(=O)NC1=CC=C[C@H]2Cc3cc(OC)ccc3[C@H](O)C[C@@H]12REMARK SMILES IDX 7 1 8 2 9 3 10 4 11 5 24 6 6 7 4 8 5 9 3 11 2 12 1 13 23 15REMARK SMILES IDX 12 17 13 18 14 19 20 20 15 21 19 22 18 23 21 24 22 26 16 28REMARK SMILES IDX 17 29REMARK H PARENT 6 10 2 14 22 27REMARK Flexibility Score:   28.900USER                              x       y       z     vdW  Elec       q    TypeUSER                           _______ _______ _______ _____ _____    ______ ____ROOTATOM      1  C   UNL     1      34.515  42.366  18.508 -0.45 -0.00    +0.022 C  ATOM      2  C   UNL     1      35.501  42.287  19.420 -0.46 -0.00    +0.021 C  ATOM      3  C   UNL     1      36.254  43.439  19.849 -0.47 +0.00    -0.002 C  ATOM      4  C   UNL     1      36.229  44.578  19.150 -0.39 +0.00    -0.022 C  ATOM      5  C   UNL     1      35.412  44.722  17.886 -0.37 -0.01    +0.025 C  ATOM      6  C   UNL     1      34.203  43.731  17.845 -0.34 -0.01    +0.046 C  ENDROOTBRANCH   1   7ATOM      7  N   UNL     1      33.714  41.286  18.163 -0.17 +0.08    -0.328 N  ATOM      8  C   UNL     1      32.326  41.196  18.142 -0.29 -0.05    +0.238 C  ATOM      9  O   UNL     1      31.531  42.080  18.456 -0.18 +0.03    -0.273 OA ATOM     10  H   UNL     1      34.199  40.449  17.869 -0.42 -0.08    +0.169 HD BRANCH   8  11ATOM     11  C   UNL     1      31.831  39.820  17.662 -0.31 -0.03    +0.182 C  BRANCH  11  12ATOM     12  N   UNL     1      32.850  38.776  17.871 -0.21 +0.05    -0.311 NA ATOM     13  C   UNL     1      32.286  37.593  18.512 -0.47 +0.02    +0.101 C  ATOM     14  H   UNL     1      33.192  38.504  16.944 -0.03 -0.04    +0.122 HD ENDBRANCH  11  12ENDBRANCH   8  11ENDBRANCH   1   7BRANCH   6  15ATOM     15  C   UNL     1      33.615  43.605  16.419 -0.37 -0.02    +0.047 CG0ATOM     16  G   UNL     1      33.415  44.923  15.666 +0.00 +0.00    +0.000 G0 ENDBRANCH   6  15BRANCH   5  17ATOM     17  C   UNL     1      36.349  44.569  16.670 -0.36 -0.02    +0.044 C  BRANCH  17  18ATOM     18  C   UNL     1      35.952  45.382  15.454 -0.33 +0.02    -0.038 A  ATOM     19  C   UNL     1      36.994  45.988  14.720 -0.36 -0.02    +0.050 A  ATOM     20  C   UNL     1      34.631  45.534  15.002 -0.32 +0.01    -0.016 A  ATOM     21  C   UNL     1      36.752  46.763  13.583 -0.43 -0.06    +0.119 A  ATOM     22  C   UNL     1      34.398  46.331  13.860 -0.24 -0.01    +0.010 A  ATOM     23  C   UNL     1      35.443  46.939  13.158 -0.49 -0.03    +0.047 A  BRANCH  20  24ATOM     24  C   UNL     1      33.413  44.923  15.666 -0.28 -0.10    +0.145 CG0ATOM     25  G   UNL     1      33.615  43.606  16.419 +0.00 +0.00    +0.000 G0 BRANCH  24  26ATOM     26  O   UNL     1      32.780  45.874  16.519 -0.20 +0.39    -0.388 OA ATOM     27  H   UNL     1      32.468  46.611  15.966 -0.39 -0.40    +0.211 HD ENDBRANCH  24  26ENDBRANCH  20  24BRANCH  21  28ATOM     28  O   UNL     1      37.870  47.285  12.995 -0.52 +0.11    -0.497 OA ATOM     29  C   UNL     1      38.733  48.053  13.824 -0.27 -0.08    +0.278 C  ENDBRANCH  21  28ENDBRANCH  17  18ENDBRANCH   5  17TORSDOF 5TERENDMDL