MODEL        6USER    Run = 6USERUSER    Estimated Free Energy of Binding    =  -5.53 kcal/mol  [=(1)+(2)+(3)-(4)]USERUSER    (1) Final Intermolecular Energy     =  -7.91 kcal/molUSER        vdW + Hbond + desolv Energy     =  -8.52 kcal/molUSER        Electrostatic Energy            =  -0.12 kcal/molUSER        Moving Ligand-Fixed Receptor    =  -8.64 kcal/molUSER        Moving Ligand-Moving Receptor   =  +0.73 kcal/molUSER    (2) Final Total Internal Energy     =  -0.50 kcal/molUSER    (3) Torsional Free Energy           =  +2.39 kcal/molUSER    (4) Unbound System's Energy         =  -0.50 kcal/molUSERUSERREMARK SMILES CCC[C@H]1COC(=O)c2ccc(I)cc2CN1REMARK SMILES IDX 17 1 4 3 3 5 2 6 1 7 16 8 15 9 14 10 9 11 12 12 10 13 11 14REMARK SMILES IDX 13 15 7 16 8 17 6 18 5 19REMARK H PARENT 17 2REMARK Flexibility Score:   44.900USER                              x       y       z     vdW  Elec       q    TypeUSER                           _______ _______ _______ _____ _____    ______ ____ROOTATOM      1  N   UNL     1      39.568  46.709  15.948 -0.21 +0.07    -0.307 NA ATOM      2  H   UNL     1      40.523  46.387  16.113 +0.08 -0.01    +0.123 HD ENDROOTBRANCH   1   3ATOM      3  C   UNL     1      39.596  48.152  15.629 -0.53 -0.03    +0.092 CG0ATOM      4  G   UNL     1      38.437  48.647  14.719 +0.00 +0.00    +0.000 G0 BRANCH   3   5ATOM      5  C   UNL     1      40.945  48.516  14.970 -0.62 -0.00    +0.022 C  BRANCH   5   6ATOM      6  C   UNL     1      41.320  49.993  15.133 -0.76 +0.00    -0.002 C  ATOM      7  C   UNL     1      42.403  50.401  14.147 -0.75 -0.00    +0.004 C  ENDBRANCH   5   6ENDBRANCH   3   5ENDBRANCH   1   3BRANCH   1   8ATOM      8  C   UNL     1      38.965  45.814  14.956 -0.33 -0.03    +0.118 C  BRANCH   8   9ATOM      9  C   UNL     1      37.449  45.777  14.927 -0.37 +0.01    -0.019 A  ATOM     10  C   UNL     1      36.792  44.921  15.838 -0.34 -0.01    +0.020 A  ATOM     11  C   UNL     1      36.654  46.534  14.034 -0.41 -0.03    +0.064 A  ATOM     12  C   UNL     1      35.401  44.816  15.855 -0.33 -0.01    +0.013 A  ATOM     13  C   UNL     1      35.252  46.425  14.072 -0.42 -0.01    +0.017 A  ATOM     14  C   UNL     1      34.627  45.563  14.973 -0.32 -0.01    +0.015 A  ATOM     15  I   UNL     1      34.477  43.541  17.211 -1.01 +0.02    -0.044 I  BRANCH  11  16ATOM     16  C   UNL     1      37.200  47.554  13.096 -0.37 -0.12    +0.338 C  ATOM     17  O   UNL     1      36.586  48.011  12.146 -1.06 +0.09    -0.246 OA BRANCH  16  18ATOM     18  O   UNL     1      38.438  47.944  13.464 -0.46 +0.10    -0.460 OA BRANCH  18  19ATOM     19  C   UNL     1      38.435  48.639  14.719 -0.31 -0.14    +0.252 CG0ATOM     20  G   UNL     1      39.596  48.157  15.633 +0.00 +0.00    +0.000 G0 ENDBRANCH  18  19ENDBRANCH  16  18ENDBRANCH  11  16ENDBRANCH   8   9ENDBRANCH   1   8TORSDOF 2TERENDMDL