MODEL        9USER    Run = 9USERUSER    Estimated Free Energy of Binding    =  -9.53 kcal/mol  [=(1)+(2)+(3)-(4)]USERUSER    (1) Final Intermolecular Energy     = -12.82 kcal/molUSER        vdW + Hbond + desolv Energy     = -12.85 kcal/molUSER        Electrostatic Energy            =  -0.09 kcal/molUSER        Moving Ligand-Fixed Receptor    = -12.94 kcal/molUSER        Moving Ligand-Moving Receptor   =  +0.13 kcal/molUSER    (2) Final Total Internal Energy     =  -0.73 kcal/molUSER    (3) Torsional Free Energy           =  +3.28 kcal/molUSER    (4) Unbound System's Energy         =  -0.73 kcal/molUSERUSERREMARK SMILES O=C(c1ccc(C2=NNC=NC=C2)cc1)N1CCN(CCCc2ccccc2)CC1REMARK SMILES IDX 3 1 4 2 5 3 6 4 14 5 15 6 2 7 16 8 17 9 30 10 18 11 29 12REMARK SMILES IDX 19 13 1 14 20 15 21 16 22 17 23 18 24 19 28 20 25 21 27 22REMARK SMILES IDX 26 23 7 24 8 26 9 27 10 28 11 30 12 31 13 32REMARK H PARENT 9 29REMARK Flexibility Score:  130.900USER                              x       y       z     vdW  Elec       q    TypeUSER                           _______ _______ _______ _____ _____    ______ ____ROOTATOM      1  C   UNL     1      35.197  44.093  18.401 -0.30 -0.01    +0.040 A  ATOM      2  C   UNL     1      34.896  45.459  18.403 -0.40 -0.01    +0.014 A  ATOM      3  C   UNL     1      35.136  46.223  17.258 -0.38 -0.01    +0.011 A  ATOM      4  C   UNL     1      35.702  45.631  16.121 -0.34 -0.00    +0.002 A  ATOM      5  C   UNL     1      36.014  44.263  16.127 -0.35 -0.00    +0.011 A  ATOM      6  C   UNL     1      35.771  43.499  17.271 -0.34 -0.00    +0.014 A  ENDROOTBRANCH   1   7ATOM      7  C   UNL     1      34.979  43.261  19.606 -0.30 -0.02    +0.253 C  ATOM      8  N   UNL     1      36.063  42.944  20.413 -0.21 +0.01    -0.336 N  ATOM      9  C   UNL     1      35.845  42.038  21.541 -0.39 +0.01    +0.135 C  ATOM     10  C   UNL     1      37.366  43.621  20.382 -0.33 -0.00    +0.135 C  ATOM     11  C   UNL     1      37.160  41.415  22.042 -0.54 +0.01    +0.106 C  ATOM     12  C   UNL     1      38.006  43.701  21.782 -0.35 +0.00    +0.106 C  ATOM     13  N   UNL     1      38.216  42.382  22.419 -0.17 -0.02    -0.300 NA ATOM     14  O   UNL     1      33.832  42.885  19.838 -0.73 -0.02    -0.269 OA BRANCH  13  15ATOM     15  C   UNL     1      38.343  42.489  23.883 -0.24 +0.01    +0.085 C  BRANCH  15  16ATOM     16  C   UNL     1      37.196  43.285  24.526 -0.40 +0.00    +0.020 C  BRANCH  16  17ATOM     17  C   UNL     1      36.468  42.490  25.616 -0.45 -0.00    +0.037 C  BRANCH  17  18ATOM     18  C   UNL     1      35.950  43.345  26.747 -0.42 +0.01    -0.048 A  ATOM     19  C   UNL     1      36.618  44.520  27.113 -0.40 -0.00    +0.004 A  ATOM     20  C   UNL     1      34.797  42.971  27.450 -0.59 -0.00    +0.004 A  ATOM     21  C   UNL     1      36.146  45.304  28.167 -0.40 -0.00    +0.000 A  ATOM     22  C   UNL     1      34.325  43.756  28.504 -0.60 -0.00    +0.000 A  ATOM     23  C   UNL     1      34.999  44.922  28.862 -0.46 -0.00    +0.000 A  ENDBRANCH  17  18ENDBRANCH  16  17ENDBRANCH  15  16ENDBRANCH  13  15ENDBRANCH   1   7BRANCH   4  24ATOM     24  C   UNL     1      35.943  46.475  14.909 -0.38 -0.07    +0.092 CG0ATOM     25  G   UNL     1      37.263  47.158  14.898 +0.00 +0.00    +0.000 G0 BRANCH  24  26ATOM     26  N   UNL     1      34.974  46.563  14.056 -0.34 +0.15    -0.174 NA BRANCH  26  27ATOM     27  N   UNL     1      35.237  46.741  12.733 -0.30 +0.19    -0.267 N  ATOM     28  C   UNL     1      36.459  46.977  12.147 -0.58 -0.09    +0.214 C  ATOM     29  H   UNL     1      34.609  46.200  12.142 -0.25 -0.16    +0.191 HD BRANCH  28  30ATOM     30  N   UNL     1      37.520  47.614  12.506 -0.95 +0.04    -0.245 NA BRANCH  30  31ATOM     31  C   UNL     1      37.902  47.601  13.813 -0.50 -0.04    +0.115 C  BRANCH  31  32ATOM     32  C   UNL     1      37.263  47.159  14.898 -0.46 -0.03    +0.051 CG0ATOM     33  G   UNL     1      35.942  46.477  14.910 +0.00 +0.00    +0.000 G0 ENDBRANCH  31  32ENDBRANCH  30  31ENDBRANCH  28  30ENDBRANCH  26  27ENDBRANCH  24  26ENDBRANCH   4  24TORSDOF 6TERENDMDL