REMARK SMILES COCC(C)(C)c1ccc(C=C2C(=O)Nc3ccccc3C2=O)o1
REMARK SMILES IDX 7 1 8 2 9 3 10 4 24 5 4 6 5 7 6 8 3 9 2 10 1 11 11 12 12 13
REMARK SMILES IDX 13 14 22 15 15 16 21 17 16 18 20 19 17 20 19 21 18 22 14 23
REMARK SMILES IDX 23 24
REMARK H PARENT 15 25
ROOT
ATOM      1  C   UNL     1       2.080  -0.252  -1.051  1.00  0.00     0.112 A 
ATOM      2  C   UNL     1       1.411  -1.395  -0.674  1.00  0.00     0.047 A 
ATOM      3  C   UNL     1       0.036  -1.069  -0.674  1.00  0.00     0.050 A 
ATOM      4  C   UNL     1      -0.093   0.267  -1.032  1.00  0.00     0.128 A 
ATOM      5  O   UNL     1       1.176   0.739  -1.289  1.00  0.00    -0.461 OA
ENDROOT
BRANCH   1   6
ATOM      6  C   UNL     1       3.544   0.072  -1.257  1.00  0.00     0.046 C 
ATOM      7  C   UNL     1       4.042  -0.638  -2.530  1.00  0.00     0.022 C 
ATOM      8  C   UNL     1       3.751   1.592  -1.432  1.00  0.00     0.022 C 
BRANCH   6   9
ATOM      9  C   UNL     1       4.368  -0.373  -0.020  1.00  0.00     0.174 C 
BRANCH   9  10
ATOM     10  O   UNL     1       4.475  -1.800   0.060  1.00  0.00    -0.384 OA
ATOM     11  C   UNL     1       5.176  -2.209   1.227  1.00  0.00     0.194 C 
ENDBRANCH   9  10
ENDBRANCH   6   9
ENDBRANCH   1   6
BRANCH   4  12
ATOM     12  C   UNL     1      -1.234   1.089  -1.236  1.00  0.00     0.065 C 
BRANCH  12  13
ATOM     13  C   UNL     1      -2.347   1.164  -0.479  1.00  0.00     0.091 C 
ATOM     14  C   UNL     1      -3.392   2.092  -1.011  1.00  0.00     0.259 C 
ATOM     15  C   UNL     1      -2.587   0.444   0.805  1.00  0.00     0.200 C 
ATOM     16  N   UNL     1      -4.573   2.147  -0.330  1.00  0.00    -0.321 N 
ATOM     17  C   UNL     1      -3.931   0.576   1.402  1.00  0.00     0.046 A 
ATOM     18  C   UNL     1      -4.873   1.420   0.821  1.00  0.00     0.052 A 
ATOM     19  C   UNL     1      -4.255  -0.138   2.564  1.00  0.00     0.014 A 
ATOM     20  C   UNL     1      -6.140   1.556   1.394  1.00  0.00     0.027 A 
ATOM     21  C   UNL     1      -5.521  -0.005   3.135  1.00  0.00     0.001 A 
ATOM     22  C   UNL     1      -6.462   0.841   2.550  1.00  0.00     0.002 A 
ATOM     23  O   UNL     1      -3.244   2.779  -2.019  1.00  0.00    -0.269 OA
ATOM     24  O   UNL     1      -1.745  -0.222   1.395  1.00  0.00    -0.288 OA
ATOM     25  H   UNL     1      -5.264   2.772  -0.729  1.00  0.00     0.170 HD
ENDBRANCH  12  13
ENDBRANCH   4  12
TORSDOF 5
