MODEL        1USER    Run = 1USERUSER    Estimated Free Energy of Binding    =  -9.54 kcal/mol  [=(1)+(2)+(3)-(4)]USERUSER    (1) Final Intermolecular Energy     = -10.74 kcal/molUSER        vdW + Hbond + desolv Energy     = -10.60 kcal/molUSER        Electrostatic Energy            =  -0.13 kcal/molUSER        Moving Ligand-Fixed Receptor    = -10.74 kcal/molUSER        Moving Ligand-Moving Receptor   =  +0.00 kcal/molUSER    (2) Final Total Internal Energy     =  -1.59 kcal/molUSER    (3) Torsional Free Energy           =  +1.19 kcal/molUSER    (4) Unbound System's Energy         =  -1.59 kcal/molUSERUSERREMARK SMILES Cc1cc(Br)ccc1S(=O)(=O)Nc1ccc(N2CCCCC2)cc1REMARK SMILES IDX 9 1 10 2 11 3 8 4 2 5 3 6 4 7 7 8 6 9 1 10 5 11 12 12 13 14REMARK SMILES IDX 14 15 24 16 15 17 23 18 16 19 17 20 18 21 22 22 19 23 21 24REMARK SMILES IDX 20 25REMARK H PARENT 12 13USER                              x       y       z     vdW  Elec       q    TypeUSER                           _______ _______ _______ _____ _____    ______ ____ROOTATOM      1  S   UNL     1      33.448  42.306  18.798 -0.39 -0.03    +0.262 S  ATOM      2  O   UNL     1      32.770  41.027  18.754 -0.46 +0.01    -0.201 OA ATOM      3  O   UNL     1      33.500  43.063  20.032 -0.86 -0.03    -0.201 OA ENDROOTBRANCH   1   4ATOM      4  C   UNL     1      32.747  43.356  17.526 -0.25 -0.03    +0.090 A  ATOM      5  C   UNL     1      32.909  44.757  17.529 -0.30 +0.01    -0.029 A  ATOM      6  C   UNL     1      32.352  45.493  16.466 -0.25 -0.01    +0.020 A  ATOM      7  C   UNL     1      31.647  44.855  15.443 -0.38 -0.01    +0.018 A  ATOM      8  C   UNL     1      32.041  42.724  16.487 -0.27 -0.01    +0.024 A  ATOM      9  C   UNL     1      31.487  43.474  15.450 -0.36 -0.01    +0.017 A  ATOM     10  C   UNL     1      33.673  45.505  18.585 -0.50 -0.02    +0.046 C  ATOM     11  Br  UNL     1      30.909  45.875  14.030 -1.08 +0.03    -0.051 Br ENDBRANCH   1   4BRANCH   1  12ATOM     12  N   UNL     1      35.022  42.034  18.257 -0.23 +0.07    -0.280 N  ATOM     13  H   UNL     1      35.207  41.049  18.078 -0.34 -0.06    +0.180 HD BRANCH  12  14ATOM     14  C   UNL     1      35.673  42.999  17.443 -0.32 -0.02    +0.049 A  ATOM     15  C   UNL     1      35.550  42.905  16.061 -0.43 -0.01    +0.029 A  ATOM     16  C   UNL     1      36.423  44.032  17.995 -0.30 -0.01    +0.029 A  ATOM     17  C   UNL     1      36.174  43.849  15.239 -0.34 -0.01    +0.028 A  ATOM     18  C   UNL     1      37.044  44.974  17.166 -0.33 -0.01    +0.028 A  ATOM     19  C   UNL     1      36.937  44.903  15.769 -0.33 -0.01    +0.037 A  BRANCH  19  20ATOM     20  N   UNL     1      37.552  45.812  14.900 -0.11 +0.15    -0.372 N  ATOM     21  C   UNL     1      37.388  45.658  13.447 -0.44 -0.04    +0.116 C  ATOM     22  C   UNL     1      37.575  47.195  15.421 -0.41 -0.07    +0.116 C  ATOM     23  C   UNL     1      36.418  46.700  12.900 -0.67 -0.01    +0.021 C  ATOM     24  C   UNL     1      37.910  48.201  14.321 -0.60 -0.01    +0.021 C  ATOM     25  C   UNL     1      36.916  48.123  13.162 -0.67 -0.00    +0.004 C  ENDBRANCH  19  20ENDBRANCH  12  14ENDBRANCH   1  12TORSDOF 4TERENDMDL