REMARK SMILES CCC[C@H]1COC(=O)c2ccc(I)cc2CN1
REMARK SMILES IDX 17 1 4 3 3 5 2 6 1 7 16 8 15 9 14 10 9 11 12 12 10 13 11 14
REMARK SMILES IDX 13 15 7 16 8 17 6 18 5 19
REMARK H PARENT 17 2
REMARK Flexibility Score:   44.900
ROOT
ATOM      1  N   UNL     1       0.607  -0.385  -1.087  1.00  0.00    -0.307 NA
ATOM      2  H   UNL     1       1.299  -0.353  -1.837  1.00  0.00     0.123 HD
ENDROOT
BRANCH   1   3
ATOM      3  C   UNL     1       0.914   0.676  -0.105  1.00  0.00     0.092 CG0
ATOM      4  G   UNL     1       0.440   2.101  -0.506  1.00  0.00     0.000 G0
BRANCH   3   5
ATOM      5  C   UNL     1       2.434   0.710   0.171  1.00  0.00     0.022 C 
BRANCH   5   6
ATOM      6  C   UNL     1       2.975  -0.602   0.750  1.00  0.00    -0.002 C 
ATOM      7  C   UNL     1       4.456  -0.493   1.079  1.00  0.00     0.004 C 
ENDBRANCH   5   6
ENDBRANCH   3   5
ENDBRANCH   1   3
BRANCH   1   8
ATOM      8  C   UNL     1      -0.720  -0.360  -1.708  1.00  0.00     0.118 C 
BRANCH   8   9
ATOM      9  C   UNL     1      -1.898  -0.541  -0.771  1.00  0.00    -0.019 A 
ATOM     10  C   UNL     1      -2.577  -1.778  -0.795  1.00  0.00     0.020 A 
ATOM     11  C   UNL     1      -2.368   0.458   0.115  1.00  0.00     0.064 A 
ATOM     12  C   UNL     1      -3.684  -2.011   0.023  1.00  0.00     0.013 A 
ATOM     13  C   UNL     1      -3.478   0.204   0.940  1.00  0.00     0.017 A 
ATOM     14  C   UNL     1      -4.140  -1.023   0.889  1.00  0.00     0.015 A 
ATOM     15  I   UNL     1      -4.655  -3.847  -0.049  1.00  0.00    -0.044 I 
BRANCH  11  16
ATOM     16  C   UNL     1      -1.689   1.767   0.326  1.00  0.00     0.338 C 
ATOM     17  O   UNL     1      -1.738   2.406   1.364  1.00  0.00    -0.246 OA
BRANCH  16  18
ATOM     18  O   UNL     1      -0.972   2.127  -0.759  1.00  0.00    -0.460 OA
BRANCH  18  19
ATOM     19  C   UNL     1       0.440   2.101  -0.506  1.00  0.00     0.252 CG0
ATOM     20  G   UNL     1       0.914   0.676  -0.105  1.00  0.00     0.000 G0
ENDBRANCH  18  19
ENDBRANCH  16  18
ENDBRANCH  11  16
ENDBRANCH   8   9
ENDBRANCH   1   8
TORSDOF 2
