REMARK SMILES CNCC(=O)NC1=CC=C[C@H]2Cc3cc(OC)ccc3[C@H](O)C[C@@H]12
REMARK SMILES IDX 7 1 8 2 9 3 10 4 11 5 24 6 6 7 4 8 5 9 3 11 2 12 1 13 23 15
REMARK SMILES IDX 12 17 13 18 14 19 20 20 15 21 19 22 18 23 21 24 22 26 16 28
REMARK SMILES IDX 17 29
REMARK H PARENT 6 10 2 14 22 27
REMARK Flexibility Score:   28.900
ROOT
ATOM      1  C   UNL     1       1.813   0.716  -1.454  1.00  0.00     0.022 C 
ATOM      2  C   UNL     1       1.975   0.146  -2.662  1.00  0.00     0.021 C 
ATOM      3  C   UNL     1       0.889  -0.011  -3.596  1.00  0.00    -0.002 C 
ATOM      4  C   UNL     1      -0.383   0.113  -3.203  1.00  0.00    -0.022 C 
ATOM      5  C   UNL     1      -0.748   0.428  -1.770  1.00  0.00     0.025 C 
ATOM      6  C   UNL     1       0.400   1.176  -1.015  1.00  0.00     0.046 C 
ENDROOT
BRANCH   1   7
ATOM      7  N   UNL     1       2.868   0.968  -0.587  1.00  0.00    -0.328 N 
ATOM      8  C   UNL     1       4.209   0.621  -0.715  1.00  0.00     0.238 C 
ATOM      9  O   UNL     1       4.716  -0.011  -1.640  1.00  0.00    -0.273 OA
ATOM     10  H   UNL     1       2.641   1.490   0.248  1.00  0.00     0.169 HD
BRANCH   8  11
ATOM     11  C   UNL     1       5.063   1.123   0.463  1.00  0.00     0.182 C 
BRANCH  11  12
ATOM     12  N   UNL     1       6.168   0.195   0.764  1.00  0.00    -0.311 NA
ATOM     13  C   UNL     1       5.689  -1.019   1.416  1.00  0.00     0.101 C 
ATOM     14  H   UNL     1       6.588  -0.069  -0.133  1.00  0.00     0.122 HD
ENDBRANCH  11  12
ENDBRANCH   8  11
ENDBRANCH   1   7
BRANCH   6  15
ATOM     15  C   UNL     1       0.189   1.149   0.518  1.00  0.00     0.047 CG0
ATOM     16  G   UNL     1      -1.230   1.465   0.997  1.00  0.00     0.000 G0
ENDBRANCH   6  15
BRANCH   5  17
ATOM     17  C   UNL     1      -1.171  -0.878  -1.067  1.00  0.00     0.044 C 
BRANCH  17  18
ATOM     18  C   UNL     1      -2.226  -0.710   0.008  1.00  0.00    -0.038 A 
ATOM     19  C   UNL     1      -3.225  -1.704   0.087  1.00  0.00     0.050 A 
ATOM     20  C   UNL     1      -2.246   0.342   0.939  1.00  0.00    -0.016 A 
ATOM     21  C   UNL     1      -4.251  -1.656   1.034  1.00  0.00     0.119 A 
ATOM     22  C   UNL     1      -3.296   0.387   1.882  1.00  0.00     0.010 A 
ATOM     23  C   UNL     1      -4.287  -0.598   1.931  1.00  0.00     0.047 A 
BRANCH  20  24
ATOM     24  C   UNL     1      -1.230   1.465   0.997  1.00  0.00     0.145 CG0
ATOM     25  G   UNL     1       0.189   1.149   0.518  1.00  0.00     0.000 G0
BRANCH  24  26
ATOM     26  O   UNL     1      -1.722   2.619   0.320  1.00  0.00    -0.388 OA
ATOM     27  H   UNL     1      -2.660   2.467   0.112  1.00  0.00     0.211 HD
ENDBRANCH  24  26
ENDBRANCH  20  24
BRANCH  21  28
ATOM     28  O   UNL     1      -5.141  -2.691   0.969  1.00  0.00    -0.497 OA
ATOM     29  C   UNL     1      -6.196  -2.693   1.923  1.00  0.00     0.278 C 
ENDBRANCH  21  28
ENDBRANCH  17  18
ENDBRANCH   5  17
TORSDOF 5
