REMARK SMILES CC1=C(C=NC(NCc2ccccn2)=C2C=NN(C(C)C)C2=N)C=C1
REMARK SMILES IDX 5 1 4 2 3 3 2 4 25 5 24 6 1 7 6 8 7 9 8 11 9 12 10 13 14 14
REMARK SMILES IDX 11 15 13 16 12 17 15 18 16 19 22 20 17 21 18 22 23 23 19 25
REMARK SMILES IDX 20 26 21 27
REMARK H PARENT 7 10 23 24
ROOT
ATOM      1  N   UNL     1      -1.227   1.510  -1.536  1.00  0.00    -0.238 NA
ENDROOT
BRANCH   1   2
ATOM      2  C   UNL     1      -0.839   2.700  -1.174  1.00  0.00     0.121 C 
BRANCH   2   3
ATOM      3  C   UNL     1       0.121   3.155  -0.170  1.00  0.00    -0.004 C 
ATOM      4  C   UNL     1       0.577   4.367   0.171  1.00  0.00    -0.042 C 
ATOM      5  C   UNL     1       1.397   3.745   1.173  1.00  0.00     0.005 C 
ATOM      6  C   UNL     1       0.921   2.533   0.820  1.00  0.00     0.010 C 
ATOM      7  C   UNL     1       0.360   5.825  -0.279  1.00  0.00     0.045 C 
ENDBRANCH   2   3
ENDBRANCH   1   2
BRANCH   1   8
ATOM      8  C   UNL     1      -0.673   0.422  -0.909  1.00  0.00     0.138 C 
BRANCH   8   9
ATOM      9  N   UNL     1      -1.283  -0.051   0.250  1.00  0.00    -0.364 N 
ATOM     10  H   UNL     1      -1.850   0.714   0.614  1.00  0.00     0.162 HD
BRANCH   9  11
ATOM     11  C   UNL     1      -2.152  -1.242   0.164  1.00  0.00     0.170 C 
BRANCH  11  12
ATOM     12  C   UNL     1      -2.960  -1.403   1.437  1.00  0.00     0.059 A 
ATOM     13  C   UNL     1      -4.171  -0.725   1.587  1.00  0.00     0.026 A 
ATOM     14  N   UNL     1      -2.441  -2.182   2.419  1.00  0.00    -0.259 NA
ATOM     15  C   UNL     1      -4.878  -0.865   2.778  1.00  0.00     0.004 A 
ATOM     16  C   UNL     1      -3.148  -2.297   3.564  1.00  0.00     0.111 A 
ATOM     17  C   UNL     1      -4.359  -1.666   3.788  1.00  0.00     0.020 A 
ENDBRANCH  11  12
ENDBRANCH   9  11
ENDBRANCH   8   9
BRANCH   8  18
ATOM     18  C   UNL     1       0.405  -0.170  -1.450  1.00  0.00     0.081 C 
ATOM     19  C   UNL     1       1.047   0.176  -2.736  1.00  0.00     0.149 C 
ATOM     20  C   UNL     1       1.263  -1.279  -0.959  1.00  0.00     0.154 C 
ATOM     21  N   UNL     1       2.068  -0.582  -3.040  1.00  0.00    -0.178 NA
ATOM     22  N   UNL     1       2.175  -1.497  -1.984  1.00  0.00    -0.245 N 
BRANCH  20  23
ATOM     23  N   UNL     1       1.196  -1.863   0.186  1.00  0.00    -0.282 NA
ATOM     24  H   UNL     1       0.431  -1.438   0.733  1.00  0.00     0.189 HD
ENDBRANCH  20  23
BRANCH  22  25
ATOM     25  C   UNL     1       3.350  -2.358  -1.941  1.00  0.00     0.103 C 
ATOM     26  C   UNL     1       2.958  -3.814  -1.706  1.00  0.00     0.033 C 
ATOM     27  C   UNL     1       4.351  -1.864  -0.901  1.00  0.00     0.033 C 
ENDBRANCH  22  25
ENDBRANCH   8  18
ENDBRANCH   1   8
TORSDOF 9
