REMARK SMILES CC1=C(OCl)C=CC=NC(Nc2ccc(N3CCOCC3)cc2)=NCC=N1
REMARK SMILES IDX 10 1 11 2 24 4 25 5 26 6 27 7 2 8 1 9 9 11 8 12 7 13 6 14
REMARK SMILES IDX 3 15 4 17 5 18 12 19 13 20 23 21 14 22 22 23 15 24 16 25
REMARK SMILES IDX 17 26 21 27 18 28 20 29 19 30
REMARK H PARENT 11 3
REMARK Flexibility Score:   24.900
ROOT
ATOM      1  C   UNL     1       1.842  -0.365   1.428  1.00  0.00     0.222 C 
ATOM      2  N   UNL     1       1.042   0.692   1.080  1.00  0.00    -0.324 N 
ATOM      3  H   UNL     1       1.315   1.530   1.583  1.00  0.00     0.170 HD
ENDROOT
BRANCH   1   4
ATOM      4  N   UNL     1       1.908  -1.562   0.961  1.00  0.00    -0.245 NA
BRANCH   4   5
ATOM      5  C   UNL     1       1.613  -1.764  -0.452  1.00  0.00     0.194 C 
BRANCH   5   6
ATOM      6  C   UNL     1       2.866  -1.290  -1.199  1.00  0.00     0.108 C 
BRANCH   6   7
ATOM      7  N   UNL     1       4.063  -1.624  -0.807  1.00  0.00    -0.260 NA
BRANCH   7   8
ATOM      8  C   UNL     1       5.143  -0.984  -1.383  1.00  0.00     0.081 CG0
ATOM      9  C   UNL     1       5.269  -1.096  -2.892  1.00  0.00     0.071 C 
ATOM     10  G   UNL     1       6.112  -0.378  -0.639  1.00  0.00     0.000 G0
ENDBRANCH   7   8
ENDBRANCH   6   7
ENDBRANCH   5   6
ENDBRANCH   4   5
ENDBRANCH   1   4
BRANCH   1  11
ATOM     11  N   UNL     1       2.928  -0.107   2.233  1.00  0.00    -0.222 NA
BRANCH  11  12
ATOM     12  C   UNL     1       3.930   0.199   1.465  1.00  0.00     0.115 C 
BRANCH  12  13
ATOM     13  C   UNL     1       5.339  -0.020   1.795  1.00  0.00     0.024 C 
BRANCH  13  14
ATOM     14  C   UNL     1       6.233  -0.283   0.826  1.00  0.00     0.052 C 
BRANCH  14  15
ATOM     15  C   UNL     1       6.112  -0.378  -0.639  1.00  0.00     0.167 CG0
ATOM     16  G   UNL     1       5.143  -0.984  -1.383  1.00  0.00     0.000 G0
BRANCH  15  17
ATOM     17  O   UNL     1       7.201   0.223  -1.267  1.00  0.00    -0.384 OA
ATOM     18  Cl  UNL     1       8.503  -0.834  -1.477  1.00  0.00     0.135 Cl
ENDBRANCH  15  17
ENDBRANCH  14  15
ENDBRANCH  13  14
ENDBRANCH  12  13
ENDBRANCH  11  12
ENDBRANCH   1  11
BRANCH   2  19
ATOM     19  C   UNL     1      -0.364   0.643   0.956  1.00  0.00     0.041 A 
ATOM     20  C   UNL     1      -1.031   1.773   0.477  1.00  0.00     0.028 A 
ATOM     21  C   UNL     1      -1.130  -0.486   1.239  1.00  0.00     0.028 A 
ATOM     22  C   UNL     1      -2.423   1.773   0.300  1.00  0.00     0.028 A 
ATOM     23  C   UNL     1      -2.523  -0.477   1.062  1.00  0.00     0.028 A 
ATOM     24  C   UNL     1      -3.211   0.651   0.594  1.00  0.00     0.037 A 
BRANCH  24  25
ATOM     25  N   UNL     1      -4.582   0.655   0.412  1.00  0.00    -0.367 N 
ATOM     26  C   UNL     1      -5.360   1.907   0.399  1.00  0.00     0.145 C 
ATOM     27  C   UNL     1      -5.377  -0.583   0.414  1.00  0.00     0.145 C 
ATOM     28  C   UNL     1      -6.762   1.670   0.986  1.00  0.00     0.181 C 
ATOM     29  C   UNL     1      -6.719  -0.350  -0.297  1.00  0.00     0.181 C 
ATOM     30  O   UNL     1      -7.527   0.680   0.287  1.00  0.00    -0.378 OA
ENDBRANCH  24  25
ENDBRANCH   2  19
TORSDOF 3
