MODEL        9USER    Run = 9USERUSER    Estimated Free Energy of Binding    =  -7.89 kcal/mol  [=(1)+(2)+(3)-(4)]USERUSER    (1) Final Intermolecular Energy     =  -9.98 kcal/molUSER        vdW + Hbond + desolv Energy     =  -9.91 kcal/molUSER        Electrostatic Energy            =  -0.07 kcal/molUSER        Moving Ligand-Fixed Receptor    =  -9.98 kcal/molUSER        Moving Ligand-Moving Receptor   =  +0.00 kcal/molUSER    (2) Final Total Internal Energy     =  -1.68 kcal/molUSER    (3) Torsional Free Energy           =  +2.09 kcal/molUSER    (4) Unbound System's Energy         =  -1.68 kcal/molUSERUSERREMARK SMILES CC(C)Nc1nccc(CN(Cl)C(=O)c2ccc(C(F)(F)F)cc2)n1REMARK SMILES IDX 10 1 9 2 5 3 6 4 25 5 7 6 8 7 4 8 2 10 1 11 3 12 11 13 12 14REMARK SMILES IDX 13 15 14 16 15 17 16 18 24 19 17 20 23 21 18 22 19 23 20 24REMARK SMILES IDX 21 25 22 26REMARK H PARENT 4 9USER                              x       y       z     vdW  Elec       q    TypeUSER                           _______ _______ _______ _____ _____    ______ ____ROOTATOM      1  C   UNL     1      34.844  45.530  15.198 -0.26 -0.15    +0.196 C  ENDROOTBRANCH   1   2ATOM      2  C   UNL     1      35.690  46.373  14.273 -0.38 -0.05    +0.067 A  ATOM      3  C   UNL     1      37.365  47.945  14.043 -0.36 -0.12    +0.223 A  ATOM      4  N   UNL     1      37.290  47.911  12.709 -0.98 +0.05    -0.222 NA ATOM      5  N   UNL     1      36.589  47.207  14.848 -0.26 +0.17    -0.216 NA ATOM      6  C   UNL     1      36.391  47.072  12.166 -0.58 -0.05    +0.117 A  ATOM      7  C   UNL     1      35.557  46.273  12.904 -0.47 -0.03    +0.046 A  BRANCH   3   8ATOM      8  N   UNL     1      38.266  48.762  14.695 -0.23 +0.22    -0.352 N  ATOM      9  H   UNL     1      37.991  49.712  14.469 -0.46 -0.15    +0.163 HD BRANCH   8  10ATOM     10  C   UNL     1      39.701  48.509  14.634 -0.55 -0.03    +0.076 C  ATOM     11  C   UNL     1      40.475  49.267  15.709 -0.68 -0.01    +0.030 C  ATOM     12  C   UNL     1      40.037  47.020  14.610 -0.45 -0.00    +0.030 C  ENDBRANCH   8  10ENDBRANCH   3   8ENDBRANCH   1   2BRANCH   1  13ATOM     13  N   UNL     1      35.631  44.812  16.196 -0.16 +0.12    -0.244 N  ATOM     14  Cl  UNL     1      35.590  43.058  16.105 -0.66 -0.01    +0.016 Cl BRANCH  13  15ATOM     15  C   UNL     1      35.854  45.427  17.427 -0.22 -0.13    +0.268 C  ATOM     16  O   UNL     1      34.963  45.935  18.107 -0.33 +0.16    -0.268 OA BRANCH  15  17ATOM     17  C   UNL     1      37.243  45.498  17.947 -0.32 -0.01    +0.041 A  ATOM     18  C   UNL     1      38.174  46.297  17.275 -0.36 -0.00    +0.014 A  ATOM     19  C   UNL     1      37.645  44.731  19.046 -0.35 -0.00    +0.014 A  ATOM     20  C   UNL     1      39.495  46.360  17.725 -0.44 -0.00    +0.014 A  ATOM     21  C   UNL     1      38.968  44.795  19.496 -0.38 -0.00    +0.014 A  ATOM     22  C   UNL     1      39.907  45.608  18.838 -0.41 -0.00    +0.056 A  BRANCH  22  23ATOM     23  C   UNL     1      41.330  45.697  19.336 -0.21 +0.03    +0.416 C  ATOM     24  F   UNL     1      41.475  46.623  20.322 -0.13 -0.02    -0.166 F  ATOM     25  F   UNL     1      41.793  44.523  19.851 -0.11 -0.03    -0.166 F  ATOM     26  F   UNL     1      42.214  46.048  18.359 -0.17 -0.01    -0.166 F  ENDBRANCH  22  23ENDBRANCH  15  17ENDBRANCH  13  15ENDBRANCH   1  13TORSDOF 7TERENDMDL