MODEL        10USER    Run = 10USERUSER    Estimated Free Energy of Binding    =  -7.57 kcal/mol  [=(1)+(2)+(3)-(4)]USERUSER    (1) Final Intermolecular Energy     = -10.25 kcal/molUSER        vdW + Hbond + desolv Energy     = -10.18 kcal/molUSER        Electrostatic Energy            =  -0.08 kcal/molUSER        Moving Ligand-Fixed Receptor    = -10.25 kcal/molUSER        Moving Ligand-Moving Receptor   =  +0.00 kcal/molUSER    (2) Final Total Internal Energy     =  -2.89 kcal/molUSER    (3) Torsional Free Energy           =  +2.68 kcal/molUSER    (4) Unbound System's Energy         =  -2.89 kcal/molUSERUSERREMARK SMILES CC1=C(C=NC(NCc2ccccn2)=C2C=NN(C(C)C)C2=N)C=C1REMARK SMILES IDX 5 1 4 2 3 3 2 4 25 5 24 6 1 7 6 8 7 9 8 11 9 12 10 13 14 14REMARK SMILES IDX 11 15 13 16 12 17 15 18 16 19 22 20 17 21 18 22 23 23 19 25REMARK SMILES IDX 20 26 21 27REMARK H PARENT 7 10 23 24USER                              x       y       z     vdW  Elec       q    TypeUSER                           _______ _______ _______ _____ _____    ______ ____ROOTATOM      1  N   UNL     1      39.456  47.306  14.466 -0.28 +0.05    -0.238 NA ENDROOTBRANCH   1   2ATOM      2  C   UNL     1      38.507  47.940  13.837 -0.45 -0.04    +0.121 C  BRANCH   2   3ATOM      3  C   UNL     1      37.352  47.471  13.075 -0.65 +0.00    -0.004 C  ATOM      4  C   UNL     1      36.886  46.249  12.786 -0.63 +0.02    -0.042 C  ATOM      5  C   UNL     1      35.808  46.862  12.062 -0.68 -0.00    +0.005 C  ATOM      6  C   UNL     1      36.288  48.085  12.369 -0.66 -0.00    +0.010 C  ATOM      7  C   UNL     1      37.288  44.789  13.072 -0.44 -0.01    +0.045 C  ENDBRANCH   2   3ENDBRANCH   1   2BRANCH   1   8ATOM      8  C   UNL     1      39.180  46.770  15.699 -0.41 -0.04    +0.138 C  BRANCH   8   9ATOM      9  N   UNL     1      38.019  46.015  15.843 -0.11 +0.13    -0.364 N  ATOM     10  H   UNL     1      38.214  45.314  16.557 +0.11 -0.04    +0.162 HD BRANCH   9  11ATOM     11  C   UNL     1      36.766  46.697  16.226 -0.31 -0.12    +0.170 C  BRANCH  11  12ATOM     12  C   UNL     1      36.051  45.922  17.315 -0.32 -0.03    +0.059 A  ATOM     13  C   UNL     1      34.727  46.228  17.637 -0.42 -0.02    +0.026 A  ATOM     14  N   UNL     1      36.755  44.971  17.979 -0.18 +0.07    -0.259 NA ATOM     15  C   UNL     1      34.103  45.523  18.662 -0.47 -0.00    +0.004 A  ATOM     16  C   UNL     1      36.124  44.305  18.970 -0.29 -0.02    +0.111 A  ATOM     17  C   UNL     1      34.813  44.542  19.344 -0.37 -0.00    +0.020 A  ENDBRANCH  11  12ENDBRANCH   9  11ENDBRANCH   8   9BRANCH   8  18ATOM     18  C   UNL     1      40.049  46.957  16.706 -0.50 -0.02    +0.081 C  ATOM     19  C   UNL     1      41.036  48.051  16.826 -0.49 -0.02    +0.149 C  ATOM     20  C   UNL     1      40.278  46.189  17.957 -0.43 -0.01    +0.154 C  ATOM     21  N   UNL     1      41.781  47.978  17.898 -0.54 +0.01    -0.178 NA ATOM     22  N   UNL     1      41.354  46.822  18.565 -0.35 +0.00    -0.245 N  BRANCH  20  23ATOM     23  N   UNL     1      39.589  45.193  18.393 -0.23 +0.02    -0.282 NA ATOM     24  H   UNL     1      38.599  45.477  18.464 +0.11 -0.03    +0.189 HD ENDBRANCH  20  23BRANCH  22  25ATOM     25  C   UNL     1      41.871  46.576  19.906 -0.41 +0.01    +0.103 C  ATOM     26  C   UNL     1      43.325  47.024  20.027 -0.42 +0.01    +0.033 C  ATOM     27  C   UNL     1      41.692  45.113  20.299 -0.37 +0.01    +0.033 C  ENDBRANCH  22  25ENDBRANCH   8  18ENDBRANCH   1   8TORSDOF 9TERENDMDL