REMARK SMILES CCCc1cncc(/C=C2\SC(=N)NC2=O)c1N(C)CC
REMARK SMILES IDX 4 1 5 2 6 3 7 4 8 5 17 6 3 7 2 8 1 9 18 10 19 11 20 12 21 13
REMARK SMILES IDX 9 14 10 15 11 16 15 17 12 18 14 19 16 20 13 22
REMARK H PARENT 14 21 13 23
ROOT
ATOM      1  C   UNL     1      -1.282   1.381   0.183  1.00  0.00    -0.006 A 
ATOM      2  C   UNL     1      -1.073   2.619   0.803  1.00  0.00     0.116 A 
ATOM      3  N   UNL     1       0.037   2.974   1.482  1.00  0.00    -0.264 NA
ATOM      4  C   UNL     1       1.012   2.045   1.549  1.00  0.00     0.121 A 
ATOM      5  C   UNL     1       0.934   0.782   0.967  1.00  0.00     0.018 A 
ATOM      6  C   UNL     1      -0.248   0.426   0.270  1.00  0.00     0.050 A 
ENDROOT
BRANCH   1   7
ATOM      7  C   UNL     1      -2.597   1.180  -0.530  1.00  0.00     0.039 C 
BRANCH   7   8
ATOM      8  C   UNL     1      -3.763   0.964   0.440  1.00  0.00     0.001 C 
ATOM      9  C   UNL     1      -5.065   0.716  -0.306  1.00  0.00     0.004 C 
ENDBRANCH   7   8
ENDBRANCH   1   7
BRANCH   6  10
ATOM     10  N   UNL     1      -0.297  -0.860  -0.310  1.00  0.00    -0.374 N 
ATOM     11  C   UNL     1      -0.006  -0.859  -1.743  1.00  0.00     0.143 C 
BRANCH  10  12
ATOM     12  C   UNL     1      -1.362  -1.748   0.164  1.00  0.00     0.113 C 
ATOM     13  C   UNL     1      -0.827  -3.165   0.321  1.00  0.00     0.027 C 
ENDBRANCH  10  12
ENDBRANCH   6  10
BRANCH   5  14
ATOM     14  C   UNL     1       2.043  -0.173   1.123  1.00  0.00     0.033 C 
BRANCH  14  15
ATOM     15  C   UNL     1       3.273  -0.047   0.609  1.00  0.00     0.081 C 
ATOM     16  S   UNL     1       3.902   1.242  -0.356  1.00  0.00    -0.047 SA
ATOM     17  C   UNL     1       4.316  -1.099   0.793  1.00  0.00     0.264 C 
ATOM     18  C   UNL     1       5.429   0.448  -0.512  1.00  0.00     0.165 C 
ATOM     19  N   UNL     1       5.455  -0.730   0.138  1.00  0.00    -0.301 N 
ATOM     20  O   UNL     1       4.180  -2.128   1.434  1.00  0.00    -0.268 OA
ATOM     21  H   UNL     1       6.279  -1.307   0.142  1.00  0.00     0.172 HD
BRANCH  18  22
ATOM     22  N   UNL     1       6.431   0.906  -1.161  1.00  0.00    -0.278 NA
ATOM     23  H   UNL     1       6.157   1.812  -1.560  1.00  0.00     0.190 HD
ENDBRANCH  18  22
ENDBRANCH  14  15
ENDBRANCH   5  14
TORSDOF 7
