REMARK SMILES CCN(CC)Cc1ccc(C(=O)NC=Cc2cccc3nc[nH]c23)cc1N
REMARK SMILES IDX 7 1 8 2 9 3 10 4 25 5 26 6 6 7 3 8 2 9 1 10 4 11 5 12 27 13
REMARK SMILES IDX 11 16 13 17 12 18 14 20 15 21 16 22 17 23 24 24 18 25 23 26
REMARK SMILES IDX 20 27 19 28 22 29 21 30
REMARK H PARENT 27 14 27 15 13 19 23 31
ROOT
ATOM      1  C   UNL     1      -2.849   0.484  -0.874  1.00  0.00    -0.011 A 
ATOM      2  C   UNL     1      -2.095  -0.300  -1.768  1.00  0.00     0.008 A 
ATOM      3  C   UNL     1      -0.708  -0.392  -1.643  1.00  0.00     0.014 A 
ATOM      4  C   UNL     1      -0.054   0.316  -0.630  1.00  0.00     0.042 A 
ATOM      5  C   UNL     1      -0.793   1.119   0.245  1.00  0.00     0.039 A 
ATOM      6  C   UNL     1      -2.189   1.168   0.168  1.00  0.00     0.037 A 
ENDROOT
BRANCH   1   7
ATOM      7  C   UNL     1      -4.350   0.613  -1.097  1.00  0.00     0.122 C 
BRANCH   7   8
ATOM      8  N   UNL     1      -5.164   0.364   0.121  1.00  0.00    -0.300 NA
BRANCH   8   9
ATOM      9  C   UNL     1      -5.136  -1.073   0.463  1.00  0.00     0.081 C 
ATOM     10  C   UNL     1      -5.541  -1.327   1.913  1.00  0.00     0.021 C 
ENDBRANCH   8   9
BRANCH   8  11
ATOM     11  C   UNL     1      -6.551   0.826  -0.088  1.00  0.00     0.081 C 
ATOM     12  C   UNL     1      -6.676   2.345  -0.013  1.00  0.00     0.021 C 
ENDBRANCH   8  11
ENDBRANCH   7   8
ENDBRANCH   1   7
BRANCH   6  13
ATOM     13  N   UNL     1      -2.891   2.061   0.997  1.00  0.00    -0.398 N 
ATOM     14  H   UNL     1      -2.452   2.213   1.898  1.00  0.00     0.156 HD
ATOM     15  H   UNL     1      -3.866   1.757   1.098  1.00  0.00     0.156 HD
ENDBRANCH   6  13
BRANCH   4  16
ATOM     16  C   UNL     1       1.427   0.271  -0.477  1.00  0.00     0.255 C 
ATOM     17  N   UNL     1       2.008  -0.959  -0.755  1.00  0.00    -0.329 N 
ATOM     18  O   UNL     1       2.013   1.273  -0.083  1.00  0.00    -0.269 OA
ATOM     19  H   UNL     1       1.376  -1.740  -0.888  1.00  0.00     0.169 HD
BRANCH  17  20
ATOM     20  C   UNL     1       3.348  -1.282  -0.746  1.00  0.00     0.086 C 
BRANCH  20  21
ATOM     21  C   UNL     1       4.367  -0.424  -0.617  1.00  0.00     0.028 C 
BRANCH  21  22
ATOM     22  C   UNL     1       5.768  -0.839  -0.578  1.00  0.00     0.002 A 
ATOM     23  C   UNL     1       6.343  -1.808  -1.416  1.00  0.00     0.010 A 
ATOM     24  C   UNL     1       6.629  -0.201   0.325  1.00  0.00     0.073 A 
ATOM     25  C   UNL     1       7.701  -2.130  -1.331  1.00  0.00     0.003 A 
ATOM     26  N   UNL     1       6.436   0.778   1.271  1.00  0.00    -0.344 N 
ATOM     27  C   UNL     1       7.984  -0.504   0.428  1.00  0.00     0.089 A 
ATOM     28  C   UNL     1       8.534  -1.486  -0.408  1.00  0.00     0.030 A 
ATOM     29  C   UNL     1       7.634   1.020   1.882  1.00  0.00     0.197 A 
ATOM     30  N   UNL     1       8.589   0.260   1.397  1.00  0.00    -0.237 NA
ATOM     31  H   UNL     1       5.558   1.233   1.477  1.00  0.00     0.168 HD
ENDBRANCH  21  22
ENDBRANCH  20  21
ENDBRANCH  17  20
ENDBRANCH   4  16
TORSDOF 9
