MODEL        6USER    Run = 6USERUSER    Estimated Free Energy of Binding    =  -8.72 kcal/mol  [=(1)+(2)+(3)-(4)]USERUSER    (1) Final Intermolecular Energy     = -12.00 kcal/molUSER        vdW + Hbond + desolv Energy     = -11.81 kcal/molUSER        Electrostatic Energy            =  -0.19 kcal/molUSER        Moving Ligand-Fixed Receptor    = -12.00 kcal/molUSER        Moving Ligand-Moving Receptor   =  +0.00 kcal/molUSER    (2) Final Total Internal Energy     =  -3.02 kcal/molUSER    (3) Torsional Free Energy           =  +3.28 kcal/molUSER    (4) Unbound System's Energy         =  -3.02 kcal/molUSERUSERREMARK SMILES CC(C)C[C@@H](CO)Nc1nnc(-c2ccccc2O)c(NCc2ccccc2)n1REMARK SMILES IDX 8 1 5 3 4 4 2 5 1 6 3 7 6 8 7 9 9 11 10 12 29 13 11 14 20 15REMARK SMILES IDX 12 16 21 17 22 19 23 20 24 21 28 22 25 23 27 24 26 25 13 26REMARK SMILES IDX 14 27 18 28 15 29 17 30 16 31 19 32REMARK H PARENT 8 2 7 10 21 18 19 33USER                              x       y       z     vdW  Elec       q    TypeUSER                           _______ _______ _______ _____ _____    ______ ____ROOTATOM      1  N   UNL     1      37.034  44.588  27.565 -0.18 +0.06    -0.348 N  ATOM      2  H   UNL     1      37.770  45.276  27.432 +0.07 -0.02    +0.164 HD ENDROOTBRANCH   1   3ATOM      3  C   UNL     1      36.653  43.830  26.363 -0.36 -0.01    +0.108 C  BRANCH   3   4ATOM      4  C   UNL     1      35.355  43.028  26.617 -0.51 -0.00    +0.030 C  BRANCH   4   5ATOM      5  C   UNL     1      35.327  41.716  27.434 -0.68 +0.01    -0.015 C  ATOM      6  C   UNL     1      34.308  40.691  26.948 -0.59 -0.00    +0.007 C  ATOM      7  C   UNL     1      36.700  41.090  27.654 -0.62 -0.00    +0.007 C  ENDBRANCH   4   5ENDBRANCH   3   4BRANCH   3   8ATOM      8  C   UNL     1      36.606  44.768  25.143 -0.10 +0.01    +0.180 C  BRANCH   8   9ATOM      9  O   UNL     1      36.914  46.113  25.511 -0.76 -0.02    -0.394 OA ATOM     10  H   UNL     1      36.138  46.417  26.027 -0.47 -0.07    +0.210 HD ENDBRANCH   8   9ENDBRANCH   3   8ENDBRANCH   1   3BRANCH   1  11ATOM     11  C   UNL     1      36.002  45.313  28.159 -0.21 -0.07    +0.245 A  ATOM     12  N   UNL     1      34.909  44.708  28.666 -0.53 +0.03    -0.111 NA ATOM     13  N   UNL     1      36.189  46.639  28.177 -0.28 +0.05    -0.192 NA ATOM     14  N   UNL     1      33.916  45.454  29.220 -0.66 +0.02    -0.143 NA ATOM     15  C   UNL     1      35.208  47.394  28.718 -0.27 -0.03    +0.159 A  ATOM     16  C   UNL     1      34.052  46.801  29.246 -0.33 -0.02    +0.139 A  BRANCH  15  17ATOM     17  N   UNL     1      35.405  48.787  28.816 -0.16 +0.03    -0.364 N  ATOM     18  H   UNL     1      34.812  49.247  28.121 +0.06 -0.00    +0.162 HD BRANCH  17  19ATOM     19  C   UNL     1      36.782  49.249  28.743 -0.18 -0.01    +0.150 C  BRANCH  19  20ATOM     20  C   UNL     1      37.271  49.107  27.319 -0.27 +0.00    -0.029 A  ATOM     21  C   UNL     1      38.542  48.579  27.059 -0.26 +0.00    +0.005 A  ATOM     22  C   UNL     1      36.469  49.500  26.238 -0.43 -0.00    +0.005 A  ATOM     23  C   UNL     1      39.002  48.444  25.749 -0.30 +0.00    +0.000 A  ATOM     24  C   UNL     1      36.928  49.362  24.927 -0.42 +0.00    +0.000 A  ATOM     25  C   UNL     1      38.193  48.834  24.684 -0.41 +0.00    +0.000 A  ENDBRANCH  19  20ENDBRANCH  17  19ENDBRANCH  15  17BRANCH  16  26ATOM     26  C   UNL     1      32.946  47.538  29.872 -0.31 -0.00    +0.048 A  ATOM     27  C   UNL     1      33.016  48.935  30.003 -0.28 +0.00    +0.014 A  ATOM     28  C   UNL     1      31.789  46.898  30.352 -0.39 -0.00    +0.125 A  ATOM     29  C   UNL     1      31.962  49.660  30.566 -0.26 +0.00    +0.001 A  ATOM     30  C   UNL     1      30.740  47.618  30.931 -0.48 +0.00    +0.047 A  ATOM     31  C   UNL     1      30.825  49.005  31.026 -0.27 +0.00    +0.004 A  BRANCH  28  32ATOM     32  O   UNL     1      31.667  45.541  30.227 -0.73 -0.03    -0.507 OA ATOM     33  H   UNL     1      32.454  45.129  30.628 -0.27 -0.10    +0.293 HD ENDBRANCH  28  32ENDBRANCH  16  26ENDBRANCH   1  11TORSDOF 11TERENDMDL