MODEL        4USER    Run = 4USERUSER    Estimated Free Energy of Binding    =  -8.11 kcal/mol  [=(1)+(2)+(3)-(4)]USERUSER    (1) Final Intermolecular Energy     = -10.50 kcal/molUSER        vdW + Hbond + desolv Energy     = -10.24 kcal/molUSER        Electrostatic Energy            =  -0.26 kcal/molUSER        Moving Ligand-Fixed Receptor    = -10.50 kcal/molUSER        Moving Ligand-Moving Receptor   =  +0.00 kcal/molUSER    (2) Final Total Internal Energy     =  -2.08 kcal/molUSER    (3) Torsional Free Energy           =  +2.39 kcal/molUSER    (4) Unbound System's Energy         =  -2.08 kcal/molUSERUSERREMARK SMILES OCCn1nccc1Nc1nnc2ccc(NCc3ccccc3)cc2n1REMARK SMILES IDX 4 1 5 2 6 3 7 4 8 5 3 6 2 7 1 8 9 10 10 12 11 13 27 14 12 15REMARK SMILES IDX 26 16 13 17 25 18 14 19 16 20 15 21 17 22 18 24 19 25 20 26REMARK SMILES IDX 24 27 21 28 23 29 22 30REMARK H PARENT 1 9 9 11 17 23USER                              x       y       z     vdW  Elec       q    TypeUSER                           _______ _______ _______ _____ _____    ______ ____ROOTATOM      1  N   UNL     1      41.932  45.342  22.084 -0.12 -0.04    -0.247 N  ATOM      2  N   UNL     1      41.440  45.247  23.344 -0.08 -0.01    -0.179 NA ATOM      3  C   UNL     1      40.195  44.804  23.171 -0.13 +0.01    +0.137 A  ATOM      4  C   UNL     1      39.883  44.596  21.818 -0.24 +0.00    +0.068 A  ATOM      5  C   UNL     1      41.008  44.982  21.123 -0.25 +0.01    +0.131 A  ENDROOTBRANCH   1   6ATOM      6  C   UNL     1      43.348  45.608  21.933 -0.18 +0.07    +0.174 C  BRANCH   6   7ATOM      7  C   UNL     1      43.667  47.093  21.820 -0.29 +0.07    +0.179 C  BRANCH   7   8ATOM      8  O   UNL     1      44.406  47.351  20.624 -0.48 -0.30    -0.394 OA ATOM      9  H   UNL     1      43.806  47.812  20.012 -0.41 +0.03    +0.210 HD ENDBRANCH   7   8ENDBRANCH   6   7ENDBRANCH   1   6BRANCH   5  10ATOM     10  N   UNL     1      41.239  44.950  19.787 -0.20 -0.03    -0.308 N  ATOM     11  H   UNL     1      40.735  44.276  19.216 +0.10 +0.01    +0.171 HD BRANCH  10  12ATOM     12  C   UNL     1      41.324  46.094  18.970 -0.30 +0.01    +0.248 A  ATOM     13  N   UNL     1      42.285  47.022  19.135 -0.47 -0.01    -0.111 NA ATOM     14  N   UNL     1      40.370  46.203  18.033 -0.32 +0.02    -0.210 NA ATOM     15  N   UNL     1      42.330  48.119  18.322 -0.51 -0.00    -0.145 NA ATOM     16  C   UNL     1      40.414  47.284  17.234 -0.44 -0.02    +0.097 A  ATOM     17  C   UNL     1      41.406  48.263  17.367 -0.35 -0.01    +0.112 A  ATOM     18  C   UNL     1      39.450  47.440  16.239 -0.45 -0.02    +0.056 A  ATOM     19  C   UNL     1      41.418  49.352  16.508 -0.25 +0.00    +0.035 A  ATOM     20  C   UNL     1      39.417  48.551  15.387 -0.51 -0.02    +0.037 A  ATOM     21  C   UNL     1      40.442  49.491  15.518 -0.57 -0.01    +0.028 A  BRANCH  20  22ATOM     22  N   UNL     1      38.511  48.697  14.339 -0.17 +0.20    -0.381 N  ATOM     23  H   UNL     1      38.533  49.624  13.918 -0.37 -0.13    +0.160 HD BRANCH  22  24ATOM     24  C   UNL     1      37.155  48.177  14.457 -0.47 -0.10    +0.148 C  BRANCH  24  25ATOM     25  C   UNL     1      37.052  46.878  13.693 -0.49 +0.01    -0.029 A  ATOM     26  C   UNL     1      37.038  45.654  14.378 -0.41 -0.00    +0.005 A  ATOM     27  C   UNL     1      36.998  46.873  12.291 -0.66 -0.00    +0.005 A  ATOM     28  C   UNL     1      36.957  44.451  13.677 -0.23 -0.00    +0.000 A  ATOM     29  C   UNL     1      36.916  45.667  11.592 -0.53 -0.00    +0.000 A  ATOM     30  C   UNL     1      36.893  44.457  12.284 -0.45 -0.00    +0.000 A  ENDBRANCH  24  25ENDBRANCH  22  24ENDBRANCH  20  22ENDBRANCH  10  12ENDBRANCH   5  10TORSDOF 8TERENDMDL