MODEL        10USER    Run = 10USERUSER    Estimated Free Energy of Binding    =  -8.85 kcal/mol  [=(1)+(2)+(3)-(4)]USERUSER    (1) Final Intermolecular Energy     = -10.05 kcal/molUSER        vdW + Hbond + desolv Energy     = -10.00 kcal/molUSER        Electrostatic Energy            =  -0.04 kcal/molUSER        Moving Ligand-Fixed Receptor    = -10.05 kcal/molUSER        Moving Ligand-Moving Receptor   =  +0.00 kcal/molUSER    (2) Final Total Internal Energy     =  -0.76 kcal/molUSER    (3) Torsional Free Energy           =  +1.19 kcal/molUSER    (4) Unbound System's Energy         =  -0.76 kcal/molUSERUSERREMARK SMILES CC(C)Nc1ncc2c(n1)nc([C@@H](C)c1ccc(Cl)cc1)c(=O)n2CREMARK SMILES IDX 5 1 6 2 7 3 8 4 9 5 10 6 11 7 12 8 22 9 23 10 24 11 25 12REMARK SMILES IDX 4 13 2 15 1 16 3 17 13 18 14 19 15 20 16 21 21 22 17 23REMARK SMILES IDX 20 24 18 25 19 26REMARK H PARENT 4 14USER                              x       y       z     vdW  Elec       q    TypeUSER                           _______ _______ _______ _____ _____    ______ ____ROOTATOM      1  C   UNL     1      40.926  49.517  15.951 -0.40 -0.05    +0.225 A  ATOM      2  N   UNL     1      41.660  48.970  16.928 -0.85 -0.03    -0.219 NA ATOM      3  C   UNL     1      41.214  47.819  17.470 -0.39 -0.01    +0.145 A  ATOM      4  C   UNL     1      40.054  47.193  17.081 -0.41 -0.02    +0.108 A  ATOM      5  C   UNL     1      39.370  47.847  16.072 -0.35 -0.07    +0.181 A  ATOM      6  N   UNL     1      39.784  48.993  15.505 -0.40 +0.08    -0.191 NA ATOM      7  N   UNL     1      38.170  47.360  15.541 -0.26 +0.11    -0.225 NA ATOM      8  C   UNL     1      37.679  46.258  16.027 -0.30 -0.05    +0.115 A  ATOM      9  C   UNL     1      38.348  45.470  17.156 -0.20 -0.07    +0.273 A  ATOM     10  O   UNL     1      37.805  44.462  17.586 -0.23 +0.06    -0.267 OA ATOM     11  N   UNL     1      39.548  45.989  17.630 -0.23 +0.05    -0.306 N  ATOM     12  C   UNL     1      40.262  45.306  18.692 -0.40 -0.00    +0.154 C  ENDROOTBRANCH   1  13ATOM     13  N   UNL     1      41.320  50.680  15.327 -0.36 +0.11    -0.352 N  ATOM     14  H   UNL     1      41.777  51.238  16.043 -0.43 -0.07    +0.163 HD BRANCH  13  15ATOM     15  C   UNL     1      42.000  50.663  14.037 -0.55 -0.02    +0.076 C  ATOM     16  C   UNL     1      42.224  49.246  13.516 -0.37 -0.00    +0.030 C  ATOM     17  C   UNL     1      43.279  51.496  14.034 -0.32 -0.01    +0.030 C  ENDBRANCH  13  15ENDBRANCH   1  13BRANCH   8  18ATOM     18  C   UNL     1      36.405  45.652  15.445 -0.37 -0.04    +0.071 C  ATOM     19  C   UNL     1      36.704  44.487  14.497 -0.38 -0.01    +0.020 C  BRANCH  18  20ATOM     20  C   UNL     1      35.448  45.249  16.557 -0.30 +0.02    -0.039 A  ATOM     21  C   UNL     1      34.992  46.179  17.506 -0.41 -0.00    +0.006 A  ATOM     22  C   UNL     1      34.981  43.927  16.630 -0.34 -0.00    +0.006 A  ATOM     23  C   UNL     1      34.102  45.793  18.510 -0.47 -0.01    +0.021 A  ATOM     24  C   UNL     1      34.090  43.541  17.635 -0.30 -0.01    +0.021 A  ATOM     25  C   UNL     1      33.655  44.475  18.572 -0.36 -0.01    +0.041 A  ATOM     26  Cl  UNL     1      32.556  44.001  19.807 -0.62 +0.00    -0.084 Cl ENDBRANCH  18  20ENDBRANCH   8  18TORSDOF 4TERENDMDL