REMARK SMILES CC(C)C[C@@H](CO)Nc1nnc(-c2ccccc2O)c(NCc2ccccc2)n1
REMARK SMILES IDX 8 1 5 3 4 4 2 5 1 6 3 7 6 8 7 9 9 11 10 12 29 13 11 14 20 15
REMARK SMILES IDX 12 16 21 17 22 19 23 20 24 21 28 22 25 23 27 24 26 25 13 26
REMARK SMILES IDX 14 27 18 28 15 29 17 30 16 31 19 32
REMARK H PARENT 8 2 7 10 21 18 19 33
ROOT
ATOM      1  N   UNL     1       2.579   0.134   0.093  1.00  0.00    -0.348 N 
ATOM      2  H   UNL     1       2.238   1.082   0.221  1.00  0.00     0.164 HD
ENDROOT
BRANCH   1   3
ATOM      3  C   UNL     1       3.560  -0.045  -0.988  1.00  0.00     0.108 C 
BRANCH   3   4
ATOM      4  C   UNL     1       4.157   1.318  -1.411  1.00  0.00     0.030 C 
BRANCH   4   5
ATOM      5  C   UNL     1       5.078   2.151  -0.492  1.00  0.00    -0.015 C 
ATOM      6  C   UNL     1       4.499   2.440   0.889  1.00  0.00     0.007 C 
ATOM      7  C   UNL     1       6.510   1.631  -0.408  1.00  0.00     0.007 C 
ENDBRANCH   4   5
ENDBRANCH   3   4
BRANCH   3   8
ATOM      8  C   UNL     1       4.597  -1.110  -0.585  1.00  0.00     0.180 C 
BRANCH   8   9
ATOM      9  O   UNL     1       4.971  -0.976   0.786  1.00  0.00    -0.394 OA
ATOM     10  H   UNL     1       4.135  -0.775   1.257  1.00  0.00     0.210 HD
ENDBRANCH   8   9
ENDBRANCH   3   8
ENDBRANCH   1   3
BRANCH   1  11
ATOM     11  C   UNL     1       1.416  -0.626  -0.032  1.00  0.00     0.245 A 
ATOM     12  N   UNL     1       1.440  -1.889  -0.504  1.00  0.00    -0.111 NA
ATOM     13  N   UNL     1       0.296   0.001   0.348  1.00  0.00    -0.192 NA
ATOM     14  N   UNL     1       0.280  -2.588  -0.628  1.00  0.00    -0.143 NA
ATOM     15  C   UNL     1      -0.865  -0.678   0.224  1.00  0.00     0.159 A 
ATOM     16  C   UNL     1      -0.881  -1.990  -0.273  1.00  0.00     0.139 A 
BRANCH  15  17
ATOM     17  N   UNL     1      -2.054  -0.072   0.680  1.00  0.00    -0.364 N 
ATOM     18  H   UNL     1      -2.766  -0.169  -0.047  1.00  0.00     0.162 HD
BRANCH  17  19
ATOM     19  C   UNL     1      -1.938   1.301   1.145  1.00  0.00     0.150 C 
BRANCH  19  20
ATOM     20  C   UNL     1      -3.291   1.768   1.633  1.00  0.00    -0.029 A 
ATOM     21  C   UNL     1      -3.894   1.151   2.737  1.00  0.00     0.005 A 
ATOM     22  C   UNL     1      -3.966   2.817   0.994  1.00  0.00     0.005 A 
ATOM     23  C   UNL     1      -5.141   1.574   3.195  1.00  0.00     0.000 A 
ATOM     24  C   UNL     1      -5.213   3.243   1.455  1.00  0.00     0.000 A 
ATOM     25  C   UNL     1      -5.799   2.622   2.554  1.00  0.00     0.000 A 
ENDBRANCH  19  20
ENDBRANCH  17  19
ENDBRANCH  15  17
BRANCH  16  26
ATOM     26  C   UNL     1      -2.090  -2.812  -0.421  1.00  0.00     0.048 A 
ATOM     27  C   UNL     1      -2.211  -4.020   0.285  1.00  0.00     0.014 A 
ATOM     28  C   UNL     1      -3.162  -2.434  -1.250  1.00  0.00     0.125 A 
ATOM     29  C   UNL     1      -3.366  -4.801   0.185  1.00  0.00     0.001 A 
ATOM     30  C   UNL     1      -4.311  -3.220  -1.366  1.00  0.00     0.047 A 
ATOM     31  C   UNL     1      -4.415  -4.402  -0.636  1.00  0.00     0.004 A 
BRANCH  28  32
ATOM     32  O   UNL     1      -3.097  -1.254  -1.941  1.00  0.00    -0.507 OA
ATOM     33  H   UNL     1      -3.759  -1.286  -2.655  1.00  0.00     0.293 HD
ENDBRANCH  28  32
ENDBRANCH  16  26
ENDBRANCH   1  11
TORSDOF 11
