REMARK SMILES CC(C)CC=NNC1=CC(C(C)C)=NCN1Cc1cccnc1
REMARK SMILES IDX 6 1 5 2 4 3 2 4 1 5 3 6 7 7 8 9 9 10 16 11 10 12 15 13 14 14
REMARK SMILES IDX 17 15 18 16 19 17 23 18 20 19 22 20 21 21 11 22 12 23 13 24
REMARK H PARENT 7 8
ROOT
ATOM      1  N   UNL     1       2.068   0.147  -0.303  1.00  0.00    -0.187 NA
ENDROOT
BRANCH   1   2
ATOM      2  C   UNL     1       2.371  -0.811   0.512  1.00  0.00     0.106 C 
BRANCH   2   3
ATOM      3  C   UNL     1       3.441  -0.618   1.553  1.00  0.00     0.052 C 
BRANCH   3   4
ATOM      4  C   UNL     1       4.625  -1.562   1.309  1.00  0.00    -0.012 C 
ATOM      5  C   UNL     1       5.553  -1.566   2.525  1.00  0.00     0.008 C 
ATOM      6  C   UNL     1       5.410  -1.165   0.056  1.00  0.00     0.008 C 
ENDBRANCH   3   4
ENDBRANCH   2   3
ENDBRANCH   1   2
BRANCH   1   7
ATOM      7  N   UNL     1       1.064  -0.170  -1.195  1.00  0.00    -0.263 N 
ATOM      8  H   UNL     1       1.060   0.541  -1.933  1.00  0.00     0.192 HD
BRANCH   7   9
ATOM      9  C   UNL     1      -0.265  -0.248  -0.758  1.00  0.00     0.125 C 
ATOM     10  C   UNL     1      -0.881  -1.435  -0.873  1.00  0.00     0.070 C 
ATOM     11  N   UNL     1      -0.971   0.842  -0.252  1.00  0.00    -0.333 N 
ATOM     12  C   UNL     1      -2.300  -1.523  -0.463  1.00  0.00     0.043 C 
ATOM     13  C   UNL     1      -2.157   0.561   0.565  1.00  0.00     0.262 C 
ATOM     14  N   UNL     1      -2.934  -0.625   0.210  1.00  0.00    -0.268 NA
BRANCH  11  15
ATOM     15  C   UNL     1      -0.315   2.126   0.050  1.00  0.00     0.157 C 
BRANCH  15  16
ATOM     16  C   UNL     1      -1.188   3.315  -0.268  1.00  0.00    -0.010 A 
ATOM     17  C   UNL     1      -1.897   3.419  -1.470  1.00  0.00     0.009 A 
ATOM     18  C   UNL     1      -1.264   4.392   0.609  1.00  0.00     0.116 A 
ATOM     19  C   UNL     1      -2.660   4.553  -1.728  1.00  0.00     0.020 A 
ATOM     20  N   UNL     1      -1.994   5.508   0.384  1.00  0.00    -0.264 NA
ATOM     21  C   UNL     1      -2.678   5.560  -0.779  1.00  0.00     0.111 A 
ENDBRANCH  15  16
ENDBRANCH  11  15
BRANCH  12  22
ATOM     22  C   UNL     1      -3.050  -2.792  -0.870  1.00  0.00     0.032 C 
ATOM     23  C   UNL     1      -3.471  -3.575   0.370  1.00  0.00     0.014 C 
ATOM     24  C   UNL     1      -4.255  -2.442  -1.740  1.00  0.00     0.014 C 
ENDBRANCH  12  22
ENDBRANCH   7   9
ENDBRANCH   1   7
TORSDOF 8
