REMARK SMILES OCCn1nccc1Nc1nnc2ccc(NCc3ccccc3)cc2n1
REMARK SMILES IDX 4 1 5 2 6 3 7 4 8 5 3 6 2 7 1 8 9 10 10 12 11 13 27 14 12 15
REMARK SMILES IDX 26 16 13 17 25 18 14 19 16 20 15 21 17 22 18 24 19 25 20 26
REMARK SMILES IDX 24 27 21 28 23 29 22 30
REMARK H PARENT 1 9 9 11 17 23
ROOT
ATOM      1  N   UNL     1      -5.583   0.775   1.076  1.00  0.00    -0.247 N 
ATOM      2  N   UNL     1      -6.788   0.404   1.575  1.00  0.00    -0.179 NA
ATOM      3  C   UNL     1      -6.511  -0.008   2.812  1.00  0.00     0.137 A 
ATOM      4  C   UNL     1      -5.147   0.108   3.123  1.00  0.00     0.068 A 
ATOM      5  C   UNL     1      -4.553   0.585   1.975  1.00  0.00     0.131 A 
ENDROOT
BRANCH   1   6
ATOM      6  C   UNL     1      -5.567   1.467  -0.197  1.00  0.00     0.174 C 
BRANCH   6   7
ATOM      7  C   UNL     1      -6.034   0.595  -1.355  1.00  0.00     0.179 C 
BRANCH   7   8
ATOM      8  O   UNL     1      -6.132   1.371  -2.551  1.00  0.00    -0.394 OA
ATOM      9  H   UNL     1      -6.932   1.919  -2.471  1.00  0.00     0.210 HD
ENDBRANCH   7   8
ENDBRANCH   6   7
ENDBRANCH   1   6
BRANCH   5  10
ATOM     10  N   UNL     1      -3.252   0.901   1.755  1.00  0.00    -0.308 N 
ATOM     11  H   UNL     1      -2.627   0.998   2.551  1.00  0.00     0.171 HD
BRANCH  10  12
ATOM     12  C   UNL     1      -2.450   0.307   0.762  1.00  0.00     0.248 A 
ATOM     13  N   UNL     1      -2.979  -0.350  -0.288  1.00  0.00    -0.111 NA
ATOM     14  N   UNL     1      -1.126   0.422   0.947  1.00  0.00    -0.210 NA
ATOM     15  N   UNL     1      -2.165  -0.914  -1.228  1.00  0.00    -0.145 NA
ATOM     16  C   UNL     1      -0.325  -0.135   0.021  1.00  0.00     0.097 A 
ATOM     17  C   UNL     1      -0.839  -0.814  -1.090  1.00  0.00     0.112 A 
ATOM     18  C   UNL     1       1.058  -0.035   0.163  1.00  0.00     0.056 A 
ATOM     19  C   UNL     1       0.029  -1.358  -2.026  1.00  0.00     0.035 A 
ATOM     20  C   UNL     1       1.954  -0.612  -0.746  1.00  0.00     0.037 A 
ATOM     21  C   UNL     1       1.412  -1.248  -1.865  1.00  0.00     0.028 A 
BRANCH  20  22
ATOM     22  N   UNL     1       3.337  -0.467  -0.668  1.00  0.00    -0.381 N 
ATOM     23  H   UNL     1       3.844  -1.196  -1.167  1.00  0.00     0.160 HD
BRANCH  22  24
ATOM     24  C   UNL     1       3.974  -0.118   0.595  1.00  0.00     0.148 C 
BRANCH  24  25
ATOM     25  C   UNL     1       5.474  -0.203   0.436  1.00  0.00    -0.029 A 
ATOM     26  C   UNL     1       6.163   0.769  -0.305  1.00  0.00     0.005 A 
ATOM     27  C   UNL     1       6.196  -1.265   1.000  1.00  0.00     0.005 A 
ATOM     28  C   UNL     1       7.546   0.688  -0.467  1.00  0.00     0.000 A 
ATOM     29  C   UNL     1       7.581  -1.343   0.837  1.00  0.00     0.000 A 
ATOM     30  C   UNL     1       8.255  -0.366   0.106  1.00  0.00     0.000 A 
ENDBRANCH  24  25
ENDBRANCH  22  24
ENDBRANCH  20  22
ENDBRANCH  10  12
ENDBRANCH   5  10
TORSDOF 8
