MODEL        2USER    Run = 2USERUSER    Estimated Free Energy of Binding    =  -4.27 kcal/mol  [=(1)+(2)+(3)-(4)]USERUSER    (1) Final Intermolecular Energy     =  -8.14 kcal/molUSER        vdW + Hbond + desolv Energy     =  -8.20 kcal/molUSER        Electrostatic Energy            =  -0.09 kcal/molUSER        Moving Ligand-Fixed Receptor    =  -8.29 kcal/molUSER        Moving Ligand-Moving Receptor   =  +0.14 kcal/molUSER    (2) Final Total Internal Energy     =  -1.43 kcal/molUSER    (3) Torsional Free Energy           =  +3.88 kcal/molUSER    (4) Unbound System's Energy         =  -1.43 kcal/molUSERUSERREMARK SMILES CC1=C(OCl)C=CC=NC(Nc2ccc(N3CCOCC3)cc2)=NCC=N1REMARK SMILES IDX 10 1 11 2 24 4 25 5 26 6 27 7 2 8 1 9 9 11 8 12 7 13 6 14REMARK SMILES IDX 3 15 4 17 5 18 12 19 13 20 23 21 14 22 22 23 15 24 16 25REMARK SMILES IDX 17 26 21 27 18 28 20 29 19 30REMARK H PARENT 11 3REMARK Flexibility Score:   24.900USER                              x       y       z     vdW  Elec       q    TypeUSER                           _______ _______ _______ _____ _____    ______ ____ROOTATOM      1  C   UNL     1      41.851  45.972  20.676 -0.27 +0.04    +0.222 C  ATOM      2  N   UNL     1      42.293  46.132  19.389 -0.18 -0.07    -0.324 N  ATOM      3  H   UNL     1      43.166  46.649  19.371 +0.08 +0.07    +0.170 HD ENDROOTBRANCH   1   4ATOM      4  N   UNL     1      40.860  45.302  21.151 -0.18 -0.02    -0.245 NA BRANCH   4   5ATOM      5  C   UNL     1      39.546  45.504  20.552 -0.29 +0.00    +0.194 C  BRANCH   5   6ATOM      6  C   UNL     1      38.542  45.235  21.680 -0.30 +0.01    +0.108 C  BRANCH   6   7ATOM      7  N   UNL     1      38.469  46.005  22.728 -0.21 -0.03    -0.260 NA BRANCH   7   8ATOM      8  C   UNL     1      38.597  45.427  23.976 -0.28 +0.01    +0.081 CG0ATOM      9  C   UNL     1      37.334  45.339  24.813 -0.24 +0.01    +0.071 C  ATOM     10  G   UNL     1      39.806  45.054  24.485 +0.00 +0.00    +0.000 G0 ENDBRANCH   7   8ENDBRANCH   6   7ENDBRANCH   5   6ENDBRANCH   4   5ENDBRANCH   1   4BRANCH   1  11ATOM     11  N   UNL     1      42.688  46.369  21.694 -0.19 -0.06    -0.222 NA BRANCH  11  12ATOM     12  C   UNL     1      41.950  46.725  22.702 -0.23 +0.02    +0.115 C  BRANCH  12  13ATOM     13  C   UNL     1      42.078  46.201  24.063 -0.14 +0.00    +0.024 C  BRANCH  13  14ATOM     14  C   UNL     1      40.984  45.891  24.780 -0.12 +0.00    +0.052 C  BRANCH  14  15ATOM     15  C   UNL     1      39.807  45.056  24.486 -0.12 +0.01    +0.167 CG0ATOM     16  G   UNL     1      38.597  45.425  23.976 +0.00 +0.00    +0.000 G0 BRANCH  15  17ATOM     17  O   UNL     1      40.035  43.730  24.850 -0.05 -0.01    -0.384 OA ATOM     18  Cl  UNL     1      41.338  43.038  24.024 -0.26 -0.00    +0.135 Cl ENDBRANCH  15  17ENDBRANCH  14  15ENDBRANCH  13  14ENDBRANCH  12  13ENDBRANCH  11  12ENDBRANCH   1  11BRANCH   2  19ATOM     19  C   UNL     1      41.487  46.511  18.293 -0.48 -0.00    +0.041 A  ATOM     20  C   UNL     1      40.636  45.558  17.729 -0.42 -0.00    +0.028 A  ATOM     21  C   UNL     1      41.453  47.800  17.763 -0.48 -0.00    +0.028 A  ATOM     22  C   UNL     1      39.788  45.884  16.660 -0.34 -0.00    +0.028 A  ATOM     23  C   UNL     1      40.603  48.118  16.691 -0.52 -0.01    +0.028 A  ATOM     24  C   UNL     1      39.751  47.171  16.105 -0.47 -0.01    +0.037 A  BRANCH  24  25ATOM     25  N   UNL     1      38.908  47.489  15.055 -0.18 +0.13    -0.367 N  ATOM     26  C   UNL     1      38.465  48.872  14.806 -0.32 -0.09    +0.145 C  ATOM     27  C   UNL     1      38.247  46.457  14.241 -0.39 -0.05    +0.145 C  ATOM     28  C   UNL     1      37.042  48.880  14.223 -0.41 -0.13    +0.181 C  ATOM     29  C   UNL     1      37.814  47.048  12.890 -0.38 -0.04    +0.181 C  ATOM     30  O   UNL     1      36.913  48.158  12.991 -0.83 +0.14    -0.378 OA ENDBRANCH  24  25ENDBRANCH   2  19TORSDOF 3TERENDMDL