REMARK SMILES CC(C)Nc1nccc(CN(Cl)C(=O)c2ccc(C(F)(F)F)cc2)n1
REMARK SMILES IDX 10 1 9 2 5 3 6 4 25 5 7 6 8 7 4 8 2 10 1 11 3 12 11 13 12 14
REMARK SMILES IDX 13 15 14 16 15 17 16 18 24 19 17 20 23 21 18 22 19 23 20 24
REMARK SMILES IDX 21 25 22 26
REMARK H PARENT 4 9
ROOT
ATOM      1  C   UNL     1      -0.052  -1.956   1.053  1.00  0.00     0.196 C 
ENDROOT
BRANCH   1   2
ATOM      2  C   UNL     1      -1.306  -1.620   0.280  1.00  0.00     0.067 A 
ATOM      3  C   UNL     1      -2.906  -0.048  -0.264  1.00  0.00     0.223 A 
ATOM      4  N   UNL     1      -3.535  -0.892  -1.087  1.00  0.00    -0.222 NA
ATOM      5  N   UNL     1      -1.808  -0.372   0.432  1.00  0.00    -0.216 NA
ATOM      6  C   UNL     1      -3.013  -2.123  -1.221  1.00  0.00     0.117 A 
ATOM      7  C   UNL     1      -1.891  -2.547  -0.556  1.00  0.00     0.046 A 
BRANCH   3   8
ATOM      8  N   UNL     1      -3.355   1.243  -0.071  1.00  0.00    -0.352 N 
ATOM      9  H   UNL     1      -2.879   1.579   0.759  1.00  0.00     0.163 HD
BRANCH   8  10
ATOM     10  C   UNL     1      -4.775   1.569  -0.137  1.00  0.00     0.076 C 
ATOM     11  C   UNL     1      -5.310   1.562  -1.567  1.00  0.00     0.030 C 
ATOM     12  C   UNL     1      -5.621   0.721   0.809  1.00  0.00     0.030 C 
ENDBRANCH   8  10
ENDBRANCH   3   8
ENDBRANCH   1   2
BRANCH   1  13
ATOM     13  N   UNL     1       1.148  -1.347   0.488  1.00  0.00    -0.244 N 
ATOM     14  Cl  UNL     1       1.566  -1.824  -1.150  1.00  0.00     0.016 Cl
BRANCH  13  15
ATOM     15  C   UNL     1       2.158  -0.947   1.362  1.00  0.00     0.268 C 
ATOM     16  O   UNL     1       2.119  -1.130   2.578  1.00  0.00    -0.268 OA
BRANCH  15  17
ATOM     17  C   UNL     1       3.342  -0.242   0.808  1.00  0.00     0.041 A 
ATOM     18  C   UNL     1       4.612  -0.583   1.284  1.00  0.00     0.014 A 
ATOM     19  C   UNL     1       3.199   0.794  -0.122  1.00  0.00     0.014 A 
ATOM     20  C   UNL     1       5.741   0.084   0.802  1.00  0.00     0.014 A 
ATOM     21  C   UNL     1       4.330   1.460  -0.604  1.00  0.00     0.014 A 
ATOM     22  C   UNL     1       5.612   1.114  -0.145  1.00  0.00     0.056 A 
BRANCH  22  23
ATOM     23  C   UNL     1       6.837   1.816  -0.681  1.00  0.00     0.416 C 
ATOM     24  F   UNL     1       7.400   1.147  -1.724  1.00  0.00    -0.166 F 
ATOM     25  F   UNL     1       6.579   3.074  -1.137  1.00  0.00    -0.166 F 
ATOM     26  F   UNL     1       7.822   1.954   0.251  1.00  0.00    -0.166 F 
ENDBRANCH  22  23
ENDBRANCH  15  17
ENDBRANCH  13  15
ENDBRANCH   1  13
TORSDOF 7
