REMARK SMILES CC(C)Nc1ncc2c(n1)nc([C@@H](C)c1ccc(Cl)cc1)c(=O)n2C
REMARK SMILES IDX 5 1 6 2 7 3 8 4 9 5 10 6 11 7 12 8 22 9 23 10 24 11 25 12
REMARK SMILES IDX 4 13 2 15 1 16 3 17 13 18 14 19 15 20 16 21 21 22 17 23
REMARK SMILES IDX 20 24 18 25 19 26
REMARK H PARENT 4 14
ROOT
ATOM      1  C   UNL     1      -2.816   0.474  -0.072  1.00  0.00     0.225 A 
ATOM      2  N   UNL     1      -3.028  -0.243   1.038  1.00  0.00    -0.219 NA
ATOM      3  C   UNL     1      -1.989  -0.947   1.531  1.00  0.00     0.145 A 
ATOM      4  C   UNL     1      -0.743  -0.972   0.951  1.00  0.00     0.108 A 
ATOM      5  C   UNL     1      -0.637  -0.205  -0.195  1.00  0.00     0.181 A 
ATOM      6  N   UNL     1      -1.647   0.513  -0.714  1.00  0.00    -0.191 NA
ATOM      7  N   UNL     1       0.555  -0.102  -0.921  1.00  0.00    -0.225 NA
ATOM      8  C   UNL     1       1.594  -0.765  -0.505  1.00  0.00     0.115 A 
ATOM      9  C   UNL     1       1.574  -1.657   0.739  1.00  0.00     0.273 A 
ATOM     10  O   UNL     1       2.582  -2.280   1.045  1.00  0.00    -0.267 OA
ATOM     11  N   UNL     1       0.370  -1.704   1.433  1.00  0.00    -0.306 N 
ATOM     12  C   UNL     1       0.258  -2.513   2.632  1.00  0.00     0.154 C 
ENDROOT
BRANCH   1  13
ATOM     13  N   UNL     1      -3.816   1.240  -0.631  1.00  0.00    -0.352 N 
ATOM     14  H   UNL     1      -3.486   1.492  -1.558  1.00  0.00     0.163 HD
BRANCH  13  15
ATOM     15  C   UNL     1      -5.215   0.833  -0.569  1.00  0.00     0.076 C 
ATOM     16  C   UNL     1      -5.815   1.020   0.822  1.00  0.00     0.030 C 
ATOM     17  C   UNL     1      -5.446  -0.571  -1.121  1.00  0.00     0.030 C 
ENDBRANCH  13  15
ENDBRANCH   1  13
BRANCH   8  18
ATOM     18  C   UNL     1       2.933  -0.644  -1.227  1.00  0.00     0.071 C 
ATOM     19  C   UNL     1       2.754  -0.418  -2.732  1.00  0.00     0.020 C 
BRANCH  18  20
ATOM     20  C   UNL     1       3.790   0.438  -0.588  1.00  0.00    -0.039 A 
ATOM     21  C   UNL     1       3.426   1.793  -0.649  1.00  0.00     0.006 A 
ATOM     22  C   UNL     1       4.958   0.084   0.106  1.00  0.00     0.006 A 
ATOM     23  C   UNL     1       4.217   2.771  -0.042  1.00  0.00     0.021 A 
ATOM     24  C   UNL     1       5.750   1.062   0.713  1.00  0.00     0.021 A 
ATOM     25  C   UNL     1       5.377   2.402   0.635  1.00  0.00     0.041 A 
ATOM     26  Cl  UNL     1       6.350   3.606   1.385  1.00  0.00    -0.084 Cl
ENDBRANCH  18  20
ENDBRANCH   8  18
TORSDOF 4
