REMARK SMILES CCCCCCCCOCc1cc(O)cc(O)c1C(=O)COC
REMARK SMILES IDX 8 1 7 2 6 3 5 4 4 5 3 6 2 7 1 8 9 9 10 10 11 11 12 12 18 13
REMARK SMILES IDX 13 14 16 15 15 16 19 17 20 18 21 19 22 20 23 21 14 22 17 24
REMARK H PARENT 14 23 17 25
ROOT
ATOM      1  C   UNL     1      -0.193   0.639   0.126  1.00  0.00     0.160 C 
ENDROOT
BRANCH   1   2
ATOM      2  C   UNL     1       1.003   0.941   1.026  1.00  0.00     0.028 C 
BRANCH   2   3
ATOM      3  C   UNL     1       2.346   1.040   0.290  1.00  0.00     0.002 C 
BRANCH   3   4
ATOM      4  C   UNL     1       2.826  -0.277  -0.323  1.00  0.00     0.000 C 
BRANCH   4   5
ATOM      5  C   UNL     1       4.208  -0.175  -0.978  1.00  0.00    -0.000 C 
BRANCH   5   6
ATOM      6  C   UNL     1       5.344   0.042   0.024  1.00  0.00    -0.000 C 
BRANCH   6   7
ATOM      7  C   UNL     1       6.707   0.006  -0.669  1.00  0.00    -0.003 C 
ATOM      8  C   UNL     1       7.841   0.227   0.320  1.00  0.00     0.004 C 
ENDBRANCH   6   7
ENDBRANCH   5   6
ENDBRANCH   4   5
ENDBRANCH   3   4
ENDBRANCH   2   3
ENDBRANCH   1   2
BRANCH   1   9
ATOM      9  O   UNL     1      -0.206  -0.750  -0.204  1.00  0.00    -0.377 OA
BRANCH   9  10
ATOM     10  C   UNL     1      -1.338  -1.106  -1.009  1.00  0.00     0.196 C 
BRANCH  10  11
ATOM     11  C   UNL     1      -2.550  -1.381  -0.147  1.00  0.00    -0.004 A 
ATOM     12  C   UNL     1      -2.390  -2.096   1.056  1.00  0.00     0.053 A 
ATOM     13  C   UNL     1      -3.845  -0.965  -0.514  1.00  0.00     0.068 A 
ATOM     14  C   UNL     1      -3.488  -2.356   1.871  1.00  0.00     0.119 A 
ATOM     15  C   UNL     1      -4.941  -1.242   0.317  1.00  0.00     0.130 A 
ATOM     16  C   UNL     1      -4.762  -1.932   1.514  1.00  0.00     0.093 A 
BRANCH  13  17
ATOM     17  C   UNL     1      -4.063  -0.258  -1.796  1.00  0.00     0.192 C 
ATOM     18  O   UNL     1      -3.736  -0.811  -2.846  1.00  0.00    -0.291 OA
BRANCH  17  19
ATOM     19  C   UNL     1      -4.676   1.135  -1.752  1.00  0.00     0.240 C 
BRANCH  19  20
ATOM     20  O   UNL     1      -4.146   1.906  -0.679  1.00  0.00    -0.377 OA
ATOM     21  C   UNL     1      -4.754   3.189  -0.612  1.00  0.00     0.195 C 
ENDBRANCH  19  20
ENDBRANCH  17  19
ENDBRANCH  13  17
BRANCH  14  22
ATOM     22  O   UNL     1      -3.353  -3.036   3.045  1.00  0.00    -0.508 OA
ATOM     23  H   UNL     1      -2.416  -3.267   3.163  1.00  0.00     0.293 HD
ENDBRANCH  14  22
BRANCH  15  24
ATOM     24  O   UNL     1      -6.201  -0.858  -0.055  1.00  0.00    -0.507 OA
ATOM     25  H   UNL     1      -6.834  -1.173   0.612  1.00  0.00     0.293 HD
ENDBRANCH  15  24
ENDBRANCH  10  11
ENDBRANCH   9  10
ENDBRANCH   1   9
TORSDOF 14
