MODEL        6USER    Run = 6USERUSER    Estimated Free Energy of Binding    =  -7.99 kcal/mol  [=(1)+(2)+(3)-(4)]USERUSER    (1) Final Intermolecular Energy     = -10.38 kcal/molUSER        vdW + Hbond + desolv Energy     = -10.26 kcal/molUSER        Electrostatic Energy            =  -0.12 kcal/molUSER        Moving Ligand-Fixed Receptor    = -10.38 kcal/molUSER        Moving Ligand-Moving Receptor   =  +0.00 kcal/molUSER    (2) Final Total Internal Energy     =  -1.41 kcal/molUSER    (3) Torsional Free Energy           =  +2.39 kcal/molUSER    (4) Unbound System's Energy         =  -1.41 kcal/molUSERUSERREMARK SMILES CC(C)CC=NNC1=CC(C(C)C)=NCN1Cc1cccnc1REMARK SMILES IDX 6 1 5 2 4 3 2 4 1 5 3 6 7 7 8 9 9 10 16 11 10 12 15 13 14 14REMARK SMILES IDX 17 15 18 16 19 17 23 18 20 19 22 20 21 21 11 22 12 23 13 24REMARK H PARENT 7 8USER                              x       y       z     vdW  Elec       q    TypeUSER                           _______ _______ _______ _____ _____    ______ ____ROOTATOM      1  N   UNL     1      39.542  46.368  17.970 -0.33 +0.03    -0.187 NA ENDROOTBRANCH   1   2ATOM      2  C   UNL     1      40.630  46.643  17.326 -0.48 -0.01    +0.106 C  BRANCH   2   3ATOM      3  C   UNL     1      41.067  48.072  17.143 -0.56 -0.01    +0.052 C  BRANCH   3   4ATOM      4  C   UNL     1      40.387  48.705  15.923 -0.65 +0.00    -0.012 C  ATOM      5  C   UNL     1      40.220  47.664  14.815 -0.55 -0.00    +0.008 C  ATOM      6  C   UNL     1      41.181  49.903  15.397 -0.75 -0.00    +0.008 C  ENDBRANCH   3   4ENDBRANCH   2   3ENDBRANCH   1   2BRANCH   1   7ATOM      7  N   UNL     1      38.743  45.430  17.348 -0.22 +0.05    -0.263 N  ATOM      8  H   UNL     1      38.842  45.551  16.336 +0.13 -0.04    +0.192 HD BRANCH   7   9ATOM      9  C   UNL     1      37.361  45.420  17.580 -0.33 -0.04    +0.125 C  ATOM     10  C   UNL     1      36.893  44.524  18.464 -0.36 -0.01    +0.070 C  ATOM     11  N   UNL     1      36.466  46.259  16.919 -0.16 +0.21    -0.333 N  ATOM     12  C   UNL     1      35.431  44.466  18.684 -0.39 -0.01    +0.043 C  ATOM     13  C   UNL     1      35.154  46.474  17.540 -0.23 -0.24    +0.262 C  ATOM     14  N   UNL     1      34.585  45.349  18.280 -0.23 +0.13    -0.268 NA BRANCH  11  15ATOM     15  C   UNL     1      36.922  47.367  16.062 -0.28 -0.13    +0.157 C  BRANCH  15  16ATOM     16  C   UNL     1      36.886  47.020  14.594 -0.43 +0.01    -0.010 A  ATOM     17  C   UNL     1      36.844  45.696  14.142 -0.42 -0.00    +0.009 A  ATOM     18  C   UNL     1      36.962  48.019  13.629 -0.48 -0.06    +0.116 A  ATOM     19  C   UNL     1      36.848  45.431  12.776 -0.52 -0.01    +0.020 A  ATOM     20  N   UNL     1      36.971  47.791  12.295 -1.02 +0.07    -0.264 NA ATOM     21  C   UNL     1      36.910  46.501  11.901 -0.57 -0.04    +0.111 A  ENDBRANCH  15  16ENDBRANCH  11  15BRANCH  12  22ATOM     22  C   UNL     1      34.907  43.260  19.465 -0.45 -0.00    +0.032 C  ATOM     23  C   UNL     1      34.526  42.136  18.506 -0.47 -0.00    +0.014 C  ATOM     24  C   UNL     1      35.946  42.792  20.482 -0.51 -0.00    +0.014 C  ENDBRANCH  12  22ENDBRANCH   7   9ENDBRANCH   1   7TORSDOF 8TERENDMDL