MODEL        10USER    Run = 10USERUSER    Estimated Free Energy of Binding    =  -6.54 kcal/mol  [=(1)+(2)+(3)-(4)]USERUSER    (1) Final Intermolecular Energy     = -10.72 kcal/molUSER        vdW + Hbond + desolv Energy     = -10.54 kcal/molUSER        Electrostatic Energy            =  -0.18 kcal/molUSER        Moving Ligand-Fixed Receptor    = -10.72 kcal/molUSER        Moving Ligand-Moving Receptor   =  +0.00 kcal/molUSER    (2) Final Total Internal Energy     =  -1.33 kcal/molUSER    (3) Torsional Free Energy           =  +4.18 kcal/molUSER    (4) Unbound System's Energy         =  -1.33 kcal/molUSERUSERREMARK SMILES CCCCCCCCOCc1cc(O)cc(O)c1C(=O)COCREMARK SMILES IDX 8 1 7 2 6 3 5 4 4 5 3 6 2 7 1 8 9 9 10 10 11 11 12 12 18 13REMARK SMILES IDX 13 14 16 15 15 16 19 17 20 18 21 19 22 20 23 21 14 22 17 24REMARK H PARENT 14 23 17 25USER                              x       y       z     vdW  Elec       q    TypeUSER                           _______ _______ _______ _____ _____    ______ ____ROOTATOM      1  C   UNL     1      36.378  43.908  17.484 -0.26 -0.05    +0.160 C  ENDROOTBRANCH   1   2ATOM      2  C   UNL     1      35.251  43.487  16.544 -0.43 -0.01    +0.028 C  BRANCH   2   3ATOM      3  C   UNL     1      33.932  44.244  16.750 -0.37 -0.00    +0.002 C  BRANCH   3   4ATOM      4  C   UNL     1      33.607  45.253  15.646 -0.38 -0.00    +0.000 C  BRANCH   4   5ATOM      5  C   UNL     1      32.129  45.256  15.241 -0.47 +0.00    -0.000 C  BRANCH   5   6ATOM      6  C   UNL     1      31.809  46.233  14.108 -0.56 +0.00    -0.000 C  BRANCH   6   7ATOM      7  C   UNL     1      30.312  46.246  13.795 -0.64 +0.00    -0.003 C  ATOM      8  C   UNL     1      30.048  46.626  12.346 -0.72 -0.00    +0.004 C  ENDBRANCH   6   7ENDBRANCH   5   6ENDBRANCH   4   5ENDBRANCH   3   4ENDBRANCH   2   3ENDBRANCH   1   2BRANCH   1   9ATOM      9  O   UNL     1      37.403  44.565  16.739 -0.14 +0.11    -0.377 OA BRANCH   9  10ATOM     10  C   UNL     1      37.212  45.986  16.689 -0.29 -0.09    +0.196 C  BRANCH  10  11ATOM     11  C   UNL     1      38.538  46.712  16.717 -0.41 +0.00    -0.004 A  ATOM     12  C   UNL     1      39.577  46.216  17.529 -0.42 -0.01    +0.053 A  ATOM     13  C   UNL     1      38.770  47.885  15.972 -0.41 -0.03    +0.068 A  ATOM     14  C   UNL     1      40.809  46.861  17.567 -0.42 -0.01    +0.119 A  ATOM     15  C   UNL     1      40.017  48.525  16.028 -0.44 -0.04    +0.130 A  ATOM     16  C   UNL     1      41.040  48.010  16.821 -0.46 -0.01    +0.093 A  BRANCH  13  17ATOM     17  C   UNL     1      37.688  48.468  15.147 -0.43 -0.14    +0.192 C  ATOM     18  O   UNL     1      37.363  49.640  15.331 -0.50 +0.31    -0.291 OA BRANCH  17  19ATOM     19  C   UNL     1      37.017  47.577  14.110 -0.39 -0.14    +0.240 C  BRANCH  19  20ATOM     20  O   UNL     1      37.468  47.875  12.794 -0.88 +0.07    -0.377 OA ATOM     21  C   UNL     1      36.918  46.976  11.840 -0.57 -0.07    +0.195 C  ENDBRANCH  19  20ENDBRANCH  17  19ENDBRANCH  13  17BRANCH  14  22ATOM     22  O   UNL     1      41.831  46.391  18.338 -0.19 -0.00    -0.508 OA ATOM     23  H   UNL     1      42.673  46.626  17.913 -0.34 -0.04    +0.293 HD ENDBRANCH  14  22BRANCH  15  24ATOM     24  O   UNL     1      40.231  49.678  15.322 -0.20 +0.23    -0.507 OA ATOM     25  H   UNL     1      39.426  50.223  15.361 -0.22 -0.26    +0.293 HD ENDBRANCH  15  24ENDBRANCH  10  11ENDBRANCH   9  10ENDBRANCH   1   9TORSDOF 14TERENDMDL