MODEL        8USER    Run = 8USERUSER    Estimated Free Energy of Binding    =  -7.99 kcal/mol  [=(1)+(2)+(3)-(4)]USERUSER    (1) Final Intermolecular Energy     = -10.08 kcal/molUSER        vdW + Hbond + desolv Energy     = -10.11 kcal/molUSER        Electrostatic Energy            =  +0.03 kcal/molUSER        Moving Ligand-Fixed Receptor    = -10.08 kcal/molUSER        Moving Ligand-Moving Receptor   =  +0.00 kcal/molUSER    (2) Final Total Internal Energy     =  -0.77 kcal/molUSER    (3) Torsional Free Energy           =  +2.09 kcal/molUSER    (4) Unbound System's Energy         =  -0.77 kcal/molUSERUSERREMARK SMILES CCCc1cncc(/C=C2\SC(=N)NC2=O)c1N(C)CCREMARK SMILES IDX 4 1 5 2 6 3 7 4 8 5 17 6 3 7 2 8 1 9 18 10 19 11 20 12 21 13REMARK SMILES IDX 9 14 10 15 11 16 15 17 12 18 14 19 16 20 13 22REMARK H PARENT 14 21 13 23USER                              x       y       z     vdW  Elec       q    TypeUSER                           _______ _______ _______ _____ _____    ______ ____ROOTATOM      1  C   UNL     1      39.772  47.156  16.097 -0.49 +0.00    -0.006 A  ATOM      2  C   UNL     1      40.304  46.689  17.305 -0.41 -0.02    +0.116 A  ATOM      3  N   UNL     1      39.608  46.057  18.272 -0.27 +0.03    -0.264 NA ATOM      4  C   UNL     1      38.296  45.866  18.028 -0.29 -0.03    +0.121 A  ATOM      5  C   UNL     1      37.647  46.271  16.864 -0.37 -0.01    +0.018 A  ATOM      6  C   UNL     1      38.396  46.946  15.867 -0.39 -0.02    +0.050 A  ENDROOTBRANCH   1   7ATOM      7  C   UNL     1      40.721  47.839  15.143 -0.55 -0.00    +0.039 C  BRANCH   7   8ATOM      8  C   UNL     1      40.940  49.315  15.491 -0.73 -0.00    +0.001 C  ATOM      9  C   UNL     1      41.752  50.022  14.416 -0.78 -0.00    +0.004 C  ENDBRANCH   7   8ENDBRANCH   1   7BRANCH   6  10ATOM     10  N   UNL     1      37.711  47.343  14.698 -0.16 +0.19    -0.374 N  ATOM     11  C   UNL     1      36.914  48.555  14.879 -0.38 -0.13    +0.143 C  BRANCH  10  12ATOM     12  C   UNL     1      37.135  46.269  13.885 -0.43 -0.05    +0.113 C  ATOM     13  C   UNL     1      36.632  46.830  12.562 -0.71 -0.01    +0.027 C  ENDBRANCH  10  12ENDBRANCH   6  10BRANCH   5  14ATOM     14  C   UNL     1      36.202  46.042  16.706 -0.40 -0.02    +0.033 C  BRANCH  14  15ATOM     15  C   UNL     1      35.392  45.456  17.597 -0.36 -0.04    +0.081 C  ATOM     16  S   UNL     1      35.281  43.779  18.001 -0.43 +0.01    -0.047 SA ATOM     17  C   UNL     1      34.390  46.235  18.383 -0.35 -0.17    +0.264 C  ATOM     18  C   UNL     1      34.000  44.082  19.121 -0.34 -0.03    +0.165 C  ATOM     19  N   UNL     1      33.681  45.388  19.183 -0.16 +0.13    -0.301 N  ATOM     20  O   UNL     1      34.231  47.444  18.329 -1.09 +0.29    -0.268 OA ATOM     21  H   UNL     1      32.955  45.720  19.796 -0.39 -0.08    +0.172 HD BRANCH  18  22ATOM     22  N   UNL     1      33.411  43.188  19.821 -0.74 -0.01    -0.278 NA ATOM     23  H   UNL     1      34.017  42.359  19.843 +0.12 +0.02    +0.190 HD ENDBRANCH  18  22ENDBRANCH  14  15ENDBRANCH   5  14TORSDOF 7TERENDMDL