MODEL        5USER    Run = 5USERUSER    Estimated Free Energy of Binding    =  -8.11 kcal/mol  [=(1)+(2)+(3)-(4)]USERUSER    (1) Final Intermolecular Energy     = -10.79 kcal/molUSER        vdW + Hbond + desolv Energy     = -10.70 kcal/molUSER        Electrostatic Energy            =  -0.09 kcal/molUSER        Moving Ligand-Fixed Receptor    = -10.79 kcal/molUSER        Moving Ligand-Moving Receptor   =  +0.00 kcal/molUSER    (2) Final Total Internal Energy     =  -2.29 kcal/molUSER    (3) Torsional Free Energy           =  +2.68 kcal/molUSER    (4) Unbound System's Energy         =  -2.29 kcal/molUSERUSERREMARK SMILES CCN(CC)Cc1ccc(C(=O)NC=Cc2cccc3nc[nH]c23)cc1NREMARK SMILES IDX 7 1 8 2 9 3 10 4 25 5 26 6 6 7 3 8 2 9 1 10 4 11 5 12 27 13REMARK SMILES IDX 11 16 13 17 12 18 14 20 15 21 16 22 17 23 24 24 18 25 23 26REMARK SMILES IDX 20 27 19 28 22 29 21 30REMARK H PARENT 27 14 27 15 13 19 23 31USER                              x       y       z     vdW  Elec       q    TypeUSER                           _______ _______ _______ _____ _____    ______ ____ROOTATOM      1  C   UNL     1      36.871  42.937  24.294 -0.38 -0.00    -0.011 A  ATOM      2  C   UNL     1      37.122  42.169  23.141 -0.46 +0.00    +0.008 A  ATOM      3  C   UNL     1      37.688  42.749  22.005 -0.38 +0.00    +0.014 A  ATOM      4  C   UNL     1      37.994  44.113  22.002 -0.34 +0.00    +0.042 A  ATOM      5  C   UNL     1      37.723  44.889  23.134 -0.26 +0.00    +0.039 A  ATOM      6  C   UNL     1      37.215  44.305  24.299 -0.29 +0.00    +0.037 A  ENDROOTBRANCH   1   7ATOM      7  C   UNL     1      36.184  42.277  25.482 -0.37 -0.01    +0.122 C  BRANCH   7   8ATOM      8  N   UNL     1      36.061  43.156  26.673 -0.21 +0.05    -0.300 NA BRANCH   8   9ATOM      9  C   UNL     1      37.112  42.823  27.657 -0.37 -0.02    +0.081 C  ATOM     10  C   UNL     1      37.410  41.326  27.697 -0.54 -0.00    +0.021 C  ENDBRANCH   8   9BRANCH   8  11ATOM     11  C   UNL     1      34.719  43.019  27.274 -0.57 -0.01    +0.081 C  ATOM     12  C   UNL     1      34.497  43.989  28.431 -0.70 -0.00    +0.021 C  ENDBRANCH   8  11ENDBRANCH   7   8ENDBRANCH   1   7BRANCH   6  13ATOM     13  N   UNL     1      36.861  45.130  25.382 -0.13 -0.01    -0.398 N  ATOM     14  H   UNL     1      37.355  44.912  26.240 +0.08 -0.01    +0.156 HD ATOM     15  H   UNL     1      35.844  45.118  25.517 -0.45 -0.02    +0.156 HD ENDBRANCH   6  13BRANCH   4  16ATOM     16  C   UNL     1      38.572  44.781  20.802 -0.25 +0.00    +0.255 C  ATOM     17  N   UNL     1      38.100  44.309  19.584 -0.15 +0.02    -0.329 N  ATOM     18  O   UNL     1      39.432  45.640  20.958 -0.25 -0.01    -0.269 OA ATOM     19  H   UNL     1      37.531  43.471  19.612 +0.11 -0.01    +0.169 HD BRANCH  17  20ATOM     20  C   UNL     1      38.415  44.765  18.322 -0.38 -0.01    +0.086 C  BRANCH  20  21ATOM     21  C   UNL     1      37.857  45.808  17.697 -0.40 -0.01    +0.028 C  BRANCH  21  22ATOM     22  C   UNL     1      38.601  46.715  16.825 -0.41 -0.00    +0.002 A  ATOM     23  C   UNL     1      38.146  47.191  15.584 -0.43 -0.00    +0.010 A  ATOM     24  C   UNL     1      39.843  47.193  17.262 -0.41 -0.02    +0.073 A  ATOM     25  C   UNL     1      38.911  48.079  14.821 -0.53 -0.00    +0.003 A  ATOM     26  N   UNL     1      40.589  46.965  18.395 -0.24 +0.03    -0.344 N  ATOM     27  C   UNL     1      40.622  48.077  16.521 -0.48 -0.02    +0.089 A  ATOM     28  C   UNL     1      40.156  48.528  15.278 -0.56 -0.01    +0.030 A  ATOM     29  C   UNL     1      41.741  47.693  18.298 -0.34 -0.01    +0.197 A  ATOM     30  N   UNL     1      41.793  48.374  17.176 -0.68 -0.01    -0.237 NA ATOM     31  H   UNL     1      40.327  46.361  19.161 +0.09 -0.01    +0.168 HD ENDBRANCH  21  22ENDBRANCH  20  21ENDBRANCH  17  20ENDBRANCH   4  16TORSDOF 9TERENDMDL