MODEL        10USER    Run = 10USERUSER    Estimated Free Energy of Binding    = -10.99 kcal/mol  [=(1)+(2)+(3)-(4)]USERUSER    (1) Final Intermolecular Energy     = -12.48 kcal/molUSER        vdW + Hbond + desolv Energy     = -12.40 kcal/molUSER        Electrostatic Energy            =  -0.08 kcal/molUSER        Moving Ligand-Fixed Receptor    = -12.48 kcal/molUSER        Moving Ligand-Moving Receptor   =  +0.00 kcal/molUSER    (2) Final Total Internal Energy     =  -0.62 kcal/molUSER    (3) Torsional Free Energy           =  +1.49 kcal/molUSER    (4) Unbound System's Energy         =  -0.62 kcal/molUSERUSERREMARK SMILES Oc1nc2ccccc2n1C1CCN(Cc2ccc(-c3nc4ccccc4[nH]3)cc2)CC1REMARK SMILES IDX 11 1 12 2 13 3 14 4 31 5 32 6 10 7 2 8 3 9 4 10 9 11 5 12REMARK SMILES IDX 8 13 6 14 7 15 1 16 15 18 16 19 17 20 30 21 18 22 29 23REMARK SMILES IDX 19 24 20 25 21 26 28 27 22 28 27 29 23 30 26 31 24 32 25 33REMARK H PARENT 1 17 28 34USER                              x       y       z     vdW  Elec       q    TypeUSER                           _______ _______ _______ _____ _____    ______ ____ROOTATOM      1  C   UNL     1      39.314  46.556  16.167 -0.44 -0.02    +0.095 C  ATOM      2  C   UNL     1      39.996  47.563  17.098 -0.49 -0.01    +0.041 C  ATOM      3  C   UNL     1      40.789  46.835  18.183 -0.50 -0.01    +0.087 C  ATOM      4  N   UNL     1      39.935  45.909  18.938 -0.24 +0.02    -0.299 NA ATOM      5  C   UNL     1      39.325  44.900  18.059 -0.37 -0.01    +0.087 C  ATOM      6  C   UNL     1      38.478  45.557  16.970 -0.41 -0.01    +0.041 C  ENDROOTBRANCH   1   7ATOM      7  N   UNL     1      38.563  47.191  15.095 -0.22 +0.11    -0.291 N  ATOM      8  C   UNL     1      38.393  48.534  14.895 -0.27 -0.17    +0.295 A  ATOM      9  N   UNL     1      37.667  48.815  13.849 -0.53 +0.10    -0.195 NA ATOM     10  C   UNL     1      37.336  47.589  13.326 -0.49 -0.03    +0.092 A  ATOM     11  C   UNL     1      37.880  46.549  14.082 -0.39 -0.03    +0.072 A  ATOM     12  C   UNL     1      36.564  47.291  12.193 -0.66 -0.01    +0.031 A  ATOM     13  C   UNL     1      37.683  45.201  13.751 -0.36 -0.01    +0.029 A  ATOM     14  C   UNL     1      36.356  45.951  11.849 -0.58 -0.00    +0.002 A  ATOM     15  C   UNL     1      36.909  44.925  12.618 -0.52 -0.00    +0.002 A  BRANCH   8  16ATOM     16  O   UNL     1      38.897  49.478  15.662 -0.13 +0.34    -0.480 OA ATOM     17  H   UNL     1      38.406  50.260  15.351 -0.31 -0.31    +0.296 HD ENDBRANCH   8  16ENDBRANCH   1   7BRANCH   4  18ATOM     18  C   UNL     1      40.707  45.285  20.029 -0.37 +0.01    +0.120 C  BRANCH  18  19ATOM     19  C   UNL     1      39.854  44.871  21.212 -0.30 -0.00    -0.034 A  ATOM     20  C   UNL     1      40.096  45.394  22.488 -0.26 +0.00    +0.006 A  ATOM     21  C   UNL     1      38.790  43.977  21.042 -0.28 +0.00    +0.006 A  ATOM     22  C   UNL     1      39.297  45.020  23.576 -0.22 +0.00    +0.012 A  ATOM     23  C   UNL     1      37.992  43.607  22.128 -0.35 +0.00    +0.012 A  ATOM     24  C   UNL     1      38.237  44.116  23.411 -0.29 +0.00    +0.017 A  BRANCH  24  25ATOM     25  C   UNL     1      37.376  43.695  24.524 -0.25 +0.01    +0.138 A  ATOM     26  N   UNL     1      36.863  44.488  25.449 -0.26 -0.00    -0.229 NA ATOM     27  N   UNL     1      36.964  42.398  24.741 -0.19 +0.00    -0.338 N  ATOM     28  C   UNL     1      36.122  43.685  26.279 -0.34 -0.01    +0.089 A  ATOM     29  C   UNL     1      36.168  42.363  25.856 -0.38 -0.01    +0.066 A  ATOM     30  C   UNL     1      35.377  44.015  27.419 -0.46 -0.01    +0.030 A  ATOM     31  C   UNL     1      35.502  41.325  26.508 -0.52 -0.01    +0.028 A  ATOM     32  C   UNL     1      34.699  42.992  28.096 -0.56 -0.00    +0.002 A  ATOM     33  C   UNL     1      34.763  41.671  27.645 -0.55 -0.00    +0.002 A  ATOM     34  H   UNL     1      37.194  41.606  24.163 +0.09 +0.00    +0.168 HD ENDBRANCH  24  25ENDBRANCH  18  19ENDBRANCH   4  18TORSDOF 5TERENDMDL