REMARK SMILES Oc1nc2ccccc2n1C1CCN(Cc2ccc(-c3nc4ccccc4[nH]3)cc2)CC1
REMARK SMILES IDX 11 1 12 2 13 3 14 4 31 5 32 6 10 7 2 8 3 9 4 10 9 11 5 12
REMARK SMILES IDX 8 13 6 14 7 15 1 16 15 18 16 19 17 20 30 21 18 22 29 23
REMARK SMILES IDX 19 24 20 25 21 26 28 27 22 28 27 29 23 30 26 31 24 32 25 33
REMARK H PARENT 1 17 28 34
ROOT
ATOM      1  C   UNL     1      -3.653   0.050   0.491  1.00  0.00     0.095 C 
ATOM      2  C   UNL     1      -3.295   0.289   1.961  1.00  0.00     0.041 C 
ATOM      3  C   UNL     1      -2.202   1.350   2.079  1.00  0.00     0.087 C 
ATOM      4  N   UNL     1      -1.014   0.981   1.298  1.00  0.00    -0.299 NA
ATOM      5  C   UNL     1      -1.337   0.810  -0.127  1.00  0.00     0.087 C 
ATOM      6  C   UNL     1      -2.399  -0.271  -0.326  1.00  0.00     0.041 C 
ENDROOT
BRANCH   1   7
ATOM      7  N   UNL     1      -4.710  -0.934   0.316  1.00  0.00    -0.291 N 
ATOM      8  C   UNL     1      -4.667  -2.256   0.665  1.00  0.00     0.295 A 
ATOM      9  N   UNL     1      -5.766  -2.902   0.387  1.00  0.00    -0.195 NA
ATOM     10  C   UNL     1      -6.583  -1.955  -0.178  1.00  0.00     0.092 A 
ATOM     11  C   UNL     1      -5.954  -0.710  -0.239  1.00  0.00     0.072 A 
ATOM     12  C   UNL     1      -7.891  -2.094  -0.667  1.00  0.00     0.031 A 
ATOM     13  C   UNL     1      -6.584   0.421  -0.777  1.00  0.00     0.029 A 
ATOM     14  C   UNL     1      -8.534  -0.975  -1.208  1.00  0.00     0.002 A 
ATOM     15  C   UNL     1      -7.888   0.261  -1.260  1.00  0.00     0.002 A 
BRANCH   8  16
ATOM     16  O   UNL     1      -3.637  -2.853   1.226  1.00  0.00    -0.480 OA
ATOM     17  H   UNL     1      -3.968  -3.765   1.315  1.00  0.00     0.296 HD
ENDBRANCH   8  16
ENDBRANCH   1   7
BRANCH   4  18
ATOM     18  C   UNL     1       0.053   1.980   1.497  1.00  0.00     0.120 C 
BRANCH  18  19
ATOM     19  C   UNL     1       1.405   1.531   0.980  1.00  0.00    -0.034 A 
ATOM     20  C   UNL     1       2.108   2.302   0.047  1.00  0.00     0.006 A 
ATOM     21  C   UNL     1       1.987   0.347   1.449  1.00  0.00     0.006 A 
ATOM     22  C   UNL     1       3.364   1.891  -0.418  1.00  0.00     0.012 A 
ATOM     23  C   UNL     1       3.241  -0.061   0.986  1.00  0.00     0.012 A 
ATOM     24  C   UNL     1       3.945   0.700   0.042  1.00  0.00     0.017 A 
BRANCH  24  25
ATOM     25  C   UNL     1       5.257   0.230  -0.420  1.00  0.00     0.138 A 
ATOM     26  N   UNL     1       5.982  -0.720   0.145  1.00  0.00    -0.229 NA
ATOM     27  N   UNL     1       5.907   0.710  -1.536  1.00  0.00    -0.338 N 
ATOM     28  C   UNL     1       7.120  -0.841  -0.613  1.00  0.00     0.089 A 
ATOM     29  C   UNL     1       7.098   0.048  -1.679  1.00  0.00     0.066 A 
ATOM     30  C   UNL     1       8.220  -1.694  -0.453  1.00  0.00     0.030 A 
ATOM     31  C   UNL     1       8.124   0.143  -2.620  1.00  0.00     0.028 A 
ATOM     32  C   UNL     1       9.267  -1.619  -1.382  1.00  0.00     0.002 A 
ATOM     33  C   UNL     1       9.216  -0.715  -2.446  1.00  0.00     0.002 A 
ATOM     34  H   UNL     1       5.555   1.419  -2.159  1.00  0.00     0.168 HD
ENDBRANCH  24  25
ENDBRANCH  18  19
ENDBRANCH   4  18
TORSDOF 5
