MODEL        2USER    Run = 2USERUSER    Estimated Free Energy of Binding    = -11.94 kcal/mol  [=(1)+(2)+(3)-(4)]USERUSER    (1) Final Intermolecular Energy     = -13.73 kcal/molUSER        vdW + Hbond + desolv Energy     = -13.66 kcal/molUSER        Electrostatic Energy            =  -0.08 kcal/molUSER        Moving Ligand-Fixed Receptor    = -13.73 kcal/molUSER        Moving Ligand-Moving Receptor   =  +0.00 kcal/molUSER    (2) Final Total Internal Energy     =  -0.61 kcal/molUSER    (3) Torsional Free Energy           =  +1.79 kcal/molUSER    (4) Unbound System's Energy         =  -0.61 kcal/molUSERUSERREMARK SMILES Cn1ccc2ccc3c4[nH]c5c(CCCN[C@H]6CC[C@H](O)CC6)cccc5c4c4c(c3c21)C(=O)NC4=OREMARK SMILES IDX 15 1 14 2 13 3 12 4 2 5 3 6 32 7 4 8 31 9 5 10 30 11 8 12REMARK SMILES IDX 6 13 29 14 33 15 7 16 9 17 28 18 36 19 35 20 10 21 27 22REMARK SMILES IDX 11 23 26 24 25 25 24 26 1 27 34 28 37 29 16 32 17 34 23 35REMARK SMILES IDX 18 36 22 37 19 38 20 39 21 40REMARK H PARENT 35 30 10 31 16 33 21 41USER                              x       y       z     vdW  Elec       q    TypeUSER                           _______ _______ _______ _____ _____    ______ ____ROOTATOM      1  C   UNL     1      40.449  44.474  24.292 -0.14 +0.00    +0.081 C  ENDROOTBRANCH   1   2ATOM      2  C   UNL     1      41.554  44.791  23.280 -0.18 +0.00    +0.020 C  BRANCH   2   3ATOM      3  C   UNL     1      41.167  44.442  21.839 -0.30 +0.00    +0.039 C  BRANCH   3   4ATOM      4  C   UNL     1      41.600  45.467  20.819 -0.33 -0.00    -0.024 A  ATOM      5  N   UNL     1      36.138  46.534  14.167 -0.18 +0.23    -0.350 N  ATOM      6  C   UNL     1      34.822  46.169  14.004 -0.26 -0.07    +0.086 A  ATOM      7  C   UNL     1      36.550  46.307  15.475 -0.34 -0.04    +0.057 A  ATOM      8  C   UNL     1      34.431  45.501  15.133 -0.30 -0.02    +0.028 A  ATOM      9  C   UNL     1      37.738  46.638  16.228 -0.37 -0.01    +0.022 A  ATOM     10  C   UNL     1      35.530  45.512  16.031 -0.34 -0.00    +0.000 A  ATOM     11  C   UNL     1      38.730  47.585  15.927 -0.42 -0.03    +0.063 A  ATOM     12  C   UNL     1      37.917  45.913  17.447 -0.37 -0.00    +0.009 A  ATOM     13  C   UNL     1      35.716  44.906  17.284 -0.31 -0.00    +0.011 A  ATOM     14  C   UNL     1      39.905  47.712  16.678 -0.45 -0.02    +0.063 A  ATOM     15  C   UNL     1      38.762  48.703  14.968 -0.31 -0.14    +0.259 C  ATOM     16  C   UNL     1      36.923  45.066  17.958 -0.34 -0.00    +0.012 A  ATOM     17  C   UNL     1      39.131  46.063  18.188 -0.37 -0.01    +0.055 A  ATOM     18  C   UNL     1      40.157  46.940  17.815 -0.45 -0.00    +0.022 A  ATOM     19  C   UNL     1      40.696  48.796  16.099 -0.44 -0.05    +0.259 C  ATOM     20  N   UNL     1      40.007  49.241  15.020 -0.30 +0.13    -0.288 N  ATOM     21  N   UNL     1      39.557  45.447  19.345 -0.18 +0.01    -0.354 N  ATOM     22  C   UNL     1      41.217  46.807  18.775 -0.47 -0.00    +0.008 A  ATOM     23  C   UNL     1      40.812  45.863  19.719 -0.39 +0.00    +0.050 A  ATOM     24  C   UNL     1      42.487  47.398  18.936 -0.54 +0.00    +0.011 A  ATOM     25  C   UNL     1      43.296  47.030  20.017 -0.40 +0.00    +0.001 A  ATOM     26  C   UNL     1      42.858  46.085  20.937 -0.25 +0.00    +0.006 A  ATOM     27  C   UNL     1      36.962  46.841  13.016 -0.54 -0.06    +0.149 C  ATOM     28  O   UNL     1      37.833  49.151  14.328 -0.30 +0.19    -0.269 OA ATOM     29  O   UNL     1      41.734  49.264  16.518 -1.02 -0.05    -0.269 OA ATOM     30  H   UNL     1      40.241  50.107  14.560 -0.13 -0.12    +0.173 HD ATOM     31  H   UNL     1      39.028  44.753  19.850 +0.10 -0.00    +0.167 HD ENDBRANCH   3   4ENDBRANCH   2   3ENDBRANCH   1   2BRANCH   1  32ATOM     32  N   UNL     1      40.115  45.689  25.038 -0.02 -0.01    -0.314 NA ATOM     33  H   UNL     1      39.977  45.468  26.023 +0.04 +0.00    +0.122 HD BRANCH  32  34ATOM     34  C   UNL     1      38.930  46.376  24.506 -0.29 +0.00    +0.053 C  ATOM     35  C   UNL     1      37.655  46.108  25.334 -0.34 +0.00    +0.021 C  ATOM     36  C   UNL     1      39.271  47.879  24.440 -0.40 +0.00    +0.021 C  ATOM     37  C   UNL     1      37.409  47.185  26.389 -0.38 -0.00    +0.033 C  ATOM     38  C   UNL     1      38.009  48.731  24.438 -0.43 +0.00    +0.033 C  ATOM     39  C   UNL     1      37.224  48.564  25.743 -0.42 +0.00    +0.114 C  BRANCH  39  40ATOM     40  O   UNL     1      35.844  48.779  25.450 -0.37 +0.05    -0.393 OA ATOM     41  H   UNL     1      35.796  49.356  24.669 -0.44 -0.06    +0.210 HD ENDBRANCH  39  40ENDBRANCH  32  34ENDBRANCH   1  32TORSDOF 6TERENDMDL