MODEL        4USER    Run = 4USERUSER    Estimated Free Energy of Binding    =  -4.95 kcal/mol  [=(1)+(2)+(3)-(4)]USERUSER    (1) Final Intermolecular Energy     =  -9.43 kcal/molUSER        vdW + Hbond + desolv Energy     =  -9.07 kcal/molUSER        Electrostatic Energy            =  -0.50 kcal/molUSER        Moving Ligand-Fixed Receptor    =  -9.56 kcal/molUSER        Moving Ligand-Moving Receptor   =  +0.14 kcal/molUSER    (2) Final Total Internal Energy     =  -3.68 kcal/molUSER    (3) Torsional Free Energy           =  +4.47 kcal/molUSER    (4) Unbound System's Energy         =  -3.68 kcal/molUSERUSERREMARK SMILES COc1ccc(O)c(C(=O)c2ccc(CO[C@@H]3CCCNC[C@@H]3NC(=O)c3ccncc3)cc2)c1FREMARK SMILES IDX 16 1 15 2 14 3 11 4 12 5 34 6 13 7 33 8 9 9 10 10 8 11 3 12REMARK SMILES IDX 4 13 35 14 5 15 6 16 36 17 2 18 1 19 7 20 17 22 18 23 23 25REMARK SMILES IDX 22 26 21 27 20 29 19 30 24 32 25 33 26 35 27 36 28 37 32 38REMARK SMILES IDX 29 39 31 40 30 41REMARK H PARENT 7 21 21 28 24 34REMARK Flexibility Score:   99.900USER                              x       y       z     vdW  Elec       q    TypeUSER                           _______ _______ _______ _____ _____    ______ ____ROOTATOM      1  O   UNL     1      20.877  40.424  -9.302 -0.02 +0.15    -0.371 OA ENDROOTBRANCH   1   2ATOM      2  C   UNL     1      20.055  39.299  -8.996 -0.04 -0.07    +0.196 C  BRANCH   2   3ATOM      3  C   UNL     1      20.304  38.909  -7.562 -0.10 +0.01    -0.022 A  ATOM      4  C   UNL     1      20.736  38.181  -4.883 -0.23 -0.01    +0.023 A  ATOM      5  C   UNL     1      19.923  37.390  -5.700 -0.16 -0.00    +0.012 A  ATOM      6  C   UNL     1      21.358  39.316  -5.413 -0.20 -0.01    +0.012 A  ATOM      7  C   UNL     1      19.705  37.758  -7.029 -0.10 -0.00    +0.007 A  ATOM      8  C   UNL     1      21.139  39.681  -6.743 -0.14 -0.00    +0.007 A  BRANCH   4   9ATOM      9  C   UNL     1      21.024  37.812  -3.476 -0.27 -0.07    +0.199 C  ATOM     10  O   UNL     1      21.170  36.621  -3.187 -0.86 +0.03    -0.288 OA BRANCH   9  11ATOM     11  C   UNL     1      21.084  38.797  -2.375 -0.26 -0.06    +0.104 A  ATOM     12  C   UNL     1      20.128  39.865  -0.403 -0.15 -0.11    +0.155 A  ATOM     13  C   UNL     1      21.261  40.675  -0.295 -0.23 -0.05    +0.053 A  ATOM     14  C   UNL     1      20.048  38.936  -1.451 -0.17 -0.10    +0.179 A  ATOM     15  C   UNL     1      22.289  40.568  -1.235 -0.23 -0.07    +0.051 A  ATOM     16  C   UNL     1      22.193  39.645  -2.274 -0.27 -0.14    +0.130 A  ATOM     17  F   UNL     1      18.938  38.189  -1.564 -0.12 +0.09    -0.202 F  BRANCH  12  18ATOM     18  O   UNL     1      19.054  39.891   0.445 -0.08 +0.33    -0.494 OA ATOM     19  C   UNL     1      19.258  39.427   1.773 -0.20 -0.29    +0.278 C  ENDBRANCH  12  18BRANCH  16  20ATOM     20  O   UNL     1      23.230  39.626  -3.169 -0.15 +0.66    -0.507 OA ATOM     21  H   UNL     1      23.973  40.144  -2.780 -0.38 -0.75    +0.293 HD ENDBRANCH  16  20ENDBRANCH   9  11ENDBRANCH   4   9ENDBRANCH   2   3ENDBRANCH   1   2BRANCH   1  22ATOM     22  C   UNL     1      21.782  40.191 -10.403 -0.10 -0.06    +0.142 C  BRANCH  22  23ATOM     23  C   UNL     1      21.964  38.667 -10.440 -0.13 -0.01    +0.035 CG0ATOM     24  G   UNL     1      23.244  38.055  -9.882 +0.00 +0.00    +0.000 G0 ENDBRANCH  22  23BRANCH  22  25ATOM     25  C   UNL     1      23.070  41.022 -10.192 -0.22 -0.06    +0.125 C  BRANCH  25  26ATOM     26  C   UNL     1      24.185  40.576 -11.171 -0.07 -0.04    +0.108 C  BRANCH  26  27ATOM     27  N   UNL     1      25.071  39.507 -10.716 -0.22 +0.17    -0.315 NA ATOM     28  H   UNL     1      25.390  39.733  -9.772 -0.28 -0.09    +0.122 HD BRANCH  27  29ATOM     29  C   UNL     1      24.483  38.176 -10.756 -0.30 -0.04    +0.081 C  BRANCH  29  30ATOM     30  C   UNL     1      23.244  38.055  -9.881 -0.13 -0.01    +0.018 CG0ATOM     31  G   UNL     1      21.965  38.667 -10.441 +0.00 +0.00    +0.000 G0 ENDBRANCH  29  30ENDBRANCH  27  29ENDBRANCH  26  27ENDBRANCH  25  26BRANCH  25  32ATOM     32  N   UNL     1      23.474  41.026  -8.778 -0.12 +0.24    -0.345 N  ATOM     33  C   UNL     1      23.793  42.199  -8.127 -0.29 -0.16    +0.251 C  ATOM     34  H   UNL     1      23.027  40.315  -8.212 -0.49 -0.15    +0.164 HD ATOM     35  O   UNL     1      23.869  43.287  -8.683 -0.33 +0.16    -0.269 OA BRANCH  33  36ATOM     36  C   UNL     1      24.011  42.098  -6.659 -0.39 -0.03    +0.042 A  ATOM     37  C   UNL     1      23.110  42.741  -5.810 -0.29 -0.02    +0.034 A  ATOM     38  C   UNL     1      25.100  41.415  -6.118 -0.46 -0.03    +0.034 A  ATOM     39  C   UNL     1      23.328  42.658  -4.447 -0.28 -0.09    +0.112 A  ATOM     40  C   UNL     1      25.230  41.393  -4.740 -0.35 -0.10    +0.112 A  ATOM     41  N   UNL     1      24.366  41.994  -3.895 -0.26 +0.29    -0.265 NA ENDBRANCH  33  36ENDBRANCH  25  32ENDBRANCH  22  25ENDBRANCH   1  22TORSDOF 9TERENDMDL