MODEL        2USER    Run = 2USERUSER    Estimated Free Energy of Binding    =  -6.47 kcal/mol  [=(1)+(2)+(3)-(4)]USERUSER    (1) Final Intermolecular Energy     = -10.95 kcal/molUSER        vdW + Hbond + desolv Energy     = -10.99 kcal/molUSER        Electrostatic Energy            =  -0.10 kcal/molUSER        Moving Ligand-Fixed Receptor    = -11.09 kcal/molUSER        Moving Ligand-Moving Receptor   =  +0.14 kcal/molUSER    (2) Final Total Internal Energy     =  -1.81 kcal/molUSER    (3) Torsional Free Energy           =  +4.47 kcal/molUSER    (4) Unbound System's Energy         =  -1.81 kcal/molUSERUSERREMARK SMILES COc1ccc(O)c(C(=O)c2ccc(CN[C@@H]3CCCNC[C@H]3NC(=O)c3ccncc3)cc2)c1FREMARK SMILES IDX 16 1 15 3 14 4 11 5 12 6 34 7 13 8 33 9 9 10 10 11 8 12 3 13REMARK SMILES IDX 4 14 35 15 5 16 6 17 36 18 2 19 1 20 7 21 17 23 18 24 23 26REMARK SMILES IDX 22 27 21 28 20 30 19 31 24 33 25 34 26 36 27 37 28 38 32 39REMARK SMILES IDX 29 40 31 41 30 42REMARK H PARENT 16 2 7 22 21 29 24 35REMARK Flexibility Score:   99.900USER                              x       y       z     vdW  Elec       q    TypeUSER                           _______ _______ _______ _____ _____    ______ ____ROOTATOM      1  N   UNL     1      26.743  41.190  15.662 -0.16 +0.08    -0.308 NA ATOM      2  H   UNL     1      27.207  41.788  14.974 +0.07 -0.09    +0.123 HD ENDROOTBRANCH   1   3ATOM      3  C   UNL     1      27.675  40.930  16.761 -0.24 -0.01    +0.117 C  BRANCH   3   4ATOM      4  C   UNL     1      28.827  41.904  16.822 -0.23 +0.01    -0.034 A  ATOM      5  C   UNL     1      30.958  43.736  16.930 -0.27 -0.01    +0.023 A  ATOM      6  C   UNL     1      29.774  44.078  16.270 -0.29 -0.00    +0.012 A  ATOM      7  C   UNL     1      31.086  42.469  17.511 -0.27 -0.00    +0.012 A  ATOM      8  C   UNL     1      28.713  43.169  16.225 -0.25 -0.00    +0.006 A  ATOM      9  C   UNL     1      30.025  41.562  17.463 -0.26 -0.00    +0.006 A  BRANCH   5  10ATOM     10  C   UNL     1      32.126  44.649  16.969 -0.20 -0.07    +0.199 C  ATOM     11  O   UNL     1      32.002  45.795  16.534 -0.55 +0.15    -0.288 OA BRANCH  10  12ATOM     12  C   UNL     1      33.428  44.277  17.563 -0.24 -0.04    +0.104 A  ATOM     13  C   UNL     1      35.793  43.720  17.360 -0.23 -0.05    +0.155 A  ATOM     14  C   UNL     1      35.871  43.560  18.744 -0.31 -0.01    +0.053 A  ATOM     15  C   UNL     1      34.568  44.085  16.781 -0.19 -0.08    +0.179 A  ATOM     16  C   UNL     1      34.744  43.784  19.541 -0.37 -0.01    +0.051 A  ATOM     17  C   UNL     1      33.538  44.155  18.953 -0.31 -0.03    +0.130 A  ATOM     18  F   UNL     1      34.515  44.274  15.452 -0.05 +0.10    -0.202 F  BRANCH  13  19ATOM     19  O   UNL     1      36.831  43.550  16.483 -0.10 +0.15    -0.494 OA ATOM     20  C   UNL     1      37.340  44.714  15.843 -0.21 -0.09    +0.278 C  ENDBRANCH  13  19BRANCH  17  21ATOM     21  O   UNL     1      32.492  44.391  19.807 -0.23 +0.04    -0.507 OA ATOM     22  H   UNL     1      32.718  45.185  20.345 -0.32 -0.10    +0.293 HD ENDBRANCH  17  21ENDBRANCH  10  12ENDBRANCH   5  10ENDBRANCH   3   4ENDBRANCH   1   3BRANCH   1  23ATOM     23  C   UNL     1      25.484  41.859  16.089 -0.29 -0.01    +0.077 C  BRANCH  23  24ATOM     24  C   UNL     1      24.917  42.586  14.863 -0.37 -0.00    +0.022 CG0ATOM     25  G   UNL     1      25.815  43.674  14.275 +0.00 +0.00    +0.000 G0 ENDBRANCH  23  24BRANCH  23  26ATOM     26  C   UNL     1      25.769  42.806  17.297 -0.29 -0.01    +0.113 C  BRANCH  26  27ATOM     27  C   UNL     1      25.064  44.175  17.135 -0.13 +0.01    +0.107 C  BRANCH  27  28ATOM     28  N   UNL     1      25.685  45.190  16.290 -0.54 -0.07    -0.315 NA ATOM     29  H   UNL     1      26.685  45.232  16.502 +0.06 +0.01    +0.122 HD BRANCH  28  30ATOM     30  C   UNL     1      25.526  45.058  14.850 -0.32 -0.00    +0.081 C  BRANCH  30  31ATOM     31  C   UNL     1      25.816  43.674  14.275 -0.31 -0.01    +0.017 CG0ATOM     32  G   UNL     1      24.917  42.587  14.861 +0.00 +0.00    +0.000 G0 ENDBRANCH  30  31ENDBRANCH  28  30ENDBRANCH  27  28ENDBRANCH  26  27BRANCH  26  33ATOM     33  N   UNL     1      25.317  42.162  18.546 -0.13 +0.04    -0.346 N  ATOM     34  C   UNL     1      25.344  42.830  19.751 -0.32 -0.07    +0.251 C  ATOM     35  H   UNL     1      24.904  41.244  18.474 +0.11 -0.01    +0.164 HD ATOM     36  O   UNL     1      25.824  43.948  19.889 -0.34 +0.11    -0.269 OA BRANCH  34  37ATOM     37  C   UNL     1      24.780  42.115  20.925 -0.51 -0.01    +0.042 A  ATOM     38  C   UNL     1      24.216  42.877  21.948 -0.62 -0.01    +0.034 A  ATOM     39  C   UNL     1      24.771  40.723  21.016 -0.42 -0.01    +0.034 A  ATOM     40  C   UNL     1      23.690  42.214  23.040 -0.55 -0.03    +0.112 A  ATOM     41  C   UNL     1      24.218  40.155  22.150 -0.36 -0.03    +0.112 A  ATOM     42  N   UNL     1      23.688  40.869  23.165 -0.43 +0.06    -0.265 NA ENDBRANCH  34  37ENDBRANCH  26  33ENDBRANCH  23  26ENDBRANCH   1  23TORSDOF 9TERENDMDL