REMARK SMILES O=C1C=C(c2ccnc(-c3cc(F)nc(F)c3)c2)NC[C@@H]1NC1CC1
REMARK SMILES IDX 1 1 2 2 3 3 4 4 19 5 20 6 21 7 22 9 23 11 24 12 25 13 5 14
REMARK SMILES IDX 6 15 18 16 7 17 9 18 8 19 10 20 11 21 17 22 12 23 15 24
REMARK SMILES IDX 14 25 13 26 16 27
REMARK H PARENT 19 8 22 10
ROOT
ATOM      1  O   UNL     1      -2.647   4.056  -0.066  1.00  0.00    -0.293 OA
ATOM      2  C   UNL     1      -2.367   2.909   0.290  1.00  0.00     0.176 C 
ATOM      3  C   UNL     1      -0.939   2.589   0.547  1.00  0.00     0.075 C 
ATOM      4  C   UNL     1      -0.617   1.372   1.009  1.00  0.00     0.045 C 
ATOM      5  N   UNL     1      -1.552   0.393   1.277  1.00  0.00    -0.382 N 
ATOM      6  C   UNL     1      -2.955   0.750   1.466  1.00  0.00     0.140 C 
ATOM      7  C   UNL     1      -3.422   1.810   0.451  1.00  0.00     0.145 C 
ATOM      8  H   UNL     1      -1.216  -0.331   1.912  1.00  0.00     0.160 HD
ENDROOT
BRANCH   7   9
ATOM      9  N   UNL     1      -3.879   1.295  -0.864  1.00  0.00    -0.303 NA
ATOM     10  H   UNL     1      -4.677   0.680  -0.721  1.00  0.00     0.123 HD
BRANCH   9  11
ATOM     11  C   UNL     1      -2.856   0.638  -1.681  1.00  0.00     0.054 C 
ATOM     12  C   UNL     1      -3.305  -0.214  -2.838  1.00  0.00     0.020 C 
ATOM     13  C   UNL     1      -2.685  -0.854  -1.631  1.00  0.00     0.020 C 
ENDBRANCH   9  11
ENDBRANCH   7   9
BRANCH   4  14
ATOM     14  C   UNL     1       0.800   1.022   1.216  1.00  0.00     0.001 A 
ATOM     15  C   UNL     1       1.622   1.776   2.051  1.00  0.00     0.030 A 
ATOM     16  C   UNL     1       1.336  -0.106   0.580  1.00  0.00     0.039 A 
ATOM     17  C   UNL     1       2.933   1.372   2.212  1.00  0.00     0.112 A 
ATOM     18  C   UNL     1       2.671  -0.444   0.786  1.00  0.00     0.071 A 
ATOM     19  N   UNL     1       3.465   0.289   1.607  1.00  0.00    -0.256 NA
BRANCH  18  20
ATOM     20  C   UNL     1       3.323  -1.607   0.152  1.00  0.00     0.009 A 
ATOM     21  C   UNL     1       2.897  -2.140  -1.069  1.00  0.00     0.071 A 
ATOM     22  C   UNL     1       4.427  -2.226   0.755  1.00  0.00     0.071 A 
ATOM     23  C   UNL     1       3.563  -3.234  -1.602  1.00  0.00     0.216 A 
ATOM     24  C   UNL     1       5.022  -3.314   0.139  1.00  0.00     0.216 A 
ATOM     25  N   UNL     1       4.613  -3.841  -1.026  1.00  0.00    -0.191 NA
ATOM     26  F   UNL     1       3.132  -3.725  -2.772  1.00  0.00    -0.185 F 
ATOM     27  F   UNL     1       6.073  -3.888   0.741  1.00  0.00    -0.185 F 
ENDBRANCH  18  20
ENDBRANCH   4  14
TORSDOF 4
