MODEL        10USER    Run = 10USERUSER    Estimated Free Energy of Binding    =  -9.94 kcal/mol  [=(1)+(2)+(3)-(4)]USERUSER    (1) Final Intermolecular Energy     = -12.03 kcal/molUSER        vdW + Hbond + desolv Energy     = -11.95 kcal/molUSER        Electrostatic Energy            =  -0.08 kcal/molUSER        Moving Ligand-Fixed Receptor    = -12.03 kcal/molUSER        Moving Ligand-Moving Receptor   =  +0.00 kcal/molUSER    (2) Final Total Internal Energy     =  -1.37 kcal/molUSER    (3) Torsional Free Energy           =  +2.09 kcal/molUSER    (4) Unbound System's Energy         =  -1.37 kcal/molUSERUSERREMARK SMILES Cc1cc(NC2=NC=C3C2=CN=C3C=C2C=CC(NC(=O)NCCN(C)C)=C2)ccn1REMARK SMILES IDX 15 1 16 2 17 3 18 4 28 5 14 6 13 7 5 8 6 9 7 10 10 11 8 12REMARK SMILES IDX 9 13 11 14 12 15 4 17 2 18 3 19 31 20 30 21 29 22 1 23 19 24REMARK SMILES IDX 20 25 22 26 21 28 23 30 24 31 25 32 26 33 27 34REMARK H PARENT 5 16 19 27 22 29USER                              x       y       z     vdW  Elec       q    TypeUSER                           _______ _______ _______ _____ _____    ______ ____ROOTATOM      1  C   UNL     1      37.230  46.919  14.086 -0.52 +0.01    -0.021 C  ATOM      2  C   UNL     1      36.005  47.352  13.431 -0.60 -0.01    +0.010 C  ATOM      3  C   UNL     1      35.028  46.526  13.837 -0.48 -0.02    +0.027 C  ATOM      4  C   UNL     1      35.585  45.535  14.740 -0.40 -0.03    +0.043 C  ATOM      5  C   UNL     1      36.903  45.752  14.883 -0.42 -0.02    +0.034 C  ENDROOTBRANCH   1   6ATOM      6  C   UNL     1      38.411  47.521  13.901 -0.53 -0.01    +0.037 C  BRANCH   6   7ATOM      7  C   UNL     1      39.423  47.828  14.921 -0.53 -0.02    +0.073 C  ATOM      8  N   UNL     1      41.857  47.347  18.986 -0.28 -0.01    -0.340 N  ATOM      9  C   UNL     1      40.908  46.982  18.064 -0.47 -0.01    +0.139 C  ATOM     10  N   UNL     1      40.072  45.959  18.098 -0.28 +0.02    -0.238 NA ATOM     11  C   UNL     1      40.659  47.742  16.823 -0.58 -0.01    +0.046 C  ATOM     12  C   UNL     1      39.313  46.017  16.930 -0.39 -0.02    +0.124 C  ATOM     13  C   UNL     1      39.627  47.041  16.141 -0.52 -0.01    +0.031 C  ATOM     14  C   UNL     1      40.972  48.795  16.070 -0.57 -0.02    +0.124 C  ATOM     15  N   UNL     1      40.214  48.883  14.902 -0.36 +0.08    -0.255 NA ATOM     16  H   UNL     1      42.392  48.178  18.773 +0.03 -0.00    +0.168 HD BRANCH   8  17ATOM     17  C   UNL     1      42.311  46.642  20.115 -0.40 +0.01    +0.043 A  ATOM     18  C   UNL     1      42.297  44.799  21.676 -0.25 +0.01    +0.039 A  ATOM     19  C   UNL     1      41.799  45.411  20.526 -0.31 +0.01    +0.049 A  ATOM     20  N   UNL     1      43.264  45.356  22.441 -0.10 -0.07    -0.261 NA ATOM     21  C   UNL     1      43.740  46.553  22.046 -0.24 +0.05    +0.113 A  ATOM     22  C   UNL     1      43.301  47.223  20.914 -0.31 +0.01    +0.046 A  ATOM     23  C   UNL     1      41.753  43.473  22.114 -0.34 +0.00    +0.067 C  ENDBRANCH   8  17ENDBRANCH   6   7ENDBRANCH   1   6BRANCH   4  24ATOM     24  N   UNL     1      34.807  44.553  15.279 -0.08 +0.17    -0.308 N  ATOM     25  C   UNL     1      35.123  43.754  16.358 -0.20 -0.13    +0.319 C  ATOM     26  N   UNL     1      34.138  42.815  16.580 -0.18 +0.15    -0.337 N  ATOM     27  H   UNL     1      33.855  44.493  14.953 +0.11 -0.10    +0.171 HD ATOM     28  O   UNL     1      36.126  43.846  17.050 -0.21 +0.08    -0.249 OA ATOM     29  H   UNL     1      33.607  42.525  15.774 -0.25 -0.10    +0.165 HD BRANCH  26  30ATOM     30  C   UNL     1      34.266  41.842  17.657 -0.36 -0.05    +0.133 C  BRANCH  30  31ATOM     31  C   UNL     1      33.208  42.033  18.763 -0.39 -0.01    +0.105 C  BRANCH  31  32ATOM     32  N   UNL     1      33.623  42.978  19.819 -0.66 -0.02    -0.308 NA ATOM     33  C   UNL     1      33.223  44.340  19.455 -0.44 -0.02    +0.105 C  ATOM     34  C   UNL     1      35.067  42.936  20.057 -0.42 -0.00    +0.105 C  ENDBRANCH  31  32ENDBRANCH  30  31ENDBRANCH  26  30ENDBRANCH   4  24TORSDOF 7TERENDMDL