MODEL        4USER    Run = 4USERUSER    Estimated Free Energy of Binding    =  -9.73 kcal/mol  [=(1)+(2)+(3)-(4)]USERUSER    (1) Final Intermolecular Energy     = -10.93 kcal/molUSER        vdW + Hbond + desolv Energy     = -10.76 kcal/molUSER        Electrostatic Energy            =  -0.16 kcal/molUSER        Moving Ligand-Fixed Receptor    = -10.93 kcal/molUSER        Moving Ligand-Moving Receptor   =  +0.00 kcal/molUSER    (2) Final Total Internal Energy     =  -0.94 kcal/molUSER    (3) Torsional Free Energy           =  +1.19 kcal/molUSER    (4) Unbound System's Energy         =  -0.94 kcal/molUSERUSERREMARK SMILES O=C1C=C(c2ccnc(-c3cc(F)nc(F)c3)c2)NC[C@@H]1NC1CC1REMARK SMILES IDX 1 1 2 2 3 3 4 4 19 5 20 6 21 7 22 9 23 11 24 12 25 13 5 14REMARK SMILES IDX 6 15 18 16 7 17 9 18 8 19 10 20 11 21 17 22 12 23 15 24REMARK SMILES IDX 14 25 13 26 16 27REMARK H PARENT 19 8 22 10USER                              x       y       z     vdW  Elec       q    TypeUSER                           _______ _______ _______ _____ _____    ______ ____ROOTATOM      1  O   UNL     1      37.238  44.534  12.609 -0.35 +0.09    -0.293 OA ATOM      2  C   UNL     1      37.209  45.711  12.975 -0.42 -0.06    +0.176 C  ATOM      3  C   UNL     1      38.329  46.206  13.817 -0.38 -0.02    +0.075 C  ATOM      4  C   UNL     1      38.360  47.501  14.164 -0.53 -0.02    +0.045 C  ATOM      5  N   UNL     1      37.405  48.414  13.764 -0.25 +0.18    -0.382 N  ATOM      6  C   UNL     1      36.545  48.124  12.620 -0.55 -0.05    +0.140 C  ATOM      7  C   UNL     1      36.062  46.662  12.618 -0.59 -0.08    +0.145 C  ATOM      8  H   UNL     1      37.719  49.383  13.816 -0.33 -0.10    +0.160 HD ENDROOTBRANCH   7   9ATOM      9  N   UNL     1      34.847  46.377  13.422 -0.22 +0.23    -0.303 NA ATOM     10  H   UNL     1      34.148  47.091  13.231 -0.33 -0.12    +0.123 HD BRANCH   9  11ATOM     11  C   UNL     1      35.057  46.227  14.863 -0.36 -0.05    +0.054 C  ATOM     12  C   UNL     1      35.399  44.861  15.396 -0.39 -0.01    +0.020 C  ATOM     13  C   UNL     1      34.064  45.473  15.703 -0.35 -0.02    +0.020 C  ENDBRANCH   9  11ENDBRANCH   7   9BRANCH   4  14ATOM     14  C   UNL     1      39.434  47.995  15.044 -0.54 -0.00    +0.001 A  ATOM     15  C   UNL     1      40.101  49.189  14.780 -0.35 -0.01    +0.030 A  ATOM     16  C   UNL     1      39.785  47.264  16.187 -0.47 -0.01    +0.039 A  ATOM     17  C   UNL     1      41.082  49.597  15.663 -0.56 -0.02    +0.112 A  ATOM     18  C   UNL     1      40.791  47.737  17.026 -0.48 -0.01    +0.071 A  ATOM     19  N   UNL     1      41.432  48.905  16.768 -0.91 -0.00    -0.256 NA BRANCH  18  20ATOM     20  C   UNL     1      41.233  47.031  18.245 -0.52 -0.00    +0.009 A  ATOM     21  C   UNL     1      42.399  47.374  18.936 -0.49 +0.00    +0.071 A  ATOM     22  C   UNL     1      40.476  45.977  18.777 -0.42 -0.00    +0.071 A  ATOM     23  C   UNL     1      42.747  46.664  20.076 -0.25 +0.06    +0.216 A  ATOM     24  C   UNL     1      40.911  45.333  19.922 -0.26 +0.01    +0.216 A  ATOM     25  N   UNL     1      42.036  45.646  20.586 -0.24 -0.04    -0.191 NA ATOM     26  F   UNL     1      43.871  47.013  20.717 -0.14 -0.11    -0.185 F  ATOM     27  F   UNL     1      40.170  44.326  20.405 -0.08 -0.01    -0.185 F  ENDBRANCH  18  20ENDBRANCH   4  14TORSDOF 4TERENDMDL