MODEL        2USER    Run = 2USERUSER    Estimated Free Energy of Binding    = -11.09 kcal/mol  [=(1)+(2)+(3)-(4)]USERUSER    (1) Final Intermolecular Energy     = -12.88 kcal/molUSER        vdW + Hbond + desolv Energy     = -12.89 kcal/molUSER        Electrostatic Energy            =  +0.01 kcal/molUSER        Moving Ligand-Fixed Receptor    = -12.88 kcal/molUSER        Moving Ligand-Moving Receptor   =  +0.00 kcal/molUSER    (2) Final Total Internal Energy     =  -0.97 kcal/molUSER    (3) Torsional Free Energy           =  +1.79 kcal/molUSER    (4) Unbound System's Energy         =  -0.97 kcal/molUSERUSERREMARK SMILES Cc1cc(NC2=NC=C3C2=CN=C3C=C2C=CC(NC(=O)N3CCN(O)[C@H](C)C3)=C2)ccn1REMARK SMILES IDX 15 1 16 2 17 3 18 4 30 5 14 6 13 7 5 8 6 9 7 10 10 11 8 12REMARK SMILES IDX 9 13 11 14 12 15 4 17 2 18 3 19 33 20 32 21 31 22 1 23 19 24REMARK SMILES IDX 20 25 21 27 22 28 23 29 29 30 24 31 27 32 25 33 28 34 26 35REMARK H PARENT 5 16 19 26 26 36USER                              x       y       z     vdW  Elec       q    TypeUSER                           _______ _______ _______ _____ _____    ______ ____ROOTATOM      1  C   UNL     1      39.703  47.527  15.033 -0.56 +0.01    -0.021 C  ATOM      2  C   UNL     1      40.386  48.721  15.491 -0.67 -0.00    +0.010 C  ATOM      3  C   UNL     1      40.760  48.498  16.761 -0.54 -0.00    +0.027 C  ATOM      4  C   UNL     1      40.352  47.164  17.159 -0.55 -0.01    +0.043 C  ATOM      5  C   UNL     1      39.726  46.570  16.129 -0.49 -0.01    +0.034 C  ENDROOTBRANCH   1   6ATOM      6  C   UNL     1      39.163  47.262  13.837 -0.26 -0.01    +0.037 C  BRANCH   6   7ATOM      7  C   UNL     1      37.736  47.281  13.495 -0.54 -0.02    +0.073 C  ATOM      8  N   UNL     1      33.111  46.255  13.960 -0.11 +0.33    -0.340 N  ATOM      9  C   UNL     1      34.426  46.220  14.345 -0.23 -0.14    +0.139 C  ATOM     10  N   UNL     1      34.969  45.643  15.404 -0.20 +0.20    -0.238 NA ATOM     11  C   UNL     1      35.505  46.868  13.568 -0.52 -0.03    +0.046 C  ATOM     12  C   UNL     1      36.338  45.891  15.346 -0.34 -0.08    +0.124 C  ATOM     13  C   UNL     1      36.700  46.621  14.295 -0.48 -0.02    +0.031 C  ATOM     14  C   UNL     1      35.850  47.567  12.489 -0.55 -0.07    +0.124 C  ATOM     15  N   UNL     1      37.220  47.821  12.410 -0.98 +0.05    -0.255 NA ATOM     16  H   UNL     1      32.905  46.762  13.109 -0.47 -0.16    +0.168 HD BRANCH   8  17ATOM     17  C   UNL     1      31.983  45.696  14.589 -0.42 -0.03    +0.043 A  ATOM     18  C   UNL     1      31.058  43.980  16.025 -0.31 -0.02    +0.039 A  ATOM     19  C   UNL     1      32.154  44.553  15.382 -0.33 -0.03    +0.049 A  ATOM     20  N   UNL     1      29.809  44.482  15.916 -0.19 +0.11    -0.261 NA ATOM     21  C   UNL     1      29.657  45.581  15.151 -0.23 -0.05    +0.113 A  ATOM     22  C   UNL     1      30.694  46.212  14.481 -0.51 -0.02    +0.046 A  ATOM     23  C   UNL     1      31.238  42.764  16.883 -0.31 -0.02    +0.067 C  ENDBRANCH   8  17ENDBRANCH   6   7ENDBRANCH   1   6BRANCH   4  24ATOM     24  N   UNL     1      40.548  46.584  18.379 -0.27 +0.02    -0.308 N  ATOM     25  C   UNL     1      39.657  45.825  19.103 -0.26 -0.02    +0.321 C  ATOM     26  H   UNL     1      41.376  46.874  18.874 +0.10 +0.00    +0.171 HD ATOM     27  O   UNL     1      38.480  45.649  18.795 -0.29 +0.03    -0.248 OA BRANCH  25  28ATOM     28  N   UNL     1      40.188  45.258  20.255 -0.18 -0.01    -0.322 N  ATOM     29  C   UNL     1      41.516  45.539  20.822 -0.31 +0.02    +0.139 C  ATOM     30  C   UNL     1      39.439  44.163  20.885 -0.22 +0.00    +0.142 C  ATOM     31  C   UNL     1      42.145  44.282  21.447 -0.27 +0.02    +0.137 C  ATOM     32  C   UNL     1      39.871  43.943  22.350 -0.25 +0.00    +0.101 C  ATOM     33  N   UNL     1      41.320  43.659  22.502 -0.18 -0.01    -0.186 NA ATOM     34  C   UNL     1      38.975  42.922  23.055 -0.32 +0.00    +0.029 C  BRANCH  33  35ATOM     35  O   UNL     1      41.585  42.229  22.416 -0.21 +0.02    -0.314 OA ATOM     36  H   UNL     1      42.100  42.105  21.596 -0.42 -0.04    +0.238 HD ENDBRANCH  33  35ENDBRANCH  25  28ENDBRANCH   4  24TORSDOF 6TERENDMDL