REMARK SMILES Cc1cc(NC2=NC=C3C2=CN=C3C=C2C=CC(NC(=O)NCCN(C)C)=C2)ccn1
REMARK SMILES IDX 15 1 16 2 17 3 18 4 28 5 14 6 13 7 5 8 6 9 7 10 10 11 8 12
REMARK SMILES IDX 9 13 11 14 12 15 4 17 2 18 3 19 31 20 30 21 29 22 1 23 19 24
REMARK SMILES IDX 20 25 22 26 21 28 23 30 24 31 25 32 26 33 27 34
REMARK H PARENT 5 16 19 27 22 29
ROOT
ATOM      1  C   UNL     1      -0.421  -4.409   0.798  1.00  0.00    -0.021 C 
ATOM      2  C   UNL     1      -1.486  -5.397   0.710  1.00  0.00     0.010 C 
ATOM      3  C   UNL     1      -2.634  -4.724   0.535  1.00  0.00     0.027 C 
ATOM      4  C   UNL     1      -2.355  -3.299   0.524  1.00  0.00     0.043 C 
ATOM      5  C   UNL     1      -1.038  -3.100   0.695  1.00  0.00     0.034 C 
ENDROOT
BRANCH   1   6
ATOM      6  C   UNL     1       0.865  -4.733   0.980  1.00  0.00     0.037 C 
BRANCH   6   7
ATOM      7  C   UNL     1       2.011  -3.817   1.062  1.00  0.00     0.073 C 
ATOM      8  N   UNL     1       4.803  -0.149  -0.132  1.00  0.00    -0.340 N 
ATOM      9  C   UNL     1       3.691  -0.944  -0.251  1.00  0.00     0.139 C 
ATOM     10  N   UNL     1       2.684  -0.838  -1.101  1.00  0.00    -0.238 NA
ATOM     11  C   UNL     1       3.452  -2.124   0.604  1.00  0.00     0.046 C 
ATOM     12  C   UNL     1       1.804  -1.881  -0.819  1.00  0.00     0.124 C 
ATOM     13  C   UNL     1       2.204  -2.659   0.183  1.00  0.00     0.031 C 
ATOM     14  C   UNL     1       3.894  -2.905   1.587  1.00  0.00     0.124 C 
ATOM     15  N   UNL     1       3.036  -3.966   1.878  1.00  0.00    -0.255 NA
ATOM     16  H   UNL     1       5.467  -0.410   0.584  1.00  0.00     0.168 HD
BRANCH   8  17
ATOM     17  C   UNL     1       5.082   1.081  -0.756  1.00  0.00     0.043 A 
ATOM     18  C   UNL     1       4.569   2.955  -2.190  1.00  0.00     0.039 A 
ATOM     19  C   UNL     1       4.192   1.751  -1.596  1.00  0.00     0.049 A 
ATOM     20  N   UNL     1       5.787   3.514  -2.003  1.00  0.00    -0.261 NA
ATOM     21  C   UNL     1       6.645   2.851  -1.204  1.00  0.00     0.113 A 
ATOM     22  C   UNL     1       6.345   1.653  -0.574  1.00  0.00     0.046 A 
ATOM     23  C   UNL     1       3.610   3.680  -3.086  1.00  0.00     0.067 C 
ENDBRANCH   8  17
ENDBRANCH   6   7
ENDBRANCH   1   6
BRANCH   4  24
ATOM     24  N   UNL     1      -3.357  -2.384   0.388  1.00  0.00    -0.308 N 
ATOM     25  C   UNL     1      -3.211  -1.020   0.248  1.00  0.00     0.319 C 
ATOM     26  N   UNL     1      -4.439  -0.393   0.216  1.00  0.00    -0.337 N 
ATOM     27  H   UNL     1      -4.287  -2.743   0.236  1.00  0.00     0.171 HD
ATOM     28  O   UNL     1      -2.151  -0.418   0.152  1.00  0.00    -0.249 OA
ATOM     29  H   UNL     1      -5.188  -0.853   0.710  1.00  0.00     0.165 HD
BRANCH  26  30
ATOM     30  C   UNL     1      -4.533   1.056   0.097  1.00  0.00     0.133 C 
BRANCH  30  31
ATOM     31  C   UNL     1      -4.175   1.787   1.407  1.00  0.00     0.105 C 
BRANCH  31  32
ATOM     32  N   UNL     1      -4.382   3.247   1.342  1.00  0.00    -0.308 NA
ATOM     33  C   UNL     1      -3.693   3.899   2.460  1.00  0.00     0.105 C 
ATOM     34  C   UNL     1      -5.802   3.603   1.364  1.00  0.00     0.105 C 
ENDBRANCH  31  32
ENDBRANCH  30  31
ENDBRANCH  26  30
ENDBRANCH   4  24
TORSDOF 7
