REMARK SMILES Cc1cc(NC2=NC=C3C2=CN=C3C=C2C=CC(NC(=O)N3CCN(O)[C@H](C)C3)=C2)ccn1
REMARK SMILES IDX 15 1 16 2 17 3 18 4 30 5 14 6 13 7 5 8 6 9 7 10 10 11 8 12
REMARK SMILES IDX 9 13 11 14 12 15 4 17 2 18 3 19 33 20 32 21 31 22 1 23 19 24
REMARK SMILES IDX 20 25 21 27 22 28 23 29 29 30 24 31 27 32 25 33 28 34 26 35
REMARK H PARENT 5 16 19 26 26 36
ROOT
ATOM      1  C   UNL     1       0.191   1.851  -0.389  1.00  0.00    -0.021 C 
ATOM      2  C   UNL     1       0.083   0.806   0.610  1.00  0.00     0.010 C 
ATOM      3  C   UNL     1       1.321   0.327   0.814  1.00  0.00     0.027 C 
ATOM      4  C   UNL     1       2.263   1.047  -0.022  1.00  0.00     0.043 C 
ATOM      5  C   UNL     1       1.599   1.968  -0.740  1.00  0.00     0.034 C 
ENDROOT
BRANCH   1   6
ATOM      6  C   UNL     1      -0.764   2.631  -0.910  1.00  0.00     0.037 C 
BRANCH   6   7
ATOM      7  C   UNL     1      -2.203   2.563  -0.628  1.00  0.00     0.073 C 
ATOM      8  N   UNL     1      -6.448   0.501  -0.008  1.00  0.00    -0.340 N 
ATOM      9  C   UNL     1      -5.100   0.496  -0.255  1.00  0.00     0.139 C 
ATOM     10  N   UNL     1      -4.297  -0.532  -0.475  1.00  0.00    -0.238 NA
ATOM     11  C   UNL     1      -4.294   1.734  -0.320  1.00  0.00     0.046 C 
ATOM     12  C   UNL     1      -3.019  -0.015  -0.674  1.00  0.00     0.124 C 
ATOM     13  C   UNL     1      -2.962   1.310  -0.576  1.00  0.00     0.031 C 
ATOM     14  C   UNL     1      -4.267   3.064  -0.255  1.00  0.00     0.124 C 
ATOM     15  N   UNL     1      -2.995   3.601  -0.458  1.00  0.00    -0.255 NA
ATOM     16  H   UNL     1      -6.875   1.406   0.141  1.00  0.00     0.168 HD
BRANCH   8  17
ATOM     17  C   UNL     1      -7.341  -0.583   0.087  1.00  0.00     0.043 A 
ATOM     18  C   UNL     1      -9.606  -1.368   0.426  1.00  0.00     0.039 A 
ATOM     19  C   UNL     1      -8.695  -0.317   0.334  1.00  0.00     0.049 A 
ATOM     20  N   UNL     1      -9.240  -2.660   0.287  1.00  0.00    -0.261 NA
ATOM     21  C   UNL     1      -7.935  -2.903   0.049  1.00  0.00     0.113 A 
ATOM     22  C   UNL     1      -6.968  -1.916  -0.058  1.00  0.00     0.046 A 
ATOM     23  C   UNL     1     -11.057  -1.088   0.680  1.00  0.00     0.067 C 
ENDBRANCH   8  17
ENDBRANCH   6   7
ENDBRANCH   1   6
BRANCH   4  24
ATOM     24  N   UNL     1       3.610   0.836  -0.096  1.00  0.00    -0.308 N 
ATOM     25  C   UNL     1       4.376   0.008   0.693  1.00  0.00     0.321 C 
ATOM     26  H   UNL     1       4.121   1.473  -0.685  1.00  0.00     0.171 HD
ATOM     27  O   UNL     1       3.960  -0.593   1.681  1.00  0.00    -0.248 OA
BRANCH  25  28
ATOM     28  N   UNL     1       5.702  -0.100   0.294  1.00  0.00    -0.322 N 
ATOM     29  C   UNL     1       6.244   0.294  -1.016  1.00  0.00     0.139 C 
ATOM     30  C   UNL     1       6.627  -0.814   1.184  1.00  0.00     0.142 C 
ATOM     31  C   UNL     1       7.359  -0.659  -1.480  1.00  0.00     0.137 C 
ATOM     32  C   UNL     1       8.099  -0.475   0.870  1.00  0.00     0.101 C 
ATOM     33  N   UNL     1       8.487  -0.770  -0.532  1.00  0.00    -0.186 NA
ATOM     34  C   UNL     1       9.051  -1.083   1.903  1.00  0.00     0.029 C 
BRANCH  33  35
ATOM     35  O   UNL     1       8.979  -2.135  -0.664  1.00  0.00    -0.314 OA
ATOM     36  H   UNL     1       8.327  -2.696  -0.204  1.00  0.00     0.238 HD
ENDBRANCH  33  35
ENDBRANCH  25  28
ENDBRANCH   4  24
TORSDOF 6
