
     RDKit          3D

 52 55  0  0  0  0  0  0  0  0999 V2000
   -6.2770   -2.0601   -1.7619 C   0  0  0  0  0  0  0  0  0  0  0  0
   -5.9689   -1.4089   -0.4106 C   0  0  0  0  0  0  0  0  0  0  0  0
   -5.6626   -2.4951    0.6254 C   0  0  0  0  0  0  0  0  0  0  0  0
   -4.7994   -0.4168   -0.5604 C   0  0  0  0  0  0  0  0  0  0  0  0
   -4.6027    0.4561    0.6354 C   0  0  0  0  0  0  0  0  0  0  0  0
   -5.5132    0.7857    1.5331 N   0  0  0  0  0  0  0  0  0  0  0  0
   -4.9300    1.6091    2.4669 N   0  0  0  0  0  0  0  0  0  0  0  0
   -3.6761    1.7839    2.1178 C   0  0  0  0  0  0  0  0  0  0  0  0
   -2.6130    2.5290    2.6924 C   0  0  0  0  0  0  0  0  0  0  0  0
   -1.4065    2.5341    2.0929 C   0  0  0  0  0  0  0  0  0  0  0  0
   -1.1530    1.7905    0.8564 C   0  0  0  0  0  0  0  0  0  0  0  0
    0.1528    1.7775    0.1835 C   0  0  0  0  0  0  0  0  0  0  0  0
    0.4014    2.6164   -0.8972 C   0  0  0  0  0  0  0  0  0  0  0  0
    1.6482    2.5517   -1.4877 C   0  0  0  0  0  0  0  0  0  0  0  0
    2.6361    1.7288   -1.0730 N   0  0  0  0  0  0  0  0  0  0  0  0
    2.4007    0.9295   -0.0150 C   0  0  0  0  0  0  0  0  0  0  0  0
    3.3863    0.0366    0.4487 N   0  0  0  0  0  0  0  0  0  0  0  0
    4.6880    0.0931   -0.2449 C   0  0  0  0  0  0  0  0  0  0  0  0
    4.6204   -0.6152   -1.6100 C   0  0  0  0  0  0  0  0  0  0  0  0
    5.2629   -1.9957   -1.5680 C   0  0  0  0  0  0  0  0  0  0  0  0
    6.6721   -1.9591   -1.1785 N   0  0  0  0  0  0  0  0  0  0  0  0
    6.9553   -0.9813   -0.1404 C   0  0  0  0  0  0  0  0  0  0  0  0
    7.4725    0.1075   -0.7700 F   0  0  0  0  0  0  0  0  0  0  0  0
    5.7479   -0.5423    0.6688 C   0  0  0  0  0  0  0  0  0  0  0  0
    1.1662    0.9257    0.6295 C   0  0  0  0  0  0  0  0  0  0  0  0
   -2.1691    1.0818    0.3204 C   0  0  0  0  0  0  0  0  0  0  0  0
   -3.4128    1.0801    0.9518 N   0  0  0  0  0  0  0  0  0  0  0  0
   -5.4122   -2.6130   -2.1435 H   0  0  0  0  0  0  0  0  0  0  0  0
   -6.5508   -1.3023   -2.5042 H   0  0  0  0  0  0  0  0  0  0  0  0
   -7.1153   -2.7597   -1.6760 H   0  0  0  0  0  0  0  0  0  0  0  0
   -6.8691   -0.8695   -0.0885 H   0  0  0  0  0  0  0  0  0  0  0  0
   -6.5012   -3.1953    0.7098 H   0  0  0  0  0  0  0  0  0  0  0  0
   -5.4924   -2.0655    1.6176 H   0  0  0  0  0  0  0  0  0  0  0  0
   -4.7715   -3.0693    0.3476 H   0  0  0  0  0  0  0  0  0  0  0  0
   -3.8817   -0.9771   -0.7776 H   0  0  0  0  0  0  0  0  0  0  0  0
   -4.9848    0.2396   -1.4206 H   0  0  0  0  0  0  0  0  0  0  0  0
   -2.7996    3.0821    3.6060 H   0  0  0  0  0  0  0  0  0  0  0  0
   -0.5855    3.1029    2.5214 H   0  0  0  0  0  0  0  0  0  0  0  0
   -0.3497    3.3014   -1.2743 H   0  0  0  0  0  0  0  0  0  0  0  0
    1.8991    3.1791   -2.3379 H   0  0  0  0  0  0  0  0  0  0  0  0
    3.4856    0.1870    1.4503 H   0  0  0  0  0  0  0  0  0  0  0  0
    4.9791    1.1414   -0.4011 H   0  0  0  0  0  0  0  0  0  0  0  0
    3.5912   -0.7100   -1.9747 H   0  0  0  0  0  0  0  0  0  0  0  0
    5.1521   -0.0032   -2.3512 H   0  0  0  0  0  0  0  0  0  0  0  0
    5.1852   -2.4684   -2.5540 H   0  0  0  0  0  0  0  0  0  0  0  0
    4.7122   -2.6441   -0.8754 H   0  0  0  0  0  0  0  0  0  0  0  0
    7.2361   -1.6769   -1.9803 H   0  0  0  0  0  0  0  0  0  0  0  0
    7.7358   -1.3702    0.5206 H   0  0  0  0  0  0  0  0  0  0  0  0
    5.3361   -1.4002    1.2171 H   0  0  0  0  0  0  0  0  0  0  0  0
    6.0518    0.1947    1.4226 H   0  0  0  0  0  0  0  0  0  0  0  0
    0.9939    0.2526    1.4635 H   0  0  0  0  0  0  0  0  0  0  0  0
   -2.0708    0.5011   -0.5886 H   0  0  0  0  0  0  0  0  0  0  0  0
  1  2  1  0
  2  3  1  0
  2  4  1  0
  4  5  1  0
  5  6  2  0
  6  7  1  0
  7  8  2  0
  8  9  1  0
  9 10  2  0
 10 11  1  0
 11 12  1  0
 12 13  2  0
 13 14  1  0
 14 15  2  0
 15 16  1  0
 16 17  1  0
 17 18  1  0
 18 19  1  0
 19 20  1  0
 20 21  1  0
 21 22  1  0
 22 23  1  0
 22 24  1  0
 16 25  2  0
 11 26  2  0
 26 27  1  0
 27  5  1  0
 27  8  1  0
 25 12  1  0
 24 18  1  0
  1 28  1  0
  1 29  1  0
  1 30  1  0
  2 31  1  0
  3 32  1  0
  3 33  1  0
  3 34  1  0
  4 35  1  0
  4 36  1  0
  9 37  1  0
 10 38  1  0
 13 39  1  0
 14 40  1  0
 17 41  1  0
 18 42  1  0
 19 43  1  0
 19 44  1  0
 20 45  1  0
 20 46  1  0
 21 47  1  0
 22 48  1  0
 24 49  1  0
 24 50  1  0
 25 51  1  0
 26 52  1  0
M  END
$$$$
