
     RDKit          3D

 53 56  0  0  0  0  0  0  0  0999 V2000
    6.4461   -1.6698    1.1643 C   0  0  0  0  0  0  0  0  0  0  0  0
    6.5956   -0.6163    0.0624 C   0  0  0  0  0  0  0  0  0  0  0  0
    7.1640   -1.2711   -1.1993 C   0  0  0  0  0  0  0  0  0  0  0  0
    5.2537    0.0673   -0.2606 C   0  0  0  0  0  0  0  0  0  0  0  0
    4.7564    0.9519    0.8350 C   0  0  0  0  0  0  0  0  0  0  0  0
    5.4788    1.5238    1.7803 N   0  0  0  0  0  0  0  0  0  0  0  0
    4.6422    2.2602    2.5850 N   0  0  0  0  0  0  0  0  0  0  0  0
    3.4234    2.1402    2.1114 C   0  0  0  0  0  0  0  0  0  0  0  0
    2.1740    2.6732    2.5237 C   0  0  0  0  0  0  0  0  0  0  0  0
    1.0636    2.3820    1.8188 C   0  0  0  0  0  0  0  0  0  0  0  0
    1.1009    1.5281    0.6276 C   0  0  0  0  0  0  0  0  0  0  0  0
   -0.0985    1.1952   -0.1565 C   0  0  0  0  0  0  0  0  0  0  0  0
   -0.2789    1.7072   -1.4377 C   0  0  0  0  0  0  0  0  0  0  0  0
   -1.4375    1.3701   -2.1097 C   0  0  0  0  0  0  0  0  0  0  0  0
   -2.3996    0.5716   -1.5986 N   0  0  0  0  0  0  0  0  0  0  0  0
   -2.2230    0.0705   -0.3610 C   0  0  0  0  0  0  0  0  0  0  0  0
   -3.2085   -0.7368    0.2360 N   0  0  0  0  0  0  0  0  0  0  0  0
   -4.3775   -1.0649   -0.5996 C   0  0  0  0  0  0  0  0  0  0  0  0
   -5.0526   -2.3270   -0.0313 C   0  0  0  0  0  0  0  0  0  0  0  0
   -6.5539   -2.3060   -0.2888 C   0  0  0  0  0  0  0  0  0  0  0  0
   -7.1922   -1.2009    0.4134 N   0  0  0  0  0  0  0  0  0  0  0  0
   -6.4237    0.0263    0.4214 C   0  0  0  0  0  0  0  0  0  0  0  0
   -7.3487    1.0837    0.2479 O   0  0  0  0  0  0  0  0  0  0  0  0
   -5.3603    0.1116   -0.6689 C   0  0  0  0  0  0  0  0  0  0  0  0
   -1.0890    0.3736    0.3883 C   0  0  0  0  0  0  0  0  0  0  0  0
    2.2941    1.0224    0.2486 C   0  0  0  0  0  0  0  0  0  0  0  0
    3.4366    1.3262    0.9892 N   0  0  0  0  0  0  0  0  0  0  0  0
    5.7337   -2.4499    0.8735 H   0  0  0  0  0  0  0  0  0  0  0  0
    6.0959   -1.2240    2.1005 H   0  0  0  0  0  0  0  0  0  0  0  0
    7.4080   -2.1520    1.3699 H   0  0  0  0  0  0  0  0  0  0  0  0
    7.3193    0.1364    0.4014 H   0  0  0  0  0  0  0  0  0  0  0  0
    7.3207   -0.5268   -1.9872 H   0  0  0  0  0  0  0  0  0  0  0  0
    6.4877   -2.0400   -1.5883 H   0  0  0  0  0  0  0  0  0  0  0  0
    8.1300   -1.7430   -0.9912 H   0  0  0  0  0  0  0  0  0  0  0  0
    4.5082   -0.7024   -0.4948 H   0  0  0  0  0  0  0  0  0  0  0  0
    5.3666    0.6872   -1.1594 H   0  0  0  0  0  0  0  0  0  0  0  0
    2.1431    3.3089    3.4014 H   0  0  0  0  0  0  0  0  0  0  0  0
    0.1023    2.7886    2.1228 H   0  0  0  0  0  0  0  0  0  0  0  0
    0.4509    2.3624   -1.9004 H   0  0  0  0  0  0  0  0  0  0  0  0
   -1.6353    1.7471   -3.1091 H   0  0  0  0  0  0  0  0  0  0  0  0
   -2.7513   -1.5738    0.5910 H   0  0  0  0  0  0  0  0  0  0  0  0
   -4.0476   -1.3092   -1.6187 H   0  0  0  0  0  0  0  0  0  0  0  0
   -4.6051   -3.2177   -0.4897 H   0  0  0  0  0  0  0  0  0  0  0  0
   -4.8723   -2.4193    1.0488 H   0  0  0  0  0  0  0  0  0  0  0  0
   -7.0010   -3.2452    0.0541 H   0  0  0  0  0  0  0  0  0  0  0  0
   -6.7502   -2.2348   -1.3656 H   0  0  0  0  0  0  0  0  0  0  0  0
   -8.0951   -0.9824   -0.0063 H   0  0  0  0  0  0  0  0  0  0  0  0
   -5.9596    0.1447    1.4073 H   0  0  0  0  0  0  0  0  0  0  0  0
   -6.8546    1.9054    0.4074 H   0  0  0  0  0  0  0  0  0  0  0  0
   -5.8572    0.1080   -1.6496 H   0  0  0  0  0  0  0  0  0  0  0  0
   -4.8558    1.0838   -0.6150 H   0  0  0  0  0  0  0  0  0  0  0  0
   -0.9852   -0.0222    1.3940 H   0  0  0  0  0  0  0  0  0  0  0  0
    2.4185    0.3782   -0.6130 H   0  0  0  0  0  0  0  0  0  0  0  0
  1  2  1  0
  2  3  1  0
  2  4  1  0
  4  5  1  0
  5  6  2  0
  6  7  1  0
  7  8  2  0
  8  9  1  0
  9 10  2  0
 10 11  1  0
 11 12  1  0
 12 13  2  0
 13 14  1  0
 14 15  2  0
 15 16  1  0
 16 17  1  0
 17 18  1  0
 18 19  1  0
 19 20  1  0
 20 21  1  0
 21 22  1  0
 22 23  1  0
 22 24  1  0
 16 25  2  0
 11 26  2  0
 26 27  1  0
 27  5  1  0
 27  8  1  0
 25 12  1  0
 24 18  1  0
  1 28  1  0
  1 29  1  0
  1 30  1  0
  2 31  1  0
  3 32  1  0
  3 33  1  0
  3 34  1  0
  4 35  1  0
  4 36  1  0
  9 37  1  0
 10 38  1  0
 13 39  1  0
 14 40  1  0
 17 41  1  0
 18 42  1  0
 19 43  1  0
 19 44  1  0
 20 45  1  0
 20 46  1  0
 21 47  1  0
 22 48  1  0
 23 49  1  0
 24 50  1  0
 24 51  1  0
 25 52  1  0
 26 53  1  0
M  END
$$$$
