
     RDKit          3D

 55 58  0  0  0  0  0  0  0  0999 V2000
    6.9190   -0.5550    0.6668 C   0  0  0  0  0  0  0  0  0  0  0  0
    5.5204   -1.1403    0.4540 C   0  0  0  0  0  0  0  0  0  0  0  0
    5.4654   -2.5597    1.0227 C   0  0  0  0  0  0  0  0  0  0  0  0
    5.1196   -1.1553   -1.0316 C   0  0  0  0  0  0  0  0  0  0  0  0
    4.9614    0.2119   -1.6023 C   0  0  0  0  0  0  0  0  0  0  0  0
    5.8510    0.8515   -2.3376 N   0  0  0  0  0  0  0  0  0  0  0  0
    5.3405    2.0866   -2.6597 N   0  0  0  0  0  0  0  0  0  0  0  0
    4.1468    2.1805   -2.1195 C   0  0  0  0  0  0  0  0  0  0  0  0
    3.1717    3.2123   -2.1132 C   0  0  0  0  0  0  0  0  0  0  0  0
    2.0104    3.0238   -1.4567 C   0  0  0  0  0  0  0  0  0  0  0  0
    1.7168    1.7778   -0.7453 C   0  0  0  0  0  0  0  0  0  0  0  0
    0.4637    1.5493   -0.0144 C   0  0  0  0  0  0  0  0  0  0  0  0
    0.3153    2.0146    1.2868 C   0  0  0  0  0  0  0  0  0  0  0  0
   -0.8833    1.7650    1.9250 C   0  0  0  0  0  0  0  0  0  0  0  0
   -1.9157    1.1053    1.3562 N   0  0  0  0  0  0  0  0  0  0  0  0
   -1.7775    0.6671    0.0914 C   0  0  0  0  0  0  0  0  0  0  0  0
   -2.8106   -0.0469   -0.5445 N   0  0  0  0  0  0  0  0  0  0  0  0
   -4.0516   -0.2235    0.2338 C   0  0  0  0  0  0  0  0  0  0  0  0
   -3.8653   -1.2871    1.3325 C   0  0  0  0  0  0  0  0  0  0  0  0
   -5.0634   -2.2242    1.4687 C   0  0  0  0  0  0  0  0  0  0  0  0
   -6.3095   -1.4803    1.3479 N   0  0  0  0  0  0  0  0  0  0  0  0
   -6.4929   -0.9052    0.0113 C   0  0  0  0  0  0  0  0  0  0  0  0
   -7.3160    0.3733    0.1610 C   0  0  0  0  0  0  0  0  0  0  0  0
   -5.1699   -0.6445   -0.7296 C   0  0  0  0  0  0  0  0  0  0  0  0
   -0.5961    0.8681   -0.6176 C   0  0  0  0  0  0  0  0  0  0  0  0
    2.6492    0.8026   -0.7587 C   0  0  0  0  0  0  0  0  0  0  0  0
    3.8491    1.0105   -1.4379 N   0  0  0  0  0  0  0  0  0  0  0  0
    6.9655    0.4898    0.3446 H   0  0  0  0  0  0  0  0  0  0  0  0
    7.6751   -1.1180    0.1088 H   0  0  0  0  0  0  0  0  0  0  0  0
    7.1933   -0.5824    1.7267 H   0  0  0  0  0  0  0  0  0  0  0  0
    4.8076   -0.5256    1.0184 H   0  0  0  0  0  0  0  0  0  0  0  0
    6.1698   -3.2229    0.5081 H   0  0  0  0  0  0  0  0  0  0  0  0
    5.7167   -2.5611    2.0890 H   0  0  0  0  0  0  0  0  0  0  0  0
    4.4610   -2.9826    0.9163 H   0  0  0  0  0  0  0  0  0  0  0  0
    4.1814   -1.7086   -1.1619 H   0  0  0  0  0  0  0  0  0  0  0  0
    5.8755   -1.6986   -1.6135 H   0  0  0  0  0  0  0  0  0  0  0  0
    3.3869    4.1350   -2.6395 H   0  0  0  0  0  0  0  0  0  0  0  0
    1.2556    3.8058   -1.4440 H   0  0  0  0  0  0  0  0  0  0  0  0
    1.1081    2.5497    1.7971 H   0  0  0  0  0  0  0  0  0  0  0  0
   -1.0559    2.0962    2.9454 H   0  0  0  0  0  0  0  0  0  0  0  0
   -2.9907    0.4031   -1.4385 H   0  0  0  0  0  0  0  0  0  0  0  0
   -4.3494    0.7321    0.6863 H   0  0  0  0  0  0  0  0  0  0  0  0
   -2.9678   -1.8941    1.1558 H   0  0  0  0  0  0  0  0  0  0  0  0
   -3.7025   -0.7737    2.2894 H   0  0  0  0  0  0  0  0  0  0  0  0
   -5.0237   -2.7106    2.4501 H   0  0  0  0  0  0  0  0  0  0  0  0
   -5.0194   -3.0263    0.7215 H   0  0  0  0  0  0  0  0  0  0  0  0
   -7.1060   -2.0731    1.5822 H   0  0  0  0  0  0  0  0  0  0  0  0
   -7.0757   -1.6082   -0.5962 H   0  0  0  0  0  0  0  0  0  0  0  0
   -8.2814    0.1658    0.6359 H   0  0  0  0  0  0  0  0  0  0  0  0
   -6.7965    1.1208    0.7688 H   0  0  0  0  0  0  0  0  0  0  0  0
   -7.5203    0.8192   -0.8177 H   0  0  0  0  0  0  0  0  0  0  0  0
   -4.8639   -1.5601   -1.2543 H   0  0  0  0  0  0  0  0  0  0  0  0
   -5.3091    0.1140   -1.5098 H   0  0  0  0  0  0  0  0  0  0  0  0
   -0.5019    0.4852   -1.6291 H   0  0  0  0  0  0  0  0  0  0  0  0
    2.5190   -0.1492   -0.2580 H   0  0  0  0  0  0  0  0  0  0  0  0
  1  2  1  0
  2  3  1  0
  2  4  1  0
  4  5  1  0
  5  6  2  0
  6  7  1  0
  7  8  2  0
  8  9  1  0
  9 10  2  0
 10 11  1  0
 11 12  1  0
 12 13  2  0
 13 14  1  0
 14 15  2  0
 15 16  1  0
 16 17  1  0
 17 18  1  0
 18 19  1  0
 19 20  1  0
 20 21  1  0
 21 22  1  0
 22 23  1  0
 22 24  1  0
 16 25  2  0
 11 26  2  0
 26 27  1  0
 27  5  1  0
 27  8  1  0
 25 12  1  0
 24 18  1  0
  1 28  1  0
  1 29  1  0
  1 30  1  0
  2 31  1  0
  3 32  1  0
  3 33  1  0
  3 34  1  0
  4 35  1  0
  4 36  1  0
  9 37  1  0
 10 38  1  0
 13 39  1  0
 14 40  1  0
 17 41  1  0
 18 42  1  0
 19 43  1  0
 19 44  1  0
 20 45  1  0
 20 46  1  0
 21 47  1  0
 22 48  1  0
 23 49  1  0
 23 50  1  0
 23 51  1  0
 24 52  1  0
 24 53  1  0
 25 54  1  0
 26 55  1  0
M  END
$$$$
