
     RDKit          3D

 59 62  0  0  0  0  0  0  0  0999 V2000
   -5.0261    3.2137   -0.4196 C   0  0  0  0  0  0  0  0  0  0  0  0
   -4.9808    1.7907   -0.9818 C   0  0  0  0  0  0  0  0  0  0  0  0
   -5.5955    1.7708   -2.3846 C   0  0  0  0  0  0  0  0  0  0  0  0
   -5.7034    0.8279   -0.0226 C   0  0  0  0  0  0  0  0  0  0  0  0
   -5.5133   -0.6045   -0.3869 C   0  0  0  0  0  0  0  0  0  0  0  0
   -6.3698   -1.3532   -1.0550 N   0  0  0  0  0  0  0  0  0  0  0  0
   -5.8340   -2.6126   -1.1878 N   0  0  0  0  0  0  0  0  0  0  0  0
   -4.6619   -2.6141   -0.5951 C   0  0  0  0  0  0  0  0  0  0  0  0
   -3.6747   -3.6181   -0.4164 C   0  0  0  0  0  0  0  0  0  0  0  0
   -2.5430   -3.3239    0.2525 C   0  0  0  0  0  0  0  0  0  0  0  0
   -2.2928   -1.9905    0.8086 C   0  0  0  0  0  0  0  0  0  0  0  0
   -1.0605   -1.6427    1.5333 C   0  0  0  0  0  0  0  0  0  0  0  0
   -1.0857   -1.3747    2.8984 C   0  0  0  0  0  0  0  0  0  0  0  0
    0.1110   -1.0733    3.5183 C   0  0  0  0  0  0  0  0  0  0  0  0
    1.2980   -1.0173    2.8767 N   0  0  0  0  0  0  0  0  0  0  0  0
    1.3236   -1.2693    1.5540 C   0  0  0  0  0  0  0  0  0  0  0  0
    2.5346   -1.2668    0.8482 N   0  0  0  0  0  0  0  0  0  0  0  0
    3.7474   -0.8992    1.5985 C   0  0  0  0  0  0  0  0  0  0  0  0
    3.8688    0.6157    1.8019 C   0  0  0  0  0  0  0  0  0  0  0  0
    4.2440    1.3549    0.5180 C   0  0  0  0  0  0  0  0  0  0  0  0
    5.4638    0.7964   -0.0695 N   0  0  0  0  0  0  0  0  0  0  0  0
    5.9709    1.5858   -1.2010 C   0  0  0  0  0  0  0  0  0  0  0  0
    5.0762    1.7067   -2.4461 C   0  0  0  0  0  0  0  0  0  0  0  0
    5.7136    2.5007   -3.4441 O   0  0  0  0  0  0  0  0  0  0  0  0
    5.3052   -0.6234   -0.3984 C   0  0  0  0  0  0  0  0  0  0  0  0
    4.9763   -1.4358    0.8535 C   0  0  0  0  0  0  0  0  0  0  0  0
    0.1627   -1.5979    0.8588 C   0  0  0  0  0  0  0  0  0  0  0  0
   -3.2383   -1.0436    0.6305 C   0  0  0  0  0  0  0  0  0  0  0  0
   -4.4058   -1.3597   -0.0636 N   0  0  0  0  0  0  0  0  0  0  0  0
   -6.0582    3.5631   -0.3045 H   0  0  0  0  0  0  0  0  0  0  0  0
   -4.5034    3.9121   -1.0821 H   0  0  0  0  0  0  0  0  0  0  0  0
   -4.5409    3.2594    0.5612 H   0  0  0  0  0  0  0  0  0  0  0  0
   -3.9262    1.4992   -1.0699 H   0  0  0  0  0  0  0  0  0  0  0  0
   -5.0924    2.4914   -3.0384 H   0  0  0  0  0  0  0  0  0  0  0  0
   -6.6600    2.0278   -2.3553 H   0  0  0  0  0  0  0  0  0  0  0  0
   -5.4964    0.7846   -2.8489 H   0  0  0  0  0  0  0  0  0  0  0  0
   -5.3523    0.9872    1.0046 H   0  0  0  0  0  0  0  0  0  0  0  0
   -6.7778    1.0517   -0.0118 H   0  0  0  0  0  0  0  0  0  0  0  0
   -3.8571   -4.6060   -0.8236 H   0  0  0  0  0  0  0  0  0  0  0  0
   -1.7823   -4.0864    0.4000 H   0  0  0  0  0  0  0  0  0  0  0  0
   -2.0045   -1.4131    3.4730 H   0  0  0  0  0  0  0  0  0  0  0  0
    0.1538   -0.8653    4.5837 H   0  0  0  0  0  0  0  0  0  0  0  0
    2.4298   -0.7496   -0.0177 H   0  0  0  0  0  0  0  0  0  0  0  0
    3.7333   -1.3965    2.5771 H   0  0  0  0  0  0  0  0  0  0  0  0
    2.9415    1.0402    2.2021 H   0  0  0  0  0  0  0  0  0  0  0  0
    4.6459    0.8050    2.5547 H   0  0  0  0  0  0  0  0  0  0  0  0
    3.4060    1.3155   -0.1881 H   0  0  0  0  0  0  0  0  0  0  0  0
    4.4030    2.4107    0.7696 H   0  0  0  0  0  0  0  0  0  0  0  0
    6.9451    1.1829   -1.5094 H   0  0  0  0  0  0  0  0  0  0  0  0
    6.2094    2.5971   -0.8443 H   0  0  0  0  0  0  0  0  0  0  0  0
    4.8807    0.7255   -2.8879 H   0  0  0  0  0  0  0  0  0  0  0  0
    4.1162    2.1755   -2.2105 H   0  0  0  0  0  0  0  0  0  0  0  0
    5.8678    3.3826   -3.0637 H   0  0  0  0  0  0  0  0  0  0  0  0
    4.5238   -0.7734   -1.1531 H   0  0  0  0  0  0  0  0  0  0  0  0
    6.2394   -1.0148   -0.8191 H   0  0  0  0  0  0  0  0  0  0  0  0
    4.8282   -2.4872    0.5781 H   0  0  0  0  0  0  0  0  0  0  0  0
    5.8408   -1.4064    1.5303 H   0  0  0  0  0  0  0  0  0  0  0  0
    0.2153   -1.8262   -0.2012 H   0  0  0  0  0  0  0  0  0  0  0  0
   -3.1391   -0.0293    0.9961 H   0  0  0  0  0  0  0  0  0  0  0  0
  1  2  1  0
  2  3  1  0
  2  4  1  0
  4  5  1  0
  5  6  2  0
  6  7  1  0
  7  8  2  0
  8  9  1  0
  9 10  2  0
 10 11  1  0
 11 12  1  0
 12 13  2  0
 13 14  1  0
 14 15  2  0
 15 16  1  0
 16 17  1  0
 17 18  1  0
 18 19  1  0
 19 20  1  0
 20 21  1  0
 21 22  1  0
 22 23  1  0
 23 24  1  0
 21 25  1  0
 25 26  1  0
 16 27  2  0
 11 28  2  0
 28 29  1  0
 29  5  1  0
 29  8  1  0
 27 12  1  0
 26 18  1  0
  1 30  1  0
  1 31  1  0
  1 32  1  0
  2 33  1  0
  3 34  1  0
  3 35  1  0
  3 36  1  0
  4 37  1  0
  4 38  1  0
  9 39  1  0
 10 40  1  0
 13 41  1  0
 14 42  1  0
 17 43  1  0
 18 44  1  0
 19 45  1  0
 19 46  1  0
 20 47  1  0
 20 48  1  0
 22 49  1  0
 22 50  1  0
 23 51  1  0
 23 52  1  0
 24 53  1  0
 25 54  1  0
 25 55  1  0
 26 56  1  0
 26 57  1  0
 27 58  1  0
 28 59  1  0
M  END
$$$$
