
     RDKit          3D

 51 54  0  0  0  0  0  0  0  0999 V2000
    3.3448   -2.1564   -0.4616 C   0  0  0  0  0  0  0  0  0  0  0  0
    4.4808   -1.8196   -1.4286 C   0  0  0  0  0  0  0  0  0  0  0  0
    5.8357   -2.1468   -0.7971 C   0  0  0  0  0  0  0  0  0  0  0  0
    4.4064   -0.3761   -1.9615 C   0  0  0  0  0  0  0  0  0  0  0  0
    4.5751    0.6786   -0.9207 C   0  0  0  0  0  0  0  0  0  0  0  0
    5.7280    1.1275   -0.4607 N   0  0  0  0  0  0  0  0  0  0  0  0
    5.4748    2.0957    0.4814 N   0  0  0  0  0  0  0  0  0  0  0  0
    4.1721    2.2322    0.5748 C   0  0  0  0  0  0  0  0  0  0  0  0
    3.3488    3.0718    1.3699 C   0  0  0  0  0  0  0  0  0  0  0  0
    2.0094    2.9959    1.2481 C   0  0  0  0  0  0  0  0  0  0  0  0
    1.3663    2.0668    0.3146 C   0  0  0  0  0  0  0  0  0  0  0  0
   -0.0933    1.9670    0.1571 C   0  0  0  0  0  0  0  0  0  0  0  0
   -0.8148    3.0249   -0.3860 C   0  0  0  0  0  0  0  0  0  0  0  0
   -2.1807    2.8717   -0.5210 C   0  0  0  0  0  0  0  0  0  0  0  0
   -2.8543    1.7611   -0.1507 N   0  0  0  0  0  0  0  0  0  0  0  0
   -2.1601    0.7428    0.3899 C   0  0  0  0  0  0  0  0  0  0  0  0
   -2.8044   -0.4473    0.7766 N   0  0  0  0  0  0  0  0  0  0  0  0
   -4.2658   -0.4807    0.5974 C   0  0  0  0  0  0  0  0  0  0  0  0
   -4.8299   -1.6412    1.4214 C   0  0  0  0  0  0  0  0  0  0  0  0
   -6.3419   -1.7447    1.2473 C   0  0  0  0  0  0  0  0  0  0  0  0
   -6.8031   -1.2713   -0.0173 O   0  0  0  0  0  0  0  0  0  0  0  0
   -5.8775   -1.5243   -1.0677 C   0  0  0  0  0  0  0  0  0  0  0  0
   -4.6311   -0.6684   -0.8843 C   0  0  0  0  0  0  0  0  0  0  0  0
   -0.7786    0.8138    0.5508 C   0  0  0  0  0  0  0  0  0  0  0  0
    2.1601    1.2748   -0.4371 C   0  0  0  0  0  0  0  0  0  0  0  0
    3.5457    1.3585   -0.3015 N   0  0  0  0  0  0  0  0  0  0  0  0
    3.4200   -1.5864    0.4700 H   0  0  0  0  0  0  0  0  0  0  0  0
    3.3667   -3.2200   -0.2003 H   0  0  0  0  0  0  0  0  0  0  0  0
    2.3710   -1.9482   -0.9164 H   0  0  0  0  0  0  0  0  0  0  0  0
    4.3665   -2.4793   -2.2995 H   0  0  0  0  0  0  0  0  0  0  0  0
    6.6547   -1.9028   -1.4818 H   0  0  0  0  0  0  0  0  0  0  0  0
    5.9933   -1.5981    0.1370 H   0  0  0  0  0  0  0  0  0  0  0  0
    5.9024   -3.2157   -0.5666 H   0  0  0  0  0  0  0  0  0  0  0  0
    3.4632   -0.2354   -2.5019 H   0  0  0  0  0  0  0  0  0  0  0  0
    5.1960   -0.2381   -2.7119 H   0  0  0  0  0  0  0  0  0  0  0  0
    3.8214    3.7580    2.0635 H   0  0  0  0  0  0  0  0  0  0  0  0
    1.3699    3.6299    1.8566 H   0  0  0  0  0  0  0  0  0  0  0  0
   -0.3324    3.9410   -0.7085 H   0  0  0  0  0  0  0  0  0  0  0  0
   -2.7940    3.6609   -0.9468 H   0  0  0  0  0  0  0  0  0  0  0  0
   -2.5383   -0.6394    1.7392 H   0  0  0  0  0  0  0  0  0  0  0  0
   -4.7198    0.4427    0.9834 H   0  0  0  0  0  0  0  0  0  0  0  0
   -4.3638   -2.5806    1.0932 H   0  0  0  0  0  0  0  0  0  0  0  0
   -4.5824   -1.5415    2.4850 H   0  0  0  0  0  0  0  0  0  0  0  0
   -6.6712   -2.7812    1.3793 H   0  0  0  0  0  0  0  0  0  0  0  0
   -6.8480   -1.1466    2.0126 H   0  0  0  0  0  0  0  0  0  0  0  0
   -6.3609   -1.2829   -2.0199 H   0  0  0  0  0  0  0  0  0  0  0  0
   -5.6315   -2.5929   -1.0915 H   0  0  0  0  0  0  0  0  0  0  0  0
   -3.8082   -1.1049   -1.4633 H   0  0  0  0  0  0  0  0  0  0  0  0
   -4.8182    0.3210   -1.3201 H   0  0  0  0  0  0  0  0  0  0  0  0
   -0.2422   -0.0300    0.9733 H   0  0  0  0  0  0  0  0  0  0  0  0
    1.7731    0.5642   -1.1567 H   0  0  0  0  0  0  0  0  0  0  0  0
  1  2  1  0
  2  3  1  0
  2  4  1  0
  4  5  1  0
  5  6  2  0
  6  7  1  0
  7  8  2  0
  8  9  1  0
  9 10  2  0
 10 11  1  0
 11 12  1  0
 12 13  2  0
 13 14  1  0
 14 15  2  0
 15 16  1  0
 16 17  1  0
 17 18  1  0
 18 19  1  0
 19 20  1  0
 20 21  1  0
 21 22  1  0
 22 23  1  0
 16 24  2  0
 11 25  2  0
 25 26  1  0
 26  5  1  0
 26  8  1  0
 24 12  1  0
 23 18  1  0
  1 27  1  0
  1 28  1  0
  1 29  1  0
  2 30  1  0
  3 31  1  0
  3 32  1  0
  3 33  1  0
  4 34  1  0
  4 35  1  0
  9 36  1  0
 10 37  1  0
 13 38  1  0
 14 39  1  0
 17 40  1  0
 18 41  1  0
 19 42  1  0
 19 43  1  0
 20 44  1  0
 20 45  1  0
 22 46  1  0
 22 47  1  0
 23 48  1  0
 23 49  1  0
 24 50  1  0
 25 51  1  0
M  END
$$$$
