
     RDKit          3D

 50 53  0  0  0  0  0  0  0  0999 V2000
   -5.9803    0.0015   -1.4949 C   0  0  0  0  0  0  0  0  0  0  0  0
   -5.3828   -1.3853   -1.2369 C   0  0  0  0  0  0  0  0  0  0  0  0
   -5.2918   -2.1608   -2.5546 C   0  0  0  0  0  0  0  0  0  0  0  0
   -3.9902   -1.2951   -0.5839 C   0  0  0  0  0  0  0  0  0  0  0  0
   -4.0284   -0.7669    0.8125 C   0  0  0  0  0  0  0  0  0  0  0  0
   -4.9924   -0.9545    1.6950 N   0  0  0  0  0  0  0  0  0  0  0  0
   -4.6493   -0.3134    2.8615 N   0  0  0  0  0  0  0  0  0  0  0  0
   -3.4744    0.2444    2.6804 C   0  0  0  0  0  0  0  0  0  0  0  0
   -2.6379    1.0188    3.5272 C   0  0  0  0  0  0  0  0  0  0  0  0
   -1.4520    1.4599    3.0652 C   0  0  0  0  0  0  0  0  0  0  0  0
   -0.9915    1.1622    1.7068 C   0  0  0  0  0  0  0  0  0  0  0  0
    0.2943    1.6336    1.1750 C   0  0  0  0  0  0  0  0  0  0  0  0
    0.4347    2.9476    0.7405 C   0  0  0  0  0  0  0  0  0  0  0  0
    1.6622    3.3319    0.2373 C   0  0  0  0  0  0  0  0  0  0  0  0
    2.7311    2.5097    0.1511 N   0  0  0  0  0  0  0  0  0  0  0  0
    2.5980    1.2422    0.5897 C   0  0  0  0  0  0  0  0  0  0  0  0
    3.6776    0.3393    0.5103 N   0  0  0  0  0  0  0  0  0  0  0  0
    4.9186    0.9102   -0.0481 C   0  0  0  0  0  0  0  0  0  0  0  0
    4.8584    1.0933   -1.5704 C   0  0  0  0  0  0  0  0  0  0  0  0
    5.3887   -0.0971   -2.1893 O   0  0  0  0  0  0  0  0  0  0  0  0
    5.8339   -0.9606   -1.1524 C   0  0  0  0  0  0  0  0  0  0  0  0
    7.0558   -1.6165   -1.5590 N   0  0  0  0  0  0  0  0  0  0  0  0
    6.0401   -0.1019    0.0809 C   0  0  0  0  0  0  0  0  0  0  0  0
    1.3921    0.7723    1.1016 C   0  0  0  0  0  0  0  0  0  0  0  0
   -1.7956    0.4278    0.9087 C   0  0  0  0  0  0  0  0  0  0  0  0
   -3.0242   -0.0193    1.3950 N   0  0  0  0  0  0  0  0  0  0  0  0
   -6.1147    0.5584   -0.5622 H   0  0  0  0  0  0  0  0  0  0  0  0
   -6.9631   -0.0840   -1.9710 H   0  0  0  0  0  0  0  0  0  0  0  0
   -5.3375    0.5949   -2.1540 H   0  0  0  0  0  0  0  0  0  0  0  0
   -6.0636   -1.9347   -0.5739 H   0  0  0  0  0  0  0  0  0  0  0  0
   -4.9117   -3.1747   -2.3835 H   0  0  0  0  0  0  0  0  0  0  0  0
   -6.2775   -2.2495   -3.0232 H   0  0  0  0  0  0  0  0  0  0  0  0
   -4.6226   -1.6628   -3.2651 H   0  0  0  0  0  0  0  0  0  0  0  0
   -3.5389   -2.2950   -0.5456 H   0  0  0  0  0  0  0  0  0  0  0  0
   -3.3412   -0.6782   -1.2160 H   0  0  0  0  0  0  0  0  0  0  0  0
   -2.9753    1.2361    4.5346 H   0  0  0  0  0  0  0  0  0  0  0  0
   -0.8013    2.0505    3.7053 H   0  0  0  0  0  0  0  0  0  0  0  0
   -0.3866    3.6546    0.7819 H   0  0  0  0  0  0  0  0  0  0  0  0
    1.8275    4.3437   -0.1247 H   0  0  0  0  0  0  0  0  0  0  0  0
    3.8242   -0.0402    1.4436 H   0  0  0  0  0  0  0  0  0  0  0  0
    5.1745    1.8392    0.4752 H   0  0  0  0  0  0  0  0  0  0  0  0
    5.4998    1.9255   -1.8818 H   0  0  0  0  0  0  0  0  0  0  0  0
    3.8541    1.2680   -1.9658 H   0  0  0  0  0  0  0  0  0  0  0  0
    5.0482   -1.7076   -0.9859 H   0  0  0  0  0  0  0  0  0  0  0  0
    6.9040   -1.9496   -2.5091 H   0  0  0  0  0  0  0  0  0  0  0  0
    7.2057   -2.4398   -0.9816 H   0  0  0  0  0  0  0  0  0  0  0  0
    6.0287   -0.6842    1.0080 H   0  0  0  0  0  0  0  0  0  0  0  0
    7.0004    0.4281    0.0263 H   0  0  0  0  0  0  0  0  0  0  0  0
    1.3079   -0.2601    1.4282 H   0  0  0  0  0  0  0  0  0  0  0  0
   -1.5354    0.1630   -0.1091 H   0  0  0  0  0  0  0  0  0  0  0  0
  1  2  1  0
  2  3  1  0
  2  4  1  0
  4  5  1  0
  5  6  2  0
  6  7  1  0
  7  8  2  0
  8  9  1  0
  9 10  2  0
 10 11  1  0
 11 12  1  0
 12 13  2  0
 13 14  1  0
 14 15  2  0
 15 16  1  0
 16 17  1  0
 17 18  1  0
 18 19  1  0
 19 20  1  0
 20 21  1  0
 21 22  1  0
 21 23  1  0
 16 24  2  0
 11 25  2  0
 25 26  1  0
 26  5  1  0
 26  8  1  0
 24 12  1  0
 23 18  1  0
  1 27  1  0
  1 28  1  0
  1 29  1  0
  2 30  1  0
  3 31  1  0
  3 32  1  0
  3 33  1  0
  4 34  1  0
  4 35  1  0
  9 36  1  0
 10 37  1  0
 13 38  1  0
 14 39  1  0
 17 40  1  0
 18 41  1  0
 19 42  1  0
 19 43  1  0
 21 44  1  0
 22 45  1  0
 22 46  1  0
 23 47  1  0
 23 48  1  0
 24 49  1  0
 25 50  1  0
M  END
$$$$
