
     RDKit          3D

 62 66  0  0  0  0  0  0  0  0999 V2000
    7.5851   -0.2779    0.5921 C   0  0  0  0  0  0  0  0  0  0  0  0
    6.4407   -0.3658   -0.4218 C   0  0  0  0  0  0  0  0  0  0  0  0
    7.0137   -0.4572   -1.8381 C   0  0  0  0  0  0  0  0  0  0  0  0
    5.5210   -1.5703   -0.1510 C   0  0  0  0  0  0  0  0  0  0  0  0
    4.7424   -1.4302    1.1123 C   0  0  0  0  0  0  0  0  0  0  0  0
    5.0486   -1.9723    2.2755 N   0  0  0  0  0  0  0  0  0  0  0  0
    4.0869   -1.6103    3.1898 N   0  0  0  0  0  0  0  0  0  0  0  0
    3.2068   -0.8579    2.5694 C   0  0  0  0  0  0  0  0  0  0  0  0
    2.0177   -0.2121    3.0002 C   0  0  0  0  0  0  0  0  0  0  0  0
    1.3004    0.5131    2.1201 C   0  0  0  0  0  0  0  0  0  0  0  0
    1.7108    0.6596    0.7215 C   0  0  0  0  0  0  0  0  0  0  0  0
    0.9506    1.4456   -0.2587 C   0  0  0  0  0  0  0  0  0  0  0  0
    1.1829    2.8092   -0.3994 C   0  0  0  0  0  0  0  0  0  0  0  0
    0.4435    3.4908   -1.3450 C   0  0  0  0  0  0  0  0  0  0  0  0
   -0.4939    2.9116   -2.1264 N   0  0  0  0  0  0  0  0  0  0  0  0
   -0.7302    1.5947   -1.9674 C   0  0  0  0  0  0  0  0  0  0  0  0
   -1.7043    1.0823   -2.8101 N   0  0  0  0  0  0  0  0  0  0  0  0
   -2.9144    0.4365   -2.2697 C   0  0  0  0  0  0  0  0  0  0  0  0
   -2.7507   -1.0799   -2.1396 C   0  0  0  0  0  0  0  0  0  0  0  0
   -3.8922   -1.6534   -1.3048 C   0  0  0  0  0  0  0  0  0  0  0  0
   -3.8848   -1.1267    0.0578 N   0  0  0  0  0  0  0  0  0  0  0  0
   -5.0821   -1.4401    0.8332 C   0  0  0  0  0  0  0  0  0  0  0  0
   -6.2911   -0.6345    0.4550 C   0  0  0  0  0  0  0  0  0  0  0  0
   -7.4999   -0.6429    1.3600 C   0  0  0  0  0  0  0  0  0  0  0  0
   -6.6787    0.6077    1.2207 C   0  0  0  0  0  0  0  0  0  0  0  0
   -3.3673    0.2294    0.2226 C   0  0  0  0  0  0  0  0  0  0  0  0
   -3.5131    1.1022   -1.0218 C   0  0  0  0  0  0  0  0  0  0  0  0
   -0.0192    0.8314   -1.0558 C   0  0  0  0  0  0  0  0  0  0  0  0
    2.8399    0.0389    0.3208 C   0  0  0  0  0  0  0  0  0  0  0  0
    3.5738   -0.7094    1.2405 N   0  0  0  0  0  0  0  0  0  0  0  0
    8.2430    0.5677    0.3609 H   0  0  0  0  0  0  0  0  0  0  0  0
    7.2071   -0.1284    1.6081 H   0  0  0  0  0  0  0  0  0  0  0  0
    8.1942   -1.1883    0.5859 H   0  0  0  0  0  0  0  0  0  0  0  0
    5.8588    0.5628   -0.3554 H   0  0  0  0  0  0  0  0  0  0  0  0
    7.6627    0.3986   -2.0524 H   0  0  0  0  0  0  0  0  0  0  0  0
    6.2106   -0.4609   -2.5818 H   0  0  0  0  0  0  0  0  0  0  0  0
    7.6036   -1.3701   -1.9701 H   0  0  0  0  0  0  0  0  0  0  0  0
    4.8254   -1.7072   -0.9884 H   0  0  0  0  0  0  0  0  0  0  0  0
    6.1183   -2.4901   -0.1006 H   0  0  0  0  0  0  0  0  0  0  0  0
    1.7106   -0.3221    4.0345 H   0  0  0  0  0  0  0  0  0  0  0  0
    0.3859    1.0087    2.4360 H   0  0  0  0  0  0  0  0  0  0  0  0
    1.9201    3.3285    0.2022 H   0  0  0  0  0  0  0  0  0  0  0  0
    0.5858    4.5549   -1.5080 H   0  0  0  0  0  0  0  0  0  0  0  0
   -1.9674    1.9000   -3.3646 H   0  0  0  0  0  0  0  0  0  0  0  0
   -3.6661    0.5813   -3.0598 H   0  0  0  0  0  0  0  0  0  0  0  0
   -2.7527   -1.5360   -3.1375 H   0  0  0  0  0  0  0  0  0  0  0  0
   -1.7960   -1.3609   -1.6872 H   0  0  0  0  0  0  0  0  0  0  0  0
   -3.7934   -2.7445   -1.2682 H   0  0  0  0  0  0  0  0  0  0  0  0
   -4.8356   -1.4354   -1.8184 H   0  0  0  0  0  0  0  0  0  0  0  0
   -4.8572   -1.3095    1.8990 H   0  0  0  0  0  0  0  0  0  0  0  0
   -5.3194   -2.5045    0.7188 H   0  0  0  0  0  0  0  0  0  0  0  0
   -6.5003   -0.6634   -0.6074 H   0  0  0  0  0  0  0  0  0  0  0  0
   -7.4460   -1.1814    2.3004 H   0  0  0  0  0  0  0  0  0  0  0  0
   -8.4794   -0.6607    0.8959 H   0  0  0  0  0  0  0  0  0  0  0  0
   -6.0789    0.9101    2.0715 H   0  0  0  0  0  0  0  0  0  0  0  0
   -7.0994    1.4345    0.6597 H   0  0  0  0  0  0  0  0  0  0  0  0
   -2.3052    0.1453    0.4767 H   0  0  0  0  0  0  0  0  0  0  0  0
   -3.8180    0.7372    1.0828 H   0  0  0  0  0  0  0  0  0  0  0  0
   -3.0920    2.0959   -0.8374 H   0  0  0  0  0  0  0  0  0  0  0  0
   -4.5849    1.2676   -1.1968 H   0  0  0  0  0  0  0  0  0  0  0  0
   -0.1941   -0.2324   -0.9665 H   0  0  0  0  0  0  0  0  0  0  0  0
    3.2170    0.0908   -0.6932 H   0  0  0  0  0  0  0  0  0  0  0  0
  1  2  1  0
  2  3  1  0
  2  4  1  0
  4  5  1  0
  5  6  2  0
  6  7  1  0
  7  8  2  0
  8  9  1  0
  9 10  2  0
 10 11  1  0
 11 12  1  0
 12 13  2  0
 13 14  1  0
 14 15  2  0
 15 16  1  0
 16 17  1  0
 17 18  1  0
 18 19  1  0
 19 20  1  0
 20 21  1  0
 21 22  1  0
 22 23  1  0
 23 24  1  0
 24 25  1  0
 21 26  1  0
 26 27  1  0
 16 28  2  0
 11 29  2  0
 29 30  1  0
 30  5  1  0
 30  8  1  0
 28 12  1  0
 27 18  1  0
 25 23  1  0
  1 31  1  0
  1 32  1  0
  1 33  1  0
  2 34  1  0
  3 35  1  0
  3 36  1  0
  3 37  1  0
  4 38  1  0
  4 39  1  0
  9 40  1  0
 10 41  1  0
 13 42  1  0
 14 43  1  0
 17 44  1  0
 18 45  1  0
 19 46  1  0
 19 47  1  0
 20 48  1  0
 20 49  1  0
 22 50  1  0
 22 51  1  0
 23 52  1  0
 24 53  1  0
 24 54  1  0
 25 55  1  0
 25 56  1  0
 26 57  1  0
 26 58  1  0
 27 59  1  0
 27 60  1  0
 28 61  1  0
 29 62  1  0
M  END
$$$$
