
     RDKit          3D

 61 64  0  0  0  0  0  0  0  0999 V2000
    7.7311    1.4775    1.7446 C   0  0  0  0  0  0  0  0  0  0  0  0
    6.7830    0.3200    1.4219 C   0  0  0  0  0  0  0  0  0  0  0  0
    5.4169    0.5838    2.0611 C   0  0  0  0  0  0  0  0  0  0  0  0
    6.6863    0.1360   -0.1045 C   0  0  0  0  0  0  0  0  0  0  0  0
    6.0101   -1.1361   -0.4888 C   0  0  0  0  0  0  0  0  0  0  0  0
    6.5733   -2.3298   -0.5054 N   0  0  0  0  0  0  0  0  0  0  0  0
    5.6371   -3.2469   -0.9215 N   0  0  0  0  0  0  0  0  0  0  0  0
    4.5175   -2.5998   -1.1533 C   0  0  0  0  0  0  0  0  0  0  0  0
    3.2356   -3.0236   -1.5928 C   0  0  0  0  0  0  0  0  0  0  0  0
    2.2511   -2.1162   -1.7419 C   0  0  0  0  0  0  0  0  0  0  0  0
    2.4601   -0.6914   -1.4663 C   0  0  0  0  0  0  0  0  0  0  0  0
    1.3986    0.3188   -1.6043 C   0  0  0  0  0  0  0  0  0  0  0  0
    1.4696    1.2987   -2.5916 C   0  0  0  0  0  0  0  0  0  0  0  0
    0.4495    2.2284   -2.6559 C   0  0  0  0  0  0  0  0  0  0  0  0
   -0.6112    2.2403   -1.8204 N   0  0  0  0  0  0  0  0  0  0  0  0
   -0.6830    1.2786   -0.8826 C   0  0  0  0  0  0  0  0  0  0  0  0
   -1.7930    1.3442   -0.0425 N   0  0  0  0  0  0  0  0  0  0  0  0
   -2.6701    0.1620   -0.0316 C   0  0  0  0  0  0  0  0  0  0  0  0
   -3.6271    0.2632    1.1658 C   0  0  0  0  0  0  0  0  0  0  0  0
   -4.9515    0.9200    0.7837 C   0  0  0  0  0  0  0  0  0  0  0  0
   -5.6504    0.2399   -0.3111 N   0  0  0  0  0  0  0  0  0  0  0  0
   -6.9439   -0.3821    0.0161 C   0  0  0  0  0  0  0  0  0  0  0  0
   -6.8777   -1.4426    1.1215 C   0  0  0  0  0  0  0  0  0  0  0  0
   -7.9879    0.6872    0.3609 C   0  0  0  0  0  0  0  0  0  0  0  0
   -4.7986   -0.6085   -1.1484 C   0  0  0  0  0  0  0  0  0  0  0  0
   -3.4280    0.0266   -1.3604 C   0  0  0  0  0  0  0  0  0  0  0  0
    0.3008    0.3086   -0.7402 C   0  0  0  0  0  0  0  0  0  0  0  0
    3.6839   -0.3004   -1.0508 C   0  0  0  0  0  0  0  0  0  0  0  0
    4.6962   -1.2483   -0.8978 N   0  0  0  0  0  0  0  0  0  0  0  0
    7.8177    1.6202    2.8250 H   0  0  0  0  0  0  0  0  0  0  0  0
    8.7330    1.2797    1.3557 H   0  0  0  0  0  0  0  0  0  0  0  0
    7.3768    2.4163    1.3080 H   0  0  0  0  0  0  0  0  0  0  0  0
    7.1991   -0.5908    1.8723 H   0  0  0  0  0  0  0  0  0  0  0  0
    4.9297    1.4574    1.6152 H   0  0  0  0  0  0  0  0  0  0  0  0
    5.5209    0.7704    3.1351 H   0  0  0  0  0  0  0  0  0  0  0  0
    4.7506   -0.2764    1.9452 H   0  0  0  0  0  0  0  0  0  0  0  0
    6.1953    1.0024   -0.5651 H   0  0  0  0  0  0  0  0  0  0  0  0
    7.7007    0.1058   -0.5275 H   0  0  0  0  0  0  0  0  0  0  0  0
    3.0800   -4.0764   -1.8006 H   0  0  0  0  0  0  0  0  0  0  0  0
    1.2675   -2.4290   -2.0817 H   0  0  0  0  0  0  0  0  0  0  0  0
    2.2931    1.3420   -3.2956 H   0  0  0  0  0  0  0  0  0  0  0  0
    0.4540    3.0125   -3.4064 H   0  0  0  0  0  0  0  0  0  0  0  0
   -2.2963    2.1730   -0.3640 H   0  0  0  0  0  0  0  0  0  0  0  0
   -2.0690   -0.7406    0.1326 H   0  0  0  0  0  0  0  0  0  0  0  0
   -3.1638    0.8121    1.9946 H   0  0  0  0  0  0  0  0  0  0  0  0
   -3.8340   -0.7470    1.5449 H   0  0  0  0  0  0  0  0  0  0  0  0
   -4.7525    1.9496    0.4590 H   0  0  0  0  0  0  0  0  0  0  0  0
   -5.5701    1.0148    1.6825 H   0  0  0  0  0  0  0  0  0  0  0  0
   -7.3182   -0.8776   -0.8910 H   0  0  0  0  0  0  0  0  0  0  0  0
   -7.8630   -1.8964    1.2716 H   0  0  0  0  0  0  0  0  0  0  0  0
   -6.5625   -1.0208    2.0815 H   0  0  0  0  0  0  0  0  0  0  0  0
   -6.1864   -2.2502    0.8626 H   0  0  0  0  0  0  0  0  0  0  0  0
   -8.0430    1.4481   -0.4253 H   0  0  0  0  0  0  0  0  0  0  0  0
   -7.7736    1.1911    1.3091 H   0  0  0  0  0  0  0  0  0  0  0  0
   -8.9813    0.2333    0.4474 H   0  0  0  0  0  0  0  0  0  0  0  0
   -5.2754   -0.7470   -2.1263 H   0  0  0  0  0  0  0  0  0  0  0  0
   -4.6659   -1.6049   -0.7096 H   0  0  0  0  0  0  0  0  0  0  0  0
   -2.8396   -0.5831   -2.0567 H   0  0  0  0  0  0  0  0  0  0  0  0
   -3.5573    1.0031   -1.8467 H   0  0  0  0  0  0  0  0  0  0  0  0
    0.2293   -0.4279    0.0534 H   0  0  0  0  0  0  0  0  0  0  0  0
    3.9254    0.7280   -0.8125 H   0  0  0  0  0  0  0  0  0  0  0  0
  1  2  1  0
  2  3  1  0
  2  4  1  0
  4  5  1  0
  5  6  2  0
  6  7  1  0
  7  8  2  0
  8  9  1  0
  9 10  2  0
 10 11  1  0
 11 12  1  0
 12 13  2  0
 13 14  1  0
 14 15  2  0
 15 16  1  0
 16 17  1  0
 17 18  1  0
 18 19  1  0
 19 20  1  0
 20 21  1  0
 21 22  1  0
 22 23  1  0
 22 24  1  0
 21 25  1  0
 25 26  1  0
 16 27  2  0
 11 28  2  0
 28 29  1  0
 29  5  1  0
 29  8  1  0
 27 12  1  0
 26 18  1  0
  1 30  1  0
  1 31  1  0
  1 32  1  0
  2 33  1  0
  3 34  1  0
  3 35  1  0
  3 36  1  0
  4 37  1  0
  4 38  1  0
  9 39  1  0
 10 40  1  0
 13 41  1  0
 14 42  1  0
 17 43  1  0
 18 44  1  0
 19 45  1  0
 19 46  1  0
 20 47  1  0
 20 48  1  0
 22 49  1  0
 23 50  1  0
 23 51  1  0
 23 52  1  0
 24 53  1  0
 24 54  1  0
 24 55  1  0
 25 56  1  0
 25 57  1  0
 26 58  1  0
 26 59  1  0
 27 60  1  0
 28 61  1  0
M  END
$$$$
