MODEL        10USER    Run = 10USERUSER    Estimated Free Energy of Binding    =  -5.12 kcal/mol  [=(1)+(2)+(3)-(4)]USERUSER    (1) Final Intermolecular Energy     =  -9.29 kcal/molUSER        vdW + Hbond + desolv Energy     =  -9.26 kcal/molUSER        Electrostatic Energy            =  -0.12 kcal/molUSER        Moving Ligand-Fixed Receptor    =  -9.38 kcal/molUSER        Moving Ligand-Moving Receptor   =  +0.08 kcal/molUSER    (2) Final Total Internal Energy     =  -1.34 kcal/molUSER    (3) Torsional Free Energy           =  +4.18 kcal/molUSER    (4) Unbound System's Energy         =  -1.34 kcal/molUSERUSERREMARK SMILES CCCNC(=O)CN(C)C1=CCOC(c2cccc(OC)c2)=CC=C1REMARK SMILES IDX 10 1 8 2 9 3 7 4 5 5 4 6 6 8 3 9 2 10 1 11 11 12 25 14 24 15REMARK SMILES IDX 23 16 14 17 13 18 12 19 15 21 16 22 22 23 17 24 19 25 18 26REMARK SMILES IDX 20 27 21 28REMARK H PARENT 4 7REMARK Flexibility Score:  124.900USER                              x       y       z     vdW  Elec       q    TypeUSER                           _______ _______ _______ _____ _____    ______ ____ROOTATOM      1  C   UNL     1      35.575  45.093  15.464 -0.38 -0.02    +0.036 C  ENDROOTBRANCH   1   2ATOM      2  N   UNL     1      36.069  45.421  14.196 -0.14 +0.18    -0.365 N  ATOM      3  C   UNL     1      36.841  44.472  13.386 -0.20 -0.05    +0.144 C  BRANCH   2   4ATOM      4  C   UNL     1      35.825  46.721  13.537 -0.41 -0.14    +0.216 C  BRANCH   4   5ATOM      5  C   UNL     1      37.133  47.482  13.275 -0.45 -0.09    +0.239 C  ATOM      6  N   UNL     1      37.824  47.843  14.420 -0.23 +0.18    -0.355 N  ATOM      7  H   UNL     1      37.522  47.474  15.312 +0.12 -0.10    +0.163 HD ATOM      8  O   UNL     1      37.536  47.750  12.144 -0.97 +0.01    -0.273 OA BRANCH   6   9ATOM      9  C   UNL     1      39.094  48.531  14.338 -0.44 -0.05    +0.115 C  BRANCH   9  10ATOM     10  C   UNL     1      40.161  47.882  15.215 -0.60 -0.00    +0.018 C  ATOM     11  C   UNL     1      39.569  47.138  16.405 -0.54 -0.00    +0.006 C  ENDBRANCH   9  10ENDBRANCH   6   9ENDBRANCH   4   5ENDBRANCH   2   4ENDBRANCH   1   2BRANCH   1  12ATOM     12  C   UNL     1      35.160  43.858  15.806 -0.37 -0.02    +0.039 CG0ATOM     13  G   UNL     1      35.948  42.882  16.626 +0.00 +0.00    +0.000 G0 ENDBRANCH   1  12BRANCH   1  14ATOM     14  C   UNL     1      35.463  46.151  16.458 -0.39 -0.02    +0.026 C  BRANCH  14  15ATOM     15  C   UNL     1      35.135  46.023  17.755 -0.46 -0.00    +0.006 C  BRANCH  15  16ATOM     16  C   UNL     1      35.720  45.147  18.751 -0.31 -0.01    +0.047 C  BRANCH  16  17ATOM     17  C   UNL     1      35.751  43.799  18.851 -0.33 -0.02    +0.127 C  BRANCH  17  18ATOM     18  O   UNL     1      35.431  42.819  17.948 -0.08 +0.13    -0.489 OA BRANCH  18  19ATOM     19  C   UNL     1      35.948  42.882  16.626 -0.26 -0.09    +0.259 CG0ATOM     20  G   UNL     1      35.159  43.857  15.806 +0.00 +0.00    +0.000 G0 ENDBRANCH  18  19ENDBRANCH  17  18BRANCH  17  21ATOM     21  C   UNL     1      36.227  43.230  20.124 -0.41 -0.00    +0.020 A  ATOM     22  C   UNL     1      35.854  41.938  20.510 -0.44 -0.00    +0.012 A  ATOM     23  C   UNL     1      37.059  43.993  20.956 -0.37 +0.00    +0.058 A  ATOM     24  C   UNL     1      36.302  41.417  21.721 -0.57 +0.00    +0.005 A  ATOM     25  C   UNL     1      37.515  43.470  22.167 -0.31 +0.01    +0.119 A  ATOM     26  C   UNL     1      37.128  42.182  22.544 -0.46 +0.00    +0.046 A  BRANCH  25  27ATOM     27  O   UNL     1      38.332  44.108  23.061 -0.06 -0.03    -0.497 OA ATOM     28  C   UNL     1      38.484  45.513  22.897 -0.22 +0.03    +0.278 C  ENDBRANCH  25  27ENDBRANCH  17  21ENDBRANCH  16  17ENDBRANCH  15  16ENDBRANCH  14  15ENDBRANCH   1  14TORSDOF 7TERENDMDL