REMARK SMILES Oc1[nH]c2c(F)cccc2c1C=C1C=N[C@@H](NCc2cccc3ccccc23)O1
REMARK SMILES IDX 13 1 14 2 15 3 16 4 29 5 12 6 11 7 2 8 3 9 4 10 10 11 5 12
REMARK SMILES IDX 9 13 7 14 8 15 6 17 1 18 17 20 18 22 19 23 20 24 28 25 21 26
REMARK SMILES IDX 27 27 23 28 22 29 26 30 24 31 25 32
REMARK H PARENT 3 16 1 19 17 21
ROOT
ATOM      1  C   UNL     1      -1.649  -1.387  -0.817  1.00  0.00     0.142 C 
ATOM      2  C   UNL     1      -1.220  -0.210  -1.566  1.00  0.00     0.157 C 
ATOM      3  N   UNL     1      -0.002  -0.281  -2.005  1.00  0.00    -0.232 NA
ATOM      4  C   UNL     1       0.402  -1.623  -1.517  1.00  0.00     0.368 C 
ATOM      5  O   UNL     1      -0.616  -2.296  -0.741  1.00  0.00    -0.454 OA
ENDROOT
BRANCH   1   6
ATOM      6  C   UNL     1      -2.841  -1.590  -0.244  1.00  0.00     0.062 C 
BRANCH   6   7
ATOM      7  C   UNL     1      -3.957  -0.706  -0.269  1.00  0.00     0.048 A 
ATOM      8  C   UNL     1      -4.631  -0.286  -1.399  1.00  0.00     0.197 A 
ATOM      9  N   UNL     1      -5.624   0.567  -0.994  1.00  0.00    -0.323 N 
ATOM     10  C   UNL     1      -5.634   0.673   0.375  1.00  0.00     0.085 A 
ATOM     11  C   UNL     1      -4.598  -0.123   0.865  1.00  0.00     0.014 A 
ATOM     12  C   UNL     1      -6.472   1.404   1.217  1.00  0.00     0.147 A 
ATOM     13  C   UNL     1      -4.397  -0.178   2.262  1.00  0.00     0.011 A 
ATOM     14  C   UNL     1      -6.266   1.338   2.592  1.00  0.00     0.041 A 
ATOM     15  C   UNL     1      -5.238   0.555   3.113  1.00  0.00     0.004 A 
ATOM     16  H   UNL     1      -6.273   1.026  -1.616  1.00  0.00     0.170 HD
ATOM     17  F   UNL     1      -7.460   2.158   0.719  1.00  0.00    -0.205 F 
BRANCH   8  18
ATOM     18  O   UNL     1      -4.497  -0.555  -2.690  1.00  0.00    -0.494 OA
ATOM     19  H   UNL     1      -3.860  -1.288  -2.777  1.00  0.00     0.295 HD
ENDBRANCH   8  18
ENDBRANCH   6   7
ENDBRANCH   1   6
BRANCH   4  20
ATOM     20  N   UNL     1       1.609  -1.517  -0.725  1.00  0.00    -0.259 NA
ATOM     21  H   UNL     1       1.452  -0.766  -0.059  1.00  0.00     0.128 HD
BRANCH  20  22
ATOM     22  C   UNL     1       2.763  -1.177  -1.552  1.00  0.00     0.123 C 
BRANCH  22  23
ATOM     23  C   UNL     1       3.965  -0.856  -0.684  1.00  0.00    -0.026 A 
ATOM     24  C   UNL     1       4.842  -1.908  -0.362  1.00  0.00     0.006 A 
ATOM     25  C   UNL     1       4.207   0.450  -0.165  1.00  0.00    -0.014 A 
ATOM     26  C   UNL     1       5.960  -1.687   0.433  1.00  0.00     0.001 A 
ATOM     27  C   UNL     1       3.366   1.563  -0.403  1.00  0.00     0.009 A 
ATOM     28  C   UNL     1       5.354   0.658   0.644  1.00  0.00    -0.018 A 
ATOM     29  C   UNL     1       6.215  -0.411   0.928  1.00  0.00     0.009 A 
ATOM     30  C   UNL     1       3.650   2.826   0.125  1.00  0.00     0.001 A 
ATOM     31  C   UNL     1       5.625   1.934   1.166  1.00  0.00     0.009 A 
ATOM     32  C   UNL     1       4.780   3.011   0.908  1.00  0.00     0.001 A 
ENDBRANCH  22  23
ENDBRANCH  20  22
ENDBRANCH   4  20
TORSDOF 6
