MODEL        10USER    Run = 10USERUSER    Estimated Free Energy of Binding    =  -9.55 kcal/mol  [=(1)+(2)+(3)-(4)]USERUSER    (1) Final Intermolecular Energy     = -11.34 kcal/molUSER        vdW + Hbond + desolv Energy     = -10.69 kcal/molUSER        Electrostatic Energy            =  -0.65 kcal/molUSER        Moving Ligand-Fixed Receptor    = -11.34 kcal/molUSER        Moving Ligand-Moving Receptor   =  +0.00 kcal/molUSER    (2) Final Total Internal Energy     =  -1.37 kcal/molUSER    (3) Torsional Free Energy           =  +1.79 kcal/molUSER    (4) Unbound System's Energy         =  -1.37 kcal/molUSERUSERREMARK SMILES Oc1[nH]c2c(F)cccc2c1C=C1C=N[C@@H](NCc2cccc3ccccc23)O1REMARK SMILES IDX 13 1 14 2 15 3 16 4 29 5 12 6 11 7 2 8 3 9 4 10 10 11 5 12REMARK SMILES IDX 9 13 7 14 8 15 6 17 1 18 17 20 18 22 19 23 20 24 28 25 21 26REMARK SMILES IDX 27 27 23 28 22 29 26 30 24 31 25 32REMARK H PARENT 3 16 1 19 17 21USER                              x       y       z     vdW  Elec       q    TypeUSER                           _______ _______ _______ _____ _____    ______ ____ROOTATOM      1  C   UNL     1      36.361  46.783  14.898 -0.36 -0.11    +0.142 C  ATOM      2  C   UNL     1      36.727  47.906  14.042 -0.45 -0.10    +0.157 C  ATOM      3  N   UNL     1      37.922  47.824  13.547 -0.60 +0.07    -0.232 NA ATOM      4  C   UNL     1      38.379  46.530  14.113 -0.21 -0.11    +0.368 C  ATOM      5  O   UNL     1      37.416  45.901  14.989 -0.08 +0.19    -0.454 OA ENDROOTBRANCH   1   6ATOM      6  C   UNL     1      35.204  46.603  15.546 +0.09 -0.08    +0.062 C  BRANCH   6   7ATOM      7  C   UNL     1      35.020  45.927  16.785 -0.31 -0.04    +0.048 A  ATOM      8  C   UNL     1      34.620  46.508  17.972 -0.31 -0.17    +0.197 A  ATOM      9  N   UNL     1      34.583  45.522  18.923 -0.23 +0.13    -0.323 N  ATOM     10  C   UNL     1      34.908  44.309  18.367 -0.28 -0.03    +0.085 A  ATOM     11  C   UNL     1      35.184  44.528  17.016 -0.30 -0.01    +0.014 A  ATOM     12  C   UNL     1      34.979  43.042  18.944 -0.29 -0.02    +0.147 A  ATOM     13  C   UNL     1      35.552  43.422  16.219 -0.41 -0.00    +0.011 A  ATOM     14  C   UNL     1      35.339  41.959  18.147 -0.24 -0.01    +0.041 A  ATOM     15  C   UNL     1      35.624  42.145  16.796 -0.24 -0.00    +0.004 A  ATOM     16  H   UNL     1      34.324  45.667  19.888 -0.22 -0.09    +0.170 HD ATOM     17  F   UNL     1      34.707  42.861  20.243 -0.12 -0.01    -0.205 F  BRANCH   8  18ATOM     18  O   UNL     1      34.286  47.745  18.311 -0.79 +0.58    -0.494 OA ATOM     19  H   UNL     1      33.718  48.105  17.604 -0.31 -0.84    +0.295 HD ENDBRANCH   8  18ENDBRANCH   6   7ENDBRANCH   1   6BRANCH   4  20ATOM     20  N   UNL     1      39.622  46.718  14.832 -0.26 +0.05    -0.259 NA ATOM     21  H   UNL     1      39.930  45.794  15.122 +0.08 -0.02    +0.128 HD BRANCH  20  22ATOM     22  C   UNL     1      39.432  47.544  16.021 -0.47 -0.04    +0.123 C  BRANCH  22  23ATOM     23  C   UNL     1      39.556  46.705  17.278 -0.44 +0.01    -0.026 A  ATOM     24  C   UNL     1      38.503  45.824  17.586 -0.40 -0.00    +0.006 A  ATOM     25  C   UNL     1      40.672  46.808  18.160 -0.49 +0.00    -0.014 A  ATOM     26  C   UNL     1      38.547  45.029  18.725 -0.40 -0.00    +0.001 A  ATOM     27  C   UNL     1      41.761  47.687  17.957 -0.50 -0.00    +0.009 A  ATOM     28  C   UNL     1      40.701  45.987  19.318 -0.43 -0.00    -0.018 A  ATOM     29  C   UNL     1      39.641  45.108  19.581 -0.40 -0.00    +0.009 A  ATOM     30  C   UNL     1      42.835  47.747  18.849 -0.51 +0.00    +0.001 A  ATOM     31  C   UNL     1      41.788  46.060  20.204 -0.39 +0.00    +0.009 A  ATOM     32  C   UNL     1      42.849  46.932  19.972 -0.45 +0.00    +0.001 A  ENDBRANCH  22  23ENDBRANCH  20  22ENDBRANCH   4  20TORSDOF 6TERENDMDL