MODEL        3USER    Run = 3USERUSER    Estimated Free Energy of Binding    =  -8.96 kcal/mol  [=(1)+(2)+(3)-(4)]USERUSER    (1) Final Intermolecular Energy     = -11.65 kcal/molUSER        vdW + Hbond + desolv Energy     = -11.53 kcal/molUSER        Electrostatic Energy            =  -0.11 kcal/molUSER        Moving Ligand-Fixed Receptor    = -11.65 kcal/molUSER        Moving Ligand-Moving Receptor   =  +0.00 kcal/molUSER    (2) Final Total Internal Energy     =  -2.30 kcal/molUSER    (3) Torsional Free Energy           =  +2.68 kcal/molUSER    (4) Unbound System's Energy         =  -2.30 kcal/molUSERUSERREMARK SMILES N=NN(C=Cc1ccc2c(N)n[nH]c2c1)[C@H](O)c1ccc(F)c(F)c1REMARK SMILES IDX 4 1 3 2 2 3 1 4 16 6 17 7 18 9 19 10 25 11 20 12 23 13 21 14REMARK SMILES IDX 24 15 22 16 5 17 6 18 7 19 15 20 8 21 14 22 9 23 13 24 10 25REMARK SMILES IDX 12 26 11 28REMARK H PARENT 1 5 17 8 13 27 11 29 11 30USER                              x       y       z     vdW  Elec       q    TypeUSER                           _______ _______ _______ _____ _____    ______ ____ROOTATOM      1  C   UNL     1      36.177  44.945  17.279 -0.31 -0.04    +0.113 C  ENDROOTBRANCH   1   2ATOM      2  N   UNL     1      35.106  45.171  18.149 -0.22 +0.09    -0.222 N  BRANCH   2   3ATOM      3  N   UNL     1      34.188  46.140  17.838 -0.45 +0.06    -0.073 NA BRANCH   3   4ATOM      4  N   UNL     1      34.291  47.027  18.703 -0.99 +0.13    -0.186 NA ATOM      5  H   UNL     1      34.264  46.625  19.647 -0.40 -0.12    +0.215 HD ENDBRANCH   3   4ENDBRANCH   2   3BRANCH   2   6ATOM      6  C   UNL     1      34.550  44.140  19.049 -0.25 -0.06    +0.266 C  BRANCH   6   7ATOM      7  O   UNL     1      33.409  44.633  19.748 -0.26 +0.09    -0.368 OA ATOM      8  H   UNL     1      33.392  45.589  19.579 -0.25 -0.10    +0.213 HD ENDBRANCH   6   7BRANCH   6   9ATOM      9  C   UNL     1      35.597  43.577  20.005 -0.42 -0.00    +0.006 A  ATOM     10  C   UNL     1      36.722  44.355  20.344 -0.36 -0.00    +0.011 A  ATOM     11  C   UNL     1      35.463  42.304  20.589 -0.41 +0.00    +0.050 A  ATOM     12  C   UNL     1      37.688  43.871  21.233 -0.35 +0.00    +0.043 A  ATOM     13  C   UNL     1      36.428  41.832  21.475 -0.43 +0.00    +0.159 A  ATOM     14  C   UNL     1      37.534  42.609  21.793 -0.28 +0.01    +0.158 A  ATOM     15  F   UNL     1      36.276  40.618  22.020 -0.18 -0.00    -0.204 F  ATOM     16  F   UNL     1      38.460  42.150  22.646 -0.09 -0.02    -0.204 F  ENDBRANCH   6   9ENDBRANCH   2   6ENDBRANCH   1   2BRANCH   1  17ATOM     17  C   UNL     1      36.493  45.542  16.121 -0.39 -0.01    +0.028 C  BRANCH  17  18ATOM     18  C   UNL     1      37.503  46.603  16.005 -0.38 +0.01    -0.022 A  ATOM     19  C   UNL     1      37.199  47.847  15.437 -0.43 -0.01    +0.009 A  ATOM     20  C   UNL     1      38.786  46.358  16.524 -0.39 -0.01    +0.036 A  ATOM     21  C   UNL     1      38.163  48.864  15.352 -0.46 -0.01    +0.015 A  ATOM     22  C   UNL     1      39.732  47.385  16.424 -0.45 -0.02    +0.068 A  ATOM     23  C   UNL     1      39.454  48.622  15.852 -0.47 -0.02    +0.044 A  ATOM     24  N   UNL     1      41.041  47.461  16.816 -0.30 +0.04    -0.276 N  ATOM     25  C   UNL     1      40.673  49.345  15.960 -0.46 -0.04    +0.153 A  ATOM     26  N   UNL     1      41.635  48.633  16.538 -0.85 -0.01    -0.157 NA ATOM     27  H   UNL     1      41.590  46.744  17.275 -0.20 -0.03    +0.190 HD BRANCH  25  28ATOM     28  N   UNL     1      40.858  50.599  15.519 -0.27 +0.16    -0.382 N  ATOM     29  H   UNL     1      40.008  51.116  15.323 -0.42 -0.14    +0.158 HD ATOM     30  H   UNL     1      41.583  51.169  15.937 -0.42 -0.06    +0.158 HD ENDBRANCH  25  28ENDBRANCH  17  18ENDBRANCH   1  17TORSDOF 9TERENDMDL