MODEL        8USER    Run = 8USERUSER    Estimated Free Energy of Binding    =  -7.57 kcal/mol  [=(1)+(2)+(3)-(4)]USERUSER    (1) Final Intermolecular Energy     =  -9.96 kcal/molUSER        vdW + Hbond + desolv Energy     =  -9.86 kcal/molUSER        Electrostatic Energy            =  -0.10 kcal/molUSER        Moving Ligand-Fixed Receptor    =  -9.96 kcal/molUSER        Moving Ligand-Moving Receptor   =  +0.00 kcal/molUSER    (2) Final Total Internal Energy     =  -1.42 kcal/molUSER    (3) Torsional Free Energy           =  +2.39 kcal/molUSER    (4) Unbound System's Energy         =  -1.42 kcal/molUSERUSERREMARK SMILES COc1cc(C(=O)Oc2cc(O)ccc2C(C)C)c(C)c(OC)c1OCREMARK SMILES IDX 6 1 7 2 5 3 3 4 4 5 24 6 21 7 19 8 20 9 2 10 1 11 25 12REMARK SMILES IDX 26 13 22 14 23 15 8 16 9 17 10 18 15 19 11 20 14 21 13 22REMARK SMILES IDX 16 23 17 24 18 25 12 26REMARK H PARENT 12 27USER                              x       y       z     vdW  Elec       q    TypeUSER                           _______ _______ _______ _____ _____    ______ ____ROOTATOM      1  C   UNL     1      36.596  45.954  17.102 -0.18 -0.18    +0.344 C  ATOM      2  O   UNL     1      35.880  46.907  16.834 -0.30 +0.26    -0.246 OA ENDROOTBRANCH   1   3ATOM      3  C   UNL     1      36.387  45.109  18.304 -0.29 -0.02    +0.071 A  ATOM      4  C   UNL     1      37.488  44.023  20.183 -0.26 -0.01    +0.165 A  ATOM      5  C   UNL     1      37.549  44.826  19.047 -0.29 -0.01    +0.066 A  ATOM      6  C   UNL     1      36.246  43.500  20.572 -0.29 -0.00    +0.203 A  ATOM      7  C   UNL     1      35.087  43.755  19.818 -0.29 -0.02    +0.168 A  ATOM      8  C   UNL     1      35.131  44.611  18.702 -0.36 -0.00    +0.010 A  ATOM      9  C   UNL     1      33.870  44.950  17.956 -0.40 -0.02    +0.049 C  BRANCH   4  10ATOM     10  O   UNL     1      38.560  43.696  20.973 -0.04 -0.01    -0.493 OA ATOM     11  C   UNL     1      38.746  44.441  22.169 -0.21 +0.01    +0.278 C  ENDBRANCH   4  10BRANCH   6  12ATOM     12  O   UNL     1      36.177  42.699  21.689 -0.16 -0.04    -0.490 OA ATOM     13  C   UNL     1      36.609  41.377  21.361 -0.40 +0.00    +0.278 C  ENDBRANCH   6  12BRANCH   7  14ATOM     14  O   UNL     1      33.861  43.246  20.176 -0.63 -0.05    -0.492 OA ATOM     15  C   UNL     1      33.494  42.108  19.394 -0.21 +0.01    +0.278 C  ENDBRANCH   7  14ENDBRANCH   1   3BRANCH   1  16ATOM     16  O   UNL     1      37.755  45.551  16.472 -0.11 +0.14    -0.422 OA BRANCH  16  17ATOM     17  C   UNL     1      38.472  46.624  15.928 -0.31 -0.05    +0.138 A  ATOM     18  C   UNL     1      39.605  47.045  16.631 -0.41 -0.02    +0.093 A  ATOM     19  C   UNL     1      38.110  47.198  14.698 -0.46 +0.00    -0.002 A  ATOM     20  C   UNL     1      40.371  48.084  16.123 -0.46 -0.03    +0.119 A  ATOM     21  C   UNL     1      38.906  48.254  14.217 -0.49 -0.00    +0.011 A  ATOM     22  C   UNL     1      40.029  48.697  14.923 -0.53 -0.02    +0.047 A  BRANCH  19  23ATOM     23  C   UNL     1      36.901  46.722  13.914 -0.53 -0.01    +0.017 C  ATOM     24  C   UNL     1      37.123  45.336  13.300 -0.54 -0.00    +0.012 C  ATOM     25  C   UNL     1      36.502  47.736  12.838 -0.73 -0.01    +0.012 C  ENDBRANCH  19  23BRANCH  20  26ATOM     26  O   UNL     1      41.464  48.479  16.837 -0.67 +0.01    -0.508 OA ATOM     27  H   UNL     1      42.133  47.777  16.792 -0.32 -0.04    +0.293 HD ENDBRANCH  20  26ENDBRANCH  16  17ENDBRANCH   1  16TORSDOF 8TERENDMDL