REMARK SMILES COc1cc(C(=O)Oc2cc(O)ccc2C(C)C)c(C)c(OC)c1OC
REMARK SMILES IDX 6 1 7 2 5 3 3 4 4 5 24 6 21 7 19 8 20 9 2 10 1 11 25 12
REMARK SMILES IDX 26 13 22 14 23 15 8 16 9 17 10 18 15 19 11 20 14 21 13 22
REMARK SMILES IDX 16 23 17 24 18 25 12 26
REMARK H PARENT 12 27
ROOT
ATOM      1  C   UNL     1      -0.380  -0.736  -0.307  1.00  0.00     0.344 C 
ATOM      2  O   UNL     1      -0.722  -1.663  -1.025  1.00  0.00    -0.246 OA
ENDROOT
BRANCH   1   3
ATOM      3  C   UNL     1       1.040  -0.342  -0.129  1.00  0.00     0.071 A 
ATOM      4  C   UNL     1       3.292  -1.165   0.289  1.00  0.00     0.165 A 
ATOM      5  C   UNL     1       1.935  -1.407   0.084  1.00  0.00     0.066 A 
ATOM      6  C   UNL     1       3.748   0.161   0.279  1.00  0.00     0.203 A 
ATOM      7  C   UNL     1       2.854   1.231   0.095  1.00  0.00     0.168 A 
ATOM      8  C   UNL     1       1.493   0.991  -0.168  1.00  0.00     0.010 A 
ATOM      9  C   UNL     1       0.562   2.138  -0.454  1.00  0.00     0.049 C 
BRANCH   4  10
ATOM     10  O   UNL     1       4.240  -2.133   0.499  1.00  0.00    -0.493 OA
ATOM     11  C   UNL     1       3.803  -3.485   0.531  1.00  0.00     0.278 C 
ENDBRANCH   4  10
BRANCH   6  12
ATOM     12  O   UNL     1       5.085   0.411   0.488  1.00  0.00    -0.490 OA
ATOM     13  C   UNL     1       5.771   0.443  -0.765  1.00  0.00     0.278 C 
ENDBRANCH   6  12
BRANCH   7  14
ATOM     14  O   UNL     1       3.278   2.539   0.090  1.00  0.00    -0.492 OA
ATOM     15  C   UNL     1       3.875   2.923   1.330  1.00  0.00     0.278 C 
ENDBRANCH   7  14
ENDBRANCH   1   3
BRANCH   1  16
ATOM     16  O   UNL     1      -1.160   0.020   0.544  1.00  0.00    -0.422 OA
BRANCH  16  17
ATOM     17  C   UNL     1      -2.444  -0.513   0.712  1.00  0.00     0.138 A 
ATOM     18  C   UNL     1      -2.611  -1.436   1.750  1.00  0.00     0.093 A 
ATOM     19  C   UNL     1      -3.524  -0.084  -0.076  1.00  0.00    -0.002 A 
ATOM     20  C   UNL     1      -3.868  -1.974   1.982  1.00  0.00     0.119 A 
ATOM     21  C   UNL     1      -4.783  -0.656   0.184  1.00  0.00     0.011 A 
ATOM     22  C   UNL     1      -4.957  -1.596   1.205  1.00  0.00     0.047 A 
BRANCH  19  23
ATOM     23  C   UNL     1      -3.355   0.943  -1.181  1.00  0.00     0.017 C 
ATOM     24  C   UNL     1      -4.265   2.159  -0.979  1.00  0.00     0.012 C 
ATOM     25  C   UNL     1      -3.580   0.318  -2.560  1.00  0.00     0.012 C 
ENDBRANCH  19  23
BRANCH  20  26
ATOM     26  O   UNL     1      -3.997  -2.879   2.994  1.00  0.00    -0.508 OA
ATOM     27  H   UNL     1      -4.916  -3.191   3.015  1.00  0.00     0.293 HD
ENDBRANCH  20  26
ENDBRANCH  16  17
ENDBRANCH   1  16
TORSDOF 8
