REMARK SMILES CCCNC(=O)CN(C)C1=CCOC(c2cccc(OC)c2)=CC=C1
REMARK SMILES IDX 10 1 8 2 9 3 7 4 5 5 4 6 6 8 3 9 2 10 1 11 11 12 25 14 24 15
REMARK SMILES IDX 23 16 14 17 13 18 12 19 15 21 16 22 22 23 17 24 19 25 18 26
REMARK SMILES IDX 20 27 21 28
REMARK H PARENT 4 7
REMARK Flexibility Score:  124.900
ROOT
ATOM      1  C   UNL     1      -0.347  -1.210  -0.820  1.00  0.00     0.036 C 
ENDROOT
BRANCH   1   2
ATOM      2  N   UNL     1      -0.954  -0.834  -2.024  1.00  0.00    -0.365 N 
ATOM      3  C   UNL     1      -0.696  -1.537  -3.286  1.00  0.00     0.144 C 
BRANCH   2   4
ATOM      4  C   UNL     1      -1.938   0.263  -2.133  1.00  0.00     0.216 C 
BRANCH   4   5
ATOM      5  C   UNL     1      -3.380  -0.248  -1.999  1.00  0.00     0.239 C 
ATOM      6  N   UNL     1      -4.071   0.267  -0.915  1.00  0.00    -0.355 N 
ATOM      7  H   UNL     1      -3.660   1.025  -0.387  1.00  0.00     0.163 HD
ATOM      8  O   UNL     1      -3.882  -1.048  -2.788  1.00  0.00    -0.273 OA
BRANCH   6   9
ATOM      9  C   UNL     1      -5.453  -0.087  -0.676  1.00  0.00     0.115 C 
BRANCH   9  10
ATOM     10  C   UNL     1      -5.956   0.421   0.672  1.00  0.00     0.018 C 
ATOM     11  C   UNL     1      -5.250  -0.240   1.849  1.00  0.00     0.006 C 
ENDBRANCH   9  10
ENDBRANCH   6   9
ENDBRANCH   4   5
ENDBRANCH   2   4
ENDBRANCH   1   2
BRANCH   1  12
ATOM     12  C   UNL     1       0.765  -1.968  -0.751  1.00  0.00     0.039 CG0
ATOM     13  G   UNL     1       1.424  -2.414   0.519  1.00  0.00     0.000 G0
ENDBRANCH   1  12
BRANCH   1  14
ATOM     14  C   UNL     1      -0.971  -0.796   0.428  1.00  0.00     0.026 C 
BRANCH  14  15
ATOM     15  C   UNL     1      -0.390  -0.163   1.462  1.00  0.00     0.006 C 
BRANCH  15  16
ATOM     16  C   UNL     1       0.968   0.332   1.568  1.00  0.00     0.047 C 
BRANCH  16  17
ATOM     17  C   UNL     1       2.159  -0.260   1.326  1.00  0.00     0.127 C 
BRANCH  17  18
ATOM     18  O   UNL     1       2.467  -1.517   0.873  1.00  0.00    -0.489 OA
BRANCH  18  19
ATOM     19  C   UNL     1       1.424  -2.414   0.519  1.00  0.00     0.259 CG0
ATOM     20  G   UNL     1       0.765  -1.968  -0.751  1.00  0.00     0.000 G0
ENDBRANCH  18  19
ENDBRANCH  17  18
BRANCH  17  21
ATOM     21  C   UNL     1       3.370   0.549   1.548  1.00  0.00     0.020 A 
ATOM     22  C   UNL     1       3.967   0.605   2.812  1.00  0.00     0.012 A 
ATOM     23  C   UNL     1       3.926   1.271   0.482  1.00  0.00     0.058 A 
ATOM     24  C   UNL     1       5.105   1.383   3.010  1.00  0.00     0.005 A 
ATOM     25  C   UNL     1       5.071   2.045   0.676  1.00  0.00     0.119 A 
ATOM     26  C   UNL     1       5.652   2.099   1.945  1.00  0.00     0.046 A 
BRANCH  25  27
ATOM     27  O   UNL     1       5.711   2.787  -0.279  1.00  0.00    -0.497 OA
ATOM     28  C   UNL     1       5.215   2.681  -1.608  1.00  0.00     0.278 C 
ENDBRANCH  25  27
ENDBRANCH  17  21
ENDBRANCH  16  17
ENDBRANCH  15  16
ENDBRANCH  14  15
ENDBRANCH   1  14
TORSDOF 7
