MODEL        5USER    Run = 5USERUSER    Estimated Free Energy of Binding    =  -9.75 kcal/mol  [=(1)+(2)+(3)-(4)]USERUSER    (1) Final Intermolecular Energy     = -11.54 kcal/molUSER        vdW + Hbond + desolv Energy     = -11.39 kcal/molUSER        Electrostatic Energy            =  -0.15 kcal/molUSER        Moving Ligand-Fixed Receptor    = -11.54 kcal/molUSER        Moving Ligand-Moving Receptor   =  +0.00 kcal/molUSER    (2) Final Total Internal Energy     =  -0.91 kcal/molUSER    (3) Torsional Free Energy           =  +1.79 kcal/molUSER    (4) Unbound System's Energy         =  -0.91 kcal/molUSERUSERREMARK SMILES N[C@H]1C[C@@H]1S(=O)(=O)Nc1cc(-c2ccncc2)cc(-c2nccs2)c1REMARK SMILES IDX 5 1 6 2 7 3 4 4 2 5 3 6 1 7 8 10 9 12 10 13 25 14 11 15REMARK SMILES IDX 19 16 18 17 12 18 13 19 17 20 14 21 16 22 15 23 20 24 21 25REMARK SMILES IDX 24 26 22 27 23 28REMARK H PARENT 1 8 1 9 8 11USER                              x       y       z     vdW  Elec       q    TypeUSER                           _______ _______ _______ _____ _____    ______ ____ROOTATOM      1  S   UNL     1      35.226  43.341  17.730 -0.34 -0.07    +0.237 S  ATOM      2  O   UNL     1      34.634  42.261  18.490 -0.32 +0.04    -0.206 OA ATOM      3  O   UNL     1      35.664  43.146  16.365 -0.35 +0.08    -0.206 OA ENDROOTBRANCH   1   4ATOM      4  C   UNL     1      34.034  44.709  17.685 -0.29 -0.07    +0.148 C  ATOM      5  C   UNL     1      34.251  45.750  18.751 -0.46 -0.04    +0.072 C  ATOM      6  C   UNL     1      33.105  44.778  18.862 -0.43 -0.01    +0.043 C  BRANCH   5   7ATOM      7  N   UNL     1      33.947  47.156  18.452 -0.82 +0.30    -0.326 NA ATOM      8  H   UNL     1      32.942  47.329  18.492 -0.45 -0.12    +0.119 HD ATOM      9  H   UNL     1      34.212  47.375  17.489 -0.43 -0.24    +0.119 HD ENDBRANCH   5   7ENDBRANCH   1   4BRANCH   1  10ATOM     10  N   UNL     1      36.546  43.875  18.658 -0.15 +0.05    -0.283 N  ATOM     11  H   UNL     1      36.247  44.072  19.613 +0.12 -0.02    +0.180 HD BRANCH  10  12ATOM     12  C   UNL     1      37.390  44.853  18.054 -0.33 -0.01    +0.050 A  ATOM     13  C   UNL     1      37.023  45.407  16.828 -0.33 -0.01    +0.035 A  ATOM     14  C   UNL     1      38.609  45.181  18.646 -0.37 -0.00    +0.038 A  ATOM     15  C   UNL     1      37.870  46.312  16.175 -0.37 +0.01    -0.016 A  ATOM     16  C   UNL     1      39.479  46.091  18.030 -0.43 -0.00    +0.013 A  ATOM     17  C   UNL     1      39.086  46.648  16.797 -0.42 -0.01    +0.020 A  BRANCH  15  18ATOM     18  C   UNL     1      37.502  46.879  14.869 -0.41 +0.01    -0.015 A  ATOM     19  C   UNL     1      37.345  46.064  13.742 -0.44 -0.01    +0.029 A  ATOM     20  C   UNL     1      37.297  48.255  14.713 -0.51 -0.02    +0.029 A  ATOM     21  C   UNL     1      37.004  46.649  12.532 -0.53 -0.04    +0.111 A  ATOM     22  C   UNL     1      36.953  48.746  13.463 -0.32 -0.05    +0.111 A  ATOM     23  N   UNL     1      36.808  47.974  12.367 -0.97 +0.08    -0.265 NA ENDBRANCH  15  18BRANCH  16  24ATOM     24  C   UNL     1      40.778  46.495  18.608 -0.39 -0.00    +0.123 A  ATOM     25  N   UNL     1      41.291  45.955  19.701 -0.26 -0.02    -0.245 NA ATOM     26  S   UNL     1      41.748  47.743  17.913 -0.60 +0.01    -0.122 S  ATOM     27  C   UNL     1      42.503  46.540  20.005 -0.32 +0.03    +0.123 A  ATOM     28  C   UNL     1      42.916  47.531  19.145 -0.46 +0.01    +0.087 A  ENDBRANCH  16  24ENDBRANCH  10  12ENDBRANCH   1  10TORSDOF 6TERENDMDL