REMARK SMILES NCCCCCNC1=CC=C(NC(=O)c2nc(C(F)(F)F)sc2-n2ccnc2)NC=C1Cl
REMARK SMILES IDX 8 1 7 3 6 5 5 6 4 7 3 8 2 9 1 10 31 13 32 14 30 15 29 16
REMARK SMILES IDX 11 18 10 19 9 20 12 22 13 23 14 25 15 26 16 27 23 28 17 29
REMARK SMILES IDX 22 30 24 31 25 32 28 33 26 34 27 35 18 36 19 37 20 38 21 39
REMARK H PARENT 7 4 1 11 1 12 29 17 12 24
REMARK Flexibility Score:  364.900
ROOT
ATOM      1  C   UNL     1       1.812   2.821   0.103  1.00  0.00     0.055 CG0
ATOM      2  G   UNL     1       0.911   2.512  -0.856  1.00  0.00     0.000 G0
ENDROOT
BRANCH   1   3
ATOM      3  N   UNL     1       3.142   3.060  -0.282  1.00  0.00    -0.384 N 
ATOM      4  H   UNL     1       3.263   2.999  -1.291  1.00  0.00     0.160 HD
BRANCH   3   5
ATOM      5  C   UNL     1       4.313   2.537   0.426  1.00  0.00     0.113 C 
BRANCH   5   6
ATOM      6  C   UNL     1       4.939   1.353  -0.321  1.00  0.00     0.021 C 
BRANCH   6   7
ATOM      7  C   UNL     1       3.998   0.155  -0.446  1.00  0.00     0.003 C 
BRANCH   7   8
ATOM      8  C   UNL     1       4.646  -1.062  -1.115  1.00  0.00     0.015 C 
BRANCH   8   9
ATOM      9  C   UNL     1       5.670  -1.770  -0.233  1.00  0.00     0.077 C 
BRANCH   9  10
ATOM     10  N   UNL     1       6.152  -2.980  -0.897  1.00  0.00    -0.330 NA
ATOM     11  H   UNL     1       6.620  -2.729  -1.768  1.00  0.00     0.118 HD
ATOM     12  H   UNL     1       6.849  -3.428  -0.309  1.00  0.00     0.118 HD
ENDBRANCH   9  10
ENDBRANCH   8   9
ENDBRANCH   7   8
ENDBRANCH   6   7
ENDBRANCH   5   6
ENDBRANCH   3   5
ENDBRANCH   1   3
BRANCH   1  13
ATOM     13  C   UNL     1       1.439   2.901   1.520  1.00  0.00     0.080 C 
ATOM     14  Cl  UNL     1       2.279   4.059   2.526  1.00  0.00    -0.080 Cl
BRANCH  13  15
ATOM     15  C   UNL     1       0.475   2.169   2.103  1.00  0.00     0.106 C 
BRANCH  15  16
ATOM     16  N   UNL     1      -0.442   1.302   1.547  1.00  0.00    -0.347 N 
ATOM     17  H   UNL     1      -1.068   0.852   2.226  1.00  0.00     0.167 HD
BRANCH  16  18
ATOM     18  C   UNL     1      -1.048   1.466   0.314  1.00  0.00     0.110 C 
BRANCH  18  19
ATOM     19  C   UNL     1      -0.472   2.099  -0.739  1.00  0.00     0.047 C 
BRANCH  19  20
ATOM     20  C   UNL     1       0.911   2.512  -0.856  1.00  0.00     0.031 CG0
ATOM     21  G   UNL     1       1.812   2.821   0.103  1.00  0.00     0.000 G0
ENDBRANCH  19  20
ENDBRANCH  18  19
BRANCH  18  22
ATOM     22  N   UNL     1      -2.310   0.960   0.086  1.00  0.00    -0.307 N 
ATOM     23  C   UNL     1      -3.030   0.120   0.918  1.00  0.00     0.278 C 
ATOM     24  H   UNL     1      -2.753   1.157  -0.808  1.00  0.00     0.171 HD
ATOM     25  O   UNL     1      -2.689  -0.213   2.045  1.00  0.00    -0.267 OA
BRANCH  23  26
ATOM     26  C   UNL     1      -4.266  -0.347   0.278  1.00  0.00     0.164 A 
ATOM     27  N   UNL     1      -4.847   0.478  -0.701  1.00  0.00    -0.224 NA
ATOM     28  C   UNL     1      -4.961  -1.528   0.488  1.00  0.00     0.134 A 
ATOM     29  C   UNL     1      -6.008  -0.006  -1.106  1.00  0.00     0.200 A 
ATOM     30  S   UNL     1      -6.431  -1.513  -0.392  1.00  0.00    -0.091 S 
BRANCH  28  31
ATOM     31  N   UNL     1      -4.641  -2.689   1.215  1.00  0.00    -0.296 N 
ATOM     32  C   UNL     1      -5.472  -3.772   1.491  1.00  0.00     0.114 A 
ATOM     33  C   UNL     1      -3.418  -3.062   1.741  1.00  0.00     0.205 A 
ATOM     34  C   UNL     1      -4.716  -4.705   2.155  1.00  0.00     0.131 A 
ATOM     35  N   UNL     1      -3.436  -4.254   2.304  1.00  0.00    -0.245 NA
ENDBRANCH  28  31
BRANCH  29  36
ATOM     36  C   UNL     1      -6.932   0.619  -2.119  1.00  0.00     0.443 C 
ATOM     37  F   UNL     1      -6.781   0.057  -3.347  1.00  0.00    -0.164 F 
ATOM     38  F   UNL     1      -6.704   1.954  -2.272  1.00  0.00    -0.164 F 
ATOM     39  F   UNL     1      -8.244   0.487  -1.784  1.00  0.00    -0.164 F 
ENDBRANCH  29  36
ENDBRANCH  23  26
ENDBRANCH  18  22
ENDBRANCH  16  18
ENDBRANCH  15  16
ENDBRANCH  13  15
ENDBRANCH   1  13
TORSDOF 11
