REMARK SMILES N=NN(C=Cc1ccc2c(N)n[nH]c2c1)[C@H](O)c1ccc(F)c(F)c1
REMARK SMILES IDX 4 1 3 2 2 3 1 4 16 6 17 7 18 9 19 10 25 11 20 12 23 13 21 14
REMARK SMILES IDX 24 15 22 16 5 17 6 18 7 19 15 20 8 21 14 22 9 23 13 24 10 25
REMARK SMILES IDX 12 26 11 28
REMARK H PARENT 1 5 17 8 13 27 11 29 11 30
ROOT
ATOM      1  C   UNL     1       0.425  -1.185  -1.248  1.00  0.00     0.113 C 
ENDROOT
BRANCH   1   2
ATOM      2  N   UNL     1       1.564  -1.987  -1.365  1.00  0.00    -0.222 N 
BRANCH   2   3
ATOM      3  N   UNL     1       2.276  -1.967  -2.536  1.00  0.00    -0.073 NA
BRANCH   3   4
ATOM      4  N   UNL     1       1.697  -2.734  -3.325  1.00  0.00    -0.186 NA
ATOM      5  H   UNL     1       0.872  -3.159  -2.885  1.00  0.00     0.215 HD
ENDBRANCH   3   4
ENDBRANCH   2   3
BRANCH   2   6
ATOM      6  C   UNL     1       2.388  -2.411  -0.215  1.00  0.00     0.266 C 
BRANCH   6   7
ATOM      7  O   UNL     1       1.628  -3.207   0.692  1.00  0.00    -0.368 OA
ATOM      8  H   UNL     1       2.253  -3.490   1.379  1.00  0.00     0.213 HD
ENDBRANCH   6   7
BRANCH   6   9
ATOM      9  C   UNL     1       3.052  -1.233   0.490  1.00  0.00     0.006 A 
ATOM     10  C   UNL     1       4.186  -0.625  -0.084  1.00  0.00     0.011 A 
ATOM     11  C   UNL     1       2.550  -0.708   1.695  1.00  0.00     0.050 A 
ATOM     12  C   UNL     1       4.804   0.469   0.532  1.00  0.00     0.043 A 
ATOM     13  C   UNL     1       3.169   0.383   2.299  1.00  0.00     0.159 A 
ATOM     14  C   UNL     1       4.290   0.966   1.723  1.00  0.00     0.158 A 
ATOM     15  F   UNL     1       2.670   0.866   3.445  1.00  0.00    -0.204 F 
ATOM     16  F   UNL     1       4.883   2.015   2.309  1.00  0.00    -0.204 F 
ENDBRANCH   6   9
ENDBRANCH   2   6
ENDBRANCH   1   2
BRANCH   1  17
ATOM     17  C   UNL     1      -0.427  -1.034  -0.224  1.00  0.00     0.028 C 
BRANCH  17  18
ATOM     18  C   UNL     1      -1.578  -0.121  -0.253  1.00  0.00    -0.022 A 
ATOM     19  C   UNL     1      -2.450  -0.073  -1.349  1.00  0.00     0.009 A 
ATOM     20  C   UNL     1      -1.818   0.680   0.876  1.00  0.00     0.036 A 
ATOM     21  C   UNL     1      -3.561   0.784  -1.358  1.00  0.00     0.015 A 
ATOM     22  C   UNL     1      -2.930   1.530   0.842  1.00  0.00     0.068 A 
ATOM     23  C   UNL     1      -3.799   1.603  -0.240  1.00  0.00     0.044 A 
ATOM     24  N   UNL     1      -3.424   2.422   1.755  1.00  0.00    -0.276 N 
ATOM     25  C   UNL     1      -4.766   2.571   0.144  1.00  0.00     0.153 A 
ATOM     26  N   UNL     1      -4.529   3.071   1.353  1.00  0.00    -0.157 NA
ATOM     27  H   UNL     1      -3.050   2.638   2.672  1.00  0.00     0.190 HD
BRANCH  25  28
ATOM     28  N   UNL     1      -5.798   2.964  -0.618  1.00  0.00    -0.382 N 
ATOM     29  H   UNL     1      -6.254   3.819  -0.317  1.00  0.00     0.158 HD
ATOM     30  H   UNL     1      -5.729   2.884  -1.625  1.00  0.00     0.158 HD
ENDBRANCH  25  28
ENDBRANCH  17  18
ENDBRANCH   1  17
TORSDOF 9
