REMARK SMILES N[C@H]1C[C@@H]1S(=O)(=O)Nc1cc(-c2ccncc2)cc(-c2nccs2)c1
REMARK SMILES IDX 5 1 6 2 7 3 4 4 2 5 3 6 1 7 8 10 9 12 10 13 25 14 11 15
REMARK SMILES IDX 19 16 18 17 12 18 13 19 17 20 14 21 16 22 15 23 20 24 21 25
REMARK SMILES IDX 24 26 22 27 23 28
REMARK H PARENT 1 8 1 9 8 11
ROOT
ATOM      1  S   UNL     1       3.079   0.894   1.408  1.00  0.00     0.237 S 
ATOM      2  O   UNL     1       4.194   0.439   2.212  1.00  0.00    -0.206 OA
ATOM      3  O   UNL     1       2.943   2.284   1.031  1.00  0.00    -0.206 OA
ENDROOT
BRANCH   1   4
ATOM      4  C   UNL     1       3.090  -0.049  -0.143  1.00  0.00     0.148 C 
ATOM      5  C   UNL     1       3.617  -1.452  -0.007  1.00  0.00     0.072 C 
ATOM      6  C   UNL     1       4.455  -0.388  -0.668  1.00  0.00     0.043 C 
BRANCH   5   7
ATOM      7  N   UNL     1       3.049  -2.516  -0.847  1.00  0.00    -0.326 NA
ATOM      8  H   UNL     1       2.626  -3.247  -0.273  1.00  0.00     0.119 HD
ATOM      9  H   UNL     1       3.793  -2.988  -1.366  1.00  0.00     0.119 HD
ENDBRANCH   5   7
ENDBRANCH   1   4
BRANCH   1  10
ATOM     10  N   UNL     1       1.686   0.418   2.257  1.00  0.00    -0.283 N 
ATOM     11  H   UNL     1       1.854  -0.464   2.741  1.00  0.00     0.180 HD
BRANCH  10  12
ATOM     12  C   UNL     1       0.450   0.518   1.553  1.00  0.00     0.050 A 
ATOM     13  C   UNL     1      -0.099  -0.625   0.974  1.00  0.00     0.035 A 
ATOM     14  C   UNL     1      -0.151   1.764   1.376  1.00  0.00     0.038 A 
ATOM     15  C   UNL     1      -1.271  -0.543   0.211  1.00  0.00    -0.016 A 
ATOM     16  C   UNL     1      -1.331   1.886   0.630  1.00  0.00     0.013 A 
ATOM     17  C   UNL     1      -1.876   0.718   0.061  1.00  0.00     0.020 A 
BRANCH  15  18
ATOM     18  C   UNL     1      -1.841  -1.740  -0.426  1.00  0.00    -0.015 A 
ATOM     19  C   UNL     1      -3.172  -2.113  -0.208  1.00  0.00     0.029 A 
ATOM     20  C   UNL     1      -1.068  -2.543  -1.273  1.00  0.00     0.029 A 
ATOM     21  C   UNL     1      -3.660  -3.254  -0.827  1.00  0.00     0.111 A 
ATOM     22  C   UNL     1      -1.646  -3.663  -1.850  1.00  0.00     0.111 A 
ATOM     23  N   UNL     1      -2.924  -4.040  -1.641  1.00  0.00    -0.265 NA
ENDBRANCH  15  18
BRANCH  16  24
ATOM     24  C   UNL     1      -2.029   3.171   0.414  1.00  0.00     0.123 A 
ATOM     25  N   UNL     1      -3.242   3.265  -0.105  1.00  0.00    -0.245 NA
ATOM     26  S   UNL     1      -1.306   4.690   0.802  1.00  0.00    -0.122 S 
ATOM     27  C   UNL     1      -3.627   4.587  -0.197  1.00  0.00     0.123 A 
ATOM     28  C   UNL     1      -2.705   5.505   0.250  1.00  0.00     0.087 A 
ENDBRANCH  16  24
ENDBRANCH  10  12
ENDBRANCH   1  10
TORSDOF 6
