MODEL        10USER    Run = 10USERUSER    Estimated Free Energy of Binding    =  -5.49 kcal/mol  [=(1)+(2)+(3)-(4)]USERUSER    (1) Final Intermolecular Energy     = -10.57 kcal/molUSER        vdW + Hbond + desolv Energy     = -11.10 kcal/molUSER        Electrostatic Energy            =  -0.08 kcal/molUSER        Moving Ligand-Fixed Receptor    = -11.18 kcal/molUSER        Moving Ligand-Moving Receptor   =  +0.62 kcal/molUSER    (2) Final Total Internal Energy     =  -2.18 kcal/molUSER    (3) Torsional Free Energy           =  +5.07 kcal/molUSER    (4) Unbound System's Energy         =  -2.18 kcal/molUSERUSERREMARK SMILES NCCCCCNC1=CC=C(NC(=O)c2nc(C(F)(F)F)sc2-n2ccnc2)NC=C1ClREMARK SMILES IDX 8 1 7 3 6 5 5 6 4 7 3 8 2 9 1 10 31 13 32 14 30 15 29 16REMARK SMILES IDX 11 18 10 19 9 20 12 22 13 23 14 25 15 26 16 27 23 28 17 29REMARK SMILES IDX 22 30 24 31 25 32 28 33 26 34 27 35 18 36 19 37 20 38 21 39REMARK H PARENT 7 4 1 11 1 12 29 17 12 24REMARK Flexibility Score:  364.900USER                              x       y       z     vdW  Elec       q    TypeUSER                           _______ _______ _______ _____ _____    ______ ____ROOTATOM      1  C   UNL     1      38.936  44.425  22.804 -0.30 +0.00    +0.055 CG0ATOM      2  G   UNL     1      38.012  44.600  21.833 +0.00 +0.00    +0.000 G0 ENDROOTBRANCH   1   3ATOM      3  N   UNL     1      38.519  43.887  24.033 -0.05 -0.02    -0.384 N  ATOM      4  H   UNL     1      39.086  44.226  24.808 +0.07 +0.00    +0.160 HD BRANCH   3   5ATOM      5  C   UNL     1      38.127  42.490  24.233 -0.27 +0.01    +0.113 C  BRANCH   5   6ATOM      6  C   UNL     1      37.644  42.241  25.667 -0.38 -0.00    +0.021 C  BRANCH   6   7ATOM      7  C   UNL     1      36.123  42.147  25.782 -0.49 -0.00    +0.003 C  BRANCH   7   8ATOM      8  C   UNL     1      35.607  42.338  27.212 -0.61 -0.00    +0.015 C  BRANCH   8   9ATOM      9  C   UNL     1      34.617  43.490  27.355 -0.57 -0.01    +0.077 C  BRANCH   9  10ATOM     10  N   UNL     1      34.662  44.025  28.715 -0.39 +0.09    -0.330 NA ATOM     11  H   UNL     1      35.441  43.605  29.222 -0.54 -0.07    +0.118 HD ATOM     12  H   UNL     1      34.844  45.024  28.675 -0.00 -0.03    +0.118 HD ENDBRANCH   9  10ENDBRANCH   8   9ENDBRANCH   7   8ENDBRANCH   6   7ENDBRANCH   5   6ENDBRANCH   3   5ENDBRANCH   1   3BRANCH   1  13ATOM     13  C   UNL     1      40.344  44.788  22.608 -0.23 +0.00    +0.080 C  ATOM     14  Cl  UNL     1      41.341  45.005  24.029 -0.16 -0.00    -0.080 Cl BRANCH  13  15ATOM     15  C   UNL     1      40.939  44.941  21.413 -0.29 +0.01    +0.106 C  BRANCH  15  16ATOM     16  N   UNL     1      40.452  45.474  20.239 -0.17 -0.01    -0.347 N  ATOM     17  H   UNL     1      41.162  45.620  19.511 +0.10 +0.01    +0.167 HD BRANCH  16  18ATOM     18  C   UNL     1      39.205  45.210  19.700 -0.37 -0.00    +0.110 C  BRANCH  18  19ATOM     19  C   UNL     1      38.183  44.643  20.389 -0.38 -0.00    +0.047 C  BRANCH  19  20ATOM     20  C   UNL     1      38.019  44.603  21.827 -0.40 +0.00    +0.031 CG0ATOM     21  G   UNL     1      38.936  44.422  22.804 +0.00 +0.00    +0.000 G0 ENDBRANCH  19  20ENDBRANCH  18  19BRANCH  18  22ATOM     22  N   UNL     1      38.930  45.537  18.389 -0.22 +0.04    -0.307 N  ATOM     23  C   UNL     1      39.784  46.154  17.491 -0.32 -0.04    +0.278 C  ATOM     24  H   UNL     1      37.988  45.378  18.041 +0.10 -0.04    +0.171 HD ATOM     25  O   UNL     1      40.963  46.404  17.702 -0.34 +0.02    -0.267 OA BRANCH  23  26ATOM     26  C   UNL     1      39.098  46.495  16.238 -0.32 -0.04    +0.164 A  ATOM     27  N   UNL     1      37.925  45.787  15.922 -0.21 +0.08    -0.224 NA ATOM     28  C   UNL     1      39.435  47.455  15.297 -0.40 -0.04    +0.134 A  ATOM     29  C   UNL     1      37.481  46.111  14.721 -0.25 -0.08    +0.200 A  ATOM     30  S   UNL     1      38.401  47.335  13.936 -0.61 +0.03    -0.091 S  BRANCH  28  31ATOM     31  N   UNL     1      40.392  48.486  15.308 -0.33 +0.07    -0.296 N  ATOM     32  C   UNL     1      40.879  49.201  14.217 -0.41 -0.03    +0.114 A  ATOM     33  C   UNL     1      40.997  49.082  16.398 -0.34 -0.03    +0.205 A  ATOM     34  C   UNL     1      41.731  50.159  14.707 -0.56 -0.03    +0.131 A  ATOM     35  N   UNL     1      41.797  50.078  16.068 -0.89 -0.01    -0.245 NA ENDBRANCH  28  31BRANCH  29  36ATOM     36  C   UNL     1      36.271  45.537  14.031 -0.15 -0.21    +0.443 C  ATOM     37  F   UNL     1      35.420  46.513  13.619 -0.18 +0.12    -0.164 F  ATOM     38  F   UNL     1      35.552  44.715  14.846 -0.09 +0.08    -0.164 F  ATOM     39  F   UNL     1      36.593  44.805  12.930 -0.17 +0.06    -0.164 F  ENDBRANCH  29  36ENDBRANCH  23  26ENDBRANCH  18  22ENDBRANCH  16  18ENDBRANCH  15  16ENDBRANCH  13  15ENDBRANCH   1  13TORSDOF 11TERENDMDL