
     RDKit          3D

 48 50  0  0  0  0  0  0  0  0999 V2000
   -4.3497   -2.2331    0.6420 C   0  0  0  0  0  0  0  0  0  0  0  0
   -3.3469   -1.9486   -0.4610 C   0  0  0  0  0  0  0  0  0  0  0  0
   -3.0866   -0.4620   -0.7493 C   0  0  0  0  0  0  0  0  0  0  0  0
   -2.4184    0.4113    0.3576 C   0  0  0  0  0  0  0  0  0  0  0  0
   -1.2372   -0.3009    1.0573 C   0  0  0  0  0  0  0  0  0  0  0  0
   -0.0778   -0.6623    0.1277 C   0  0  0  0  0  0  0  0  0  0  0  0
    1.2130   -1.5266    1.0199 S   0  0  0  0  0  0  0  0  0  0  0  0
    1.8184   -0.6240    1.9732 O   0  0  0  0  0  0  0  0  0  0  0  0
    0.6957   -2.8198    1.4128 O   0  0  0  0  0  0  0  0  0  0  0  0
    2.3030   -1.8473   -0.2480 N   0  0  0  0  0  0  0  0  0  0  0  0
    3.5360   -1.1079   -0.2096 C   0  0  0  0  0  0  0  0  0  0  0  0
    3.5501    0.2017   -0.6985 C   0  0  0  0  0  0  0  0  0  0  0  0
    4.7288    0.9090   -0.5905 C   0  0  0  0  0  0  0  0  0  0  0  0
    5.8562    0.3657   -0.0178 C   0  0  0  0  0  0  0  0  0  0  0  0
    5.8751   -0.9186    0.4814 C   0  0  0  0  0  0  0  0  0  0  0  0
    4.6952   -1.6604    0.3873 C   0  0  0  0  0  0  0  0  0  0  0  0
    4.6888   -3.2795    0.9924 Cl  0  0  0  0  0  0  0  0  0  0  0  0
    6.9034    1.2330   -0.0137 O   0  0  0  0  0  0  0  0  0  0  0  0
    6.3038    2.3917   -0.6308 C   0  0  0  0  0  0  0  0  0  0  0  0
    4.9282    2.1853   -1.0162 O   0  0  0  0  0  0  0  0  0  0  0  0
   -3.4377    0.9291    1.3963 C   0  0  0  0  0  0  0  0  0  0  0  0
   -4.1672    2.0900    0.7224 C   0  0  0  0  0  0  0  0  0  0  0  0
   -3.2278    2.6050   -0.3632 C   0  0  0  0  0  0  0  0  0  0  0  0
   -1.9632    1.7595   -0.2531 C   0  0  0  0  0  0  0  0  0  0  0  0
   -5.2699   -1.6582    0.5008 H   0  0  0  0  0  0  0  0  0  0  0  0
   -3.9345   -2.0069    1.6275 H   0  0  0  0  0  0  0  0  0  0  0  0
   -4.6140   -3.2958    0.6409 H   0  0  0  0  0  0  0  0  0  0  0  0
   -3.7321   -2.3979   -1.3855 H   0  0  0  0  0  0  0  0  0  0  0  0
   -2.4112   -2.4739   -0.2448 H   0  0  0  0  0  0  0  0  0  0  0  0
   -2.4450   -0.4308   -1.6407 H   0  0  0  0  0  0  0  0  0  0  0  0
   -4.0351   -0.0100   -1.0651 H   0  0  0  0  0  0  0  0  0  0  0  0
   -0.8449    0.3446    1.8550 H   0  0  0  0  0  0  0  0  0  0  0  0
   -1.5967   -1.1994    1.5722 H   0  0  0  0  0  0  0  0  0  0  0  0
    0.3745    0.2382   -0.2962 H   0  0  0  0  0  0  0  0  0  0  0  0
   -0.3987   -1.3226   -0.6820 H   0  0  0  0  0  0  0  0  0  0  0  0
    2.4469   -2.8631   -0.2655 H   0  0  0  0  0  0  0  0  0  0  0  0
    2.6765    0.6546   -1.1498 H   0  0  0  0  0  0  0  0  0  0  0  0
    6.7725   -1.3270    0.9315 H   0  0  0  0  0  0  0  0  0  0  0  0
    6.8827    2.6515   -1.5244 H   0  0  0  0  0  0  0  0  0  0  0  0
    6.3493    3.2291    0.0750 H   0  0  0  0  0  0  0  0  0  0  0  0
   -4.1422    0.1765    1.7516 H   0  0  0  0  0  0  0  0  0  0  0  0
   -2.9160    1.3146    2.2824 H   0  0  0  0  0  0  0  0  0  0  0  0
   -5.1083    1.7497    0.2757 H   0  0  0  0  0  0  0  0  0  0  0  0
   -4.4157    2.8723    1.4471 H   0  0  0  0  0  0  0  0  0  0  0  0
   -3.0074    3.6702   -0.2403 H   0  0  0  0  0  0  0  0  0  0  0  0
   -3.6897    2.4790   -1.3491 H   0  0  0  0  0  0  0  0  0  0  0  0
   -1.2557    2.2648    0.4176 H   0  0  0  0  0  0  0  0  0  0  0  0
   -1.4686    1.6503   -1.2238 H   0  0  0  0  0  0  0  0  0  0  0  0
  1  2  1  0
  2  3  1  0
  3  4  1  0
  4  5  1  0
  5  6  1  0
  6  7  1  0
  7  8  2  0
  7  9  2  0
  7 10  1  0
 10 11  1  0
 11 12  2  0
 12 13  1  0
 13 14  2  0
 14 15  1  0
 15 16  2  0
 16 17  1  0
 14 18  1  0
 18 19  1  0
 19 20  1  0
  4 21  1  0
 21 22  1  0
 22 23  1  0
 23 24  1  0
 24  4  1  0
 16 11  1  0
 20 13  1  0
  1 25  1  0
  1 26  1  0
  1 27  1  0
  2 28  1  0
  2 29  1  0
  3 30  1  0
  3 31  1  0
  5 32  1  0
  5 33  1  0
  6 34  1  0
  6 35  1  0
 10 36  1  0
 12 37  1  0
 15 38  1  0
 19 39  1  0
 19 40  1  0
 21 41  1  0
 21 42  1  0
 22 43  1  0
 22 44  1  0
 23 45  1  0
 23 46  1  0
 24 47  1  0
 24 48  1  0
M  END
$$$$
