
     RDKit          3D

 59 62  0  0  0  0  0  0  0  0999 V2000
   -1.4045   -1.9680   -1.7578 C   0  0  0  0  0  0  0  0  0  0  0  0
   -0.2272   -2.0659   -0.7847 C   0  0  0  0  0  0  0  0  0  0  0  0
    1.1080   -2.5255   -1.4242 C   0  0  2  0  0  0  0  0  0  0  0  0
    1.7486   -1.5515   -2.4621 C   0  0  1  0  0  0  0  0  0  0  0  0
    1.2367   -1.6491   -3.8983 C   0  0  0  0  0  0  0  0  0  0  0  0
    1.6674   -0.1615   -2.0152 N   0  0  0  0  0  0  0  0  0  0  0  0
    2.4778    0.3343   -1.0154 C   0  0  0  0  0  0  0  0  0  0  0  0
    3.3763   -0.3168   -0.4951 O   0  0  0  0  0  0  0  0  0  0  0  0
    2.2242    1.7392   -0.5848 C   0  0  0  0  0  0  0  0  0  0  0  0
    0.9678    2.3510   -0.7176 C   0  0  0  0  0  0  0  0  0  0  0  0
    0.7798    3.6604   -0.2700 C   0  0  0  0  0  0  0  0  0  0  0  0
    1.8388    4.3494    0.3122 C   0  0  0  0  0  0  0  0  0  0  0  0
    1.6067    5.6172    0.7443 O   0  0  0  0  0  0  0  0  0  0  0  0
    3.0875    3.7558    0.4564 C   0  0  0  0  0  0  0  0  0  0  0  0
    3.2774    2.4475    0.0096 C   0  0  0  0  0  0  0  0  0  0  0  0
    1.0292   -3.9847   -1.9129 C   0  0  0  0  0  0  0  0  0  0  0  0
    0.1222   -4.8660   -1.0495 C   0  0  0  0  0  0  0  0  0  0  0  0
   -0.0864   -4.3176    0.3522 C   0  0  0  0  0  0  0  0  0  0  0  0
   -0.5856   -2.9440    0.3583 N   0  0  0  0  0  0  0  0  0  0  0  0
   -1.2202   -2.5112    1.5266 C   0  0  0  0  0  0  0  0  0  0  0  0
   -1.5461   -3.2503    2.4515 O   0  0  0  0  0  0  0  0  0  0  0  0
   -1.5459   -1.0878    1.6720 C   0  0  0  0  0  0  0  0  0  0  0  0
   -2.8494   -0.6479    1.4514 C   0  0  0  0  0  0  0  0  0  0  0  0
   -3.1426    0.7144    1.5720 C   0  0  0  0  0  0  0  0  0  0  0  0
   -2.1466    1.6417    1.9301 C   0  0  0  0  0  0  0  0  0  0  0  0
   -2.4653    3.0716    1.9998 C   0  0  0  0  0  0  0  0  0  0  0  0
   -3.3319    3.8238    1.2252 C   0  0  0  0  0  0  0  0  0  0  0  0
   -3.4207    5.1671    1.5301 N   0  0  0  0  0  0  0  0  0  0  0  0
   -2.6254    5.4284    2.5405 C   0  0  0  0  0  0  0  0  0  0  0  0
   -1.7471    4.1052    3.1733 S   0  0  0  0  0  0  0  0  0  0  0  0
   -0.8509    1.1667    2.1829 C   0  0  0  0  0  0  0  0  0  0  0  0
   -0.5598   -0.1892    2.0601 C   0  0  0  0  0  0  0  0  0  0  0  0
    0.6953   -0.6012    2.2826 F   0  0  0  0  0  0  0  0  0  0  0  0
   -2.3555   -1.8505   -1.2263 H   0  0  0  0  0  0  0  0  0  0  0  0
   -1.4977   -2.8592   -2.3863 H   0  0  0  0  0  0  0  0  0  0  0  0
   -1.2962   -1.0989   -2.4135 H   0  0  0  0  0  0  0  0  0  0  0  0
   -0.0750   -1.0629   -0.3823 H   0  0  0  0  0  0  0  0  0  0  0  0
    1.8205   -2.5408   -0.5827 H   0  0  0  0  0  0  0  0  0  0  0  0
    2.8175   -1.8017   -2.5043 H   0  0  0  0  0  0  0  0  0  0  0  0
    0.1650   -1.4549   -3.9727 H   0  0  0  0  0  0  0  0  0  0  0  0
    1.4474   -2.6293   -4.3369 H   0  0  0  0  0  0  0  0  0  0  0  0
    1.7398   -0.9034   -4.5294 H   0  0  0  0  0  0  0  0  0  0  0  0
    1.0425    0.4637   -2.5009 H   0  0  0  0  0  0  0  0  0  0  0  0
    0.1162    1.8193   -1.1289 H   0  0  0  0  0  0  0  0  0  0  0  0
   -0.1920    4.1392   -0.3631 H   0  0  0  0  0  0  0  0  0  0  0  0
    2.4343    5.9818    1.1048 H   0  0  0  0  0  0  0  0  0  0  0  0
    3.9174    4.2846    0.9154 H   0  0  0  0  0  0  0  0  0  0  0  0
    4.2490    1.9765    0.1277 H   0  0  0  0  0  0  0  0  0  0  0  0
    2.0433   -4.4050   -1.9232 H   0  0  0  0  0  0  0  0  0  0  0  0
    0.6625   -4.0517   -2.9418 H   0  0  0  0  0  0  0  0  0  0  0  0
   -0.8545   -4.9583   -1.5403 H   0  0  0  0  0  0  0  0  0  0  0  0
    0.5334   -5.8802   -1.0003 H   0  0  0  0  0  0  0  0  0  0  0  0
   -0.7797   -4.9647    0.9013 H   0  0  0  0  0  0  0  0  0  0  0  0
    0.8595   -4.3194    0.9058 H   0  0  0  0  0  0  0  0  0  0  0  0
   -3.6282   -1.3577    1.1865 H   0  0  0  0  0  0  0  0  0  0  0  0
   -4.1669    1.0384    1.3953 H   0  0  0  0  0  0  0  0  0  0  0  0
   -3.9259    3.4426    0.4046 H   0  0  0  0  0  0  0  0  0  0  0  0
   -2.5257    6.4214    2.9567 H   0  0  0  0  0  0  0  0  0  0  0  0
   -0.0389    1.8357    2.4547 H   0  0  0  0  0  0  0  0  0  0  0  0
  1  2  1  0
  2  3  1  0
  3  4  1  0
  4  5  1  0
  4  6  1  0
  6  7  1  0
  7  8  2  0
  7  9  1  0
  9 10  2  0
 10 11  1  0
 11 12  2  0
 12 13  1  0
 12 14  1  0
 14 15  2  0
  3 16  1  0
 16 17  1  0
 17 18  1  0
 18 19  1  0
 19 20  1  0
 20 21  2  0
 20 22  1  0
 22 23  2  0
 23 24  1  0
 24 25  2  0
 25 26  1  0
 26 27  2  0
 27 28  1  0
 28 29  2  0
 29 30  1  0
 25 31  1  0
 31 32  2  0
 32 33  1  0
 19  2  1  0
 32 22  1  0
 15  9  1  0
 30 26  1  0
  1 34  1  0
  1 35  1  0
  1 36  1  0
  2 37  1  0
  3 38  1  1
  4 39  1  6
  5 40  1  0
  5 41  1  0
  5 42  1  0
  6 43  1  0
 10 44  1  0
 11 45  1  0
 13 46  1  0
 14 47  1  0
 15 48  1  0
 16 49  1  0
 16 50  1  0
 17 51  1  0
 17 52  1  0
 18 53  1  0
 18 54  1  0
 23 55  1  0
 24 56  1  0
 27 57  1  0
 29 58  1  0
 31 59  1  0
M  END
$$$$
