MODEL        2USER    Run = 2USERUSER    Estimated Free Energy of Binding    =  -5.88 kcal/mol  [=(1)+(2)+(3)-(4)]USERUSER    (1) Final Intermolecular Energy     = -10.36 kcal/molUSER        vdW + Hbond + desolv Energy     = -10.75 kcal/molUSER        Electrostatic Energy            =  -0.05 kcal/molUSER        Moving Ligand-Fixed Receptor    = -10.80 kcal/molUSER        Moving Ligand-Moving Receptor   =  +0.44 kcal/molUSER    (2) Final Total Internal Energy     =  -2.86 kcal/molUSER    (3) Torsional Free Energy           =  +4.47 kcal/molUSER    (4) Unbound System's Energy         =  -2.86 kcal/molUSERUSERREMARK SMILES CN1C=NC(c2ccc(F)cc2)=NC=C1c1ccccc1CC(=O)NCCCCN1CCOCC1REMARK SMILES IDX 16 1 17 2 18 3 19 4 20 5 21 6 15 7 2 9 1 10 3 11 4 12 5 13REMARK SMILES IDX 6 14 7 15 12 16 8 17 11 18 9 19 10 20 13 21 14 22 22 24REMARK SMILES IDX 23 25 25 26 24 27 26 29 27 30 28 31 29 32 30 33 31 34 35 35REMARK SMILES IDX 32 36 34 37 33 38REMARK H PARENT 25 28REMARK Flexibility Score:  248.900USER                              x       y       z     vdW  Elec       q    TypeUSER                           _______ _______ _______ _____ _____    ______ ____ROOTATOM      1  C   UNL     1      37.952  44.120  21.181 -0.37 +0.00    +0.003 A  ATOM      2  C   UNL     1      37.304  42.881  21.324 -0.39 +0.00    +0.010 A  ATOM      3  C   UNL     1      36.958  42.402  22.587 -0.47 +0.00    +0.001 A  ATOM      4  C   UNL     1      37.249  43.155  23.719 -0.37 +0.00    +0.000 A  ATOM      5  C   UNL     1      37.884  44.392  23.593 -0.32 +0.00    +0.005 A  ATOM      6  C   UNL     1      38.241  44.894  22.329 -0.33 -0.00    -0.029 A  ENDROOTBRANCH   1   7ATOM      7  C   UNL     1      38.308  44.576  19.811 -0.38 -0.00    +0.068 CG0ATOM      8  G   UNL     1      37.259  44.715  18.986 +0.00 +0.00    +0.000 G0 BRANCH   7   9ATOM      9  N   UNL     1      39.649  44.822  19.518 -0.18 +0.01    -0.334 N  ATOM     10  C   UNL     1      40.732  44.219  20.315 -0.26 +0.01    +0.151 C  BRANCH   9  11ATOM     11  C   UNL     1      40.031  45.484  18.370 -0.37 -0.01    +0.202 C  BRANCH  11  12ATOM     12  N   UNL     1      39.448  45.844  17.286 -0.26 +0.04    -0.219 NA BRANCH  12  13ATOM     13  C   UNL     1      38.106  45.790  17.049 -0.33 -0.05    +0.160 C  BRANCH  13  14ATOM     14  C   UNL     1      37.690  46.522  15.793 -0.38 -0.01    +0.019 A  ATOM     15  C   UNL     1      36.830  45.898  14.871 -0.38 -0.01    +0.015 A  ATOM     16  C   UNL     1      38.141  47.826  15.529 -0.47 -0.01    +0.015 A  ATOM     17  C   UNL     1      36.424  46.570  13.715 -0.47 -0.02    +0.040 A  ATOM     18  C   UNL     1      37.735  48.495  14.369 -0.51 -0.02    +0.040 A  ATOM     19  C   UNL     1      36.878  47.862  13.476 -0.49 -0.06    +0.123 A  ATOM     20  F   UNL     1      36.486  48.506  12.370 -0.23 +0.07    -0.207 F  ENDBRANCH  13  14BRANCH  13  21ATOM     21  N   UNL     1      37.170  45.214  17.727 -0.21 +0.07    -0.234 NA BRANCH  21  22ATOM     22  C   UNL     1      37.254  44.714  18.988 -0.31 -0.02    +0.140 CG0ATOM     23  G   UNL     1      38.304  44.577  19.812 +0.00 +0.00    +0.000 G0 ENDBRANCH  21  22ENDBRANCH  13  21ENDBRANCH  12  13ENDBRANCH  11  12ENDBRANCH   9  11ENDBRANCH   7   9ENDBRANCH   1   7BRANCH   6  24ATOM     24  C   UNL     1      38.924  46.244  22.246 -0.12 +0.01    +0.136 C  BRANCH  24  25ATOM     25  C   UNL     1      40.295  46.273  22.904 -0.18 +0.02    +0.224 C  ATOM     26  N   UNL     1      40.256  46.219  24.287 -0.03 -0.02    -0.356 N  ATOM     27  O   UNL     1      41.338  46.321  22.258 -0.16 -0.03    -0.275 OA ATOM     28  H   UNL     1      39.420  46.613  24.708 +0.08 +0.01    +0.163 HD BRANCH  26  29ATOM     29  C   UNL     1      41.465  46.336  25.080 -0.09 +0.01    +0.116 C  BRANCH  29  30ATOM     30  C   UNL     1      42.216  47.646  24.828 -0.22 +0.00    +0.023 C  BRANCH  30  31ATOM     31  C   UNL     1      41.348  48.884  25.080 -0.37 +0.00    +0.017 C  BRANCH  31  32ATOM     32  C   UNL     1      40.777  48.914  26.507 -0.27 +0.01    +0.085 C  BRANCH  32  33ATOM     33  N   UNL     1      39.309  48.825  26.510 -0.12 -0.03    -0.299 NA ATOM     34  C   UNL     1      38.793  47.690  27.309 -0.20 -0.01    +0.113 C  ATOM     35  C   UNL     1      38.788  48.760  25.126 -0.30 +0.01    +0.113 C  ATOM     36  C   UNL     1      38.299  46.504  26.463 -0.23 -0.00    +0.175 C  ATOM     37  C   UNL     1      37.352  48.213  25.083 -0.33 +0.02    +0.175 C  ATOM     38  O   UNL     1      37.252  46.860  25.552 -0.71 -0.03    -0.379 OA ENDBRANCH  32  33ENDBRANCH  31  32ENDBRANCH  30  31ENDBRANCH  29  30ENDBRANCH  26  29ENDBRANCH  24  25ENDBRANCH   6  24TORSDOF 9TERENDMDL