REMARK SMILES CN1C=NC(c2ccc(F)cc2)=NC=C1c1ccccc1CC(=O)NCCCCN1CCOCC1
REMARK SMILES IDX 16 1 17 2 18 3 19 4 20 5 21 6 15 7 2 9 1 10 3 11 4 12 5 13
REMARK SMILES IDX 6 14 7 15 12 16 8 17 11 18 9 19 10 20 13 21 14 22 22 24
REMARK SMILES IDX 23 25 25 26 24 27 26 29 27 30 28 31 29 32 30 33 31 34 35 35
REMARK SMILES IDX 32 36 34 37 33 38
REMARK H PARENT 25 28
REMARK Flexibility Score:  248.900
ROOT
ATOM      1  C   UNL     1       2.946  -3.280   1.351  1.00  0.00     0.003 A 
ATOM      2  C   UNL     1       3.955  -3.741   2.214  1.00  0.00     0.010 A 
ATOM      3  C   UNL     1       3.949  -5.057   2.675  1.00  0.00     0.001 A 
ATOM      4  C   UNL     1       2.940  -5.928   2.276  1.00  0.00     0.000 A 
ATOM      5  C   UNL     1       1.937  -5.488   1.412  1.00  0.00     0.005 A 
ATOM      6  C   UNL     1       1.924  -4.165   0.935  1.00  0.00    -0.029 A 
ENDROOT
BRANCH   1   7
ATOM      7  C   UNL     1       2.996  -1.864   0.901  1.00  0.00     0.068 CG0
ATOM      8  G   UNL     1       3.523  -1.692  -0.321  1.00  0.00     0.000 G0
BRANCH   7   9
ATOM      9  N   UNL     1       2.498  -0.876   1.750  1.00  0.00    -0.334 N 
ATOM     10  C   UNL     1       1.942  -1.211   3.074  1.00  0.00     0.151 C 
BRANCH   9  11
ATOM     11  C   UNL     1       2.666   0.466   1.480  1.00  0.00     0.202 C 
BRANCH  11  12
ATOM     12  N   UNL     1       3.064   1.152   0.473  1.00  0.00    -0.219 NA
BRANCH  12  13
ATOM     13  C   UNL     1       3.436   0.645  -0.738  1.00  0.00     0.160 C 
BRANCH  13  14
ATOM     14  C   UNL     1       3.638   1.707  -1.795  1.00  0.00     0.019 A 
ATOM     15  C   UNL     1       3.988   1.334  -3.105  1.00  0.00     0.015 A 
ATOM     16  C   UNL     1       3.474   3.070  -1.496  1.00  0.00     0.015 A 
ATOM     17  C   UNL     1       4.160   2.305  -4.096  1.00  0.00     0.040 A 
ATOM     18  C   UNL     1       3.649   4.040  -2.489  1.00  0.00     0.040 A 
ATOM     19  C   UNL     1       3.987   3.647  -3.779  1.00  0.00     0.123 A 
ATOM     20  F   UNL     1       4.149   4.576  -4.729  1.00  0.00    -0.207 F 
ENDBRANCH  13  14
BRANCH  13  21
ATOM     21  N   UNL     1       3.638  -0.580  -1.094  1.00  0.00    -0.234 NA
BRANCH  21  22
ATOM     22  C   UNL     1       3.523  -1.692  -0.321  1.00  0.00     0.140 CG0
ATOM     23  G   UNL     1       2.996  -1.864   0.901  1.00  0.00     0.000 G0
ENDBRANCH  21  22
ENDBRANCH  13  21
ENDBRANCH  12  13
ENDBRANCH  11  12
ENDBRANCH   9  11
ENDBRANCH   7   9
ENDBRANCH   1   7
BRANCH   6  24
ATOM     24  C   UNL     1       0.815  -3.738  -0.005  1.00  0.00     0.136 C 
BRANCH  24  25
ATOM     25  C   UNL     1      -0.173  -2.767   0.623  1.00  0.00     0.224 C 
ATOM     26  N   UNL     1      -0.298  -1.571  -0.062  1.00  0.00    -0.356 N 
ATOM     27  O   UNL     1      -0.811  -3.037   1.637  1.00  0.00    -0.275 OA
ATOM     28  H   UNL     1       0.530  -1.281  -0.573  1.00  0.00     0.163 HD
BRANCH  26  29
ATOM     29  C   UNL     1      -1.122  -0.492   0.451  1.00  0.00     0.116 C 
BRANCH  29  30
ATOM     30  C   UNL     1      -2.617  -0.815   0.409  1.00  0.00     0.023 C 
BRANCH  30  31
ATOM     31  C   UNL     1      -3.495   0.401   0.726  1.00  0.00     0.017 C 
BRANCH  31  32
ATOM     32  C   UNL     1      -3.655   1.335  -0.484  1.00  0.00     0.085 C 
BRANCH  32  33
ATOM     33  N   UNL     1      -4.452   2.526  -0.154  1.00  0.00    -0.299 NA
ATOM     34  C   UNL     1      -5.900   2.244  -0.025  1.00  0.00     0.113 C 
ATOM     35  C   UNL     1      -4.222   3.598  -1.148  1.00  0.00     0.113 C 
ATOM     36  C   UNL     1      -6.737   2.712  -1.228  1.00  0.00     0.175 C 
ATOM     37  C   UNL     1      -5.341   4.652  -1.119  1.00  0.00     0.175 C 
ATOM     38  O   UNL     1      -6.624   4.118  -1.479  1.00  0.00    -0.379 OA
ENDBRANCH  32  33
ENDBRANCH  31  32
ENDBRANCH  30  31
ENDBRANCH  29  30
ENDBRANCH  26  29
ENDBRANCH  24  25
ENDBRANCH   6  24
TORSDOF 9
