REMARK SMILES COc1ccc(O)c(C(=O)c2ccc(/C=C/[C@@H]3CCCN(C)C[C@H]3NC(=O)c3cncc(F)c3)cc2)c1F
REMARK SMILES IDX 16 1 15 2 14 3 11 4 12 5 36 6 13 7 35 8 9 9 10 10 8 11 3 12
REMARK SMILES IDX 4 13 37 14 5 15 6 16 38 17 2 18 1 19 7 20 17 22 18 23 24 25
REMARK SMILES IDX 23 26 21 27 22 28 20 29 19 30 25 32 26 33 27 35 28 36 29 37
REMARK SMILES IDX 34 38 30 39 32 40 31 41 33 42
REMARK H PARENT 7 21 25 34
REMARK Flexibility Score:   99.900
ROOT
ATOM      1  C   UNL     1      -0.907   0.372   0.944  1.00  0.00    -0.021 C 
ENDROOT
BRANCH   1   2
ATOM      2  C   UNL     1      -0.028  -0.446   0.342  1.00  0.00     0.004 C 
BRANCH   2   3
ATOM      3  C   UNL     1       1.409  -0.492   0.654  1.00  0.00    -0.026 A 
ATOM      4  C   UNL     1       4.171  -0.679   1.177  1.00  0.00     0.023 A 
ATOM      5  C   UNL     1       3.685  -0.904  -0.115  1.00  0.00     0.013 A 
ATOM      6  C   UNL     1       3.274  -0.400   2.213  1.00  0.00     0.013 A 
ATOM      7  C   UNL     1       2.312  -0.806  -0.371  1.00  0.00     0.009 A 
ATOM      8  C   UNL     1       1.903  -0.308   1.952  1.00  0.00     0.009 A 
BRANCH   4   9
ATOM      9  C   UNL     1       5.611  -0.810   1.508  1.00  0.00     0.199 C 
ATOM     10  O   UNL     1       5.926  -1.315   2.588  1.00  0.00    -0.288 OA
BRANCH   9  11
ATOM     11  C   UNL     1       6.702  -0.423   0.585  1.00  0.00     0.104 A 
ATOM     12  C   UNL     1       7.615   0.981  -1.190  1.00  0.00     0.155 A 
ATOM     13  C   UNL     1       8.807   0.254  -1.149  1.00  0.00     0.053 A 
ATOM     14  C   UNL     1       6.576   0.641  -0.310  1.00  0.00     0.179 A 
ATOM     15  C   UNL     1       8.958  -0.791  -0.235  1.00  0.00     0.051 A 
ATOM     16  C   UNL     1       7.918  -1.116   0.632  1.00  0.00     0.130 A 
ATOM     17  F   UNL     1       5.451   1.376  -0.330  1.00  0.00    -0.202 F 
BRANCH  12  18
ATOM     18  O   UNL     1       7.353   2.026  -2.036  1.00  0.00    -0.494 OA
ATOM     19  C   UNL     1       8.386   2.416  -2.933  1.00  0.00     0.278 C 
ENDBRANCH  12  18
BRANCH  16  20
ATOM     20  O   UNL     1       8.163  -2.134   1.517  1.00  0.00    -0.507 OA
ATOM     21  H   UNL     1       7.454  -2.111   2.201  1.00  0.00     0.293 HD
ENDBRANCH  16  20
ENDBRANCH   9  11
ENDBRANCH   4   9
ENDBRANCH   2   3
ENDBRANCH   1   2
BRANCH   1  22
ATOM     22  C   UNL     1      -2.408   0.490   0.692  1.00  0.00     0.035 C 
BRANCH  22  23
ATOM     23  C   UNL     1      -3.182   0.398   2.031  1.00  0.00     0.011 CG0
ATOM     24  G   UNL     1      -3.061  -0.949   2.742  1.00  0.00     0.000 G0
ENDBRANCH  22  23
BRANCH  22  25
ATOM     25  C   UNL     1      -3.002  -0.429  -0.412  1.00  0.00     0.103 C 
BRANCH  25  26
ATOM     26  C   UNL     1      -3.148  -1.922  -0.011  1.00  0.00     0.109 C 
BRANCH  26  27
ATOM     27  N   UNL     1      -4.338  -2.126   0.844  1.00  0.00    -0.304 NA
ATOM     28  C   UNL     1      -4.971  -3.418   0.560  1.00  0.00     0.105 C 
BRANCH  27  29
ATOM     29  C   UNL     1      -4.050  -2.025   2.282  1.00  0.00     0.084 C 
BRANCH  29  30
ATOM     30  C   UNL     1      -3.061  -0.949   2.742  1.00  0.00     0.016 CG0
ATOM     31  G   UNL     1      -3.182   0.398   2.031  1.00  0.00     0.000 G0
ENDBRANCH  29  30
ENDBRANCH  27  29
ENDBRANCH  26  27
ENDBRANCH  25  26
BRANCH  25  32
ATOM     32  N   UNL     1      -4.326   0.058  -0.834  1.00  0.00    -0.347 N 
ATOM     33  C   UNL     1      -4.506   1.127  -1.677  1.00  0.00     0.253 C 
ATOM     34  H   UNL     1      -5.088  -0.389  -0.339  1.00  0.00     0.164 HD
ATOM     35  O   UNL     1      -3.572   1.712  -2.214  1.00  0.00    -0.269 OA
BRANCH  33  36
ATOM     36  C   UNL     1      -5.901   1.574  -1.932  1.00  0.00     0.061 A 
ATOM     37  C   UNL     1      -6.103   2.583  -2.876  1.00  0.00     0.125 A 
ATOM     38  C   UNL     1      -7.027   1.061  -1.283  1.00  0.00     0.056 A 
ATOM     39  N   UNL     1      -7.320   3.093  -3.205  1.00  0.00    -0.261 NA
ATOM     40  C   UNL     1      -8.279   1.571  -1.604  1.00  0.00     0.142 A 
ATOM     41  C   UNL     1      -8.385   2.571  -2.555  1.00  0.00     0.150 A 
ATOM     42  F   UNL     1      -9.371   1.101  -0.985  1.00  0.00    -0.205 F 
ENDBRANCH  33  36
ENDBRANCH  25  32
ENDBRANCH  22  25
ENDBRANCH   1  22
TORSDOF 9
