MODEL        3USER    Run = 3USERUSER    Estimated Free Energy of Binding    =  -7.53 kcal/mol  [=(1)+(2)+(3)-(4)]USERUSER    (1) Final Intermolecular Energy     = -11.70 kcal/molUSER        vdW + Hbond + desolv Energy     = -12.17 kcal/molUSER        Electrostatic Energy            =  -0.34 kcal/molUSER        Moving Ligand-Fixed Receptor    = -12.51 kcal/molUSER        Moving Ligand-Moving Receptor   =  +0.81 kcal/molUSER    (2) Final Total Internal Energy     =  -1.39 kcal/molUSER    (3) Torsional Free Energy           =  +4.18 kcal/molUSER    (4) Unbound System's Energy         =  -1.39 kcal/molUSERUSERREMARK SMILES COc1ccc(O)c(C(=O)c2ccc(C(=O)N[C@@H]3CCCNC[C@H]3NC(=O)c3cnn(C)c3)cc2)c1FREMARK SMILES IDX 15 1 16 2 17 3 14 5 11 6 12 7 35 8 13 9 34 10 9 11 10 12REMARK SMILES IDX 8 13 3 14 4 15 36 16 5 17 6 18 37 19 2 20 1 21 7 22 18 24REMARK SMILES IDX 19 25 24 27 23 28 22 29 21 31 20 32 25 34 26 35 27 37 28 38REMARK SMILES IDX 29 39 33 40 30 41 31 42 32 43REMARK H PARENT 17 4 7 23 22 30 25 36REMARK Flexibility Score:   72.900USER                              x       y       z     vdW  Elec       q    TypeUSER                           _______ _______ _______ _____ _____    ______ ____ROOTATOM      1  C   UNL     1      39.601  47.086  16.865 -0.35 -0.06    +0.251 C  ATOM      2  O   UNL     1      39.769  48.137  16.256 -0.36 +0.09    -0.269 OA ATOM      3  N   UNL     1      38.641  46.157  16.524 -0.16 +0.10    -0.347 N  ATOM      4  H   UNL     1      38.417  45.416  17.173 +0.10 -0.04    +0.164 HD ENDROOTBRANCH   1   5ATOM      5  C   UNL     1      40.455  46.765  18.044 -0.46 -0.00    +0.039 A  ATOM      6  C   UNL     1      41.958  46.136  20.326 -0.37 +0.00    +0.023 A  ATOM      7  C   UNL     1      40.648  45.662  20.203 -0.37 +0.00    +0.013 A  ATOM      8  C   UNL     1      42.522  46.910  19.305 -0.51 +0.00    +0.013 A  ATOM      9  C   UNL     1      39.899  45.983  19.068 -0.40 -0.00    +0.014 A  ATOM     10  C   UNL     1      41.769  47.236  18.172 -0.48 -0.00    +0.014 A  BRANCH   6  11ATOM     11  C   UNL     1      42.802  45.790  21.493 -0.21 +0.06    +0.199 C  ATOM     12  O   UNL     1      43.025  44.603  21.734 -0.17 -0.08    -0.288 OA BRANCH  11  13ATOM     13  C   UNL     1      43.347  46.804  22.420 -0.23 +0.03    +0.104 A  ATOM     14  C   UNL     1      43.060  48.714  23.910 -0.26 +0.04    +0.155 A  ATOM     15  C   UNL     1      44.428  48.694  24.191 -0.23 +0.01    +0.053 A  ATOM     16  C   UNL     1      42.533  47.768  23.017 -0.23 +0.03    +0.179 A  ATOM     17  C   UNL     1      45.258  47.755  23.571 -0.20 +0.02    +0.051 A  ATOM     18  C   UNL     1      44.720  46.829  22.681 -0.19 +0.07    +0.130 A  ATOM     19  F   UNL     1      41.224  47.820  22.723 +0.08 -0.03    -0.202 F  BRANCH  14  20ATOM     20  O   UNL     1      42.154  49.596  24.434 -0.49 -0.16    -0.494 OA ATOM     21  C   UNL     1      41.373  49.151  25.536 -0.22 +0.04    +0.278 C  ENDBRANCH  14  20BRANCH  18  22ATOM     22  O   UNL     1      45.606  45.966  22.093 -0.41 -0.67    -0.507 OA ATOM     23  H   UNL     1      45.155  45.098  21.983 +0.09 +0.30    +0.293 HD ENDBRANCH  18  22ENDBRANCH  11  13ENDBRANCH   6  11ENDBRANCH   1   5BRANCH   3  24ATOM     24  C   UNL     1      37.685  46.378  15.423 -0.37 -0.05    +0.106 C  BRANCH  24  25ATOM     25  C   UNL     1      38.166  47.567  14.568 -0.54 -0.01    +0.028 CG0ATOM     26  G   UNL     1      37.720  47.568  13.107 +0.00 +0.00    +0.000 G0 ENDBRANCH  24  25BRANCH  24  27ATOM     27  C   UNL     1      36.247  46.541  15.988 -0.35 -0.10    +0.118 C  BRANCH  27  28ATOM     28  C   UNL     1      35.129  46.503  14.904 -0.14 -0.12    +0.108 C  BRANCH  28  29ATOM     29  N   UNL     1      35.597  46.244  13.542 -0.25 +0.20    -0.315 NA ATOM     30  H   UNL     1      34.818  45.917  12.967 +0.01 -0.08    +0.122 HD BRANCH  29  31ATOM     31  C   UNL     1      36.214  47.395  12.887 -0.65 -0.04    +0.081 C  BRANCH  31  32ATOM     32  C   UNL     1      37.716  47.569  13.110 -0.55 -0.00    +0.017 CG0ATOM     33  G   UNL     1      38.157  47.568  14.573 +0.00 +0.00    +0.000 G0 ENDBRANCH  31  32ENDBRANCH  29  31ENDBRANCH  28  29ENDBRANCH  27  28BRANCH  27  34ATOM     34  N   UNL     1      36.009  45.517  17.014 -0.11 +0.18    -0.346 N  ATOM     35  C   UNL     1      35.232  45.750  18.122 -0.25 -0.13    +0.254 C  ATOM     36  H   UNL     1      36.307  44.575  16.797 +0.12 -0.06    +0.164 HD ATOM     37  O   UNL     1      34.725  46.843  18.353 -0.68 +0.21    -0.269 OA BRANCH  35  38ATOM     38  C   UNL     1      35.054  44.610  19.003 -0.33 -0.02    +0.077 A  ATOM     39  C   UNL     1      33.824  44.006  19.358 -0.31 -0.02    +0.149 A  ATOM     40  C   UNL     1      35.995  43.867  19.694 -0.32 -0.01    +0.122 A  ATOM     41  N   UNL     1      33.974  42.975  20.194 -0.70 -0.03    -0.181 NA ATOM     42  N   UNL     1      35.302  42.910  20.379 -0.26 -0.00    -0.275 N  ATOM     43  C   UNL     1      35.850  41.889  21.239 -0.41 +0.01    +0.173 C  ENDBRANCH  35  38ENDBRANCH  27  34ENDBRANCH  24  27ENDBRANCH   3  24TORSDOF 8TERENDMDL