MODEL        8USER    Run = 8USERUSER    Estimated Free Energy of Binding    =  -7.66 kcal/mol  [=(1)+(2)+(3)-(4)]USERUSER    (1) Final Intermolecular Energy     = -11.84 kcal/molUSER        vdW + Hbond + desolv Energy     = -11.73 kcal/molUSER        Electrostatic Energy            =  -0.35 kcal/molUSER        Moving Ligand-Fixed Receptor    = -12.07 kcal/molUSER        Moving Ligand-Moving Receptor   =  +0.24 kcal/molUSER    (2) Final Total Internal Energy     =  -2.46 kcal/molUSER    (3) Torsional Free Energy           =  +4.18 kcal/molUSER    (4) Unbound System's Energy         =  -2.46 kcal/molUSERUSERREMARK SMILES COc1cc(F)c(O)c(C(=O)c2ccc(C(=O)N[C@@H]3CCCNC[C@H]3NC(=O)c3ccncc3)cc2)c1REMARK SMILES IDX 16 1 17 2 18 3 15 5 12 6 13 7 36 8 14 9 35 10 10 11 11 12REMARK SMILES IDX 9 13 3 14 4 15 37 16 5 17 7 18 6 19 2 20 1 21 8 22 19 24REMARK SMILES IDX 20 25 21 26 25 28 24 29 23 30 22 32 26 34 27 35 28 37 29 38REMARK SMILES IDX 30 39 34 40 31 41 33 42 32 43REMARK H PARENT 18 4 8 23 23 31 26 36REMARK Flexibility Score:   88.900USER                              x       y       z     vdW  Elec       q    TypeUSER                           _______ _______ _______ _____ _____    ______ ____ROOTATOM      1  C   UNL     1      38.616  45.419  17.000 -0.24 -0.06    +0.251 C  ATOM      2  O   UNL     1      38.221  44.278  16.781 -0.14 +0.06    -0.269 OA ATOM      3  N   UNL     1      38.225  46.501  16.246 -0.16 +0.13    -0.347 N  ATOM      4  H   UNL     1      38.689  47.400  16.348 +0.11 -0.07    +0.164 HD ENDROOTBRANCH   1   5ATOM      5  C   UNL     1      39.572  45.673  18.119 -0.41 -0.00    +0.039 A  ATOM      6  C   UNL     1      41.442  46.235  20.141 -0.38 +0.00    +0.023 A  ATOM      7  C   UNL     1      41.454  46.977  18.955 -0.45 +0.00    +0.013 A  ATOM      8  C   UNL     1      40.522  45.193  20.301 -0.37 +0.00    +0.013 A  ATOM      9  C   UNL     1      40.519  46.697  17.954 -0.49 -0.00    +0.014 A  ATOM     10  C   UNL     1      39.588  44.915  19.297 -0.40 -0.00    +0.014 A  BRANCH   6  11ATOM     11  C   UNL     1      42.428  46.480  21.220 -0.28 +0.04    +0.196 C  ATOM     12  O   UNL     1      43.628  46.395  20.963 -0.27 -0.17    -0.288 OA BRANCH  11  13ATOM     13  C   UNL     1      42.024  46.849  22.601 -0.22 +0.01    +0.071 A  ATOM     14  C   UNL     1      40.833  46.364  24.665 -0.10 +0.01    +0.122 A  ATOM     15  C   UNL     1      41.271  47.581  25.189 -0.16 +0.01    +0.089 A  ATOM     16  C   UNL     1      41.217  45.995  23.372 -0.15 +0.01    +0.062 A  ATOM     17  C   UNL     1      42.095  48.411  24.438 -0.26 +0.03    +0.169 A  ATOM     18  C   UNL     1      42.487  48.052  23.152 -0.26 +0.03    +0.162 A  ATOM     19  F   UNL     1      42.513  49.567  24.977 -0.16 -0.05    -0.203 F  BRANCH  14  20ATOM     20  O   UNL     1      40.044  45.633  25.508 +0.02 -0.02    -0.497 OA ATOM     21  C   UNL     1      40.632  45.167  26.716 -0.06 +0.01    +0.278 C  ENDBRANCH  14  20BRANCH  18  22ATOM     22  O   UNL     1      43.319  48.902  22.471 -0.52 -0.11    -0.504 OA ATOM     23  H   UNL     1      43.676  48.421  21.690 -0.43 -0.01    +0.293 HD ENDBRANCH  18  22ENDBRANCH  11  13ENDBRANCH   6  11ENDBRANCH   1   5BRANCH   3  24ATOM     24  C   UNL     1      37.359  46.373  15.064 -0.38 -0.05    +0.106 C  BRANCH  24  25ATOM     25  C   UNL     1      37.928  47.282  13.964 -0.55 -0.01    +0.028 C  BRANCH  25  26ATOM     26  C   UNL     1      37.696  46.885  12.510 -0.50 -0.00    +0.017 CG0ATOM     27  G   UNL     1      36.384  46.168  12.230 +0.00 +0.00    +0.000 G0 ENDBRANCH  25  26ENDBRANCH  24  25BRANCH  24  28ATOM     28  C   UNL     1      35.864  46.639  15.406 -0.31 -0.11    +0.118 C  BRANCH  28  29ATOM     29  C   UNL     1      34.940  46.277  14.215 -0.38 -0.09    +0.108 C  BRANCH  29  30ATOM     30  N   UNL     1      35.268  46.823  12.903 -0.27 +0.22    -0.315 NA ATOM     31  H   UNL     1      34.441  46.755  12.307 -0.30 -0.13    +0.122 HD BRANCH  30  32ATOM     32  C   UNL     1      36.384  46.169  12.230 -0.65 -0.03    +0.081 CG0ATOM     33  G   UNL     1      37.696  46.885  12.514 +0.00 +0.00    +0.000 G0 ENDBRANCH  30  32ENDBRANCH  29  30ENDBRANCH  28  29BRANCH  28  34ATOM     34  N   UNL     1      35.423  45.860  16.585 -0.12 +0.27    -0.346 N  ATOM     35  C   UNL     1      35.350  44.485  16.574 -0.21 -0.12    +0.251 C  ATOM     36  H   UNL     1      35.094  46.373  17.391 +0.08 -0.15    +0.164 HD ATOM     37  O   UNL     1      35.668  43.799  15.608 -0.27 +0.11    -0.269 OA BRANCH  35  38ATOM     38  C   UNL     1      34.826  43.836  17.799 -0.28 -0.01    +0.042 A  ATOM     39  C   UNL     1      35.589  43.917  18.964 -0.34 -0.01    +0.034 A  ATOM     40  C   UNL     1      33.632  43.116  17.799 -0.31 -0.01    +0.034 A  ATOM     41  C   UNL     1      35.105  43.295  20.098 -0.33 -0.00    +0.112 A  ATOM     42  C   UNL     1      33.238  42.526  18.986 -0.32 -0.01    +0.112 A  ATOM     43  N   UNL     1      33.943  42.609  20.134 -0.50 -0.05    -0.265 NA ENDBRANCH  35  38ENDBRANCH  28  34ENDBRANCH  24  28ENDBRANCH   3  24TORSDOF 8TERENDMDL