MODEL        2USER    Run = 2USERUSER    Estimated Free Energy of Binding    =  -6.86 kcal/mol  [=(1)+(2)+(3)-(4)]USERUSER    (1) Final Intermolecular Energy     = -11.33 kcal/molUSER        vdW + Hbond + desolv Energy     = -11.54 kcal/molUSER        Electrostatic Energy            =  -0.17 kcal/molUSER        Moving Ligand-Fixed Receptor    = -11.71 kcal/molUSER        Moving Ligand-Moving Receptor   =  +0.38 kcal/molUSER    (2) Final Total Internal Energy     =  -3.48 kcal/molUSER    (3) Torsional Free Energy           =  +4.47 kcal/molUSER    (4) Unbound System's Energy         =  -3.48 kcal/molUSERUSERREMARK SMILES COc1ccc(O)c(C(=O)c2ccc(/C=C/[C@@H]3CCCN(C)C[C@H]3NC(=O)c3cncc(F)c3)cc2)c1FREMARK SMILES IDX 16 1 15 2 14 3 11 4 12 5 36 6 13 7 35 8 9 9 10 10 8 11 3 12REMARK SMILES IDX 4 13 37 14 5 15 6 16 38 17 2 18 1 19 7 20 17 22 18 23 24 25REMARK SMILES IDX 23 26 21 27 22 28 20 29 19 30 25 32 26 33 27 35 28 36 29 37REMARK SMILES IDX 34 38 30 39 32 40 31 41 33 42REMARK H PARENT 7 21 25 34REMARK Flexibility Score:   99.900USER                              x       y       z     vdW  Elec       q    TypeUSER                           _______ _______ _______ _____ _____    ______ ____ROOTATOM      1  C   UNL     1      36.970  41.788  25.521 -0.40 +0.00    -0.021 C  ENDROOTBRANCH   1   2ATOM      2  C   UNL     1      36.856  41.966  26.847 -0.51 -0.00    +0.004 C  BRANCH   2   3ATOM      3  C   UNL     1      36.243  43.146  27.476 -0.42 +0.01    -0.026 A  ATOM      4  C   UNL     1      34.971  45.393  28.604 -0.29 -0.01    +0.023 A  ATOM      5  C   UNL     1      34.224  44.257  28.271 -0.55 -0.00    +0.013 A  ATOM      6  C   UNL     1      36.343  45.419  28.336 -0.31 -0.00    +0.013 A  ATOM      7  C   UNL     1      34.861  43.142  27.715 -0.60 -0.00    +0.009 A  ATOM      8  C   UNL     1      36.973  44.303  27.776 -0.39 -0.00    +0.009 A  BRANCH   4   9ATOM      9  C   UNL     1      34.337  46.614  29.158 -0.35 -0.04    +0.199 C  ATOM     10  O   UNL     1      33.156  46.561  29.508 -0.85 +0.00    -0.288 OA BRANCH   9  11ATOM     11  C   UNL     1      35.062  47.886  29.374 -0.34 -0.01    +0.104 A  ATOM     12  C   UNL     1      36.360  49.784  28.555 -0.17 +0.00    +0.155 A  ATOM     13  C   UNL     1      36.434  50.292  29.854 -0.13 +0.00    +0.053 A  ATOM     14  C   UNL     1      35.661  48.588  28.327 -0.25 -0.02    +0.179 A  ATOM     15  C   UNL     1      35.811  49.616  30.905 -0.15 -0.00    +0.051 A  ATOM     16  C   UNL     1      35.121  48.432  30.663 -0.22 -0.01    +0.130 A  ATOM     17  F   UNL     1      35.560  48.134  27.066 -0.07 +0.05    -0.202 F  BRANCH  12  18ATOM     18  O   UNL     1      36.924  50.358  27.446 -0.05 -0.07    -0.494 OA ATOM     19  C   UNL     1      36.043  50.855  26.447 -0.22 +0.03    +0.278 C  ENDBRANCH  12  18BRANCH  16  20ATOM     20  O   UNL     1      34.513  47.852  31.747 -0.03 +0.11    -0.507 OA ATOM     21  H   UNL     1      33.984  47.088  31.418 -0.45 -0.18    +0.293 HD ENDBRANCH  16  20ENDBRANCH   9  11ENDBRANCH   4   9ENDBRANCH   2   3ENDBRANCH   1   2BRANCH   1  22ATOM     22  C   UNL     1      37.689  42.678  24.510 -0.38 +0.00    +0.035 C  BRANCH  22  23ATOM     23  C   UNL     1      39.116  43.012  25.015 -0.25 +0.00    +0.011 CG0ATOM     24  G   UNL     1      39.778  44.194  24.308 +0.00 +0.00    +0.000 G0 ENDBRANCH  22  23BRANCH  22  25ATOM     25  C   UNL     1      36.916  43.933  24.015 -0.28 +0.01    +0.103 C  BRANCH  25  26ATOM     26  C   UNL     1      36.977  45.157  24.968 -0.20 +0.01    +0.109 C  BRANCH  26  27ATOM     27  N   UNL     1      38.055  46.087  24.567 -0.48 -0.05    -0.304 NA ATOM     28  C   UNL     1      37.881  47.396  25.204 -0.33 +0.01    +0.105 C  BRANCH  27  29ATOM     29  C   UNL     1      39.404  45.576  24.852 -0.17 +0.00    +0.084 C  BRANCH  29  30ATOM     30  C   UNL     1      39.777  44.192  24.311 -0.19 +0.00    +0.016 CG0ATOM     31  G   UNL     1      39.112  43.012  25.018 +0.00 +0.00    +0.000 G0 ENDBRANCH  29  30ENDBRANCH  27  29ENDBRANCH  26  27ENDBRANCH  25  26BRANCH  25  32ATOM     32  N   UNL     1      37.415  44.360  22.696 -0.17 -0.04    -0.347 N  ATOM     33  C   UNL     1      37.223  43.638  21.544 -0.29 +0.01    +0.253 C  ATOM     34  H   UNL     1      38.022  45.169  22.746 +0.07 +0.02    +0.164 HD ATOM     35  O   UNL     1      36.547  42.616  21.507 -0.33 -0.01    -0.269 OA BRANCH  33  36ATOM     36  C   UNL     1      37.874  44.137  20.304 -0.32 -0.00    +0.061 A  ATOM     37  C   UNL     1      39.204  44.553  20.385 -0.27 +0.00    +0.125 A  ATOM     38  C   UNL     1      37.242  44.230  19.061 -0.31 -0.01    +0.056 A  ATOM     39  N   UNL     1      39.922  45.036  19.335 -0.24 +0.00    -0.261 NA ATOM     40  C   UNL     1      37.958  44.723  17.978 -0.27 -0.03    +0.142 A  ATOM     41  C   UNL     1      39.275  45.111  18.150 -0.31 -0.02    +0.150 A  ATOM     42  F   UNL     1      37.367  44.831  16.779 -0.06 +0.06    -0.205 F  ENDBRANCH  33  36ENDBRANCH  25  32ENDBRANCH  22  25ENDBRANCH   1  22TORSDOF 9TERENDMDL