REMARK SMILES COc1cc(F)c(O)c(C(=O)c2ccc(C(=O)N[C@@H]3CCCNC[C@H]3NC(=O)c3ccncc3)cc2)c1
REMARK SMILES IDX 16 1 17 2 18 3 15 5 12 6 13 7 36 8 14 9 35 10 10 11 11 12
REMARK SMILES IDX 9 13 3 14 4 15 37 16 5 17 7 18 6 19 2 20 1 21 8 22 19 24
REMARK SMILES IDX 20 25 21 26 25 28 24 29 23 30 22 32 26 34 27 35 28 37 29 38
REMARK SMILES IDX 30 39 34 40 31 41 33 42 32 43
REMARK H PARENT 18 4 8 23 23 31 26 36
REMARK Flexibility Score:   88.900
ROOT
ATOM      1  C   UNL     1      -0.422  -1.106   1.181  1.00  0.00     0.251 C 
ATOM      2  O   UNL     1      -0.204  -1.946   2.049  1.00  0.00    -0.269 OA
ATOM      3  N   UNL     1      -1.691  -0.762   0.778  1.00  0.00    -0.347 N 
ATOM      4  H   UNL     1      -1.835  -0.187  -0.048  1.00  0.00     0.164 HD
ENDROOT
BRANCH   1   5
ATOM      5  C   UNL     1       0.721  -0.421   0.506  1.00  0.00     0.039 A 
ATOM      6  C   UNL     1       2.957   0.784  -0.697  1.00  0.00     0.023 A 
ATOM      7  C   UNL     1       3.115  -0.386   0.052  1.00  0.00     0.013 A 
ATOM      8  C   UNL     1       1.692   1.370  -0.815  1.00  0.00     0.013 A 
ATOM      9  C   UNL     1       1.999  -0.985   0.645  1.00  0.00     0.014 A 
ATOM     10  C   UNL     1       0.577   0.769  -0.220  1.00  0.00     0.014 A 
BRANCH   6  11
ATOM     11  C   UNL     1       4.114   1.467  -1.324  1.00  0.00     0.196 C 
ATOM     12  O   UNL     1       4.170   2.696  -1.295  1.00  0.00    -0.288 OA
BRANCH  11  13
ATOM     13  C   UNL     1       5.225   0.723  -1.970  1.00  0.00     0.071 A 
ATOM     14  C   UNL     1       6.066  -1.220  -3.166  1.00  0.00     0.122 A 
ATOM     15  C   UNL     1       7.342  -0.655  -3.162  1.00  0.00     0.089 A 
ATOM     16  C   UNL     1       5.005  -0.526  -2.576  1.00  0.00     0.062 A 
ATOM     17  C   UNL     1       7.553   0.594  -2.590  1.00  0.00     0.169 A 
ATOM     18  C   UNL     1       6.504   1.296  -2.004  1.00  0.00     0.162 A 
ATOM     19  F   UNL     1       8.788   1.118  -2.618  1.00  0.00    -0.203 F 
BRANCH  14  20
ATOM     20  O   UNL     1       5.987  -2.442  -3.773  1.00  0.00    -0.497 OA
ATOM     21  C   UNL     1       4.712  -3.072  -3.813  1.00  0.00     0.278 C 
ENDBRANCH  14  20
BRANCH  18  22
ATOM     22  O   UNL     1       6.771   2.533  -1.478  1.00  0.00    -0.504 OA
ATOM     23  H   UNL     1       5.914   2.984  -1.304  1.00  0.00     0.293 HD
ENDBRANCH  18  22
ENDBRANCH  11  13
ENDBRANCH   6  11
ENDBRANCH   1   5
BRANCH   3  24
ATOM     24  C   UNL     1      -2.896  -1.425   1.299  1.00  0.00     0.106 C 
BRANCH  24  25
ATOM     25  C   UNL     1      -3.112  -2.712   0.488  1.00  0.00     0.028 C 
BRANCH  25  26
ATOM     26  C   UNL     1      -4.465  -3.408   0.589  1.00  0.00     0.017 CG0
ATOM     27  G   UNL     1      -5.133  -3.343   1.954  1.00  0.00     0.000 G0
ENDBRANCH  25  26
ENDBRANCH  24  25
BRANCH  24  28
ATOM     28  C   UNL     1      -4.124  -0.468   1.322  1.00  0.00     0.118 C 
BRANCH  28  29
ATOM     29  C   UNL     1      -5.173  -0.921   2.369  1.00  0.00     0.108 C 
BRANCH  29  30
ATOM     30  N   UNL     1      -5.936  -2.133   2.093  1.00  0.00    -0.315 NA
ATOM     31  H   UNL     1      -6.609  -2.272   2.849  1.00  0.00     0.122 HD
BRANCH  30  32
ATOM     32  C   UNL     1      -5.133  -3.343   1.954  1.00  0.00     0.081 CG0
ATOM     33  G   UNL     1      -4.465  -3.408   0.589  1.00  0.00     0.000 G0
ENDBRANCH  30  32
ENDBRANCH  29  30
ENDBRANCH  28  29
BRANCH  28  34
ATOM     34  N   UNL     1      -3.729   0.924   1.637  1.00  0.00    -0.346 N 
ATOM     35  C   UNL     1      -3.218   1.777   0.685  1.00  0.00     0.251 C 
ATOM     36  H   UNL     1      -3.768   1.216   2.603  1.00  0.00     0.164 HD
ATOM     37  O   UNL     1      -3.078   1.469  -0.494  1.00  0.00    -0.269 OA
BRANCH  35  38
ATOM     38  C   UNL     1      -2.798   3.120   1.151  1.00  0.00     0.042 A 
ATOM     39  C   UNL     1      -2.940   4.195   0.274  1.00  0.00     0.034 A 
ATOM     40  C   UNL     1      -2.228   3.319   2.408  1.00  0.00     0.034 A 
ATOM     41  C   UNL     1      -2.530   5.441   0.707  1.00  0.00     0.112 A 
ATOM     42  C   UNL     1      -1.846   4.605   2.744  1.00  0.00     0.112 A 
ATOM     43  N   UNL     1      -1.994   5.668   1.925  1.00  0.00    -0.265 NA
ENDBRANCH  35  38
ENDBRANCH  28  34
ENDBRANCH  24  28
ENDBRANCH   3  24
TORSDOF 8
