MODEL        3USER    Run = 3USERUSER    Estimated Free Energy of Binding    =  -6.76 kcal/mol  [=(1)+(2)+(3)-(4)]USERUSER    (1) Final Intermolecular Energy     = -11.53 kcal/molUSER        vdW + Hbond + desolv Energy     = -11.50 kcal/molUSER        Electrostatic Energy            =  -0.12 kcal/molUSER        Moving Ligand-Fixed Receptor    = -11.62 kcal/molUSER        Moving Ligand-Moving Receptor   =  +0.09 kcal/molUSER    (2) Final Total Internal Energy     =  -1.14 kcal/molUSER    (3) Torsional Free Energy           =  +4.77 kcal/molUSER    (4) Unbound System's Energy         =  -1.14 kcal/molUSERUSERREMARK SMILES CC(C)C[C@]1(C)CC[C@H](COC(=O)C=CNc2ccc(NC(N)=O)cc2)C[C@@H](C)O1REMARK SMILES IDX 10 1 9 2 27 3 28 4 29 5 30 6 5 7 6 8 4 10 2 11 1 12 3 13REMARK SMILES IDX 8 14 7 15 11 17 12 18 13 19 14 20 15 21 16 22 17 24 18 25REMARK SMILES IDX 26 26 19 27 25 28 20 29 21 30 22 31 23 32 24 34REMARK H PARENT 16 23 21 33 23 35 23 36REMARK Flexibility Score:  277.900USER                              x       y       z     vdW  Elec       q    TypeUSER                           _______ _______ _______ _____ _____    ______ ____ROOTATOM      1  C   UNL     1      39.559  44.704  23.040 -0.16 +0.01    +0.237 C  ENDROOTBRANCH   1   2ATOM      2  C   UNL     1      38.252  45.382  23.492 -0.32 +0.00    +0.030 C  BRANCH   2   3ATOM      3  C   UNL     1      38.526  46.617  24.370 -0.34 +0.01    +0.039 C  BRANCH   3   4ATOM      4  C   UNL     1      39.263  46.334  25.678 -0.18 +0.00    +0.116 C  ATOM      5  C   UNL     1      39.294  47.560  26.589 -0.25 +0.00    +0.038 C  BRANCH   4   6ATOM      6  O   UNL     1      38.856  45.180  26.402 -0.07 +0.01    -0.372 OA BRANCH   6   7ATOM      7  C   UNL     1      37.483  44.860  26.661 -0.33 -0.01    +0.066 CG0ATOM      8  C   UNL     1      36.867  45.790  27.724 -0.38 -0.01    +0.042 C  ATOM      9  G   UNL     1      36.597  44.870  25.389 +0.00 +0.00    +0.000 G0 BRANCH   7  10ATOM     10  C   UNL     1      37.530  43.435  27.313 -0.36 -0.01    +0.038 C  BRANCH  10  11ATOM     11  C   UNL     1      36.370  42.465  26.977 -0.51 +0.00    -0.015 C  ATOM     12  C   UNL     1      36.739  41.041  27.416 -0.61 -0.00    +0.007 C  ATOM     13  C   UNL     1      35.061  42.857  27.667 -0.66 -0.00    +0.007 C  ENDBRANCH  10  11ENDBRANCH   7  10ENDBRANCH   6   7ENDBRANCH   4   6ENDBRANCH   3   4ENDBRANCH   2   3BRANCH   2  14ATOM     14  C   UNL     1      37.296  44.355  24.134 -0.38 +0.00    +0.010 C  BRANCH  14  15ATOM     15  C   UNL     1      36.596  44.870  25.389 -0.26 +0.00    +0.035 CG0ATOM     16  G   UNL     1      37.483  44.861  26.661 +0.00 +0.00    +0.000 G0 ENDBRANCH  14  15ENDBRANCH   2  14ENDBRANCH   1   2BRANCH   1  17ATOM     17  O   UNL     1      40.269  45.568  22.134 -0.07 -0.03    -0.462 OA BRANCH  17  18ATOM     18  C   UNL     1      41.011  44.979  21.168 -0.18 +0.03    +0.332 C  ATOM     19  O   UNL     1      41.788  44.048  21.309 -0.25 -0.03    -0.247 OA BRANCH  18  20ATOM     20  C   UNL     1      40.729  45.558  19.841 -0.39 +0.01    +0.111 C  BRANCH  20  21ATOM     21  C   UNL     1      41.392  46.601  19.319 -0.44 +0.00    +0.090 C  BRANCH  21  22ATOM     22  N   UNL     1      41.535  46.882  17.985 -0.26 +0.02    -0.361 N  ATOM     23  H   UNL     1      42.489  46.968  17.649 -0.45 -0.04    +0.166 HD BRANCH  22  24ATOM     24  C   UNL     1      40.551  47.273  17.061 -0.49 -0.01    +0.038 A  ATOM     25  C   UNL     1      40.896  48.193  16.060 -0.52 -0.00    +0.028 A  ATOM     26  C   UNL     1      39.253  46.752  17.040 -0.43 -0.01    +0.028 A  ATOM     27  C   UNL     1      39.968  48.595  15.090 -0.55 -0.01    +0.028 A  ATOM     28  C   UNL     1      38.320  47.157  16.075 -0.41 -0.01    +0.028 A  ATOM     29  C   UNL     1      38.671  48.078  15.090 -0.49 -0.02    +0.043 A  BRANCH  29  30ATOM     30  N   UNL     1      37.789  48.529  14.089 -0.31 +0.16    -0.308 N  ATOM     31  C   UNL     1      37.195  47.784  13.107 -0.37 -0.11    +0.316 C  ATOM     32  N   UNL     1      36.360  48.542  12.337 -0.22 +0.13    -0.351 N  ATOM     33  H   UNL     1      37.695  49.529  13.975 -0.40 -0.12    +0.171 HD ATOM     34  O   UNL     1      37.332  46.593  12.862 -0.44 +0.08    -0.249 OA ATOM     35  H   UNL     1      35.857  47.968  11.669 -0.17 -0.10    +0.161 HD ATOM     36  H   UNL     1      35.750  49.174  12.840 +0.13 -0.07    +0.161 HD ENDBRANCH  29  30ENDBRANCH  22  24ENDBRANCH  21  22ENDBRANCH  20  21ENDBRANCH  18  20ENDBRANCH  17  18ENDBRANCH   1  17TORSDOF 10TERENDMDL