REMARK SMILES CC(C)C[C@]1(C)CC[C@H](COC(=O)C=CNc2ccc(NC(N)=O)cc2)C[C@@H](C)O1
REMARK SMILES IDX 10 1 9 2 27 3 28 4 29 5 30 6 5 7 6 8 4 10 2 11 1 12 3 13
REMARK SMILES IDX 8 14 7 15 11 17 12 18 13 19 14 20 15 21 16 22 17 24 18 25
REMARK SMILES IDX 26 26 19 27 25 28 20 29 21 30 22 31 23 32 24 34
REMARK H PARENT 16 23 21 33 23 35 23 36
REMARK Flexibility Score:  277.900
ROOT
ATOM      1  C   UNL     1      -0.533   0.227   1.552  1.00  0.00     0.237 C 
ENDROOT
BRANCH   1   2
ATOM      2  C   UNL     1      -1.363   1.181   0.672  1.00  0.00     0.030 C 
BRANCH   2   3
ATOM      3  C   UNL     1      -2.181   2.171   1.521  1.00  0.00     0.039 C 
BRANCH   3   4
ATOM      4  C   UNL     1      -3.395   1.572   2.229  1.00  0.00     0.116 C 
ATOM      5  C   UNL     1      -4.149   2.618   3.049  1.00  0.00     0.038 C 
BRANCH   4   6
ATOM      6  O   UNL     1      -4.295   0.820   1.424  1.00  0.00    -0.372 OA
BRANCH   6   7
ATOM      7  C   UNL     1      -4.627   1.176   0.076  1.00  0.00     0.066 CG0
ATOM      8  C   UNL     1      -5.324   2.548  -0.001  1.00  0.00     0.042 C 
ATOM      9  G   UNL     1      -3.409   1.160  -0.883  1.00  0.00     0.000 G0
BRANCH   7  10
ATOM     10  C   UNL     1      -5.705   0.122  -0.352  1.00  0.00     0.038 C 
BRANCH  10  11
ATOM     11  C   UNL     1      -5.326  -1.374  -0.213  1.00  0.00    -0.015 C 
ATOM     12  C   UNL     1      -6.564  -2.190   0.184  1.00  0.00     0.007 C 
ATOM     13  C   UNL     1      -4.761  -1.957  -1.511  1.00  0.00     0.007 C 
ENDBRANCH  10  11
ENDBRANCH   7  10
ENDBRANCH   6   7
ENDBRANCH   4   6
ENDBRANCH   3   4
ENDBRANCH   2   3
BRANCH   2  14
ATOM     14  C   UNL     1      -2.203   0.389  -0.352  1.00  0.00     0.010 C 
BRANCH  14  15
ATOM     15  C   UNL     1      -3.409   1.160  -0.883  1.00  0.00     0.035 CG0
ATOM     16  G   UNL     1      -4.627   1.176   0.076  1.00  0.00     0.000 G0
ENDBRANCH  14  15
ENDBRANCH   2  14
ENDBRANCH   1   2
BRANCH   1  17
ATOM     17  O   UNL     1       0.549  -0.329   0.782  1.00  0.00    -0.462 OA
BRANCH  17  18
ATOM     18  C   UNL     1       0.399  -1.593   0.324  1.00  0.00     0.332 C 
ATOM     19  O   UNL     1      -0.561  -2.326   0.503  1.00  0.00    -0.247 OA
BRANCH  18  20
ATOM     20  C   UNL     1       1.542  -2.004  -0.513  1.00  0.00     0.111 C 
BRANCH  20  21
ATOM     21  C   UNL     1       2.747  -1.417  -0.482  1.00  0.00     0.090 C 
BRANCH  21  22
ATOM     22  N   UNL     1       3.831  -1.754  -1.251  1.00  0.00    -0.361 N 
ATOM     23  H   UNL     1       3.679  -2.489  -1.934  1.00  0.00     0.166 HD
BRANCH  22  24
ATOM     24  C   UNL     1       5.174  -1.372  -1.089  1.00  0.00     0.038 A 
ATOM     25  C   UNL     1       6.086  -1.673  -2.111  1.00  0.00     0.028 A 
ATOM     26  C   UNL     1       5.650  -0.652   0.011  1.00  0.00     0.028 A 
ATOM     27  C   UNL     1       7.430  -1.289  -2.023  1.00  0.00     0.028 A 
ATOM     28  C   UNL     1       6.997  -0.272   0.106  1.00  0.00     0.028 A 
ATOM     29  C   UNL     1       7.896  -0.583  -0.911  1.00  0.00     0.043 A 
BRANCH  29  30
ATOM     30  N   UNL     1       9.260  -0.233  -0.886  1.00  0.00    -0.308 N 
ATOM     31  C   UNL     1       9.894   0.575   0.019  1.00  0.00     0.316 C 
ATOM     32  N   UNL     1      11.234   0.657  -0.233  1.00  0.00    -0.351 N 
ATOM     33  H   UNL     1       9.811  -0.469  -1.700  1.00  0.00     0.171 HD
ATOM     34  O   UNL     1       9.415   1.192   0.960  1.00  0.00    -0.249 OA
ATOM     35  H   UNL     1      11.711   1.183   0.490  1.00  0.00     0.161 HD
ATOM     36  H   UNL     1      11.697  -0.219  -0.443  1.00  0.00     0.161 HD
ENDBRANCH  29  30
ENDBRANCH  22  24
ENDBRANCH  21  22
ENDBRANCH  20  21
ENDBRANCH  18  20
ENDBRANCH  17  18
ENDBRANCH   1  17
TORSDOF 10
