REMARK SMILES C[C@@H](F)C(=O)Sc1[nH]nccc(N2CCC(C(F)(F)F)CC2)ccc1C=CS(N)(=O)=O
REMARK SMILES IDX 7 1 8 2 9 3 10 4 11 5 12 6 23 7 24 8 25 9 6 11 4 12 5 13
REMARK SMILES IDX 2 14 1 15 3 16 26 17 27 18 28 19 30 20 31 21 29 22 13 25
REMARK SMILES IDX 14 26 22 27 15 28 21 29 16 30 17 31 18 32 19 33 20 34
REMARK H PARENT 8 10 29 23 29 24
ROOT
ATOM      1  C   UNL     1       2.603   0.399   0.483  1.00  0.00     0.104 A 
ATOM      2  N   UNL     1       1.917   1.579   0.683  1.00  0.00    -0.271 N 
ATOM      3  N   UNL     1       1.596   2.338  -0.497  1.00  0.00    -0.183 NA
ATOM      4  C   UNL     1       0.271   2.440  -0.638  1.00  0.00     0.135 A 
ATOM      5  C   UNL     1      -0.844   1.806  -0.243  1.00  0.00     0.048 A 
ATOM      6  C   UNL     1      -1.191   0.653   0.364  1.00  0.00     0.038 A 
ATOM      7  C   UNL     1      -0.509  -0.464   0.692  1.00  0.00     0.026 A 
ATOM      8  C   UNL     1       0.688  -1.062   0.716  1.00  0.00     0.013 A 
ATOM      9  C   UNL     1       2.004  -0.818   0.554  1.00  0.00     0.007 A 
ATOM     10  H   UNL     1       2.486   2.186   1.266  1.00  0.00     0.191 HD
ENDROOT
BRANCH   1  11
ATOM     11  S   UNL     1       4.375   0.522   0.376  1.00  0.00    -0.029 SA
BRANCH  11  12
ATOM     12  C   UNL     1       4.548   0.494  -1.383  1.00  0.00     0.228 C 
ATOM     13  O   UNL     1       4.754  -0.574  -1.961  1.00  0.00    -0.283 OA
BRANCH  12  14
ATOM     14  C   UNL     1       4.541   1.844  -2.096  1.00  0.00     0.241 C 
ATOM     15  C   UNL     1       5.658   2.766  -1.614  1.00  0.00     0.054 C 
ATOM     16  F   UNL     1       4.747   1.682  -3.450  1.00  0.00    -0.238 F 
ENDBRANCH  12  14
ENDBRANCH  11  12
ENDBRANCH   1  11
BRANCH   9  17
ATOM     17  C   UNL     1       2.823  -2.045   0.542  1.00  0.00     0.024 C 
BRANCH  17  18
ATOM     18  C   UNL     1       3.088  -2.736  -0.580  1.00  0.00     0.123 C 
BRANCH  18  19
ATOM     19  S   UNL     1       4.000  -4.193  -0.495  1.00  0.00     0.231 S 
ATOM     20  O   UNL     1       4.413  -4.591  -1.820  1.00  0.00    -0.208 OA
ATOM     21  O   UNL     1       4.927  -4.167   0.617  1.00  0.00    -0.208 OA
BRANCH  19  22
ATOM     22  N   UNL     1       2.844  -5.345  -0.049  1.00  0.00    -0.225 NA
ATOM     23  H   UNL     1       2.555  -5.214   0.919  1.00  0.00     0.137 HD
ATOM     24  H   UNL     1       2.088  -5.396  -0.730  1.00  0.00     0.137 HD
ENDBRANCH  19  22
ENDBRANCH  18  19
ENDBRANCH  17  18
ENDBRANCH   9  17
BRANCH   6  25
ATOM     25  N   UNL     1      -2.610   0.531   0.629  1.00  0.00    -0.371 N 
ATOM     26  C   UNL     1      -3.234   1.453   1.587  1.00  0.00     0.117 C 
ATOM     27  C   UNL     1      -3.472  -0.107  -0.378  1.00  0.00     0.117 C 
ATOM     28  C   UNL     1      -4.585   0.901   2.017  1.00  0.00     0.034 C 
ATOM     29  C   UNL     1      -4.801   0.629  -0.514  1.00  0.00     0.034 C 
ATOM     30  C   UNL     1      -5.546   0.746   0.824  1.00  0.00     0.098 C 
BRANCH  30  31
ATOM     31  C   UNL     1      -6.475  -0.437   1.050  1.00  0.00     0.391 C 
ATOM     32  F   UNL     1      -7.154  -0.298   2.214  1.00  0.00    -0.171 F 
ATOM     33  F   UNL     1      -5.812  -1.616   1.097  1.00  0.00    -0.171 F 
ATOM     34  F   UNL     1      -7.395  -0.525   0.057  1.00  0.00    -0.171 F 
ENDBRANCH  30  31
ENDBRANCH   6  25
TORSDOF 9
