MODEL        2USER    Run = 2USERUSER    Estimated Free Energy of Binding    =  -9.08 kcal/mol  [=(1)+(2)+(3)-(4)]USERUSER    (1) Final Intermolecular Energy     = -11.76 kcal/molUSER        vdW + Hbond + desolv Energy     = -11.54 kcal/molUSER        Electrostatic Energy            =  -0.22 kcal/molUSER        Moving Ligand-Fixed Receptor    = -11.76 kcal/molUSER        Moving Ligand-Moving Receptor   =  +0.00 kcal/molUSER    (2) Final Total Internal Energy     =  -1.75 kcal/molUSER    (3) Torsional Free Energy           =  +2.68 kcal/molUSER    (4) Unbound System's Energy         =  -1.75 kcal/molUSERUSERREMARK SMILES C[C@@H](F)C(=O)Sc1[nH]nccc(N2CCC(C(F)(F)F)CC2)ccc1C=CS(N)(=O)=OREMARK SMILES IDX 7 1 8 2 9 3 10 4 11 5 12 6 23 7 24 8 25 9 6 11 4 12 5 13REMARK SMILES IDX 2 14 1 15 3 16 26 17 27 18 28 19 30 20 31 21 29 22 13 25REMARK SMILES IDX 14 26 22 27 15 28 21 29 16 30 17 31 18 32 19 33 20 34REMARK H PARENT 8 10 29 23 29 24USER                              x       y       z     vdW  Elec       q    TypeUSER                           _______ _______ _______ _____ _____    ______ ____ROOTATOM      1  C   UNL     1      37.149  46.950  15.218 -0.34 -0.06    +0.104 A  ATOM      2  N   UNL     1      38.519  47.031  15.081 -0.22 +0.10    -0.271 N  ATOM      3  N   UNL     1      39.118  48.303  15.389 -0.37 +0.08    -0.183 NA ATOM      4  C   UNL     1      39.959  48.183  16.421 -0.39 -0.04    +0.135 A  ATOM      5  C   UNL     1      40.181  47.364  17.460 -0.43 -0.01    +0.048 A  ATOM      6  C   UNL     1      39.574  46.334  18.084 -0.41 -0.01    +0.038 A  ATOM      7  C   UNL     1      38.341  45.793  17.995 -0.37 -0.01    +0.026 A  ATOM      8  C   UNL     1      37.165  45.819  17.358 -0.35 -0.00    +0.013 A  ATOM      9  C   UNL     1      36.553  46.334  16.272 -0.37 -0.00    +0.007 A  ATOM     10  H   UNL     1      38.757  46.832  14.113 +0.14 -0.05    +0.191 HD ENDROOTBRANCH   1  11ATOM     11  S   UNL     1      36.181  47.470  13.819 -0.67 +0.02    -0.029 SA BRANCH  11  12ATOM     12  C   UNL     1      37.222  46.866  12.524 -0.49 -0.07    +0.228 C  ATOM     13  O   UNL     1      38.323  47.384  12.332 -0.54 -0.00    -0.283 OA BRANCH  12  14ATOM     14  C   UNL     1      36.638  45.781  11.622 -0.37 -0.09    +0.241 C  ATOM     15  C   UNL     1      36.938  44.374  12.131 -0.50 -0.02    +0.054 C  ATOM     16  F   UNL     1      35.263  45.877  11.571 -0.06 +0.14    -0.238 F  ENDBRANCH  12  14ENDBRANCH  11  12ENDBRANCH   1  11BRANCH   9  17ATOM     17  C   UNL     1      35.098  46.094  16.259 -0.33 -0.02    +0.024 C  BRANCH  17  18ATOM     18  C   UNL     1      34.514  45.104  16.956 -0.30 -0.08    +0.123 C  BRANCH  18  19ATOM     19  S   UNL     1      34.104  45.345  18.610 -0.48 -0.10    +0.231 S  ATOM     20  O   UNL     1      32.783  44.822  18.868 -0.33 +0.05    -0.208 OA ATOM     21  O   UNL     1      35.225  45.047  19.477 -0.34 +0.05    -0.208 OA BRANCH  19  22ATOM     22  N   UNL     1      33.923  47.023  18.721 -0.99 +0.16    -0.225 NA ATOM     23  H   UNL     1      33.466  47.395  17.890 -0.47 -0.23    +0.137 HD ATOM     24  H   UNL     1      33.507  47.294  19.610 -0.46 -0.06    +0.137 HD ENDBRANCH  19  22ENDBRANCH  18  19ENDBRANCH  17  18ENDBRANCH   9  17BRANCH   6  25ATOM     25  N   UNL     1      40.359  45.746  19.150 -0.19 +0.01    -0.371 N  ATOM     26  C   UNL     1      41.423  46.546  19.771 -0.35 +0.01    +0.117 C  ATOM     27  C   UNL     1      39.791  44.632  19.924 -0.35 +0.00    +0.117 C  ATOM     28  C   UNL     1      42.362  45.631  20.543 -0.20 +0.01    +0.034 C  ATOM     29  C   UNL     1      40.120  44.766  21.408 -0.33 +0.00    +0.034 C  ATOM     30  C   UNL     1      41.630  44.875  21.666 -0.28 +0.01    +0.098 C  BRANCH  30  31ATOM     31  C   UNL     1      42.260  43.507  21.875 -0.17 +0.03    +0.391 C  ATOM     32  F   UNL     1      41.950  43.017  23.100 -0.10 +0.00    -0.171 F  ATOM     33  F   UNL     1      43.609  43.536  21.771 -0.10 -0.04    -0.171 F  ATOM     34  F   UNL     1      41.799  42.618  20.960 -0.06 -0.00    -0.171 F  ENDBRANCH  30  31ENDBRANCH   6  25TORSDOF 9TERENDMDL