MODEL        4USER    Run = 4USERUSER    Estimated Free Energy of Binding    =  -9.64 kcal/mol  [=(1)+(2)+(3)-(4)]USERUSER    (1) Final Intermolecular Energy     = -12.33 kcal/molUSER        vdW + Hbond + desolv Energy     = -12.20 kcal/molUSER        Electrostatic Energy            =  -0.13 kcal/molUSER        Moving Ligand-Fixed Receptor    = -12.33 kcal/molUSER        Moving Ligand-Moving Receptor   =  +0.00 kcal/molUSER    (2) Final Total Internal Energy     =  -1.88 kcal/molUSER    (3) Torsional Free Energy           =  +2.68 kcal/molUSER    (4) Unbound System's Energy         =  -1.88 kcal/molUSERUSERREMARK SMILES C[C@@H](Br)C(=O)Sc1[nH]nccc(N2CCC(C(F)(F)F)CC2)ccc1C=CS(N)(=O)=OREMARK SMILES IDX 7 1 8 2 9 3 10 4 11 5 12 6 23 7 24 8 25 9 6 11 4 12 5 13REMARK SMILES IDX 2 14 1 15 3 16 26 17 27 18 28 19 30 20 31 21 29 22 13 25REMARK SMILES IDX 14 26 22 27 15 28 21 29 16 30 17 31 18 32 19 33 20 34REMARK H PARENT 8 10 29 23 29 24USER                              x       y       z     vdW  Elec       q    TypeUSER                           _______ _______ _______ _____ _____    ______ ____ROOTATOM      1  C   UNL     1      38.095  44.538  19.080 -0.30 -0.01    +0.104 A  ATOM      2  N   UNL     1      39.162  44.580  19.952 -0.20 +0.00    -0.271 N  ATOM      3  N   UNL     1      39.433  45.872  20.546 -0.23 -0.00    -0.183 NA ATOM      4  C   UNL     1      39.358  45.781  21.878 -0.22 +0.01    +0.135 A  ATOM      5  C   UNL     1      38.749  45.024  22.804 -0.29 +0.00    +0.048 A  ATOM      6  C   UNL     1      37.770  44.098  22.858 -0.33 +0.00    +0.038 A  ATOM      7  C   UNL     1      36.875  43.648  21.952 -0.37 +0.00    +0.026 A  ATOM      8  C   UNL     1      36.477  43.687  20.675 -0.41 -0.00    +0.013 A  ATOM      9  C   UNL     1      36.863  44.096  19.447 -0.37 -0.00    +0.007 A  ATOM     10  H   UNL     1      40.008  44.321  19.449 +0.12 +0.00    +0.191 HD ENDROOTBRANCH   1  11ATOM     11  S   UNL     1      38.462  44.844  17.365 -0.45 +0.01    -0.031 SA BRANCH  11  12ATOM     12  C   UNL     1      40.085  45.546  17.507 -0.30 -0.02    +0.208 C  ATOM     13  O   UNL     1      41.045  44.887  17.906 -0.28 -0.01    -0.286 OA BRANCH  12  14ATOM     14  C   UNL     1      40.116  47.058  17.363 -0.45 -0.02    +0.132 C  ATOM     15  C   UNL     1      41.397  47.663  17.920 -0.57 -0.00    +0.029 C  ATOM     16  Br  UNL     1      39.966  47.554  15.487 -0.96 +0.02    -0.080 Br ENDBRANCH  12  14ENDBRANCH  11  12ENDBRANCH   1  11BRANCH   9  17ATOM     17  C   UNL     1      35.799  43.955  18.434 -0.37 -0.01    +0.024 C  BRANCH  17  18ATOM     18  C   UNL     1      35.242  45.014  17.824 -0.32 -0.05    +0.123 C  BRANCH  18  19ATOM     19  S   UNL     1      33.646  45.502  18.236 -0.47 -0.12    +0.231 S  ATOM     20  O   UNL     1      32.816  45.513  17.053 -0.38 +0.13    -0.208 OA ATOM     21  O   UNL     1      33.214  44.853  19.456 -0.40 +0.06    -0.208 OA BRANCH  19  22ATOM     22  N   UNL     1      33.830  47.128  18.659 -0.94 +0.18    -0.225 NA ATOM     23  H   UNL     1      33.440  47.729  17.938 -0.51 -0.25    +0.137 HD ATOM     24  H   UNL     1      33.490  47.305  19.605 -0.45 -0.06    +0.137 HD ENDBRANCH  19  22ENDBRANCH  18  19ENDBRANCH  17  18ENDBRANCH   9  17BRANCH   6  25ATOM     25  N   UNL     1      37.532  43.561  24.182 -0.12 -0.03    -0.371 N  ATOM     26  C   UNL     1      36.951  44.438  25.211 -0.31 +0.00    +0.117 C  ATOM     27  C   UNL     1      37.344  42.108  24.333 -0.35 +0.00    +0.117 C  ATOM     28  C   UNL     1      37.046  43.760  26.571 -0.37 -0.00    +0.034 C  ATOM     29  C   UNL     1      36.125  41.810  25.201 -0.37 -0.00    +0.034 C  ATOM     30  C   UNL     1      36.248  42.442  26.599 -0.45 -0.02    +0.098 C  BRANCH  30  31ATOM     31  C   UNL     1      36.871  41.473  27.591 -0.27 -0.11    +0.391 C  ATOM     32  F   UNL     1      37.629  40.549  26.953 -0.14 +0.03    -0.171 F  ATOM     33  F   UNL     1      35.943  40.811  28.317 -0.26 +0.09    -0.171 F  ATOM     34  F   UNL     1      37.681  42.121  28.459 -0.10 +0.05    -0.171 F  ENDBRANCH  30  31ENDBRANCH   6  25TORSDOF 9TERENDMDL