REMARK SMILES C[C@@H](Br)C(=O)Sc1[nH]nccc(N2CCC(C(F)(F)F)CC2)ccc1C=CS(N)(=O)=O
REMARK SMILES IDX 7 1 8 2 9 3 10 4 11 5 12 6 23 7 24 8 25 9 6 11 4 12 5 13
REMARK SMILES IDX 2 14 1 15 3 16 26 17 27 18 28 19 30 20 31 21 29 22 13 25
REMARK SMILES IDX 14 26 22 27 15 28 21 29 16 30 17 31 18 32 19 33 20 34
REMARK H PARENT 8 10 29 23 29 24
ROOT
ATOM      1  C   UNL     1       2.318   1.026   0.559  1.00  0.00     0.104 A 
ATOM      2  N   UNL     1       1.405   2.049   0.419  1.00  0.00    -0.271 N 
ATOM      3  N   UNL     1       1.045   2.383  -0.943  1.00  0.00    -0.183 NA
ATOM      4  C   UNL     1      -0.274   2.236  -1.110  1.00  0.00     0.135 A 
ATOM      5  C   UNL     1      -1.284   1.529  -0.581  1.00  0.00     0.048 A 
ATOM      6  C   UNL     1      -1.448   0.484   0.256  1.00  0.00     0.038 A 
ATOM      7  C   UNL     1      -0.588  -0.395   0.812  1.00  0.00     0.026 A 
ATOM      8  C   UNL     1       0.697  -0.726   0.991  1.00  0.00     0.013 A 
ATOM      9  C   UNL     1       1.953  -0.251   0.846  1.00  0.00     0.007 A 
ATOM     10  H   UNL     1       1.798   2.898   0.820  1.00  0.00     0.191 HD
ENDROOT
BRANCH   1  11
ATOM     11  S   UNL     1       4.034   1.498   0.606  1.00  0.00    -0.031 SA
BRANCH  11  12
ATOM     12  C   UNL     1       4.448   1.365  -1.114  1.00  0.00     0.208 C 
ATOM     13  O   UNL     1       4.253   0.329  -1.751  1.00  0.00    -0.286 OA
BRANCH  12  14
ATOM     14  C   UNL     1       5.293   2.514  -1.635  1.00  0.00     0.132 C 
ATOM     15  C   UNL     1       6.085   2.130  -2.877  1.00  0.00     0.029 C 
ATOM     16  Br  UNL     1       4.158   4.033  -2.074  1.00  0.00    -0.080 Br
ENDBRANCH  12  14
ENDBRANCH  11  12
ENDBRANCH   1  11
BRANCH   9  17
ATOM     17  C   UNL     1       2.986  -1.272   1.110  1.00  0.00     0.024 C 
BRANCH  17  18
ATOM     18  C   UNL     1       3.484  -2.058   0.141  1.00  0.00     0.123 C 
BRANCH  18  19
ATOM     19  S   UNL     1       4.608  -3.298   0.535  1.00  0.00     0.231 S 
ATOM     20  O   UNL     1       5.121  -3.897  -0.676  1.00  0.00    -0.208 OA
ATOM     21  O   UNL     1       5.491  -2.867   1.597  1.00  0.00    -0.208 OA
BRANCH  19  22
ATOM     22  N   UNL     1       3.642  -4.492   1.241  1.00  0.00    -0.225 NA
ATOM     23  H   UNL     1       3.367  -4.217   2.180  1.00  0.00     0.137 HD
ATOM     24  H   UNL     1       2.875  -4.761   0.624  1.00  0.00     0.137 HD
ENDBRANCH  19  22
ENDBRANCH  18  19
ENDBRANCH  17  18
ENDBRANCH   9  17
BRANCH   6  25
ATOM     25  N   UNL     1      -2.832   0.143   0.517  1.00  0.00    -0.371 N 
ATOM     26  C   UNL     1      -3.674   1.101   1.251  1.00  0.00     0.117 C 
ATOM     27  C   UNL     1      -3.503  -0.818  -0.374  1.00  0.00     0.117 C 
ATOM     28  C   UNL     1      -4.983   0.431   1.645  1.00  0.00     0.034 C 
ATOM     29  C   UNL     1      -4.869  -0.292  -0.803  1.00  0.00     0.034 C 
ATOM     30  C   UNL     1      -5.782  -0.014   0.405  1.00  0.00     0.098 C 
BRANCH  30  31
ATOM     31  C   UNL     1      -6.639  -1.224   0.740  1.00  0.00     0.391 C 
ATOM     32  F   UNL     1      -7.479  -0.952   1.767  1.00  0.00    -0.171 F 
ATOM     33  F   UNL     1      -5.899  -2.299   1.090  1.00  0.00    -0.171 F 
ATOM     34  F   UNL     1      -7.405  -1.583  -0.316  1.00  0.00    -0.171 F 
ENDBRANCH  30  31
ENDBRANCH   6  25
TORSDOF 9
