MODEL        1USER    Run = 1USERUSER    Estimated Free Energy of Binding    = -10.55 kcal/mol  [=(1)+(2)+(3)-(4)]USERUSER    (1) Final Intermolecular Energy     = -12.94 kcal/molUSER        vdW + Hbond + desolv Energy     = -12.83 kcal/molUSER        Electrostatic Energy            =  -0.11 kcal/molUSER        Moving Ligand-Fixed Receptor    = -12.94 kcal/molUSER        Moving Ligand-Moving Receptor   =  +0.00 kcal/molUSER    (2) Final Total Internal Energy     =  -1.48 kcal/molUSER    (3) Torsional Free Energy           =  +2.39 kcal/molUSER    (4) Unbound System's Energy         =  -1.48 kcal/molUSERUSERREMARK SMILES CC(=O)Sc1[nH]nccc(N2CCC(C(F)(F)F)CC2)ccc1C=CS(N)(=O)=OREMARK SMILES IDX 24 1 23 2 5 3 6 4 7 5 22 6 8 7 21 8 9 9 10 10 4 12 2 13 1 14REMARK SMILES IDX 3 15 11 16 12 17 20 18 13 19 19 20 14 21 15 22 16 23 17 24REMARK SMILES IDX 18 25 25 26 26 27 28 28 29 29 27 30REMARK H PARENT 6 11 27 31 27 32USER                              x       y       z     vdW  Elec       q    TypeUSER                           _______ _______ _______ _____ _____    ______ ____ROOTATOM      1  C   UNL     1      38.836  46.133  14.133 -0.39 -0.01    +0.024 C  ENDROOTBRANCH   1   2ATOM      2  C   UNL     1      39.100  46.455  15.549 -0.43 -0.00    +0.007 A  ATOM      3  C   UNL     1      39.734  47.615  15.870 -0.44 -0.03    +0.104 A  ATOM      4  N   UNL     1      40.146  47.947  17.139 -0.27 +0.06    -0.271 N  ATOM      5  N   UNL     1      41.391  47.334  17.580 -0.41 +0.02    -0.183 NA ATOM      6  C   UNL     1      38.620  45.521  16.399 -0.31 -0.00    +0.013 A  ATOM      7  C   UNL     1      41.167  46.765  18.767 -0.38 -0.00    +0.135 A  ATOM      8  C   UNL     1      38.568  45.192  17.695 -0.37 -0.00    +0.026 A  ATOM      9  C   UNL     1      40.189  46.049  19.343 -0.35 -0.00    +0.048 A  ATOM     10  C   UNL     1      39.078  45.407  18.927 -0.39 -0.00    +0.038 A  ATOM     11  H   UNL     1      40.301  48.950  17.196 +0.14 -0.05    +0.191 HD BRANCH   3  12ATOM     12  S   UNL     1      39.967  48.877  14.627 -0.68 +0.01    -0.032 SA BRANCH  12  13ATOM     13  C   UNL     1      41.421  49.637  15.266 -0.57 -0.03    +0.192 C  ATOM     14  C   UNL     1      42.470  50.023  14.259 -0.58 -0.01    +0.101 C  ATOM     15  O   UNL     1      41.549  49.855  16.468 -1.04 -0.01    -0.287 OA ENDBRANCH  12  13ENDBRANCH   3  12BRANCH  10  16ATOM     16  N   UNL     1      38.404  44.725  20.007 -0.15 +0.01    -0.371 N  ATOM     17  C   UNL     1      37.284  43.826  19.720 -0.32 -0.01    +0.117 C  ATOM     18  C   UNL     1      39.151  44.433  21.237 -0.31 +0.00    +0.117 C  ATOM     19  C   UNL     1      36.296  43.871  20.883 -0.43 +0.00    +0.034 C  ATOM     20  C   UNL     1      38.196  44.486  22.428 -0.38 +0.00    +0.034 C  ATOM     21  C   UNL     1      36.960  43.592  22.241 -0.38 +0.01    +0.098 C  BRANCH  21  22ATOM     22  C   UNL     1      37.292  42.119  22.419 -0.26 +0.03    +0.391 C  ATOM     23  F   UNL     1      36.729  41.633  23.551 -0.19 -0.00    -0.171 F  ATOM     24  F   UNL     1      38.613  41.868  22.488 -0.09 -0.02    -0.171 F  ATOM     25  F   UNL     1      36.796  41.391  21.389 -0.22 -0.00    -0.171 F  ENDBRANCH  21  22ENDBRANCH  10  16ENDBRANCH   1   2BRANCH   1  26ATOM     26  C   UNL     1      37.579  46.025  13.673 -0.42 -0.04    +0.123 C  BRANCH  26  27ATOM     27  S   UNL     1      36.980  47.161  12.532 -0.69 -0.08    +0.231 S  ATOM     28  O   UNL     1      37.679  47.016  11.275 -0.91 +0.03    -0.208 OA ATOM     29  O   UNL     1      36.807  48.453  13.160 -0.87 +0.09    -0.208 OA BRANCH  27  30ATOM     30  N   UNL     1      35.410  46.622  12.218 -0.38 +0.15    -0.225 NA ATOM     31  H   UNL     1      35.229  46.565  11.218 -0.14 -0.10    +0.137 HD ATOM     32  H   UNL     1      34.725  47.148  12.757 -0.24 -0.12    +0.137 HD ENDBRANCH  27  30ENDBRANCH  26  27ENDBRANCH   1  26TORSDOF 8TERENDMDL