MODEL        4USER    Run = 4USERUSER    Estimated Free Energy of Binding    =  -8.71 kcal/mol  [=(1)+(2)+(3)-(4)]USERUSER    (1) Final Intermolecular Energy     = -11.69 kcal/molUSER        vdW + Hbond + desolv Energy     = -11.48 kcal/molUSER        Electrostatic Energy            =  -0.22 kcal/molUSER        Moving Ligand-Fixed Receptor    = -11.69 kcal/molUSER        Moving Ligand-Moving Receptor   =  +0.00 kcal/molUSER    (2) Final Total Internal Energy     =  -1.29 kcal/molUSER    (3) Torsional Free Energy           =  +2.98 kcal/molUSER    (4) Unbound System's Energy         =  -1.29 kcal/molUSERUSERREMARK SMILES Cc1c(CCCCc2ncnc(F)c2N)cccc1OCCN1CCOCC1REMARK SMILES IDX 4 1 3 2 2 3 19 4 16 5 18 6 17 7 1 8 20 9 21 10 22 11 23 12REMARK SMILES IDX 24 13 28 14 25 15 27 16 26 17 5 18 6 19 7 20 8 21 9 22 14 23REMARK SMILES IDX 10 24 12 25 11 26 13 27 15 28REMARK H PARENT 15 29 15 30USER                              x       y       z     vdW  Elec       q    TypeUSER                           _______ _______ _______ _____ _____    ______ ____ROOTATOM      1  C   UNL     1      38.320  48.690  15.686 -0.42 -0.02    +0.036 C  ENDROOTBRANCH   1   2ATOM      2  C   UNL     1      37.429  47.816  14.828 -0.46 +0.03    -0.041 A  ATOM      3  C   UNL     1      36.687  46.726  15.341 -0.39 +0.00    -0.006 A  ATOM      4  C   UNL     1      35.872  45.968  14.467 -0.32 -0.08    +0.122 A  ATOM      5  C   UNL     1      37.371  48.095  13.453 -0.55 -0.00    +0.004 A  ATOM      6  C   UNL     1      35.840  46.265  13.102 -0.51 -0.03    +0.047 A  ATOM      7  C   UNL     1      36.586  47.327  12.597 -0.68 -0.00    +0.004 A  ATOM      8  C   UNL     1      36.693  46.360  16.805 -0.37 -0.03    +0.049 C  BRANCH   4   9ATOM      9  O   UNL     1      35.173  44.940  15.048 -0.06 +0.28    -0.492 OA BRANCH   9  10ATOM     10  C   UNL     1      33.831  45.174  15.487 -0.20 -0.19    +0.245 C  BRANCH  10  11ATOM     11  C   UNL     1      33.319  44.107  16.485 -0.29 -0.06    +0.126 C  BRANCH  11  12ATOM     12  N   UNL     1      32.644  44.649  17.685 -0.16 +0.09    -0.295 NA ATOM     13  C   UNL     1      31.863  43.602  18.384 -0.30 -0.01    +0.113 C  ATOM     14  C   UNL     1      33.571  45.257  18.662 -0.43 -0.05    +0.113 C  ATOM     15  C   UNL     1      32.729  42.599  19.167 -0.32 -0.01    +0.175 C  ATOM     16  C   UNL     1      34.410  44.233  19.451 -0.34 -0.03    +0.175 C  ATOM     17  O   UNL     1      33.581  43.264  20.107 -0.76 -0.04    -0.379 OA ENDBRANCH  11  12ENDBRANCH  10  11ENDBRANCH   9  10ENDBRANCH   4   9ENDBRANCH   1   2BRANCH   1  18ATOM     18  C   UNL     1      39.771  48.672  15.193 -0.63 -0.00    +0.005 C  BRANCH  18  19ATOM     19  C   UNL     1      40.735  48.287  16.317 -0.64 -0.00    +0.007 C  BRANCH  19  20ATOM     20  C   UNL     1      40.695  46.781  16.589 -0.46 -0.01    +0.059 C  BRANCH  20  21ATOM     21  C   UNL     1      40.797  46.479  18.065 -0.46 -0.00    +0.070 A  ATOM     22  N   UNL     1      39.876  45.601  18.540 -0.27 +0.02    -0.239 NA ATOM     23  C   UNL     1      41.789  47.033  18.868 -0.44 +0.00    +0.109 A  ATOM     24  C   UNL     1      39.975  45.246  19.829 -0.26 +0.00    +0.225 A  ATOM     25  C   UNL     1      41.794  46.529  20.169 -0.22 +0.03    +0.239 A  ATOM     26  N   UNL     1      40.902  45.665  20.688 -0.23 -0.02    -0.206 NA ATOM     27  F   UNL     1      42.761  46.957  21.001 -0.13 -0.04    -0.182 F  BRANCH  23  28ATOM     28  N   UNL     1      42.835  47.840  18.381 -0.21 -0.01    -0.394 N  ATOM     29  H   UNL     1      43.273  48.442  19.072 -0.48 -0.01    +0.156 HD ATOM     30  H   UNL     1      43.516  47.318  17.828 -0.50 -0.02    +0.156 HD ENDBRANCH  23  28ENDBRANCH  20  21ENDBRANCH  19  20ENDBRANCH  18  19ENDBRANCH   1  18TORSDOF 10TERENDMDL