REMARK SMILES Cc1c(CCCCc2ncnc(F)c2N)cccc1OCCN1CCOCC1
REMARK SMILES IDX 4 1 3 2 2 3 19 4 16 5 18 6 17 7 1 8 20 9 21 10 22 11 23 12
REMARK SMILES IDX 24 13 28 14 25 15 27 16 26 17 5 18 6 19 7 20 8 21 9 22 14 23
REMARK SMILES IDX 10 24 12 25 11 26 13 27 15 28
REMARK H PARENT 15 29 15 30
ROOT
ATOM      1  C   UNL     1       1.755  -0.856  -0.780  1.00  0.00     0.036 C 
ENDROOT
BRANCH   1   2
ATOM      2  C   UNL     1       0.474  -1.393  -0.177  1.00  0.00    -0.041 A 
ATOM      3  C   UNL     1      -0.492  -0.571   0.450  1.00  0.00    -0.006 A 
ATOM      4  C   UNL     1      -1.666  -1.158   0.979  1.00  0.00     0.122 A 
ATOM      5  C   UNL     1       0.263  -2.781  -0.222  1.00  0.00     0.004 A 
ATOM      6  C   UNL     1      -1.844  -2.542   0.926  1.00  0.00     0.047 A 
ATOM      7  C   UNL     1      -0.883  -3.351   0.325  1.00  0.00     0.004 A 
ATOM      8  C   UNL     1      -0.343   0.928   0.540  1.00  0.00     0.049 C 
BRANCH   4   9
ATOM      9  O   UNL     1      -2.558  -0.288   1.554  1.00  0.00    -0.492 OA
BRANCH   9  10
ATOM     10  C   UNL     1      -3.932  -0.675   1.665  1.00  0.00     0.245 C 
BRANCH  10  11
ATOM     11  C   UNL     1      -4.674  -0.693   0.307  1.00  0.00     0.126 C 
BRANCH  11  12
ATOM     12  N   UNL     1      -4.703   0.603  -0.405  1.00  0.00    -0.295 NA
ATOM     13  C   UNL     1      -5.162   0.441  -1.804  1.00  0.00     0.113 C 
ATOM     14  C   UNL     1      -5.562   1.616   0.243  1.00  0.00     0.113 C 
ATOM     15  C   UNL     1      -6.675   0.189  -1.937  1.00  0.00     0.175 C 
ATOM     16  C   UNL     1      -7.072   1.356   0.077  1.00  0.00     0.175 C 
ATOM     17  O   UNL     1      -7.436   1.224  -1.304  1.00  0.00    -0.379 OA
ENDBRANCH  11  12
ENDBRANCH  10  11
ENDBRANCH   9  10
ENDBRANCH   4   9
ENDBRANCH   1   2
BRANCH   1  18
ATOM     18  C   UNL     1       2.860  -0.720   0.273  1.00  0.00     0.005 C 
BRANCH  18  19
ATOM     19  C   UNL     1       4.151  -0.176  -0.343  1.00  0.00     0.007 C 
BRANCH  19  20
ATOM     20  C   UNL     1       5.262  -0.070   0.705  1.00  0.00     0.059 C 
BRANCH  20  21
ATOM     21  C   UNL     1       6.552   0.429   0.100  1.00  0.00     0.070 A 
ATOM     22  N   UNL     1       7.421  -0.540  -0.287  1.00  0.00    -0.239 NA
ATOM     23  C   UNL     1       6.811   1.784  -0.081  1.00  0.00     0.109 A 
ATOM     24  C   UNL     1       8.548  -0.146  -0.898  1.00  0.00     0.225 A 
ATOM     25  C   UNL     1       7.996   2.034  -0.774  1.00  0.00     0.239 A 
ATOM     26  N   UNL     1       8.891   1.111  -1.173  1.00  0.00    -0.206 NA
ATOM     27  F   UNL     1       8.297   3.315  -1.056  1.00  0.00    -0.182 F 
BRANCH  23  28
ATOM     28  N   UNL     1       5.879   2.805   0.187  1.00  0.00    -0.394 N 
ATOM     29  H   UNL     1       5.271   2.637   0.983  1.00  0.00     0.156 HD
ATOM     30  H   UNL     1       6.301   3.734   0.206  1.00  0.00     0.156 HD
ENDBRANCH  23  28
ENDBRANCH  20  21
ENDBRANCH  19  20
ENDBRANCH  18  19
ENDBRANCH   1  18
TORSDOF 10
