MODEL        4USER    Run = 4USERUSER    Estimated Free Energy of Binding    =  -6.41 kcal/mol  [=(1)+(2)+(3)-(4)]USERUSER    (1) Final Intermolecular Energy     =  -8.50 kcal/molUSER        vdW + Hbond + desolv Energy     =  -8.86 kcal/molUSER        Electrostatic Energy            =  -0.06 kcal/molUSER        Moving Ligand-Fixed Receptor    =  -8.93 kcal/molUSER        Moving Ligand-Moving Receptor   =  +0.42 kcal/molUSER    (2) Final Total Internal Energy     =  -0.35 kcal/molUSER    (3) Torsional Free Energy           =  +2.09 kcal/molUSER    (4) Unbound System's Energy         =  -0.35 kcal/molUSERUSERREMARK SMILES CN1CCN(C(=O)c2ccc(C3=NNC=NC=C3)cc2)CC1REMARK SMILES IDX 12 1 11 2 8 3 9 4 20 5 10 6 19 7 6 8 2 9 3 10 22 11 4 12REMARK SMILES IDX 21 13 5 14 1 15 7 16 13 17 14 18 15 19 16 21 17 22 18 24REMARK H PARENT 14 20REMARK Flexibility Score:   28.900USER                              x       y       z     vdW  Elec       q    TypeUSER                           _______ _______ _______ _____ _____    ______ ____ROOTATOM      1  C   UNL     1      39.634  47.279  15.759 -0.49 -0.02    +0.092 C  ENDROOTBRANCH   1   2ATOM      2  C   UNL     1      38.552  46.267  15.990 -0.40 -0.00    +0.002 A  ATOM      3  C   UNL     1      36.531  44.365  16.364 -0.32 -0.01    +0.040 A  ATOM      4  C   UNL     1      37.221  44.877  17.468 -0.34 -0.00    +0.014 A  ATOM      5  C   UNL     1      36.878  44.768  15.069 -0.37 -0.01    +0.014 A  ATOM      6  C   UNL     1      38.228  45.830  17.283 -0.38 -0.00    +0.011 A  ATOM      7  C   UNL     1      37.884  45.721  14.884 -0.38 -0.00    +0.011 A  BRANCH   3   8ATOM      8  C   UNL     1      35.491  43.332  16.586 -0.29 -0.09    +0.253 C  ATOM      9  N   UNL     1      33.237  43.024  19.830 -0.71 -0.03    -0.303 NA ATOM     10  C   UNL     1      34.225  44.105  19.614 -0.38 -0.02    +0.105 C  ATOM     11  C   UNL     1      33.305  42.045  18.717 -0.39 -0.01    +0.105 C  ATOM     12  C   UNL     1      34.195  44.745  18.206 -0.33 -0.05    +0.135 C  ATOM     13  C   UNL     1      33.254  42.676  17.310 -0.32 -0.05    +0.135 C  ATOM     14  N   UNL     1      34.278  43.712  17.166 -0.08 +0.13    -0.336 N  ATOM     15  C   UNL     1      31.885  43.552  20.003 -0.19 +0.01    +0.105 C  ATOM     16  O   UNL     1      35.738  42.185  16.221 -0.39 +0.11    -0.269 OA ENDBRANCH   3   8ENDBRANCH   1   2BRANCH   1  17ATOM     17  N   UNL     1      39.635  47.883  14.613 -0.37 +0.05    -0.174 NA BRANCH  17  18ATOM     18  N   UNL     1      40.018  49.186  14.524 -0.23 +0.11    -0.267 N  ATOM     19  C   UNL     1      41.029  49.807  15.223 -0.54 -0.06    +0.214 C  ATOM     20  H   UNL     1      39.905  49.552  13.581 -0.01 -0.09    +0.191 HD BRANCH  19  21ATOM     21  N   UNL     1      41.499  49.688  16.416 -0.97 -0.01    -0.245 NA BRANCH  21  22ATOM     22  C   UNL     1      41.411  48.489  17.054 -0.42 -0.00    +0.115 CG0ATOM     23  G   UNL     1      40.524  47.500  16.922 +0.00 +0.00    +0.000 G0 ENDBRANCH  21  22ENDBRANCH  19  21ENDBRANCH  17  18ENDBRANCH   1  17BRANCH   1  24ATOM     24  C   UNL     1      40.524  47.500  16.929 -0.56 -0.01    +0.051 CG0ATOM     25  G   UNL     1      41.412  48.489  17.055 +0.00 +0.00    +0.000 G0 ENDBRANCH   1  24TORSDOF 2TERENDMDL