REMARK SMILES O=C(c1ccc(C2=NNC=NC=C2)cc1)N1CCN(CCCc2ccccc2F)CC1
REMARK SMILES IDX 1 1 2 2 16 3 17 4 18 5 19 6 30 7 31 8 3 9 4 10 15 11 5 12
REMARK SMILES IDX 14 13 6 14 7 15 8 16 9 17 10 18 11 20 12 21 13 23 20 25
REMARK SMILES IDX 21 26 22 27 23 28 24 29 28 30 25 31 27 32 26 33 29 34
REMARK H PARENT 9 19
REMARK Flexibility Score:   79.900
ROOT
ATOM      1  O   UNL     1       1.951   0.974   3.225  1.00  0.00    -0.269 OA
ATOM      2  C   UNL     1       1.774   0.768   2.026  1.00  0.00     0.253 C 
ATOM      3  N   UNL     1       0.524   0.817   1.421  1.00  0.00    -0.336 N 
ATOM      4  C   UNL     1      -0.622   1.216   2.235  1.00  0.00     0.135 C 
ATOM      5  C   UNL     1      -1.806   1.731   1.393  1.00  0.00     0.106 C 
ATOM      6  N   UNL     1      -2.204   0.883   0.247  1.00  0.00    -0.300 NA
ATOM      7  C   UNL     1      -1.264  -0.230   0.025  1.00  0.00     0.106 C 
ATOM      8  C   UNL     1       0.206   0.220   0.118  1.00  0.00     0.135 C 
ENDROOT
BRANCH   2   9
ATOM      9  C   UNL     1       2.961   0.444   1.199  1.00  0.00     0.040 A 
ATOM     10  C   UNL     1       3.242   1.160   0.031  1.00  0.00     0.014 A 
ATOM     11  C   UNL     1       3.842  -0.546   1.647  1.00  0.00     0.014 A 
ATOM     12  C   UNL     1       4.382   0.851  -0.715  1.00  0.00     0.011 A 
ATOM     13  C   UNL     1       4.983  -0.855   0.901  1.00  0.00     0.011 A 
ATOM     14  C   UNL     1       5.248  -0.169  -0.293  1.00  0.00     0.002 A 
BRANCH  14  15
ATOM     15  C   UNL     1       6.468  -0.470  -1.109  1.00  0.00     0.092 C 
BRANCH  15  16
ATOM     16  N   UNL     1       7.061   0.534  -1.670  1.00  0.00    -0.174 NA
BRANCH  16  17
ATOM     17  N   UNL     1       8.186   0.343  -2.412  1.00  0.00    -0.267 N 
ATOM     18  C   UNL     1       9.165  -0.604  -2.214  1.00  0.00     0.214 C 
ATOM     19  H   UNL     1       8.549   1.219  -2.785  1.00  0.00     0.191 HD
BRANCH  18  20
ATOM     20  N   UNL     1       9.164  -1.821  -1.792  1.00  0.00    -0.245 NA
BRANCH  20  21
ATOM     21  C   UNL     1       7.980  -2.434  -1.517  1.00  0.00     0.115 CG0
ATOM     22  G   UNL     1       6.785  -1.919  -1.219  1.00  0.00     0.000 G0
ENDBRANCH  20  21
ENDBRANCH  18  20
ENDBRANCH  16  17
ENDBRANCH  15  16
BRANCH  15  23
ATOM     23  C   UNL     1       6.785  -1.919  -1.219  1.00  0.00     0.051 CG0
ATOM     24  G   UNL     1       7.980  -2.434  -1.517  1.00  0.00     0.000 G0
ENDBRANCH  15  23
ENDBRANCH  14  15
ENDBRANCH   2   9
BRANCH   6  25
ATOM     25  C   UNL     1      -3.589   0.401   0.333  1.00  0.00     0.085 C 
BRANCH  25  26
ATOM     26  C   UNL     1      -4.602   1.526   0.072  1.00  0.00     0.020 C 
BRANCH  26  27
ATOM     27  C   UNL     1      -6.055   1.064   0.238  1.00  0.00     0.040 C 
BRANCH  27  28
ATOM     28  C   UNL     1      -6.498   0.038  -0.772  1.00  0.00    -0.012 A 
ATOM     29  C   UNL     1      -6.690  -1.300  -0.401  1.00  0.00     0.007 A 
ATOM     30  C   UNL     1      -6.723   0.400  -2.104  1.00  0.00     0.126 A 
ATOM     31  C   UNL     1      -7.093  -2.245  -1.349  1.00  0.00     0.000 A 
ATOM     32  C   UNL     1      -7.124  -0.537  -3.052  1.00  0.00     0.039 A 
ATOM     33  C   UNL     1      -7.309  -1.865  -2.673  1.00  0.00     0.003 A 
ATOM     34  F   UNL     1      -6.556   1.674  -2.487  1.00  0.00    -0.207 F 
ENDBRANCH  27  28
ENDBRANCH  26  27
ENDBRANCH  25  26
ENDBRANCH   6  25
TORSDOF 6
