MODEL        1USER    Run = 1USERUSER    Estimated Free Energy of Binding    =  -9.26 kcal/mol  [=(1)+(2)+(3)-(4)]USERUSER    (1) Final Intermolecular Energy     = -12.54 kcal/molUSER        vdW + Hbond + desolv Energy     = -12.63 kcal/molUSER        Electrostatic Energy            =  -0.11 kcal/molUSER        Moving Ligand-Fixed Receptor    = -12.74 kcal/molUSER        Moving Ligand-Moving Receptor   =  +0.20 kcal/molUSER    (2) Final Total Internal Energy     =  -0.79 kcal/molUSER    (3) Torsional Free Energy           =  +3.28 kcal/molUSER    (4) Unbound System's Energy         =  -0.79 kcal/molUSERUSERREMARK SMILES O=C(c1ccc(C2=NNC=NC=C2)cc1)N1CCN(CCCc2ccccc2F)CC1REMARK SMILES IDX 1 1 2 2 16 3 17 4 18 5 19 6 30 7 31 8 3 9 4 10 15 11 5 12REMARK SMILES IDX 14 13 6 14 7 15 8 16 9 17 10 18 11 20 12 21 13 23 20 25REMARK SMILES IDX 21 26 22 27 23 28 24 29 28 30 25 31 27 32 26 33 29 34REMARK H PARENT 9 19REMARK Flexibility Score:   79.900USER                              x       y       z     vdW  Elec       q    TypeUSER                           _______ _______ _______ _____ _____    ______ ____ROOTATOM      1  O   UNL     1      33.827  42.771  19.841 -0.71 -0.02    -0.269 OA ATOM      2  C   UNL     1      34.958  43.210  19.646 -0.30 -0.02    +0.253 C  ATOM      3  N   UNL     1      36.019  42.996  20.517 -0.22 +0.00    -0.336 N  ATOM      4  C   UNL     1      35.797  42.136  21.678 -0.32 +0.01    +0.135 C  ATOM      5  C   UNL     1      37.104  41.560  22.256 -0.52 +0.01    +0.106 C  ATOM      6  N   UNL     1      38.197  42.532  22.483 -0.17 -0.02    -0.300 NA ATOM      7  C   UNL     1      37.877  43.865  21.944 -0.35 +0.01    +0.106 C  ATOM      8  C   UNL     1      37.253  43.791  20.538 -0.36 -0.00    +0.135 C  ENDROOTBRANCH   2   9ATOM      9  C   UNL     1      35.185  44.013  18.421 -0.30 -0.01    +0.040 A  ATOM     10  C   UNL     1      35.320  43.399  17.172 -0.35 -0.00    +0.014 A  ATOM     11  C   UNL     1      35.187  45.408  18.523 -0.35 -0.01    +0.014 A  ATOM     12  C   UNL     1      35.506  44.181  16.030 -0.35 -0.00    +0.011 A  ATOM     13  C   UNL     1      35.373  46.192  17.380 -0.37 -0.01    +0.011 A  ATOM     14  C   UNL     1      35.551  45.580  16.131 -0.34 -0.00    +0.002 A  BRANCH  14  15ATOM     15  C   UNL     1      35.741  46.393  14.887 -0.38 -0.08    +0.092 C  BRANCH  15  16ATOM     16  N   UNL     1      34.826  46.296  13.977 -0.34 +0.15    -0.174 NA BRANCH  16  17ATOM     17  N   UNL     1      35.161  46.316  12.658 -0.25 +0.18    -0.267 N  ATOM     18  C   UNL     1      36.170  47.040  12.064 -0.56 -0.11    +0.214 C  ATOM     19  H   UNL     1      34.346  46.201  12.057 -0.29 -0.18    +0.191 HD BRANCH  18  20ATOM     20  N   UNL     1      37.350  47.402  12.431 -0.99 +0.06    -0.245 NA BRANCH  20  21ATOM     21  C   UNL     1      37.597  47.647  13.747 -0.52 -0.05    +0.115 CG0ATOM     22  G   UNL     1      37.021  47.152  14.845 +0.00 +0.00    +0.000 G0 ENDBRANCH  20  21ENDBRANCH  18  20ENDBRANCH  16  17ENDBRANCH  15  16BRANCH  15  23ATOM     23  C   UNL     1      37.019  47.153  14.845 -0.46 -0.03    +0.051 CG0ATOM     24  G   UNL     1      37.595  47.648  13.747 +0.00 +0.00    +0.000 G0 ENDBRANCH  15  23ENDBRANCH  14  15ENDBRANCH   2   9BRANCH   6  25ATOM     25  C   UNL     1      38.621  42.613  23.888 -0.22 +0.01    +0.085 C  BRANCH  25  26ATOM     26  C   UNL     1      37.447  42.385  24.852 -0.41 +0.00    +0.020 C  BRANCH  26  27ATOM     27  C   UNL     1      37.801  42.723  26.305 -0.33 -0.00    +0.040 C  BRANCH  27  28ATOM     28  C   UNL     1      36.666  43.317  27.097 -0.39 +0.00    -0.012 A  ATOM     29  C   UNL     1      36.796  44.569  27.714 -0.41 -0.00    +0.007 A  ATOM     30  C   UNL     1      35.457  42.627  27.237 -0.45 -0.03    +0.126 A  ATOM     31  C   UNL     1      35.738  45.105  28.454 -0.42 -0.00    +0.000 A  ATOM     32  C   UNL     1      34.401  43.156  27.973 -0.44 -0.01    +0.039 A  ATOM     33  C   UNL     1      34.542  44.400  28.584 -0.62 -0.00    +0.003 A  ATOM     34  F   UNL     1      35.300  41.431  26.651 -0.17 +0.07    -0.207 F  ENDBRANCH  27  28ENDBRANCH  26  27ENDBRANCH  25  26ENDBRANCH   6  25TORSDOF 6TERENDMDL