REMARK SMILES CN1CCN(C(=O)c2ccc(C3=NNC=NC=C3)cc2)CC1
REMARK SMILES IDX 12 1 11 2 8 3 9 4 20 5 10 6 19 7 6 8 2 9 3 10 22 11 4 12
REMARK SMILES IDX 21 13 5 14 1 15 7 16 13 17 14 18 15 19 16 21 17 22 18 24
REMARK H PARENT 14 20
REMARK Flexibility Score:   28.900
ROOT
ATOM      1  C   UNL     1       4.005  -0.217  -0.441  1.00  0.00     0.092 C 
ENDROOT
BRANCH   1   2
ATOM      2  C   UNL     1       2.608  -0.235   0.102  1.00  0.00     0.002 A 
ATOM      3  C   UNL     1      -0.007  -0.326   1.099  1.00  0.00     0.040 A 
ATOM      4  C   UNL     1       0.839   0.730   1.454  1.00  0.00     0.014 A 
ATOM      5  C   UNL     1       0.464  -1.361   0.282  1.00  0.00     0.014 A 
ATOM      6  C   UNL     1       2.144   0.778   0.954  1.00  0.00     0.011 A 
ATOM      7  C   UNL     1       1.768  -1.312  -0.218  1.00  0.00     0.011 A 
BRANCH   3   8
ATOM      8  C   UNL     1      -1.375  -0.370   1.669  1.00  0.00     0.253 C 
ATOM      9  N   UNL     1      -4.628   1.047  -0.094  1.00  0.00    -0.303 NA
ATOM     10  C   UNL     1      -3.286   1.051  -0.718  1.00  0.00     0.105 C 
ATOM     11  C   UNL     1      -4.539   0.541   1.298  1.00  0.00     0.105 C 
ATOM     12  C   UNL     1      -2.495  -0.271  -0.575  1.00  0.00     0.135 C 
ATOM     13  C   UNL     1      -3.770  -0.788   1.444  1.00  0.00     0.135 C 
ATOM     14  N   UNL     1      -2.444  -0.694   0.830  1.00  0.00    -0.336 N 
ATOM     15  C   UNL     1      -5.591   0.283  -0.885  1.00  0.00     0.105 C 
ATOM     16  O   UNL     1      -1.501  -0.142   2.870  1.00  0.00    -0.269 OA
ENDBRANCH   3   8
ENDBRANCH   1   2
BRANCH   1  17
ATOM     17  N   UNL     1       4.605  -1.359  -0.553  1.00  0.00    -0.174 NA
BRANCH  17  18
ATOM     18  N   UNL     1       5.881  -1.422  -1.020  1.00  0.00    -0.267 N 
ATOM     19  C   UNL     1       6.881  -0.493  -0.841  1.00  0.00     0.214 C 
ATOM     20  H   UNL     1       6.229  -2.379  -1.048  1.00  0.00     0.191 HD
BRANCH  19  21
ATOM     21  N   UNL     1       6.908   0.793  -0.767  1.00  0.00    -0.245 NA
BRANCH  21  22
ATOM     22  C   UNL     1       5.762   1.499  -0.968  1.00  0.00     0.115 CG0
ATOM     23  G   UNL     1       4.484   1.130  -0.850  1.00  0.00     0.000 G0
ENDBRANCH  21  22
ENDBRANCH  19  21
ENDBRANCH  17  18
ENDBRANCH   1  17
BRANCH   1  24
ATOM     24  C   UNL     1       4.484   1.130  -0.850  1.00  0.00     0.051 CG0
ATOM     25  G   UNL     1       5.762   1.499  -0.968  1.00  0.00     0.000 G0
ENDBRANCH   1  24
TORSDOF 2
