REMARK SMILES OCCNC1=C(c2n[nH]c3ccccc23)N=C2C=CN=C[C@H]21
REMARK SMILES IDX 3 1 2 2 1 3 4 5 5 7 6 8 22 9 16 10 21 11 17 12 20 13 18 14
REMARK SMILES IDX 19 15 7 16 8 17 15 18 9 19 14 20 10 21 13 22 11 23 12 24
REMARK H PARENT 1 4 4 6 9 25
ROOT
ATOM      1  C   UNL     1      -3.064  -1.314   0.389  1.00  0.00     0.141 C 
ENDROOT
BRANCH   1   2
ATOM      2  C   UNL     1      -3.548  -2.713  -0.002  1.00  0.00     0.177 C 
BRANCH   2   3
ATOM      3  O   UNL     1      -4.762  -3.037   0.671  1.00  0.00    -0.395 OA
ATOM      4  H   UNL     1      -4.546  -3.170   1.611  1.00  0.00     0.210 HD
ENDBRANCH   2   3
ENDBRANCH   1   2
BRANCH   1   5
ATOM      5  N   UNL     1      -1.771  -1.024  -0.214  1.00  0.00    -0.383 N 
ATOM      6  H   UNL     1      -1.073  -1.768  -0.049  1.00  0.00     0.160 HD
BRANCH   5   7
ATOM      7  C   UNL     1      -1.129   0.203  -0.120  1.00  0.00     0.054 C 
ATOM      8  C   UNL     1       0.188   0.458   0.061  1.00  0.00     0.111 C 
ATOM      9  C   UNL     1      -1.860   1.506  -0.146  1.00  0.00     0.128 C 
ATOM     10  N   UNL     1       0.491   1.806   0.087  1.00  0.00    -0.248 NA
ATOM     11  C   UNL     1      -2.690   1.879  -1.342  1.00  0.00     0.100 C 
ATOM     12  C   UNL     1      -0.646   2.383  -0.136  1.00  0.00     0.057 C 
ATOM     13  N   UNL     1      -2.728   3.090  -1.821  1.00  0.00    -0.268 NA
ATOM     14  C   UNL     1      -0.849   3.799  -0.446  1.00  0.00     0.045 C 
ATOM     15  C   UNL     1      -1.892   4.032  -1.256  1.00  0.00     0.112 C 
BRANCH   8  16
ATOM     16  C   UNL     1       1.240  -0.521   0.208  1.00  0.00     0.120 A 
ATOM     17  N   UNL     1       0.999  -1.845   0.337  1.00  0.00    -0.173 NA
ATOM     18  C   UNL     1       2.650  -0.257   0.243  1.00  0.00     0.029 A 
ATOM     19  N   UNL     1       2.219  -2.394   0.441  1.00  0.00    -0.277 N 
ATOM     20  C   UNL     1       3.486   0.877   0.159  1.00  0.00     0.013 A 
ATOM     21  C   UNL     1       3.251  -1.502   0.396  1.00  0.00     0.066 A 
ATOM     22  C   UNL     1       4.876   0.717   0.234  1.00  0.00     0.001 A 
ATOM     23  C   UNL     1       4.636  -1.688   0.474  1.00  0.00     0.028 A 
ATOM     24  C   UNL     1       5.439  -0.548   0.390  1.00  0.00     0.002 A 
ATOM     25  H   UNL     1       2.285  -3.399   0.542  1.00  0.00     0.190 HD
ENDBRANCH   8  16
ENDBRANCH   5   7
ENDBRANCH   1   5
TORSDOF 5
