REMARK SMILES OCCNC1=C(c2cccc(-c3ccc(O)c(F)c3)c2)N=C2C=CN=C[C@H]21
REMARK SMILES IDX 5 1 6 2 21 3 22 4 23 5 24 6 25 7 26 8 27 9 4 10 3 12 2 13
REMARK SMILES IDX 1 14 7 16 8 17 20 18 9 19 11 20 10 21 12 22 13 23 19 24
REMARK SMILES IDX 14 25 17 26 15 27 18 28 16 29
REMARK H PARENT 4 11 1 15 16 30
ROOT
ATOM      1  C   UNL     1      -2.299  -0.049   0.146  1.00  0.00     0.052 C 
ATOM      2  C   UNL     1      -1.138  -0.743   0.131  1.00  0.00     0.091 C 
ATOM      3  N   UNL     1      -1.206  -1.943  -0.543  1.00  0.00    -0.250 NA
ATOM      4  C   UNL     1      -2.451  -2.038  -0.883  1.00  0.00     0.057 C 
ATOM      5  C   UNL     1      -3.117  -3.229  -1.409  1.00  0.00     0.045 C 
ATOM      6  C   UNL     1      -4.406  -3.328  -1.055  1.00  0.00     0.112 C 
ATOM      7  N   UNL     1      -5.112  -2.459  -0.247  1.00  0.00    -0.268 NA
ATOM      8  C   UNL     1      -4.583  -1.294  -0.001  1.00  0.00     0.100 C 
ATOM      9  C   UNL     1      -3.306  -0.830  -0.646  1.00  0.00     0.128 C 
ENDROOT
BRANCH   1  10
ATOM     10  N   UNL     1      -2.574   1.202   0.684  1.00  0.00    -0.383 N 
ATOM     11  H   UNL     1      -1.710   1.668   0.976  1.00  0.00     0.160 HD
BRANCH  10  12
ATOM     12  C   UNL     1      -3.538   2.151   0.113  1.00  0.00     0.141 C 
BRANCH  12  13
ATOM     13  C   UNL     1      -3.831   3.245   1.144  1.00  0.00     0.177 C 
BRANCH  13  14
ATOM     14  O   UNL     1      -4.331   2.655   2.343  1.00  0.00    -0.395 OA
ATOM     15  H   UNL     1      -3.804   1.841   2.471  1.00  0.00     0.210 HD
ENDBRANCH  13  14
ENDBRANCH  12  13
ENDBRANCH  10  12
ENDBRANCH   1  10
BRANCH   2  16
ATOM     16  C   UNL     1       0.128  -0.323   0.752  1.00  0.00     0.003 A 
ATOM     17  C   UNL     1       0.182   0.107   2.084  1.00  0.00     0.010 A 
ATOM     18  C   UNL     1       1.318  -0.385   0.011  1.00  0.00     0.019 A 
ATOM     19  C   UNL     1       1.395   0.494   2.652  1.00  0.00     0.001 A 
ATOM     20  C   UNL     1       2.553  -0.001   0.564  1.00  0.00    -0.018 A 
ATOM     21  C   UNL     1       2.568   0.444   1.896  1.00  0.00     0.009 A 
BRANCH  20  22
ATOM     22  C   UNL     1       3.793  -0.070  -0.229  1.00  0.00    -0.015 A 
ATOM     23  C   UNL     1       4.151  -1.251  -0.910  1.00  0.00     0.013 A 
ATOM     24  C   UNL     1       4.651   1.037  -0.329  1.00  0.00     0.052 A 
ATOM     25  C   UNL     1       5.326  -1.327  -1.667  1.00  0.00     0.050 A 
ATOM     26  C   UNL     1       5.817   0.955  -1.084  1.00  0.00     0.165 A 
ATOM     27  C   UNL     1       6.153  -0.219  -1.749  1.00  0.00     0.151 A 
ATOM     28  F   UNL     1       6.628   2.019  -1.175  1.00  0.00    -0.203 F 
BRANCH  27  29
ATOM     29  O   UNL     1       7.296  -0.305  -2.490  1.00  0.00    -0.505 OA
ATOM     30  H   UNL     1       7.740   0.561  -2.427  1.00  0.00     0.293 HD
ENDBRANCH  27  29
ENDBRANCH  20  22
ENDBRANCH   2  16
TORSDOF 7
