REMARK SMILES Cc1cccc(-c2n[nH]c3cc(NCC[C@@H](N)c4nnn[nH]4)ccc23)c1
REMARK SMILES IDX 14 1 13 2 12 4 7 5 8 6 25 7 9 8 24 9 10 10 23 11 11 12 6 14
REMARK SMILES IDX 2 15 3 16 26 17 4 18 5 19 1 20 15 21 16 22 17 23 18 26 19 27
REMARK SMILES IDX 22 28 20 29 21 30
REMARK H PARENT 13 3 9 13 17 24 17 25 22 31
ROOT
ATOM      1  C   UNL     1      -3.178  -0.885  -1.871  1.00  0.00     0.115 C 
ENDROOT
BRANCH   1   2
ATOM      2  N   UNL     1      -2.318  -1.625  -0.951  1.00  0.00    -0.385 N 
ATOM      3  H   UNL     1      -2.328  -2.629  -1.121  1.00  0.00     0.160 HD
BRANCH   2   4
ATOM      4  C   UNL     1      -1.050  -1.167  -0.585  1.00  0.00     0.036 A 
ATOM      5  C   UNL     1       2.668   0.412   0.679  1.00  0.00     0.100 A 
ATOM      6  N   UNL     1       2.560   1.660   0.190  1.00  0.00    -0.174 NA
ATOM      7  C   UNL     1       1.497  -0.356   0.375  1.00  0.00     0.028 A 
ATOM      8  N   UNL     1       1.345   1.693  -0.373  1.00  0.00    -0.277 N 
ATOM      9  C   UNL     1       1.056  -1.674   0.584  1.00  0.00     0.015 A 
ATOM     10  C   UNL     1       0.654   0.517  -0.299  1.00  0.00     0.068 A 
ATOM     11  C   UNL     1      -0.213  -2.051   0.114  1.00  0.00     0.026 A 
ATOM     12  C   UNL     1      -0.620   0.155  -0.766  1.00  0.00     0.054 A 
ATOM     13  H   UNL     1       1.047   2.557  -0.808  1.00  0.00     0.190 HD
BRANCH   5  14
ATOM     14  C   UNL     1       3.871  -0.007   1.400  1.00  0.00     0.003 A 
ATOM     15  C   UNL     1       6.303   0.018   1.631  1.00  0.00    -0.050 A 
ATOM     16  C   UNL     1       6.193  -0.790   2.768  1.00  0.00     0.003 A 
ATOM     17  C   UNL     1       5.136   0.416   0.963  1.00  0.00     0.013 A 
ATOM     18  C   UNL     1       4.941  -1.205   3.220  1.00  0.00     0.001 A 
ATOM     19  C   UNL     1       3.785  -0.815   2.541  1.00  0.00     0.010 A 
ATOM     20  C   UNL     1       7.644   0.505   1.172  1.00  0.00     0.044 C 
ENDBRANCH   5  14
ENDBRANCH   2   4
ENDBRANCH   1   2
BRANCH   1  21
ATOM     21  C   UNL     1      -4.156  -0.020  -1.073  1.00  0.00     0.048 C 
BRANCH  21  22
ATOM     22  C   UNL     1      -4.870   1.025  -1.941  1.00  0.00     0.123 C 
BRANCH  22  23
ATOM     23  N   UNL     1      -5.580   0.381  -3.051  1.00  0.00    -0.321 NA
ATOM     24  H   UNL     1      -6.065   1.109  -3.582  1.00  0.00     0.119 HD
ATOM     25  H   UNL     1      -6.348  -0.173  -2.663  1.00  0.00     0.119 HD
ENDBRANCH  22  23
BRANCH  22  26
ATOM     26  C   UNL     1      -5.811   1.860  -1.133  1.00  0.00     0.165 A 
ATOM     27  N   UNL     1      -7.101   2.057  -1.321  1.00  0.00    -0.112 NA
ATOM     28  N   UNL     1      -5.431   2.611  -0.055  1.00  0.00    -0.241 N 
ATOM     29  N   UNL     1      -7.503   2.929  -0.339  1.00  0.00    -0.024 NA
ATOM     30  N   UNL     1      -6.487   3.268   0.440  1.00  0.00    -0.048 NA
ATOM     31  H   UNL     1      -4.526   2.716   0.387  1.00  0.00     0.193 HD
ENDBRANCH  22  26
ENDBRANCH  21  22
ENDBRANCH   1  21
TORSDOF 7
