MODEL        9USER    Run = 9USERUSER    Estimated Free Energy of Binding    = -10.43 kcal/mol  [=(1)+(2)+(3)-(4)]USERUSER    (1) Final Intermolecular Energy     = -12.52 kcal/molUSER        vdW + Hbond + desolv Energy     = -12.14 kcal/molUSER        Electrostatic Energy            =  -0.37 kcal/molUSER        Moving Ligand-Fixed Receptor    = -12.52 kcal/molUSER        Moving Ligand-Moving Receptor   =  +0.00 kcal/molUSER    (2) Final Total Internal Energy     =  -1.87 kcal/molUSER    (3) Torsional Free Energy           =  +2.09 kcal/molUSER    (4) Unbound System's Energy         =  -1.87 kcal/molUSERUSERREMARK SMILES OCCNC1=C(c2cc(F)cc(-c3ccc(O)cc3)c2)N=C2C=CN=C[C@H]21REMARK SMILES IDX 5 1 6 2 21 3 22 4 23 5 24 6 25 7 26 8 27 9 4 10 3 12 2 13REMARK SMILES IDX 1 14 7 16 8 17 20 18 9 19 12 20 11 21 10 22 13 23 14 24REMARK SMILES IDX 19 25 15 26 18 27 16 28 17 29REMARK H PARENT 4 11 1 15 17 30USER                              x       y       z     vdW  Elec       q    TypeUSER                           _______ _______ _______ _____ _____    ______ ____ROOTATOM      1  C   UNL     1      38.696  47.051  15.074 -0.48 -0.02    +0.052 C  ATOM      2  C   UNL     1      38.196  45.976  15.726 -0.37 -0.03    +0.091 C  ATOM      3  N   UNL     1      37.355  45.192  14.965 -0.20 +0.09    -0.250 NA ATOM      4  C   UNL     1      37.277  45.824  13.839 -0.47 -0.02    +0.057 C  ATOM      5  C   UNL     1      36.336  45.539  12.756 -0.54 -0.02    +0.045 C  ATOM      6  C   UNL     1      35.961  46.625  12.065 -0.62 -0.06    +0.112 C  ATOM      7  N   UNL     1      36.345  47.929  12.302 -0.77 +0.12    -0.268 NA ATOM      8  C   UNL     1      37.360  48.127  13.093 -0.35 -0.03    +0.100 C  ATOM      9  C   UNL     1      38.186  47.005  13.663 -0.42 -0.04    +0.128 C  ENDROOTBRANCH   1  10ATOM     10  N   UNL     1      39.624  47.975  15.504 -0.21 +0.12    -0.383 N  ATOM     11  H   UNL     1      39.604  48.184  16.505 +0.11 -0.06    +0.160 HD BRANCH  10  12ATOM     12  C   UNL     1      40.333  48.982  14.730 -0.50 -0.05    +0.141 C  BRANCH  12  13ATOM     13  C   UNL     1      41.376  49.675  15.616 -0.54 -0.02    +0.177 C  BRANCH  13  14ATOM     14  O   UNL     1      41.628  48.883  16.778 -0.85 -0.04    -0.395 OA ATOM     15  H   UNL     1      42.170  48.126  16.494 -0.37 +0.01    +0.210 HD ENDBRANCH  13  14ENDBRANCH  12  13ENDBRANCH  10  12ENDBRANCH   1  10BRANCH   2  16ATOM     16  C   UNL     1      38.484  45.592  17.116 -0.38 -0.00    +0.005 A  ATOM     17  C   UNL     1      37.609  44.785  17.848 -0.33 -0.01    +0.049 A  ATOM     18  C   UNL     1      39.687  46.005  17.716 -0.44 -0.00    +0.019 A  ATOM     19  C   UNL     1      37.927  44.433  19.154 -0.28 -0.01    +0.124 A  ATOM     20  C   UNL     1      40.019  45.651  19.037 -0.43 +0.00    -0.015 A  ATOM     21  C   UNL     1      39.110  44.857  19.750 -0.35 -0.00    +0.048 A  ATOM     22  F   UNL     1      37.081  43.662  19.850 -0.07 +0.01    -0.207 F  BRANCH  20  23ATOM     23  C   UNL     1      41.283  46.095  19.648 -0.42 -0.00    -0.018 A  ATOM     24  C   UNL     1      41.646  45.678  20.942 -0.33 +0.00    +0.012 A  ATOM     25  C   UNL     1      42.163  46.948  18.961 -0.53 +0.00    +0.012 A  ATOM     26  C   UNL     1      42.844  46.098  21.529 -0.28 +0.01    +0.047 A  ATOM     27  C   UNL     1      43.361  47.369  19.543 -0.39 +0.01    +0.047 A  ATOM     28  C   UNL     1      43.692  46.941  20.822 -0.26 +0.06    +0.115 A  BRANCH  28  29ATOM     29  O   UNL     1      44.869  47.375  21.354 -0.65 -0.46    -0.508 OA ATOM     30  H   UNL     1      44.820  48.338  21.465 -0.40 +0.05    +0.293 HD ENDBRANCH  28  29ENDBRANCH  20  23ENDBRANCH   2  16TORSDOF 7TERENDMDL