REMARK SMILES CN[C@H]1CCN(Cc2ccc(C(=O)Nc3ccccc3CN3CCC(c4nnn[nH]4)CC3)cc2)C1
REMARK SMILES IDX 12 1 13 2 14 3 11 5 8 6 9 7 34 8 10 9 33 10 7 11 6 12 3 13
REMARK SMILES IDX 4 14 35 15 5 16 2 17 1 18 15 20 16 21 20 22 17 23 19 24
REMARK SMILES IDX 18 25 21 26 22 27 23 28 32 29 24 30 31 31 25 32 26 33 27 34
REMARK SMILES IDX 30 35 28 36 29 37
REMARK H PARENT 14 4 2 19 30 38
ROOT
ATOM      1  C   UNL     1      -0.156   1.017   1.809  1.00  0.00     0.255 C 
ATOM      2  O   UNL     1      -0.069   2.047   2.466  1.00  0.00    -0.269 OA
ATOM      3  N   UNL     1      -1.140   0.048   1.880  1.00  0.00    -0.322 N 
ATOM      4  H   UNL     1      -1.103  -0.661   1.164  1.00  0.00     0.170 HD
ENDROOT
BRANCH   1   5
ATOM      5  C   UNL     1       0.876   0.765   0.765  1.00  0.00     0.040 A 
ATOM      6  C   UNL     1       2.821   0.362  -1.227  1.00  0.00    -0.034 A 
ATOM      7  C   UNL     1       2.298   1.643  -0.986  1.00  0.00     0.006 A 
ATOM      8  C   UNL     1       2.357  -0.714  -0.454  1.00  0.00     0.006 A 
ATOM      9  C   UNL     1       1.340   1.845   0.009  1.00  0.00     0.014 A 
ATOM     10  C   UNL     1       1.395  -0.516   0.541  1.00  0.00     0.014 A 
BRANCH   6  11
ATOM     11  C   UNL     1       3.863   0.149  -2.307  1.00  0.00     0.120 C 
BRANCH  11  12
ATOM     12  N   UNL     1       5.257   0.321  -1.920  1.00  0.00    -0.297 NA
ATOM     13  C   UNL     1       6.962   0.037  -0.272  1.00  0.00     0.068 C 
ATOM     14  C   UNL     1       7.087   1.382  -0.988  1.00  0.00     0.036 C 
ATOM     15  C   UNL     1       5.824  -0.691  -1.025  1.00  0.00     0.103 C 
ATOM     16  C   UNL     1       5.654   1.636  -1.436  1.00  0.00     0.086 C 
BRANCH  13  17
ATOM     17  N   UNL     1       8.215  -0.682  -0.022  1.00  0.00    -0.316 NA
ATOM     18  C   UNL     1       8.899  -1.155  -1.218  1.00  0.00     0.101 C 
ATOM     19  H   UNL     1       8.846  -0.068   0.493  1.00  0.00     0.122 HD
ENDBRANCH  13  17
ENDBRANCH  11  12
ENDBRANCH   6  11
ENDBRANCH   1   5
BRANCH   3  20
ATOM     20  C   UNL     1      -2.263   0.003   2.743  1.00  0.00     0.046 A 
ATOM     21  C   UNL     1      -2.453   0.960   3.749  1.00  0.00     0.026 A 
ATOM     22  C   UNL     1      -3.216  -1.037   2.600  1.00  0.00    -0.010 A 
ATOM     23  C   UNL     1      -3.556   0.909   4.604  1.00  0.00     0.002 A 
ATOM     24  C   UNL     1      -4.317  -1.074   3.484  1.00  0.00     0.007 A 
ATOM     25  C   UNL     1      -4.489  -0.108   4.473  1.00  0.00     0.000 A 
BRANCH  22  26
ATOM     26  C   UNL     1      -3.115  -2.143   1.561  1.00  0.00     0.122 C 
BRANCH  26  27
ATOM     27  N   UNL     1      -3.796  -1.923   0.279  1.00  0.00    -0.299 NA
ATOM     28  C   UNL     1      -3.300  -0.794  -0.509  1.00  0.00     0.085 C 
ATOM     29  C   UNL     1      -5.252  -2.061   0.314  1.00  0.00     0.085 C 
ATOM     30  C   UNL     1      -4.100  -0.648  -1.803  1.00  0.00     0.027 C 
ATOM     31  C   UNL     1      -5.995  -0.795  -0.106  1.00  0.00     0.027 C 
ATOM     32  C   UNL     1      -5.583  -0.353  -1.519  1.00  0.00     0.062 C 
BRANCH  32  33
ATOM     33  C   UNL     1      -5.899   1.091  -1.719  1.00  0.00     0.151 A 
ATOM     34  N   UNL     1      -5.229   2.143  -1.296  1.00  0.00    -0.114 NA
ATOM     35  N   UNL     1      -6.990   1.543  -2.405  1.00  0.00    -0.243 N 
ATOM     36  N   UNL     1      -5.925   3.242  -1.736  1.00  0.00    -0.024 NA
ATOM     37  N   UNL     1      -7.003   2.881  -2.418  1.00  0.00    -0.048 NA
ATOM     38  H   UNL     1      -7.731   1.031  -2.866  1.00  0.00     0.193 HD
ENDBRANCH  32  33
ENDBRANCH  26  27
ENDBRANCH  22  26
ENDBRANCH   3  20
TORSDOF 8
