MODEL        5USER    Run = 5USERUSER    Estimated Free Energy of Binding    =  -8.74 kcal/mol  [=(1)+(2)+(3)-(4)]USERUSER    (1) Final Intermolecular Energy     = -10.23 kcal/molUSER        vdW + Hbond + desolv Energy     = -10.27 kcal/molUSER        Electrostatic Energy            =  +0.04 kcal/molUSER        Moving Ligand-Fixed Receptor    = -10.23 kcal/molUSER        Moving Ligand-Moving Receptor   =  +0.00 kcal/molUSER    (2) Final Total Internal Energy     =  -1.63 kcal/molUSER    (3) Torsional Free Energy           =  +1.49 kcal/molUSER    (4) Unbound System's Energy         =  -1.63 kcal/molUSERUSERREMARK SMILES OCCNC1=C(c2n[nH]c3ccccc23)N=C2C=CN=C[C@H]21REMARK SMILES IDX 3 1 2 2 1 3 4 5 5 7 6 8 22 9 16 10 21 11 17 12 20 13 18 14REMARK SMILES IDX 19 15 7 16 8 17 15 18 9 19 14 20 10 21 13 22 11 23 12 24REMARK H PARENT 1 4 4 6 9 25USER                              x       y       z     vdW  Elec       q    TypeUSER                           _______ _______ _______ _____ _____    ______ ____ROOTATOM      1  C   UNL     1      41.079  48.379  14.887 -0.45 -0.01    +0.141 C  ENDROOTBRANCH   1   2ATOM      2  C   UNL     1      41.163  49.884  14.614 -0.51 -0.05    +0.177 C  BRANCH   2   3ATOM      3  O   UNL     1      40.575  50.627  15.679 -0.37 +0.19    -0.395 OA ATOM      4  H   UNL     1      39.609  50.524  15.606 -0.34 -0.17    +0.210 HD ENDBRANCH   2   3ENDBRANCH   1   2BRANCH   1   5ATOM      5  N   UNL     1      41.096  48.109  16.318 -0.23 +0.04    -0.383 N  ATOM      6  H   UNL     1      42.016  47.781  16.655 -0.41 -0.02    +0.160 HD BRANCH   5   7ATOM      7  C   UNL     1      40.109  47.396  16.984 -0.53 -0.01    +0.054 C  ATOM      8  C   UNL     1      38.806  47.241  16.652 -0.40 -0.04    +0.111 C  ATOM      9  C   UNL     1      40.349  46.699  18.284 -0.43 -0.01    +0.128 C  ATOM     10  N   UNL     1      38.103  46.442  17.533 -0.21 +0.08    -0.248 NA ATOM     11  C   UNL     1      41.385  45.615  18.377 -0.45 +0.00    +0.100 C  ATOM     12  C   UNL     1      38.999  46.057  18.384 -0.39 -0.01    +0.057 C  ATOM     13  N   UNL     1      41.205  44.529  19.073 -0.20 -0.02    -0.268 NA ATOM     14  C   UNL     1      38.839  45.005  19.390 -0.42 -0.00    +0.045 C  ATOM     15  C   UNL     1      39.971  44.338  19.661 -0.30 +0.00    +0.112 C  BRANCH   8  16ATOM     16  C   UNL     1      38.139  47.809  15.504 -0.38 -0.07    +0.120 A  ATOM     17  N   UNL     1      37.952  49.139  15.345 -0.39 +0.14    -0.173 NA ATOM     18  C   UNL     1      37.587  47.084  14.395 -0.44 -0.01    +0.029 A  ATOM     19  N   UNL     1      37.312  49.244  14.171 -0.27 +0.20    -0.277 N  ATOM     20  C   UNL     1      37.476  45.733  14.003 -0.42 -0.00    +0.013 A  ATOM     21  C   UNL     1      37.058  48.055  13.551 -0.53 -0.03    +0.066 A  ATOM     22  C   UNL     1      36.844  45.415  12.794 -0.54 -0.00    +0.001 A  ATOM     23  C   UNL     1      36.422  47.763  12.339 -0.65 -0.01    +0.028 A  ATOM     24  C   UNL     1      36.324  46.417  11.977 -0.67 -0.00    +0.002 A  ATOM     25  H   UNL     1      37.070  50.169  13.839 -0.35 -0.14    +0.190 HD ENDBRANCH   8  16ENDBRANCH   5   7ENDBRANCH   1   5TORSDOF 5TERENDMDL