MODEL        2USER    Run = 2USERUSER    Estimated Free Energy of Binding    = -10.39 kcal/mol  [=(1)+(2)+(3)-(4)]USERUSER    (1) Final Intermolecular Energy     = -12.48 kcal/molUSER        vdW + Hbond + desolv Energy     = -12.19 kcal/molUSER        Electrostatic Energy            =  -0.29 kcal/molUSER        Moving Ligand-Fixed Receptor    = -12.48 kcal/molUSER        Moving Ligand-Moving Receptor   =  +0.00 kcal/molUSER    (2) Final Total Internal Energy     =  -1.95 kcal/molUSER    (3) Torsional Free Energy           =  +2.09 kcal/molUSER    (4) Unbound System's Energy         =  -1.95 kcal/molUSERUSERREMARK SMILES OCCNC1=C(c2cccc(-c3ccc(O)c(F)c3)c2)N=C2C=CN=C[C@H]21REMARK SMILES IDX 5 1 6 2 21 3 22 4 23 5 24 6 25 7 26 8 27 9 4 10 3 12 2 13REMARK SMILES IDX 1 14 7 16 8 17 20 18 9 19 11 20 10 21 12 22 13 23 19 24REMARK SMILES IDX 14 25 17 26 15 27 18 28 16 29REMARK H PARENT 4 11 1 15 16 30USER                              x       y       z     vdW  Elec       q    TypeUSER                           _______ _______ _______ _____ _____    ______ ____ROOTATOM      1  C   UNL     1      38.661  47.120  15.083 -0.48 -0.02    +0.052 C  ATOM      2  C   UNL     1      38.250  45.985  15.695 -0.38 -0.03    +0.091 C  ATOM      3  N   UNL     1      37.518  45.142  14.888 -0.20 +0.09    -0.250 NA ATOM      4  C   UNL     1      37.400  45.798  13.779 -0.47 -0.02    +0.057 C  ATOM      5  C   UNL     1      36.511  45.466  12.666 -0.57 -0.02    +0.045 C  ATOM      6  C   UNL     1      36.054  46.536  12.001 -0.63 -0.06    +0.112 C  ATOM      7  N   UNL     1      36.314  47.862  12.288 -0.74 +0.12    -0.268 NA ATOM      8  C   UNL     1      37.290  48.125  13.109 -0.42 -0.03    +0.100 C  ATOM      9  C   UNL     1      38.199  47.060  13.657 -0.43 -0.04    +0.128 C  ENDROOTBRANCH   1  10ATOM     10  N   UNL     1      39.447  48.154  15.575 -0.21 +0.14    -0.383 N  ATOM     11  H   UNL     1      39.942  47.861  16.422 +0.11 -0.04    +0.160 HD BRANCH  10  12ATOM     12  C   UNL     1      40.274  49.031  14.737 -0.47 -0.05    +0.141 C  BRANCH  12  13ATOM     13  C   UNL     1      41.375  49.653  15.601 -0.54 -0.02    +0.177 C  BRANCH  13  14ATOM     14  O   UNL     1      41.574  48.860  16.771 -0.86 -0.03    -0.395 OA ATOM     15  H   UNL     1      42.161  48.129  16.492 -0.37 +0.01    +0.210 HD ENDBRANCH  13  14ENDBRANCH  12  13ENDBRANCH  10  12ENDBRANCH   1  10BRANCH   2  16ATOM     16  C   UNL     1      38.520  45.610  17.092 -0.39 -0.00    +0.003 A  ATOM     17  C   UNL     1      37.622  44.824  17.825 -0.35 -0.00    +0.010 A  ATOM     18  C   UNL     1      39.718  46.016  17.700 -0.44 -0.00    +0.019 A  ATOM     19  C   UNL     1      37.903  44.476  19.145 -0.36 -0.00    +0.001 A  ATOM     20  C   UNL     1      40.023  45.676  19.030 -0.43 +0.00    -0.018 A  ATOM     21  C   UNL     1      39.091  44.903  19.742 -0.38 -0.00    +0.009 A  BRANCH  20  22ATOM     22  C   UNL     1      41.285  46.112  19.654 -0.42 -0.00    -0.015 A  ATOM     23  C   UNL     1      42.181  46.951  18.961 -0.53 +0.00    +0.013 A  ATOM     24  C   UNL     1      41.628  45.707  20.954 -0.30 +0.01    +0.052 A  ATOM     25  C   UNL     1      43.382  47.372  19.545 -0.38 +0.01    +0.050 A  ATOM     26  C   UNL     1      42.822  46.130  21.528 -0.22 +0.05    +0.165 A  ATOM     27  C   UNL     1      43.694  46.958  20.829 -0.24 +0.08    +0.151 A  ATOM     28  F   UNL     1      43.139  45.740  22.771 -0.02 -0.05    -0.203 F  BRANCH  27  29ATOM     29  O   UNL     1      44.867  47.375  21.388 -0.65 -0.45    -0.505 OA ATOM     30  H   UNL     1      44.752  48.315  21.620 -0.41 +0.05    +0.293 HD ENDBRANCH  27  29ENDBRANCH  20  22ENDBRANCH   2  16TORSDOF 7TERENDMDL