MODEL        1USER    Run = 1USERUSER    Estimated Free Energy of Binding    = -12.72 kcal/mol  [=(1)+(2)+(3)-(4)]USERUSER    (1) Final Intermolecular Energy     = -15.10 kcal/molUSER        vdW + Hbond + desolv Energy     = -14.86 kcal/molUSER        Electrostatic Energy            =  -0.25 kcal/molUSER        Moving Ligand-Fixed Receptor    = -15.10 kcal/molUSER        Moving Ligand-Moving Receptor   =  +0.00 kcal/molUSER    (2) Final Total Internal Energy     =  -2.85 kcal/molUSER    (3) Torsional Free Energy           =  +2.39 kcal/molUSER    (4) Unbound System's Energy         =  -2.85 kcal/molUSERUSERREMARK SMILES CN[C@H]1CCN(Cc2ccc(C(=O)Nc3ccccc3CN3CCC(c4nnn[nH]4)CC3)cc2)C1REMARK SMILES IDX 12 1 13 2 14 3 11 5 8 6 9 7 34 8 10 9 33 10 7 11 6 12 3 13REMARK SMILES IDX 4 14 35 15 5 16 2 17 1 18 15 20 16 21 20 22 17 23 19 24REMARK SMILES IDX 18 25 21 26 22 27 23 28 32 29 24 30 31 31 25 32 26 33 27 34REMARK SMILES IDX 30 35 28 36 29 37REMARK H PARENT 14 4 2 19 30 38USER                              x       y       z     vdW  Elec       q    TypeUSER                           _______ _______ _______ _____ _____    ______ ____ROOTATOM      1  C   UNL     1      36.684  43.711  19.976 -0.27 -0.02    +0.255 C  ATOM      2  O   UNL     1      36.909  42.736  20.682 -0.28 +0.00    -0.269 OA ATOM      3  N   UNL     1      37.545  44.747  19.663 -0.16 +0.02    -0.322 N  ATOM      4  H   UNL     1      37.213  45.389  18.961 +0.10 -0.03    +0.170 HD ENDROOTBRANCH   1   5ATOM      5  C   UNL     1      35.350  43.805  19.319 -0.36 -0.01    +0.040 A  ATOM      6  C   UNL     1      32.831  44.058  18.093 -0.31 +0.01    -0.034 A  ATOM      7  C   UNL     1      33.505  45.188  18.582 -0.43 -0.00    +0.006 A  ATOM      8  C   UNL     1      33.438  42.799  18.224 -0.35 -0.00    +0.006 A  ATOM      9  C   UNL     1      34.760  45.065  19.182 -0.33 -0.00    +0.014 A  ATOM     10  C   UNL     1      34.693  42.671  18.828 -0.39 -0.00    +0.014 A  BRANCH   6  11ATOM     11  C   UNL     1      31.470  44.198  17.440 -0.21 -0.02    +0.120 C  BRANCH  11  12ATOM     12  N   UNL     1      31.371  45.121  16.317 -0.66 +0.09    -0.297 NA ATOM     13  C   UNL     1      30.660  45.527  14.073 -0.52 -0.05    +0.068 C  ATOM     14  C   UNL     1      32.023  46.158  14.357 -0.46 -0.03    +0.036 C  ATOM     15  C   UNL     1      30.203  44.976  15.444 -0.36 -0.05    +0.103 C  ATOM     16  C   UNL     1      32.553  45.276  15.480 -0.36 -0.06    +0.086 C  BRANCH  13  17ATOM     17  N   UNL     1      29.722  46.337  13.290 -0.31 +0.23    -0.316 NA ATOM     18  C   UNL     1      30.187  46.695  11.957 -0.59 -0.05    +0.101 C  ATOM     19  H   UNL     1      28.844  45.826  13.203 -0.47 -0.17    +0.122 HD ENDBRANCH  13  17ENDBRANCH  11  12ENDBRANCH   6  11ENDBRANCH   1   5BRANCH   3  20ATOM     20  C   UNL     1      38.878  44.939  20.103 -0.34 -0.00    +0.046 A  ATOM     21  C   UNL     1      39.212  44.917  21.464 -0.32 +0.00    +0.026 A  ATOM     22  C   UNL     1      39.904  45.170  19.151 -0.42 +0.00    -0.010 A  ATOM     23  C   UNL     1      40.525  45.115  21.895 -0.27 +0.00    +0.002 A  ATOM     24  C   UNL     1      41.222  45.379  19.613 -0.41 +0.00    +0.007 A  ATOM     25  C   UNL     1      41.532  45.347  20.971 -0.33 +0.00    +0.000 A  BRANCH  22  26ATOM     26  C   UNL     1      39.669  45.234  17.650 -0.31 -0.01    +0.122 C  BRANCH  26  27ATOM     27  N   UNL     1      38.469  45.942  17.188 -0.20 +0.08    -0.299 NA ATOM     28  C   UNL     1      37.665  45.230  16.194 -0.35 -0.03    +0.085 C  ATOM     29  C   UNL     1      38.646  47.371  16.933 -0.26 -0.04    +0.085 C  ATOM     30  C   UNL     1      36.462  46.073  15.771 -0.41 -0.02    +0.027 C  ATOM     31  C   UNL     1      38.337  47.777  15.494 -0.53 -0.01    +0.027 C  ATOM     32  C   UNL     1      36.901  47.389  15.105 -0.45 -0.05    +0.062 C  BRANCH  32  33ATOM     33  C   UNL     1      36.772  47.317  13.620 -0.43 -0.08    +0.151 A  ATOM     34  N   UNL     1      37.698  47.521  12.706 -1.03 +0.02    -0.114 NA ATOM     35  N   UNL     1      35.609  47.015  12.972 -0.40 +0.16    -0.243 N  ATOM     36  N   UNL     1      37.084  47.337  11.492 -1.06 +0.01    -0.024 NA ATOM     37  N   UNL     1      35.805  47.024  11.648 -0.60 +0.03    -0.048 NA ATOM     38  H   UNL     1      34.691  46.804  13.340 +0.01 -0.16    +0.193 HD ENDBRANCH  32  33ENDBRANCH  26  27ENDBRANCH  22  26ENDBRANCH   3  20TORSDOF 8TERENDMDL