MODEL        6USER    Run = 6USERUSER    Estimated Free Energy of Binding    =  -9.18 kcal/mol  [=(1)+(2)+(3)-(4)]USERUSER    (1) Final Intermolecular Energy     = -11.87 kcal/molUSER        vdW + Hbond + desolv Energy     = -11.40 kcal/molUSER        Electrostatic Energy            =  -0.47 kcal/molUSER        Moving Ligand-Fixed Receptor    = -11.87 kcal/molUSER        Moving Ligand-Moving Receptor   =  +0.00 kcal/molUSER    (2) Final Total Internal Energy     =  -1.98 kcal/molUSER    (3) Torsional Free Energy           =  +2.68 kcal/molUSER    (4) Unbound System's Energy         =  -1.98 kcal/molUSERUSERREMARK SMILES C[C@H](O)Cn1cnc2c(NCc3cccc(F)c3)nc(Nc3ccc(O)cc3)nc21REMARK SMILES IDX 5 1 6 2 7 3 8 4 9 5 19 6 20 7 29 8 30 9 4 10 2 11 1 12 3 13REMARK SMILES IDX 21 15 22 17 23 18 28 19 24 20 27 21 25 22 26 23 10 25 11 27REMARK SMILES IDX 12 28 13 29 18 30 14 31 16 32 15 33 17 34REMARK H PARENT 3 14 21 16 26 24 10 26USER                              x       y       z     vdW  Elec       q    TypeUSER                           _______ _______ _______ _____ _____    ______ ____ROOTATOM      1  N   UNL     1      39.252  48.236  14.888 -0.28 +0.12    -0.312 N  ATOM      2  C   UNL     1      38.104  48.461  14.176 -0.35 -0.10    +0.202 A  ATOM      3  N   UNL     1      37.062  47.882  14.734 -0.31 +0.17    -0.231 NA ATOM      4  C   UNL     1      37.572  47.230  15.840 -0.30 -0.09    +0.150 A  ATOM      5  C   UNL     1      36.978  46.434  16.832 -0.23 -0.09    +0.160 A  ATOM      6  N   UNL     1      37.782  45.960  17.820 -0.25 +0.06    -0.193 NA ATOM      7  C   UNL     1      39.104  46.234  17.829 -0.26 -0.05    +0.231 A  ATOM      8  N   UNL     1      39.747  46.988  16.913 -0.34 +0.04    -0.193 NA ATOM      9  C   UNL     1      38.930  47.447  15.956 -0.34 -0.06    +0.167 A  ENDROOTBRANCH   1  10ATOM     10  C   UNL     1      40.569  48.729  14.558 -0.49 -0.04    +0.156 C  BRANCH  10  11ATOM     11  C   UNL     1      41.125  49.746  15.561 -0.63 -0.03    +0.131 C  ATOM     12  C   UNL     1      42.157  50.683  14.943 -0.63 -0.01    +0.040 C  BRANCH  11  13ATOM     13  O   UNL     1      41.754  49.023  16.623 -0.85 -0.07    -0.392 OA ATOM     14  H   UNL     1      41.580  48.075  16.477 -0.07 -0.01    +0.211 HD ENDBRANCH  11  13ENDBRANCH  10  11ENDBRANCH   1  10BRANCH   7  15ATOM     15  N   UNL     1      39.935  45.754  18.839 -0.22 +0.02    -0.324 N  ATOM     16  H   UNL     1      39.464  44.995  19.311 +0.10 -0.01    +0.170 HD BRANCH  15  17ATOM     17  C   UNL     1      41.138  46.190  19.406 -0.42 +0.00    +0.041 A  ATOM     18  C   UNL     1      41.446  45.783  20.716 -0.33 +0.00    +0.030 A  ATOM     19  C   UNL     1      42.083  46.973  18.731 -0.53 +0.00    +0.030 A  ATOM     20  C   UNL     1      42.638  46.166  21.341 -0.30 +0.01    +0.048 A  ATOM     21  C   UNL     1      43.280  47.355  19.346 -0.44 +0.01    +0.048 A  ATOM     22  C   UNL     1      43.547  46.953  20.647 -0.27 +0.05    +0.115 A  BRANCH  22  23ATOM     23  O   UNL     1      44.723  47.348  21.208 -0.59 -0.44    -0.508 OA ATOM     24  H   UNL     1      44.669  48.299  21.404 -0.41 +0.03    +0.293 HD ENDBRANCH  22  23ENDBRANCH  15  17ENDBRANCH   7  15BRANCH   5  25ATOM     25  N   UNL     1      35.613  46.136  16.805 -0.13 +0.30    -0.364 N  ATOM     26  H   UNL     1      35.146  46.672  16.077 +0.05 -0.23    +0.162 HD BRANCH  25  27ATOM     27  C   UNL     1      34.960  46.129  18.098 -0.35 -0.10    +0.150 C  BRANCH  27  28ATOM     28  C   UNL     1      35.050  44.741  18.687 -0.36 +0.01    -0.026 A  ATOM     29  C   UNL     1      35.955  44.459  19.724 -0.34 -0.00    +0.006 A  ATOM     30  C   UNL     1      34.203  43.721  18.228 -0.29 -0.01    +0.044 A  ATOM     31  C   UNL     1      36.022  43.178  20.281 -0.44 -0.00    +0.003 A  ATOM     32  C   UNL     1      34.279  42.451  18.791 -0.32 -0.02    +0.123 A  ATOM     33  C   UNL     1      35.180  42.171  19.812 -0.38 -0.00    +0.039 A  ATOM     34  F   UNL     1      33.464  41.483  18.347 -0.10 +0.04    -0.207 F  ENDBRANCH  27  28ENDBRANCH  25  27ENDBRANCH   5  25TORSDOF 9TERENDMDL