MODEL        7USER    Run = 7USERUSER    Estimated Free Energy of Binding    =  -9.94 kcal/mol  [=(1)+(2)+(3)-(4)]USERUSER    (1) Final Intermolecular Energy     = -12.03 kcal/molUSER        vdW + Hbond + desolv Energy     = -11.82 kcal/molUSER        Electrostatic Energy            =  -0.21 kcal/molUSER        Moving Ligand-Fixed Receptor    = -12.03 kcal/molUSER        Moving Ligand-Moving Receptor   =  +0.00 kcal/molUSER    (2) Final Total Internal Energy     =  -1.42 kcal/molUSER    (3) Torsional Free Energy           =  +2.09 kcal/molUSER    (4) Unbound System's Energy         =  -1.42 kcal/molUSERUSERREMARK SMILES Cc1cccc(-c2n[nH]c3cc(NCC[C@@H](N)c4nnn[nH]4)ccc23)c1REMARK SMILES IDX 14 1 13 2 12 4 7 5 8 6 25 7 9 8 24 9 10 10 23 11 11 12 6 14REMARK SMILES IDX 2 15 3 16 26 17 4 18 5 19 1 20 15 21 16 22 17 23 18 26 19 27REMARK SMILES IDX 22 28 20 29 21 30REMARK H PARENT 13 3 9 13 17 24 17 25 22 31USER                              x       y       z     vdW  Elec       q    TypeUSER                           _______ _______ _______ _____ _____    ______ ____ROOTATOM      1  C   UNL     1      37.551  46.352  17.177 -0.30 -0.05    +0.115 C  ENDROOTBRANCH   1   2ATOM      2  N   UNL     1      37.176  45.024  16.697 -0.09 +0.13    -0.385 N  ATOM      3  H   UNL     1      37.980  44.419  16.538 +0.10 -0.04    +0.160 HD BRANCH   2   4ATOM      4  C   UNL     1      36.086  44.323  17.219 -0.29 -0.01    +0.036 A  ATOM      5  C   UNL     1      32.636  42.431  18.780 -0.30 -0.01    +0.100 A  ATOM      6  N   UNL     1      32.447  43.181  19.880 -0.75 -0.01    -0.174 NA ATOM      7  C   UNL     1      33.784  42.882  18.049 -0.34 -0.01    +0.028 A  ATOM      8  N   UNL     1      33.421  44.100  19.828 -0.27 +0.03    -0.277 N  ATOM      9  C   UNL     1      34.473  42.494  16.887 -0.42 -0.01    +0.015 A  ATOM     10  C   UNL     1      34.259  43.977  18.757 -0.32 -0.02    +0.068 A  ATOM     11  C   UNL     1      35.601  43.229  16.486 -0.41 -0.01    +0.026 A  ATOM     12  C   UNL     1      35.380  44.726  18.362 -0.32 -0.02    +0.054 A  ATOM     13  H   UNL     1      33.467  44.785  20.572 -0.30 -0.06    +0.190 HD BRANCH   5  14ATOM     14  C   UNL     1      31.738  41.318  18.470 -0.35 -0.00    +0.003 A  ATOM     15  C   UNL     1      30.036  40.326  17.025 -0.34 +0.00    -0.050 A  ATOM     16  C   UNL     1      30.010  39.195  17.849 -0.35 +0.00    +0.003 A  ATOM     17  C   UNL     1      30.913  41.375  17.336 -0.31 -0.00    +0.013 A  ATOM     18  C   UNL     1      30.835  39.121  18.971 -0.40 +0.00    +0.001 A  ATOM     19  C   UNL     1      31.696  40.176  19.280 -0.38 +0.00    +0.010 A  ATOM     20  C   UNL     1      29.186  40.387  15.792 -0.41 -0.00    +0.044 C  ENDBRANCH   5  14ENDBRANCH   2   4ENDBRANCH   1   2BRANCH   1  21ATOM     21  C   UNL     1      38.156  47.159  16.026 -0.45 -0.02    +0.048 C  BRANCH  21  22ATOM     22  C   UNL     1      37.107  47.971  15.254 -0.42 -0.10    +0.123 C  BRANCH  22  23ATOM     23  N   UNL     1      37.417  49.403  15.305 -0.28 +0.33    -0.321 NA ATOM     24  H   UNL     1      36.546  49.910  15.480 -0.28 -0.20    +0.119 HD ATOM     25  H   UNL     1      37.678  49.709  14.364 -0.51 -0.11    +0.119 HD ENDBRANCH  22  23BRANCH  22  26ATOM     26  C   UNL     1      36.991  47.511  13.836 -0.40 -0.09    +0.165 A  ATOM     27  N   UNL     1      37.298  48.166  12.734 -1.01 +0.02    -0.112 NA ATOM     28  N   UNL     1      36.480  46.297  13.467 -0.30 +0.12    -0.241 N  ATOM     29  N   UNL     1      36.977  47.332  11.690 -1.14 +0.01    -0.024 NA ATOM     30  N   UNL     1      36.480  46.187  12.133 -0.62 +0.02    -0.048 NA ATOM     31  H   UNL     1      36.140  45.528  14.031 +0.14 -0.10    +0.193 HD ENDBRANCH  22  26ENDBRANCH  21  22ENDBRANCH   1  21TORSDOF 7TERENDMDL