REMARK SMILES OCCNC1=C(c2cc(F)cc(-c3ccc(O)cc3)c2)N=C2C=CN=C[C@H]21
REMARK SMILES IDX 5 1 6 2 21 3 22 4 23 5 24 6 25 7 26 8 27 9 4 10 3 12 2 13
REMARK SMILES IDX 1 14 7 16 8 17 20 18 9 19 12 20 11 21 10 22 13 23 14 24
REMARK SMILES IDX 19 25 15 26 18 27 16 28 17 29
REMARK H PARENT 4 11 1 15 17 30
ROOT
ATOM      1  C   UNL     1      -2.291  -0.180  -0.306  1.00  0.00     0.052 C 
ATOM      2  C   UNL     1      -1.106  -0.817  -0.161  1.00  0.00     0.091 C 
ATOM      3  N   UNL     1      -0.975  -1.953  -0.932  1.00  0.00    -0.250 NA
ATOM      4  C   UNL     1      -2.122  -2.062  -1.520  1.00  0.00     0.057 C 
ATOM      5  C   UNL     1      -2.593  -3.220  -2.279  1.00  0.00     0.045 C 
ATOM      6  C   UNL     1      -3.917  -3.418  -2.200  1.00  0.00     0.112 C 
ATOM      7  N   UNL     1      -4.821  -2.675  -1.469  1.00  0.00    -0.268 NA
ATOM      8  C   UNL     1      -4.428  -1.520  -1.013  1.00  0.00     0.100 C 
ATOM      9  C   UNL     1      -3.085  -0.925  -1.339  1.00  0.00     0.128 C 
ENDROOT
BRANCH   1  10
ATOM     10  N   UNL     1      -2.707   1.016   0.239  1.00  0.00    -0.383 N 
ATOM     11  H   UNL     1      -2.117   1.387   0.987  1.00  0.00     0.160 HD
BRANCH  10  12
ATOM     12  C   UNL     1      -4.032   1.616   0.214  1.00  0.00     0.141 C 
BRANCH  12  13
ATOM     13  C   UNL     1      -3.940   3.088   0.633  1.00  0.00     0.177 C 
BRANCH  13  14
ATOM     14  O   UNL     1      -3.423   3.183   1.961  1.00  0.00    -0.395 OA
ATOM     15  H   UNL     1      -3.331   4.131   2.163  1.00  0.00     0.210 HD
ENDBRANCH  13  14
ENDBRANCH  12  13
ENDBRANCH  10  12
ENDBRANCH   1  10
BRANCH   2  16
ATOM     16  C   UNL     1       0.006  -0.398   0.705  1.00  0.00     0.005 A 
ATOM     17  C   UNL     1      -0.190  -0.106   2.058  1.00  0.00     0.049 A 
ATOM     18  C   UNL     1       1.308  -0.328   0.179  1.00  0.00     0.019 A 
ATOM     19  C   UNL     1       0.891   0.272   2.844  1.00  0.00     0.124 A 
ATOM     20  C   UNL     1       2.410   0.051   0.968  1.00  0.00    -0.015 A 
ATOM     21  C   UNL     1       2.176   0.356   2.316  1.00  0.00     0.048 A 
ATOM     22  F   UNL     1       0.695   0.553   4.139  1.00  0.00    -0.207 F 
BRANCH  20  23
ATOM     23  C   UNL     1       3.766   0.119   0.398  1.00  0.00    -0.018 A 
ATOM     24  C   UNL     1       4.303  -0.964  -0.321  1.00  0.00     0.012 A 
ATOM     25  C   UNL     1       4.564   1.265   0.555  1.00  0.00     0.012 A 
ATOM     26  C   UNL     1       5.591  -0.907  -0.863  1.00  0.00     0.047 A 
ATOM     27  C   UNL     1       5.851   1.327   0.014  1.00  0.00     0.047 A 
ATOM     28  C   UNL     1       6.354   0.241  -0.690  1.00  0.00     0.115 A 
BRANCH  28  29
ATOM     29  O   UNL     1       7.614   0.342  -1.200  1.00  0.00    -0.508 OA
ATOM     30  H   UNL     1       7.829  -0.487  -1.657  1.00  0.00     0.293 HD
ENDBRANCH  28  29
ENDBRANCH  20  23
ENDBRANCH   2  16
TORSDOF 7
