REMARK SMILES Cc1cc(F)cc(-c2n[nH]c3cc(NCC[C@@H](N)c4nnn[nH]4)ccc23)c1
REMARK SMILES IDX 15 1 14 2 13 4 8 5 9 6 26 7 10 8 25 9 11 10 24 11 12 12 7 14
REMARK SMILES IDX 2 15 3 16 27 17 4 18 6 19 1 20 5 21 16 22 17 23 18 24 19 27
REMARK SMILES IDX 20 28 23 29 21 30 22 31
REMARK H PARENT 14 3 10 13 18 25 18 26 23 32
ROOT
ATOM      1  C   UNL     1      -3.145   0.131   0.237  1.00  0.00     0.115 C 
ENDROOT
BRANCH   1   2
ATOM      2  N   UNL     1      -2.268   1.129  -0.366  1.00  0.00    -0.385 N 
ATOM      3  H   UNL     1      -2.639   1.524  -1.229  1.00  0.00     0.160 HD
BRANCH   2   4
ATOM      4  C   UNL     1      -0.894   0.875  -0.478  1.00  0.00     0.036 A 
ATOM      5  C   UNL     1       3.294   0.689  -1.050  1.00  0.00     0.100 A 
ATOM      6  N   UNL     1       3.450   1.697  -1.926  1.00  0.00    -0.174 NA
ATOM      7  C   UNL     1       1.919   0.552  -0.671  1.00  0.00     0.028 A 
ATOM      8  N   UNL     1       2.208   2.164  -2.121  1.00  0.00    -0.277 N 
ATOM      9  C   UNL     1       1.175  -0.251   0.212  1.00  0.00     0.015 A 
ATOM     10  C   UNL     1       1.244   1.520  -1.401  1.00  0.00     0.068 A 
ATOM     11  C   UNL     1      -0.216  -0.068   0.303  1.00  0.00     0.026 A 
ATOM     12  C   UNL     1      -0.142   1.713  -1.321  1.00  0.00     0.054 A 
ATOM     13  H   UNL     1       2.084   2.938  -2.763  1.00  0.00     0.190 HD
BRANCH   5  14
ATOM     14  C   UNL     1       4.447  -0.090  -0.599  1.00  0.00     0.006 A 
ATOM     15  C   UNL     1       6.795  -0.176   0.086  1.00  0.00    -0.048 A 
ATOM     16  C   UNL     1       6.675  -1.556   0.279  1.00  0.00     0.042 A 
ATOM     17  C   UNL     1       5.673   0.548  -0.344  1.00  0.00     0.014 A 
ATOM     18  C   UNL     1       5.465  -2.188   0.015  1.00  0.00     0.124 A 
ATOM     19  C   UNL     1       4.356  -1.475  -0.426  1.00  0.00     0.049 A 
ATOM     20  C   UNL     1       8.084   0.528   0.386  1.00  0.00     0.044 C 
ATOM     21  F   UNL     1       5.365  -3.513   0.188  1.00  0.00    -0.207 F 
ENDBRANCH   5  14
ENDBRANCH   2   4
ENDBRANCH   1   2
BRANCH   1  22
ATOM     22  C   UNL     1      -4.598   0.597   0.130  1.00  0.00     0.048 C 
BRANCH  22  23
ATOM     23  C   UNL     1      -5.596  -0.395   0.754  1.00  0.00     0.123 C 
BRANCH  23  24
ATOM     24  N   UNL     1      -5.465  -0.464   2.219  1.00  0.00    -0.321 NA
ATOM     25  H   UNL     1      -4.563  -0.872   2.465  1.00  0.00     0.119 HD
ATOM     26  H   UNL     1      -5.433   0.489   2.591  1.00  0.00     0.119 HD
ENDBRANCH  23  24
BRANCH  23  27
ATOM     27  C   UNL     1      -7.001  -0.045   0.393  1.00  0.00     0.165 A 
ATOM     28  N   UNL     1      -7.460   0.594  -0.664  1.00  0.00    -0.112 NA
ATOM     29  N   UNL     1      -8.075  -0.407   1.155  1.00  0.00    -0.241 N 
ATOM     30  N   UNL     1      -8.828   0.624  -0.529  1.00  0.00    -0.024 NA
ATOM     31  N   UNL     1      -9.210   0.011   0.583  1.00  0.00    -0.048 NA
ATOM     32  H   UNL     1      -8.089  -0.901   2.039  1.00  0.00     0.193 HD
ENDBRANCH  23  27
ENDBRANCH  22  23
ENDBRANCH   1  22
TORSDOF 7
