MODEL        6USER    Run = 6USERUSER    Estimated Free Energy of Binding    = -10.32 kcal/mol  [=(1)+(2)+(3)-(4)]USERUSER    (1) Final Intermolecular Energy     = -12.41 kcal/molUSER        vdW + Hbond + desolv Energy     = -12.26 kcal/molUSER        Electrostatic Energy            =  -0.15 kcal/molUSER        Moving Ligand-Fixed Receptor    = -12.41 kcal/molUSER        Moving Ligand-Moving Receptor   =  +0.00 kcal/molUSER    (2) Final Total Internal Energy     =  -0.88 kcal/molUSER    (3) Torsional Free Energy           =  +2.09 kcal/molUSER    (4) Unbound System's Energy         =  -0.88 kcal/molUSERUSERREMARK SMILES Cc1cc(F)cc(-c2n[nH]c3cc(NCC[C@@H](N)c4nnn[nH]4)ccc23)c1REMARK SMILES IDX 15 1 14 2 13 4 8 5 9 6 26 7 10 8 25 9 11 10 24 11 12 12 7 14REMARK SMILES IDX 2 15 3 16 27 17 4 18 6 19 1 20 5 21 16 22 17 23 18 24 19 27REMARK SMILES IDX 20 28 23 29 21 30 22 31REMARK H PARENT 14 3 10 13 18 25 18 26 23 32USER                              x       y       z     vdW  Elec       q    TypeUSER                           _______ _______ _______ _____ _____    ______ ____ROOTATOM      1  C   UNL     1      36.739  46.697  15.105 -0.38 -0.08    +0.115 C  ENDROOTBRANCH   1   2ATOM      2  N   UNL     1      36.242  46.655  16.476 -0.13 +0.32    -0.385 N  ATOM      3  H   UNL     1      36.966  46.822  17.173 +0.09 -0.10    +0.160 HD BRANCH   2   4ATOM      4  C   UNL     1      35.385  45.621  16.877 -0.32 -0.02    +0.036 A  ATOM      5  C   UNL     1      32.698  42.845  18.601 -0.29 -0.01    +0.100 A  ATOM      6  N   UNL     1      32.732  43.258  19.880 -0.83 -0.01    -0.174 NA ATOM      7  C   UNL     1      33.540  43.663  17.779 -0.30 -0.01    +0.028 A  ATOM      8  N   UNL     1      33.593  44.286  19.875 -0.23 +0.04    -0.277 N  ATOM      9  C   UNL     1      33.862  43.752  16.413 -0.33 -0.01    +0.015 A  ATOM     10  C   UNL     1      34.116  44.578  18.649 -0.34 -0.02    +0.068 A  ATOM     11  C   UNL     1      34.769  44.737  15.983 -0.31 -0.01    +0.026 A  ATOM     12  C   UNL     1      35.021  45.564  18.234 -0.36 -0.03    +0.054 A  ATOM     13  H   UNL     1      33.781  44.756  20.753 -0.19 -0.06    +0.190 HD BRANCH   5  14ATOM     14  C   UNL     1      31.865  41.709  18.208 -0.34 -0.00    +0.006 A  ATOM     15  C   UNL     1      30.058  40.796  16.833 -0.34 +0.01    -0.048 A  ATOM     16  C   UNL     1      30.257  39.544  17.424 -0.27 +0.00    +0.042 A  ATOM     17  C   UNL     1      30.872  41.868  17.226 -0.29 -0.00    +0.014 A  ATOM     18  C   UNL     1      31.231  39.390  18.404 -0.34 +0.01    +0.124 A  ATOM     19  C   UNL     1      32.030  40.455  18.806 -0.37 +0.00    +0.049 A  ATOM     20  C   UNL     1      29.028  40.978  15.759 -0.42 -0.01    +0.044 C  ATOM     21  F   UNL     1      31.404  38.190  18.975 -0.12 -0.04    -0.207 F  ENDBRANCH   5  14ENDBRANCH   2   4ENDBRANCH   1   2BRANCH   1  22ATOM     22  C   UNL     1      38.264  46.813  15.118 -0.45 -0.02    +0.048 C  BRANCH  22  23ATOM     23  C   UNL     1      38.766  48.209  14.708 -0.50 -0.05    +0.123 C  BRANCH  23  24ATOM     24  N   UNL     1      37.702  49.225  14.789 -0.19 +0.26    -0.321 NA ATOM     25  H   UNL     1      38.022  50.014  15.351 -0.49 -0.12    +0.119 HD ATOM     26  H   UNL     1      37.548  49.614  13.855 -0.46 -0.08    +0.119 HD ENDBRANCH  23  24BRANCH  23  27ATOM     27  C   UNL     1      39.927  48.632  15.544 -0.43 -0.06    +0.165 A  ATOM     28  N   UNL     1      40.740  47.901  16.279 -0.48 +0.02    -0.112 NA ATOM     29  N   UNL     1      40.348  49.929  15.628 -0.39 +0.11    -0.241 N  ATOM     30  N   UNL     1      41.656  48.773  16.819 -1.03 -0.00    -0.024 NA ATOM     31  N   UNL     1      41.421  50.016  16.422 -1.12 +0.00    -0.048 NA ATOM     32  H   UNL     1      39.949  50.755  15.198 -0.33 -0.17    +0.193 HD ENDBRANCH  23  27ENDBRANCH  22  23ENDBRANCH   1  22TORSDOF 7TERENDMDL