MODEL        9USER    Run = 9USERUSER    Estimated Free Energy of Binding    = -10.54 kcal/mol  [=(1)+(2)+(3)-(4)]USERUSER    (1) Final Intermolecular Energy     = -12.63 kcal/molUSER        vdW + Hbond + desolv Energy     = -12.22 kcal/molUSER        Electrostatic Energy            =  -0.41 kcal/molUSER        Moving Ligand-Fixed Receptor    = -12.63 kcal/molUSER        Moving Ligand-Moving Receptor   =  +0.00 kcal/molUSER    (2) Final Total Internal Energy     =  -1.37 kcal/molUSER    (3) Torsional Free Energy           =  +2.09 kcal/molUSER    (4) Unbound System's Energy         =  -1.37 kcal/molUSERUSERREMARK SMILES Cc1ccc(C2=C(NCCO)[C@@H]3C=NC=CC3=N2)cc1-c1ccc(O)cc1REMARK SMILES IDX 6 1 7 2 12 3 13 4 14 5 15 6 16 7 17 8 18 9 5 10 2 11 3 12REMARK SMILES IDX 20 13 4 14 19 15 1 16 21 17 22 18 27 19 23 20 26 21 24 22REMARK SMILES IDX 25 23 8 25 9 27 10 28 11 29REMARK H PARENT 25 24 8 26 11 30USER                              x       y       z     vdW  Elec       q    TypeUSER                           _______ _______ _______ _____ _____    ______ ____ROOTATOM      1  C   UNL     1      38.221  45.728  15.996 -0.36 -0.03    +0.091 C  ATOM      2  C   UNL     1      38.926  46.583  15.225 -0.46 -0.01    +0.052 C  ATOM      3  C   UNL     1      38.411  46.462  13.821 -0.37 -0.03    +0.128 C  ATOM      4  C   UNL     1      37.971  47.686  13.074 -0.33 -0.02    +0.100 C  ATOM      5  N   UNL     1      36.902  47.716  12.331 -1.01 +0.08    -0.268 NA ATOM      6  C   UNL     1      36.110  46.586  12.298 -0.64 -0.06    +0.112 C  ATOM      7  C   UNL     1      36.165  45.537  13.130 -0.48 -0.02    +0.045 C  ATOM      8  C   UNL     1      37.205  45.640  14.154 -0.44 -0.02    +0.057 C  ATOM      9  N   UNL     1      37.157  45.139  15.346 -0.19 +0.10    -0.250 NA ENDROOTBRANCH   1  10ATOM     10  C   UNL     1      38.439  45.472  17.425 -0.39 -0.00    +0.003 A  ATOM     11  C   UNL     1      38.899  45.004  20.171 -0.34 +0.00    -0.043 A  ATOM     12  C   UNL     1      37.680  44.645  19.575 -0.34 -0.00    +0.005 A  ATOM     13  C   UNL     1      39.907  45.605  19.386 -0.41 +0.00    -0.015 A  ATOM     14  C   UNL     1      37.450  44.883  18.218 -0.35 -0.00    +0.011 A  ATOM     15  C   UNL     1      39.653  45.839  18.021 -0.43 -0.00    +0.019 A  ATOM     16  C   UNL     1      39.102  44.727  21.638 -0.35 +0.00    +0.045 C  BRANCH  13  17ATOM     17  C   UNL     1      41.210  45.998  19.941 -0.39 -0.00    -0.018 A  ATOM     18  C   UNL     1      41.985  46.993  19.326 -0.47 +0.00    +0.012 A  ATOM     19  C   UNL     1      41.699  45.393  21.111 -0.31 +0.00    +0.012 A  ATOM     20  C   UNL     1      43.220  47.366  19.860 -0.38 +0.01    +0.047 A  ATOM     21  C   UNL     1      42.934  45.765  21.648 -0.24 +0.02    +0.047 A  ATOM     22  C   UNL     1      43.685  46.749  21.015 -0.24 +0.06    +0.115 A  BRANCH  22  23ATOM     23  O   UNL     1      44.896  47.143  21.503 -0.65 -0.51    -0.508 OA ATOM     24  H   UNL     1      44.933  48.113  21.488 -0.36 +0.11    +0.293 HD ENDBRANCH  22  23ENDBRANCH  13  17ENDBRANCH   1  10BRANCH   2  25ATOM     25  N   UNL     1      40.004  47.422  15.491 -0.20 +0.08    -0.383 N  ATOM     26  H   UNL     1      40.351  47.193  16.426 +0.11 -0.03    +0.160 HD BRANCH  25  27ATOM     27  C   UNL     1      39.843  48.891  15.476 -0.52 -0.06    +0.141 C  BRANCH  27  28ATOM     28  C   UNL     1      41.065  49.628  16.028 -0.52 -0.03    +0.177 C  BRANCH  28  29ATOM     29  O   UNL     1      41.700  48.837  17.030 -0.80 -0.04    -0.395 OA ATOM     30  H   UNL     1      42.141  48.103  16.567 -0.35 +0.00    +0.210 HD ENDBRANCH  28  29ENDBRANCH  27  28ENDBRANCH  25  27ENDBRANCH   2  25TORSDOF 7TERENDMDL