REMARK SMILES Cc1ccc(C2=C(NCCO)[C@@H]3C=NC=CC3=N2)cc1-c1ccc(O)cc1
REMARK SMILES IDX 6 1 7 2 12 3 13 4 14 5 15 6 16 7 17 8 18 9 5 10 2 11 3 12
REMARK SMILES IDX 20 13 4 14 19 15 1 16 21 17 22 18 27 19 23 20 26 21 24 22
REMARK SMILES IDX 25 23 8 25 9 27 10 28 11 29
REMARK H PARENT 25 24 8 26 11 30
ROOT
ATOM      1  C   UNL     1      -1.752  -1.092   0.318  1.00  0.00     0.091 C 
ATOM      2  C   UNL     1      -2.840  -0.644  -0.345  1.00  0.00     0.052 C 
ATOM      3  C   UNL     1      -4.009  -0.722   0.591  1.00  0.00     0.128 C 
ATOM      4  C   UNL     1      -4.863   0.488   0.831  1.00  0.00     0.100 C 
ATOM      5  N   UNL     1      -5.300   0.824   2.010  1.00  0.00    -0.268 NA
ATOM      6  C   UNL     1      -4.892   0.065   3.088  1.00  0.00     0.112 C 
ATOM      7  C   UNL     1      -3.897  -0.834   3.112  1.00  0.00     0.045 C 
ATOM      8  C   UNL     1      -3.216  -1.005   1.829  1.00  0.00     0.057 C 
ATOM      9  N   UNL     1      -1.972  -1.320   1.660  1.00  0.00    -0.250 NA
ENDROOT
BRANCH   1  10
ATOM     10  C   UNL     1      -0.404  -1.251  -0.241  1.00  0.00     0.003 A 
ATOM     11  C   UNL     1       2.207  -1.533  -1.279  1.00  0.00    -0.043 A 
ATOM     12  C   UNL     1       1.122  -2.202  -1.868  1.00  0.00     0.005 A 
ATOM     13  C   UNL     1       1.987  -0.708  -0.154  1.00  0.00    -0.015 A 
ATOM     14  C   UNL     1      -0.168  -2.067  -1.350  1.00  0.00     0.011 A 
ATOM     15  C   UNL     1       0.679  -0.590   0.354  1.00  0.00     0.019 A 
ATOM     16  C   UNL     1       3.580  -1.707  -1.873  1.00  0.00     0.045 C 
BRANCH  13  17
ATOM     17  C   UNL     1       3.073   0.028   0.508  1.00  0.00    -0.018 A 
ATOM     18  C   UNL     1       3.590   1.207  -0.050  1.00  0.00     0.012 A 
ATOM     19  C   UNL     1       3.607  -0.429   1.725  1.00  0.00     0.012 A 
ATOM     20  C   UNL     1       4.619   1.905   0.585  1.00  0.00     0.047 A 
ATOM     21  C   UNL     1       4.636   0.268   2.363  1.00  0.00     0.047 A 
ATOM     22  C   UNL     1       5.134   1.430   1.785  1.00  0.00     0.115 A 
BRANCH  22  23
ATOM     23  O   UNL     1       6.138   2.142   2.372  1.00  0.00    -0.508 OA
ATOM     24  H   UNL     1       6.386   1.700   3.200  1.00  0.00     0.293 HD
ENDBRANCH  22  23
ENDBRANCH  13  17
ENDBRANCH   1  10
BRANCH   2  25
ATOM     25  N   UNL     1      -3.039  -0.232  -1.659  1.00  0.00    -0.383 N 
ATOM     26  H   UNL     1      -2.864  -1.037  -2.266  1.00  0.00     0.160 HD
BRANCH  25  27
ATOM     27  C   UNL     1      -2.251   0.878  -2.234  1.00  0.00     0.141 C 
BRANCH  27  28
ATOM     28  C   UNL     1      -2.466   2.203  -1.500  1.00  0.00     0.177 C 
BRANCH  28  29
ATOM     29  O   UNL     1      -1.788   3.254  -2.183  1.00  0.00    -0.395 OA
ATOM     30  H   UNL     1      -1.919   4.061  -1.654  1.00  0.00     0.210 HD
ENDBRANCH  28  29
ENDBRANCH  27  28
ENDBRANCH  25  27
ENDBRANCH   2  25
TORSDOF 7
