REMARK SMILES C[C@H](O)Cn1cnc2c(NCc3cccc(F)c3)nc(Nc3ccc(O)cc3)nc21
REMARK SMILES IDX 5 1 6 2 7 3 8 4 9 5 19 6 20 7 29 8 30 9 4 10 2 11 1 12 3 13
REMARK SMILES IDX 21 15 22 17 23 18 28 19 24 20 27 21 25 22 26 23 10 25 11 27
REMARK SMILES IDX 12 28 13 29 18 30 14 31 16 32 15 33 17 34
REMARK H PARENT 3 14 21 16 26 24 10 26
ROOT
ATOM      1  N   UNL     1      -1.356  -2.265  -2.651  1.00  0.00    -0.312 N 
ATOM      2  C   UNL     1      -0.277  -3.108  -2.660  1.00  0.00     0.202 A 
ATOM      3  N   UNL     1       0.707  -2.650  -1.916  1.00  0.00    -0.231 NA
ATOM      4  C   UNL     1       0.248  -1.441  -1.430  1.00  0.00     0.150 A 
ATOM      5  C   UNL     1       0.824  -0.472  -0.593  1.00  0.00     0.160 A 
ATOM      6  N   UNL     1       0.069   0.614  -0.280  1.00  0.00    -0.193 NA
ATOM      7  C   UNL     1      -1.179   0.756  -0.774  1.00  0.00     0.231 A 
ATOM      8  N   UNL     1      -1.800  -0.128  -1.583  1.00  0.00    -0.193 NA
ATOM      9  C   UNL     1      -1.036  -1.190  -1.869  1.00  0.00     0.167 A 
ENDROOT
BRANCH   1  10
ATOM     10  C   UNL     1      -2.600  -2.466  -3.355  1.00  0.00     0.156 C 
BRANCH  10  11
ATOM     11  C   UNL     1      -3.788  -2.797  -2.444  1.00  0.00     0.131 C 
ATOM     12  C   UNL     1      -3.616  -4.120  -1.705  1.00  0.00     0.040 C 
BRANCH  11  13
ATOM     13  O   UNL     1      -4.960  -2.887  -3.260  1.00  0.00    -0.392 OA
ATOM     14  H   UNL     1      -5.721  -3.027  -2.667  1.00  0.00     0.211 HD
ENDBRANCH  11  13
ENDBRANCH  10  11
ENDBRANCH   1  10
BRANCH   7  15
ATOM     15  N   UNL     1      -1.960   1.866  -0.456  1.00  0.00    -0.324 N 
ATOM     16  H   UNL     1      -2.832   1.802  -0.960  1.00  0.00     0.170 HD
BRANCH  15  17
ATOM     17  C   UNL     1      -1.728   3.057   0.242  1.00  0.00     0.041 A 
ATOM     18  C   UNL     1      -2.784   3.978   0.362  1.00  0.00     0.030 A 
ATOM     19  C   UNL     1      -0.518   3.373   0.871  1.00  0.00     0.030 A 
ATOM     20  C   UNL     1      -2.631   5.181   1.059  1.00  0.00     0.048 A 
ATOM     21  C   UNL     1      -0.358   4.571   1.576  1.00  0.00     0.048 A 
ATOM     22  C   UNL     1      -1.413   5.468   1.661  1.00  0.00     0.115 A 
BRANCH  22  23
ATOM     23  O   UNL     1      -1.215   6.622   2.355  1.00  0.00    -0.508 OA
ATOM     24  H   UNL     1      -2.023   7.160   2.300  1.00  0.00     0.293 HD
ENDBRANCH  22  23
ENDBRANCH  15  17
ENDBRANCH   7  15
BRANCH   5  25
ATOM     25  N   UNL     1       2.124  -0.615  -0.102  1.00  0.00    -0.364 N 
ATOM     26  H   UNL     1       2.430  -1.582  -0.181  1.00  0.00     0.162 HD
BRANCH  25  27
ATOM     27  C   UNL     1       2.372   0.020   1.176  1.00  0.00     0.150 C 
BRANCH  27  28
ATOM     28  C   UNL     1       3.735  -0.396   1.676  1.00  0.00    -0.026 A 
ATOM     29  C   UNL     1       3.865  -1.366   2.684  1.00  0.00     0.006 A 
ATOM     30  C   UNL     1       4.895   0.158   1.113  1.00  0.00     0.044 A 
ATOM     31  C   UNL     1       5.129  -1.763   3.130  1.00  0.00     0.003 A 
ATOM     32  C   UNL     1       6.147  -0.246   1.565  1.00  0.00     0.123 A 
ATOM     33  C   UNL     1       6.274  -1.200   2.568  1.00  0.00     0.039 A 
ATOM     34  F   UNL     1       7.249   0.288   1.020  1.00  0.00    -0.207 F 
ENDBRANCH  27  28
ENDBRANCH  25  27
ENDBRANCH   5  25
TORSDOF 9
