MODEL        5USER    Run = 5USERUSER    Estimated Free Energy of Binding    = -11.26 kcal/mol  [=(1)+(2)+(3)-(4)]USERUSER    (1) Final Intermolecular Energy     = -13.34 kcal/molUSER        vdW + Hbond + desolv Energy     = -13.22 kcal/molUSER        Electrostatic Energy            =  -0.13 kcal/molUSER        Moving Ligand-Fixed Receptor    = -13.34 kcal/molUSER        Moving Ligand-Moving Receptor   =  +0.00 kcal/molUSER    (2) Final Total Internal Energy     =  -2.08 kcal/molUSER    (3) Torsional Free Energy           =  +2.09 kcal/molUSER    (4) Unbound System's Energy         =  -2.08 kcal/molUSERUSERREMARK SMILES C[C@@H]1CN(CC2=C(c3ccccc3)c3ccccc3C2=O)CCN1CCNS(C)(=O)=OREMARK SMILES IDX 25 1 24 2 2 3 3 4 4 5 23 6 22 7 1 8 5 9 6 10 7 11 20 12REMARK SMILES IDX 14 13 19 14 15 15 18 16 16 17 17 18 21 19 8 20 9 21 13 22REMARK SMILES IDX 10 23 12 24 11 25 26 26 27 27 28 29 29 30 30 31 31 32REMARK H PARENT 27 28USER                              x       y       z     vdW  Elec       q    TypeUSER                           _______ _______ _______ _____ _____    ______ ____ROOTATOM      1  C   UNL     1      31.080  44.221  17.040 -0.24 -0.02    +0.101 C  ENDROOTBRANCH   1   2ATOM      2  N   UNL     1      32.406  43.922  16.481 -0.13 +0.13    -0.297 NA ATOM      3  C   UNL     1      33.191  42.904  17.223 -0.36 -0.02    +0.067 C  ATOM      4  C   UNL     1      34.581  42.692  16.555 -0.41 -0.04    +0.103 C  ATOM      5  N   UNL     1      35.374  43.936  16.484 -0.14 +0.12    -0.296 NA ATOM      6  C   UNL     1      33.188  45.166  16.302 -0.31 -0.07    +0.100 C  ATOM      7  C   UNL     1      34.601  44.933  15.714 -0.32 -0.06    +0.100 C  ATOM      8  C   UNL     1      33.362  43.191  18.724 -0.41 -0.00    +0.026 C  BRANCH   5   9ATOM      9  C   UNL     1      36.684  43.663  15.868 -0.35 -0.04    +0.125 C  BRANCH   9  10ATOM     10  C   UNL     1      37.681  44.755  16.066 -0.36 -0.01    +0.023 C  ATOM     11  C   UNL     1      37.962  45.845  15.319 -0.43 +0.00    -0.002 C  ATOM     12  C   UNL     1      38.491  44.816  17.309 -0.23 -0.04    +0.191 C  ATOM     13  C   UNL     1      38.965  46.646  16.027 -0.43 +0.00    -0.006 A  ATOM     14  C   UNL     1      39.284  46.033  17.230 -0.41 -0.01    +0.030 A  ATOM     15  C   UNL     1      39.583  47.837  15.676 -0.52 -0.00    +0.009 A  ATOM     16  C   UNL     1      40.197  46.552  18.129 -0.46 -0.00    +0.013 A  ATOM     17  C   UNL     1      40.516  48.390  16.565 -0.51 -0.00    +0.001 A  ATOM     18  C   UNL     1      40.818  47.754  17.784 -0.43 -0.00    +0.001 A  ATOM     19  O   UNL     1      38.498  44.016  18.225 -0.19 +0.03    -0.289 OA BRANCH  11  20ATOM     20  C   UNL     1      37.318  46.144  14.036 -0.43 +0.01    -0.017 A  ATOM     21  C   UNL     1      36.788  47.416  13.785 -0.53 -0.00    +0.009 A  ATOM     22  C   UNL     1      37.207  45.149  13.053 -0.47 -0.00    +0.009 A  ATOM     23  C   UNL     1      36.155  47.692  12.572 -0.66 -0.00    +0.001 A  ATOM     24  C   UNL     1      36.576  45.426  11.837 -0.54 -0.00    +0.001 A  ATOM     25  C   UNL     1      36.052  46.698  11.597 -0.52 -0.00    +0.000 A  ENDBRANCH  11  20ENDBRANCH   9  10ENDBRANCH   5   9ENDBRANCH   1   2BRANCH   1  26ATOM     26  C   UNL     1      30.116  44.926  16.064 -0.32 -0.03    +0.114 C  BRANCH  26  27ATOM     27  N   UNL     1      30.693  44.903  14.703 -0.27 +0.15    -0.214 NA ATOM     28  H   UNL     1      30.189  44.338  14.017 -0.36 -0.20    +0.141 HD BRANCH  27  29ATOM     29  S   UNL     1      31.170  46.368  14.036 -0.60 -0.13    +0.208 S  ATOM     30  C   UNL     1      30.017  46.539  12.687 -0.53 -0.11    +0.176 C  ATOM     31  O   UNL     1      30.857  47.372  15.030 -0.90 +0.07    -0.213 OA ATOM     32  O   UNL     1      32.505  46.209  13.507 -0.42 +0.17    -0.213 OA ENDBRANCH  27  29ENDBRANCH  26  27ENDBRANCH   1  26TORSDOF 7TERENDMDL