REMARK SMILES C[C@@H]1CN(CC2=C(c3ccccc3)c3ccccc3C2=O)CCN1CCNS(C)(=O)=O
REMARK SMILES IDX 25 1 24 2 2 3 3 4 4 5 23 6 22 7 1 8 5 9 6 10 7 11 20 12
REMARK SMILES IDX 14 13 19 14 15 15 18 16 16 17 17 18 21 19 8 20 9 21 13 22
REMARK SMILES IDX 10 23 12 24 11 25 26 26 27 27 28 29 29 30 30 31 31 32
REMARK H PARENT 27 28
ROOT
ATOM      1  C   UNL     1       3.709   0.360   1.376  1.00  0.00     0.101 C 
ENDROOT
BRANCH   1   2
ATOM      2  N   UNL     1       2.557  -0.504   1.079  1.00  0.00    -0.297 NA
ATOM      3  C   UNL     1       2.168  -0.570  -0.352  1.00  0.00     0.067 C 
ATOM      4  C   UNL     1       0.926  -1.490  -0.539  1.00  0.00     0.103 C 
ATOM      5  N   UNL     1      -0.241  -1.035   0.244  1.00  0.00    -0.296 NA
ATOM      6  C   UNL     1       1.400  -0.137   1.925  1.00  0.00     0.100 C 
ATOM      7  C   UNL     1       0.143  -1.005   1.671  1.00  0.00     0.100 C 
ATOM      8  C   UNL     1       1.923   0.795  -1.017  1.00  0.00     0.026 C 
BRANCH   5   9
ATOM      9  C   UNL     1      -1.387  -1.929   0.003  1.00  0.00     0.125 C 
BRANCH   9  10
ATOM     10  C   UNL     1      -2.684  -1.392   0.506  1.00  0.00     0.023 C 
ATOM     11  C   UNL     1      -3.553  -0.514  -0.042  1.00  0.00    -0.002 C 
ATOM     12  C   UNL     1      -3.274  -1.910   1.767  1.00  0.00     0.191 C 
ATOM     13  C   UNL     1      -4.724  -0.413   0.833  1.00  0.00    -0.006 A 
ATOM     14  C   UNL     1      -4.564  -1.256   1.923  1.00  0.00     0.030 A 
ATOM     15  C   UNL     1      -5.875   0.354   0.720  1.00  0.00     0.009 A 
ATOM     16  C   UNL     1      -5.506  -1.391   2.926  1.00  0.00     0.013 A 
ATOM     17  C   UNL     1      -6.850   0.243   1.721  1.00  0.00     0.001 A 
ATOM     18  C   UNL     1      -6.669  -0.626   2.814  1.00  0.00     0.001 A 
ATOM     19  O   UNL     1      -2.788  -2.725   2.528  1.00  0.00    -0.289 OA
BRANCH  11  20
ATOM     20  C   UNL     1      -3.325   0.171  -1.319  1.00  0.00    -0.017 A 
ATOM     21  C   UNL     1      -2.299   1.117  -1.445  1.00  0.00     0.009 A 
ATOM     22  C   UNL     1      -4.148  -0.100  -2.422  1.00  0.00     0.009 A 
ATOM     23  C   UNL     1      -2.098   1.784  -2.655  1.00  0.00     0.001 A 
ATOM     24  C   UNL     1      -3.944   0.566  -3.634  1.00  0.00     0.001 A 
ATOM     25  C   UNL     1      -2.918   1.506  -3.750  1.00  0.00     0.000 A 
ENDBRANCH  11  20
ENDBRANCH   9  10
ENDBRANCH   5   9
ENDBRANCH   1   2
BRANCH   1  26
ATOM     26  C   UNL     1       5.019  -0.054   0.674  1.00  0.00     0.114 C 
BRANCH  26  27
ATOM     27  N   UNL     1       6.104   0.863   1.082  1.00  0.00    -0.214 NA
ATOM     28  H   UNL     1       6.407   0.786   2.055  1.00  0.00     0.141 HD
BRANCH  27  29
ATOM     29  S   UNL     1       7.425   1.010   0.055  1.00  0.00     0.208 S 
ATOM     30  C   UNL     1       6.835   2.218  -1.116  1.00  0.00     0.176 C 
ATOM     31  O   UNL     1       8.471   1.619   0.847  1.00  0.00    -0.213 OA
ATOM     32  O   UNL     1       7.616  -0.255  -0.617  1.00  0.00    -0.213 OA
ENDBRANCH  27  29
ENDBRANCH  26  27
ENDBRANCH   1  26
TORSDOF 7
