
     RDKit          2D

 35 42  0  0  1  0  0  0  0  0999 V2000
   -1.9211    5.8424    0.0000 C   0  0  0  0  0  0  0  0  0  0  0  0
   -2.5381    4.8132    0.0000 N   0  0  0  0  0  0  0  0  0  0  0  0
   -1.8100    3.5000    0.0000 C   0  0  0  0  0  0  0  0  0  0  0  0
   -0.2400    3.5200    0.0000 C   0  0  0  0  0  0  0  0  0  0  0  0
    0.5000    2.1800    0.0000 C   0  0  0  0  0  0  0  0  0  0  0  0
   -1.0600    2.1800    0.0000 O   0  0  0  0  0  0  0  0  0  0  0  0
   -1.8300    0.9300    0.0000 C   0  0  0  0  0  0  0  0  0  0  0  0
   -2.8781    0.3457    0.0000 C   0  0  0  0  0  0  0  0  0  0  0  0
   -2.6500    2.2500    0.0000 C   0  0  0  0  0  0  0  0  0  0  0  0
   -4.1488    2.2849    0.0000 O   0  0  0  0  0  0  0  0  0  0  0  0
   -4.7737    1.2605    0.0000 C   0  0  0  0  0  0  0  0  0  0  0  0
   -0.9800   -0.7800    0.0000 N   0  0  0  0  0  0  0  0  0  0  0  0
   -2.1300   -1.4600    0.0000 C   0  0  0  0  0  0  0  0  0  0  0  0
   -3.3200   -0.7600    0.0000 C   0  0  0  0  0  0  0  0  0  0  0  0
   -4.5500   -1.4800    0.0000 C   0  0  0  0  0  0  0  0  0  0  0  0
   -4.5800   -2.7700    0.0000 C   0  0  0  0  0  0  0  0  0  0  0  0
   -3.3400   -3.4700    0.0000 C   0  0  0  0  0  0  0  0  0  0  0  0
   -2.1300   -2.7900    0.0000 C   0  0  0  0  0  0  0  0  0  0  0  0
    0.2400   -2.7700    0.0000 C   0  0  0  0  0  0  0  0  0  0  0  0
    1.4300   -3.4700    0.0000 C   0  0  0  0  0  0  0  0  0  0  0  0
    1.7600   -4.9700    0.0000 C   0  0  0  0  0  0  0  0  0  0  0  0
    3.2600   -5.0800    0.0000 N   0  0  0  0  0  0  0  0  0  0  0  0
    3.8500   -3.6300    0.0000 C   0  0  0  0  0  0  0  0  0  0  0  0
    5.0053   -3.3055    0.0000 O   0  0  0  0  0  0  0  0  0  0  0  0
    2.6600   -2.7500    0.0000 C   0  0  0  0  0  0  0  0  0  0  0  0
    2.6800   -1.4600    0.0000 C   0  0  0  0  0  0  0  0  0  0  0  0
    3.7900    0.5600    0.0000 C   0  0  0  0  0  0  0  0  0  0  0  0
    4.9600    1.2800    0.0000 C   0  0  0  0  0  0  0  0  0  0  0  0
    4.9600    2.6300    0.0000 C   0  0  0  0  0  0  0  0  0  0  0  0
    3.8100    3.2900    0.0000 C   0  0  0  0  0  0  0  0  0  0  0  0
    2.6400    2.5900    0.0000 C   0  0  0  0  0  0  0  0  0  0  0  0
    2.6400    1.2400    0.0000 C   0  0  0  0  0  0  0  0  0  0  0  0
    1.4900    0.5400    0.0000 N   0  0  0  0  0  0  0  0  0  0  0  0
    1.4500   -0.7600    0.0000 C   0  0  0  0  0  0  0  0  0  0  0  0
    0.2400   -1.4400    0.0000 C   0  0  0  0  0  0  0  0  0  0  0  0
  1  2  1  0
  3  2  1  6
  3  4  1  0
  5  4  1  6
  5  6  1  0
  6  7  1  0
  7  8  1  1
  7  9  1  0
  9  3  1  0
  9 10  1  6
 10 11  1  0
  7 12  1  0
 12 13  1  0
 13 14  2  0
 14 15  1  0
 15 16  2  0
 16 17  1  0
 17 18  2  0
 18 13  1  0
 18 19  1  0
 19 20  2  0
 20 21  1  0
 21 22  1  0
 22 23  1  0
 23 24  2  0
 23 25  1  0
 25 20  1  0
 25 26  2  0
 26 27  1  0
 27 28  2  0
 28 29  1  0
 29 30  2  0
 30 31  1  0
 31 32  2  0
 32 27  1  0
 32 33  1  0
 33  5  1  0
 33 34  1  0
 34 26  1  0
 34 35  2  0
 35 12  1  0
 35 19  1  0
M  END
> <chembl_id>
CHEMBL388978

> <chembl_pref_name>
STAUROSPORINE