
     RDKit          2D

 22 24  0  0  0  0  0  0  0  0999 V2000
   -2.3375  -10.9042    0.0000 N   0  0  0  0  0  0  0  0  0  0  0  0
   -1.8208  -10.2667    0.0000 C   0  0  0  0  0  0  0  0  0  0  0  0
   -2.1625  -11.7042    0.0000 C   0  0  0  0  0  0  0  0  0  0  0  0
   -2.2708   -9.5750    0.0000 C   0  0  0  0  0  0  0  0  0  0  0  0
   -3.1083  -10.6042    0.0000 N   0  0  0  0  0  0  0  0  0  0  0  0
   -3.0625   -9.7875    0.0000 N   0  0  0  0  0  0  0  0  0  0  0  0
   -1.4250  -12.0792    0.0000 C   0  0  0  0  0  0  0  0  0  0  0  0
   -2.7458  -12.3000    0.0000 N   0  0  0  0  0  0  0  0  0  0  0  0
   -1.5458  -12.8917    0.0000 N   0  0  0  0  0  0  0  0  0  0  0  0
   -1.9708   -8.7917    0.0000 C   0  0  0  0  0  0  0  0  0  0  0  0
   -2.3625  -13.0167    0.0000 O   0  0  0  0  0  0  0  0  0  0  0  0
   -0.9958  -10.3250    0.0000 C   0  0  0  0  0  0  0  0  0  0  0  0
   -0.3333   -9.7875    0.0000 N   0  0  0  0  0  0  0  0  0  0  0  0
   -1.1750   -8.6667    0.0000 O   0  0  0  0  0  0  0  0  0  0  0  0
   -2.4833   -8.1542    0.0000 N   0  0  0  0  0  0  0  0  0  0  0  0
   -0.6833  -11.6917    0.0000 N   0  0  0  0  0  0  0  0  0  0  0  0
   -2.1833   -7.3875    0.0000 N   0  0  0  0  0  0  0  0  0  0  0  0
    0.4542  -10.0917    0.0000 C   0  0  0  0  0  0  0  0  0  0  0  0
   -0.4708   -8.9500    0.0000 C   0  0  0  0  0  0  0  0  0  0  0  0
    0.1917   -8.4125    0.0000 C   0  0  0  0  0  0  0  0  0  0  0  0
    1.1167   -9.5625    0.0000 C   0  0  0  0  0  0  0  0  0  0  0  0
    0.9917   -8.7167    0.0000 C   0  0  0  0  0  0  0  0  0  0  0  0
  2  1  1  0
  3  1  1  0
  4  2  2  0
  5  1  1  0
  6  5  2  0
  7  3  1  0
  8  3  2  0
  9  7  2  0
 10  4  1  0
 11  8  1  0
 12  2  1  0
 13 12  1  0
 14 10  2  0
 15 10  1  0
 16  7  1  0
 17 15  1  0
 18 13  1  0
 19 13  1  0
 20 19  1  0
 21 18  1  0
 22 20  1  0
  6  4  1  0
  9 11  1  0
 22 21  1  0
M  END
> <chembl_id>
CHEMBL115875

> <chembl_pref_name>
None