
     RDKit          2D

 25 27  0  0  0  0  0  0  0  0999 V2000
    1.7610    0.0424    0.0000 C   0  0  0  0  0  0  0  0  0  0  0  0
    1.7557   -0.7832    0.0000 C   0  0  0  0  0  0  0  0  0  0  0  0
    2.4669   -1.1988    0.0000 C   0  0  0  0  0  0  0  0  0  0  0  0
    3.1839   -0.7899    0.0000 C   0  0  0  0  0  0  0  0  0  0  0  0
    3.1853    0.0388    0.0000 C   0  0  0  0  0  0  0  0  0  0  0  0
    2.4734    0.4507    0.0000 C   0  0  0  0  0  0  0  0  0  0  0  0
    0.9289    2.0228    0.0000 N   0  0  0  0  0  0  0  0  0  0  0  0
    0.2682    1.5363    0.0000 C   0  0  0  0  0  0  0  0  0  0  0  0
    0.5253    0.7533    0.0000 C   0  0  0  0  0  0  0  0  0  0  0  0
    1.3501    0.7571    0.0000 C   0  0  0  0  0  0  0  0  0  0  0  0
    1.6001    1.5433    0.0000 C   0  0  0  0  0  0  0  0  0  0  0  0
   -2.3578    0.0443    0.0000 C   0  0  0  0  0  0  0  0  0  0  0  0
   -1.9501   -0.6693    0.0000 C   0  0  0  0  0  0  0  0  0  0  0  0
   -1.1302   -0.6721    0.0000 C   0  0  0  0  0  0  0  0  0  0  0  0
   -0.7169    0.0380    0.0000 C   0  0  0  0  0  0  0  0  0  0  0  0
   -1.1295    0.7524    0.0000 C   0  0  0  0  0  0  0  0  0  0  0  0
   -1.9482    0.7516    0.0000 C   0  0  0  0  0  0  0  0  0  0  0  0
    0.1105    0.0367    0.0000 N   0  0  0  0  0  0  0  0  0  0  0  0
   -3.1853    0.0467    0.0000 O   0  0  0  0  0  0  0  0  0  0  0  0
   -2.3668   -1.3842    0.0000 Cl  0  0  0  0  0  0  0  0  0  0  0  0
   -0.5200    1.7883    0.0000 O   0  0  0  0  0  0  0  0  0  0  0  0
    2.3851    1.8046    0.0000 O   0  0  0  0  0  0  0  0  0  0  0  0
    1.0367   -1.1927    0.0000 N   0  0  0  0  0  0  0  0  0  0  0  0
    0.3210   -0.7774    0.0000 O   0  0  0  0  0  0  0  0  0  0  0  0
    1.0303   -2.0228    0.0000 O   0  0  0  0  0  0  0  0  0  0  0  0
 12 13  1  0
  1  2  2  0
 13 14  2  0
  9 10  2  0
 14 15  1  0
  3  4  2  0
 15 16  2  0
 16 17  1  0
 17 12  2  0
  4  5  1  0
 15 18  1  0
 18  9  1  0
  2  3  1  0
 12 19  1  0
  8  9  1  0
 13 20  1  0
 10 11  1  0
  8 21  2  0
 11  7  1  0
 11 22  2  0
 10  1  1  0
  2 23  1  0
  7  8  1  0
  5  6  2  0
  6  1  1  0
 23 24  1  0
 23 25  2  0
M  CHG  2  23   1  24  -1
M  END
> <chembl_id>
CHEMBL322970

> <chembl_pref_name>
None