
     RDKit          2D

 28 31  0  0  0  0  0  0  0  0999 V2000
   -3.7208  -12.7292    0.0000 N   0  0  0  0  0  0  0  0  0  0  0  0
   -3.2000  -12.1000    0.0000 C   0  0  0  0  0  0  0  0  0  0  0  0
   -3.5458  -13.5375    0.0000 C   0  0  0  0  0  0  0  0  0  0  0  0
   -3.6458  -11.4042    0.0000 C   0  0  0  0  0  0  0  0  0  0  0  0
   -4.4875  -12.4375    0.0000 N   0  0  0  0  0  0  0  0  0  0  0  0
   -4.4458  -11.6167    0.0000 N   0  0  0  0  0  0  0  0  0  0  0  0
   -2.8083  -13.9042    0.0000 C   0  0  0  0  0  0  0  0  0  0  0  0
   -4.1208  -14.1292    0.0000 N   0  0  0  0  0  0  0  0  0  0  0  0
   -2.9250  -14.7250    0.0000 N   0  0  0  0  0  0  0  0  0  0  0  0
   -3.7458  -14.8500    0.0000 O   0  0  0  0  0  0  0  0  0  0  0  0
   -3.3458  -10.6250    0.0000 C   0  0  0  0  0  0  0  0  0  0  0  0
   -2.3750  -12.1542    0.0000 C   0  0  0  0  0  0  0  0  0  0  0  0
   -1.7125  -11.6167    0.0000 N   0  0  0  0  0  0  0  0  0  0  0  0
   -2.5583  -10.4917    0.0000 O   0  0  0  0  0  0  0  0  0  0  0  0
   -2.0625  -13.5250    0.0000 N   0  0  0  0  0  0  0  0  0  0  0  0
   -3.1708   -6.2667    0.0000 N   0  0  0  0  0  0  0  0  0  0  0  0
   -3.8583   -9.9792    0.0000 N   0  0  0  0  0  0  0  0  0  0  0  0
   -3.5583   -9.2167    0.0000 C   0  0  0  0  0  0  0  0  0  0  0  0
   -3.7708   -7.8042    0.0000 C   0  0  0  0  0  0  0  0  0  0  0  0
   -0.8875  -11.8292    0.0000 C   0  0  0  0  0  0  0  0  0  0  0  0
   -1.7583  -10.7625    0.0000 C   0  0  0  0  0  0  0  0  0  0  0  0
   -2.6500   -6.9167    0.0000 C   0  0  0  0  0  0  0  0  0  0  0  0
   -3.9833   -6.3917    0.0000 C   0  0  0  0  0  0  0  0  0  0  0  0
   -4.0708   -8.5667    0.0000 C   0  0  0  0  0  0  0  0  0  0  0  0
   -2.9583   -7.6875    0.0000 C   0  0  0  0  0  0  0  0  0  0  0  0
   -4.2833   -7.1625    0.0000 C   0  0  0  0  0  0  0  0  0  0  0  0
   -0.9583  -10.4542    0.0000 C   0  0  0  0  0  0  0  0  0  0  0  0
   -0.4250  -11.1167    0.0000 C   0  0  0  0  0  0  0  0  0  0  0  0
  2  1  1  0
  3  1  1  0
  4  2  2  0
  5  1  1  0
  6  5  2  0
  7  3  1  0
  8  3  2  0
  9  7  2  0
 10  8  1  0
 11  4  1  0
 12  2  1  0
 13 12  1  0
 14 11  2  0
 15  7  1  0
 16 23  1  0
 17 11  1  0
 18 17  1  0
 19 24  1  0
 20 13  1  0
 21 13  1  0
 22 25  1  0
 23 26  2  0
 24 18  1  0
 25 19  2  0
 26 19  1  0
 27 21  1  0
 28 20  1  0
  6  4  1  0
  9 10  1  0
 27 28  1  0
 16 22  2  0
M  END
> <chembl_id>
CHEMBL112819

> <chembl_pref_name>
None