
     RDKit          2D

 26 29  0  0  0  0  0  0  0  0999 V2000
   -3.6750  -11.1917    0.0000 N   0  0  0  0  0  0  0  0  0  0  0  0
   -3.1583  -10.5625    0.0000 C   0  0  0  0  0  0  0  0  0  0  0  0
   -3.6083   -9.8667    0.0000 C   0  0  0  0  0  0  0  0  0  0  0  0
   -3.5000  -12.0000    0.0000 C   0  0  0  0  0  0  0  0  0  0  0  0
   -4.4458  -10.9000    0.0000 N   0  0  0  0  0  0  0  0  0  0  0  0
   -3.3083   -9.1000    0.0000 C   0  0  0  0  0  0  0  0  0  0  0  0
   -4.4083  -10.0792    0.0000 N   0  0  0  0  0  0  0  0  0  0  0  0
   -2.5083   -8.8875    0.0000 N   0  0  0  0  0  0  0  0  0  0  0  0
   -2.7625  -12.3667    0.0000 C   0  0  0  0  0  0  0  0  0  0  0  0
   -3.7500   -8.4042    0.0000 N   0  0  0  0  0  0  0  0  0  0  0  0
   -3.2333   -7.7625    0.0000 N   0  0  0  0  0  0  0  0  0  0  0  0
   -4.0833  -12.5917    0.0000 N   0  0  0  0  0  0  0  0  0  0  0  0
   -2.4583   -8.0625    0.0000 C   0  0  0  0  0  0  0  0  0  0  0  0
   -2.8833  -13.1875    0.0000 N   0  0  0  0  0  0  0  0  0  0  0  0
   -3.7000  -13.3125    0.0000 O   0  0  0  0  0  0  0  0  0  0  0  0
   -2.3333  -10.6167    0.0000 C   0  0  0  0  0  0  0  0  0  0  0  0
   -1.7625   -7.6167    0.0000 C   0  0  0  0  0  0  0  0  0  0  0  0
   -2.0208  -11.9875    0.0000 N   0  0  0  0  0  0  0  0  0  0  0  0
   -0.3833   -6.7250    0.0000 N   0  0  0  0  0  0  0  0  0  0  0  0
   -1.6625  -10.2917    0.0000 N   0  0  0  0  0  0  0  0  0  0  0  0
   -0.3375   -7.5500    0.0000 C   0  0  0  0  0  0  0  0  0  0  0  0
   -1.1208   -6.3417    0.0000 C   0  0  0  0  0  0  0  0  0  0  0  0
   -1.0333   -7.9917    0.0000 C   0  0  0  0  0  0  0  0  0  0  0  0
   -1.8083   -6.7917    0.0000 C   0  0  0  0  0  0  0  0  0  0  0  0
   -1.0083  -10.6500    0.0000 C   0  0  0  0  0  0  0  0  0  0  0  0
   -1.5250   -9.5625    0.0000 C   0  0  0  0  0  0  0  0  0  0  0  0
  2  1  1  0
  3  2  2  0
  4  1  1  0
  5  1  1  0
  6  3  1  0
  7  5  2  0
  8  6  1  0
  9  4  1  0
 10  6  2  0
 11 10  1  0
 12  4  2  0
 13  8  2  0
 14  9  2  0
 15 12  1  0
 16  2  1  0
 17 13  1  0
 18  9  1  0
 19 22  2  0
 20 16  1  0
 21 23  2  0
 22 24  1  0
 23 17  1  0
 24 17  2  0
 25 20  1  0
 26 20  1  0
  7  3  1  0
 14 15  1  0
 11 13  1  0
 19 21  1  0
M  END
> <chembl_id>
CHEMBL112564

> <chembl_pref_name>
None