
     RDKit          2D

 29 32  0  0  0  0  0  0  0  0999 V2000
   -3.5958  -13.2000    0.0000 N   0  0  0  0  0  0  0  0  0  0  0  0
   -3.0750  -12.5667    0.0000 C   0  0  0  0  0  0  0  0  0  0  0  0
   -3.4208  -14.0042    0.0000 C   0  0  0  0  0  0  0  0  0  0  0  0
   -3.5208  -11.8667    0.0000 C   0  0  0  0  0  0  0  0  0  0  0  0
   -4.3625  -12.9042    0.0000 N   0  0  0  0  0  0  0  0  0  0  0  0
   -4.3208  -12.0792    0.0000 N   0  0  0  0  0  0  0  0  0  0  0  0
   -2.6833  -14.3750    0.0000 C   0  0  0  0  0  0  0  0  0  0  0  0
   -3.9958  -14.5917    0.0000 N   0  0  0  0  0  0  0  0  0  0  0  0
   -2.8000  -15.1917    0.0000 N   0  0  0  0  0  0  0  0  0  0  0  0
   -3.6208  -15.3167    0.0000 O   0  0  0  0  0  0  0  0  0  0  0  0
   -3.2208  -11.0917    0.0000 C   0  0  0  0  0  0  0  0  0  0  0  0
   -2.2500  -12.6167    0.0000 C   0  0  0  0  0  0  0  0  0  0  0  0
   -1.5875  -12.0792    0.0000 N   0  0  0  0  0  0  0  0  0  0  0  0
   -2.4333  -10.9625    0.0000 O   0  0  0  0  0  0  0  0  0  0  0  0
   -1.9375  -13.9917    0.0000 N   0  0  0  0  0  0  0  0  0  0  0  0
   -3.0458   -6.7375    0.0000 N   0  0  0  0  0  0  0  0  0  0  0  0
   -3.7333  -10.4500    0.0000 N   0  0  0  0  0  0  0  0  0  0  0  0
   -3.4333   -9.6792    0.0000 C   0  0  0  0  0  0  0  0  0  0  0  0
   -3.6458   -8.2667    0.0000 C   0  0  0  0  0  0  0  0  0  0  0  0
   -0.7958  -12.3875    0.0000 C   0  0  0  0  0  0  0  0  0  0  0  0
   -1.7250  -11.2417    0.0000 C   0  0  0  0  0  0  0  0  0  0  0  0
   -2.5250   -7.3792    0.0000 C   0  0  0  0  0  0  0  0  0  0  0  0
   -3.8583   -6.8625    0.0000 C   0  0  0  0  0  0  0  0  0  0  0  0
   -3.9458   -9.0375    0.0000 C   0  0  0  0  0  0  0  0  0  0  0  0
   -2.8333   -8.1542    0.0000 C   0  0  0  0  0  0  0  0  0  0  0  0
   -4.1583   -7.6292    0.0000 C   0  0  0  0  0  0  0  0  0  0  0  0
   -1.0583  -10.7042    0.0000 C   0  0  0  0  0  0  0  0  0  0  0  0
   -0.1333  -11.8542    0.0000 C   0  0  0  0  0  0  0  0  0  0  0  0
   -0.2625  -11.0125    0.0000 C   0  0  0  0  0  0  0  0  0  0  0  0
  2  1  1  0
  3  1  1  0
  4  2  2  0
  5  1  1  0
  6  5  2  0
  7  3  1  0
  8  3  2  0
  9  7  2  0
 10  8  1  0
 11  4  1  0
 12  2  1  0
 13 12  1  0
 14 11  2  0
 15  7  1  0
 16 23  1  0
 17 11  1  0
 18 17  1  0
 19 24  1  0
 20 13  1  0
 21 13  1  0
 22 25  1  0
 23 26  2  0
 24 18  1  0
 25 19  2  0
 26 19  1  0
 27 21  1  0
 28 20  1  0
 29 27  1  0
  6  4  1  0
  9 10  1  0
 29 28  1  0
 16 22  2  0
M  END
> <chembl_id>
CHEMBL113168

> <chembl_pref_name>
None