
     RDKit          2D

 29 32  0  0  0  0  0  0  0  0999 V2000
   -0.5208  -11.0417    0.0000 N   0  0  0  0  0  0  0  0  0  0  0  0
    0.0000  -10.4125    0.0000 C   0  0  0  0  0  0  0  0  0  0  0  0
   -0.3458  -11.8500    0.0000 C   0  0  0  0  0  0  0  0  0  0  0  0
   -0.4458   -9.7167    0.0000 C   0  0  0  0  0  0  0  0  0  0  0  0
   -1.2875  -10.7500    0.0000 N   0  0  0  0  0  0  0  0  0  0  0  0
   -1.2458   -9.9292    0.0000 N   0  0  0  0  0  0  0  0  0  0  0  0
    0.3917  -12.2167    0.0000 C   0  0  0  0  0  0  0  0  0  0  0  0
   -0.9208  -12.4417    0.0000 N   0  0  0  0  0  0  0  0  0  0  0  0
    0.2750  -13.0375    0.0000 N   0  0  0  0  0  0  0  0  0  0  0  0
   -0.1458   -8.9375    0.0000 C   0  0  0  0  0  0  0  0  0  0  0  0
   -0.5458  -13.1625    0.0000 O   0  0  0  0  0  0  0  0  0  0  0  0
    0.8250  -10.4667    0.0000 C   0  0  0  0  0  0  0  0  0  0  0  0
    1.4875   -9.9292    0.0000 N   0  0  0  0  0  0  0  0  0  0  0  0
   -0.3583   -7.5292    0.0000 N   0  0  0  0  0  0  0  0  0  0  0  0
   -0.6583   -8.2917    0.0000 N   0  0  0  0  0  0  0  0  0  0  0  0
    0.6417   -8.8042    0.0000 O   0  0  0  0  0  0  0  0  0  0  0  0
    1.1375  -11.8375    0.0000 N   0  0  0  0  0  0  0  0  0  0  0  0
    1.3667   -5.1042    0.0000 N   0  0  0  0  0  0  0  0  0  0  0  0
    0.4542   -7.4042    0.0000 C   0  0  0  0  0  0  0  0  0  0  0  0
    0.7625   -6.6417    0.0000 C   0  0  0  0  0  0  0  0  0  0  0  0
    2.2792  -10.2375    0.0000 C   0  0  0  0  0  0  0  0  0  0  0  0
    1.3500   -9.0917    0.0000 C   0  0  0  0  0  0  0  0  0  0  0  0
    1.8792   -5.7542    0.0000 C   0  0  0  0  0  0  0  0  0  0  0  0
    0.5500   -5.2292    0.0000 C   0  0  0  0  0  0  0  0  0  0  0  0
    1.5792   -6.5167    0.0000 C   0  0  0  0  0  0  0  0  0  0  0  0
    0.2500   -5.9917    0.0000 C   0  0  0  0  0  0  0  0  0  0  0  0
    2.0167   -8.5542    0.0000 C   0  0  0  0  0  0  0  0  0  0  0  0
    2.9417   -9.7042    0.0000 C   0  0  0  0  0  0  0  0  0  0  0  0
    2.8125   -8.8625    0.0000 C   0  0  0  0  0  0  0  0  0  0  0  0
  2  1  1  0
  3  1  1  0
  4  2  2  0
  5  1  1  0
  6  5  2  0
  7  3  1  0
  8  3  2  0
  9  7  2  0
 10  4  1  0
 11  8  1  0
 12  2  1  0
 13 12  1  0
 14 15  1  0
 15 10  1  0
 16 10  2  0
 17  7  1  0
 18 24  1  0
 19 14  2  0
 20 19  1  0
 21 13  1  0
 22 13  1  0
 23 25  1  0
 24 26  2  0
 25 20  2  0
 26 20  1  0
 27 22  1  0
 28 21  1  0
 29 27  1  0
  6  4  1  0
  9 11  1  0
 29 28  1  0
 18 23  2  0
M  END
> <chembl_id>
CHEMBL325353

> <chembl_pref_name>
None