
     RDKit          2D

 28 30  0  0  0  0  0  0  0  0999 V2000
   -0.2958  -13.1917    0.0000 N   0  0  0  0  0  0  0  0  0  0  0  0
    0.2167  -12.5625    0.0000 C   0  0  0  0  0  0  0  0  0  0  0  0
   -0.1208  -14.0000    0.0000 C   0  0  0  0  0  0  0  0  0  0  0  0
   -0.2250  -11.8667    0.0000 C   0  0  0  0  0  0  0  0  0  0  0  0
   -1.0708  -12.8917    0.0000 N   0  0  0  0  0  0  0  0  0  0  0  0
   -1.0208  -12.0792    0.0000 N   0  0  0  0  0  0  0  0  0  0  0  0
    0.6167  -14.3667    0.0000 C   0  0  0  0  0  0  0  0  0  0  0  0
   -0.7000  -14.5917    0.0000 N   0  0  0  0  0  0  0  0  0  0  0  0
    0.4917  -15.1875    0.0000 N   0  0  0  0  0  0  0  0  0  0  0  0
    0.0750  -11.0875    0.0000 C   0  0  0  0  0  0  0  0  0  0  0  0
   -0.3208  -15.3125    0.0000 O   0  0  0  0  0  0  0  0  0  0  0  0
    1.0417  -12.6167    0.0000 C   0  0  0  0  0  0  0  0  0  0  0  0
   -0.1375   -9.6792    0.0000 N   0  0  0  0  0  0  0  0  0  0  0  0
   -0.4375  -10.4417    0.0000 N   0  0  0  0  0  0  0  0  0  0  0  0
    0.8667  -10.9542    0.0000 O   0  0  0  0  0  0  0  0  0  0  0  0
    1.3542  -13.9875    0.0000 N   0  0  0  0  0  0  0  0  0  0  0  0
    1.5917   -7.2542    0.0000 N   0  0  0  0  0  0  0  0  0  0  0  0
    1.7042  -12.0792    0.0000 N   0  0  0  0  0  0  0  0  0  0  0  0
    0.6792   -9.5542    0.0000 C   0  0  0  0  0  0  0  0  0  0  0  0
    0.9792   -8.7917    0.0000 C   0  0  0  0  0  0  0  0  0  0  0  0
    2.1042   -7.9042    0.0000 C   0  0  0  0  0  0  0  0  0  0  0  0
    0.7667   -7.3792    0.0000 C   0  0  0  0  0  0  0  0  0  0  0  0
    1.5667  -11.2417    0.0000 C   0  0  0  0  0  0  0  0  0  0  0  0
    2.5000  -12.3875    0.0000 C   0  0  0  0  0  0  0  0  0  0  0  0
    1.8000   -8.6667    0.0000 C   0  0  0  0  0  0  0  0  0  0  0  0
    0.4667   -8.1417    0.0000 C   0  0  0  0  0  0  0  0  0  0  0  0
    3.1625  -11.8542    0.0000 C   0  0  0  0  0  0  0  0  0  0  0  0
    2.2375  -10.7042    0.0000 C   0  0  0  0  0  0  0  0  0  0  0  0
  2  1  1  0
  3  1  1  0
  4  2  2  0
  5  1  1  0
  6  5  2  0
  7  3  1  0
  8  3  2  0
  9  7  2  0
 10  4  1  0
 11  8  1  0
 12  2  1  0
 13 14  1  0
 14 10  1  0
 15 10  2  0
 16  7  1  0
 17 22  1  0
 18 12  1  0
 19 13  2  0
 20 19  1  0
 21 25  1  0
 22 26  2  0
 23 18  1  0
 24 18  1  0
 25 20  2  0
 26 20  1  0
 27 24  1  0
 28 23  1  0
  6  4  1  0
  9 11  1  0
 17 21  2  0
M  END
> <chembl_id>
CHEMBL321421

> <chembl_pref_name>
None