
     RDKit          2D

 28 32  0  0  0  0  0  0  0  0999 V2000
   -3.5833  -10.1375    0.0000 N   0  0  0  0  0  0  0  0  0  0  0  0
   -3.0708   -9.5042    0.0000 C   0  0  0  0  0  0  0  0  0  0  0  0
   -3.5125   -8.8042    0.0000 C   0  0  0  0  0  0  0  0  0  0  0  0
   -3.4083  -10.9417    0.0000 C   0  0  0  0  0  0  0  0  0  0  0  0
   -4.3583   -9.8417    0.0000 N   0  0  0  0  0  0  0  0  0  0  0  0
   -3.2125   -8.0417    0.0000 C   0  0  0  0  0  0  0  0  0  0  0  0
   -4.3083   -9.0167    0.0000 N   0  0  0  0  0  0  0  0  0  0  0  0
   -2.4125   -7.8292    0.0000 N   0  0  0  0  0  0  0  0  0  0  0  0
   -2.6708  -11.3125    0.0000 C   0  0  0  0  0  0  0  0  0  0  0  0
   -3.6583   -7.3417    0.0000 N   0  0  0  0  0  0  0  0  0  0  0  0
   -3.1375   -6.7042    0.0000 N   0  0  0  0  0  0  0  0  0  0  0  0
   -3.9875  -11.5292    0.0000 N   0  0  0  0  0  0  0  0  0  0  0  0
   -2.3708   -7.0042    0.0000 C   0  0  0  0  0  0  0  0  0  0  0  0
   -2.7958  -12.1292    0.0000 N   0  0  0  0  0  0  0  0  0  0  0  0
   -3.6083  -12.2542    0.0000 O   0  0  0  0  0  0  0  0  0  0  0  0
   -2.2458   -9.5542    0.0000 C   0  0  0  0  0  0  0  0  0  0  0  0
   -1.5708   -9.2375    0.0000 N   0  0  0  0  0  0  0  0  0  0  0  0
   -1.6708   -6.5542    0.0000 C   0  0  0  0  0  0  0  0  0  0  0  0
   -1.9333  -10.9292    0.0000 N   0  0  0  0  0  0  0  0  0  0  0  0
   -0.2875   -5.6667    0.0000 N   0  0  0  0  0  0  0  0  0  0  0  0
   -0.9208   -9.5917    0.0000 C   0  0  0  0  0  0  0  0  0  0  0  0
   -1.4333   -8.5042    0.0000 C   0  0  0  0  0  0  0  0  0  0  0  0
   -0.2458   -6.4917    0.0000 C   0  0  0  0  0  0  0  0  0  0  0  0
   -1.0250   -5.2875    0.0000 C   0  0  0  0  0  0  0  0  0  0  0  0
   -0.9458   -6.9375    0.0000 C   0  0  0  0  0  0  0  0  0  0  0  0
   -1.7208   -5.7375    0.0000 C   0  0  0  0  0  0  0  0  0  0  0  0
   -0.6958   -8.4042    0.0000 C   0  0  0  0  0  0  0  0  0  0  0  0
   -0.3750   -9.0792    0.0000 C   0  0  0  0  0  0  0  0  0  0  0  0
  2  1  1  0
  3  2  2  0
  4  1  1  0
  5  1  1  0
  6  3  1  0
  7  5  2  0
  8  6  1  0
  9  4  1  0
 10  6  2  0
 11 10  1  0
 12  4  2  0
 13  8  2  0
 14  9  2  0
 15 12  1  0
 16  2  1  0
 17 16  1  0
 18 13  1  0
 19  9  1  0
 20 24  2  0
 21 17  1  0
 22 17  1  0
 23 25  2  0
 24 26  1  0
 25 18  1  0
 26 18  2  0
 27 22  1  0
 28 21  1  0
  7  3  1  0
 14 15  1  0
 27 28  1  0
 11 13  1  0
 20 23  1  0
M  END
> <chembl_id>
CHEMBL323944

> <chembl_pref_name>
None