
     RDKit          2D

 28 31  0  0  0  0  0  0  0  0999 V2000
   -3.9208  -13.6250    0.0000 N   0  0  0  0  0  0  0  0  0  0  0  0
   -3.4000  -12.9917    0.0000 C   0  0  0  0  0  0  0  0  0  0  0  0
   -3.7458  -14.4292    0.0000 C   0  0  0  0  0  0  0  0  0  0  0  0
   -3.8458  -12.2917    0.0000 C   0  0  0  0  0  0  0  0  0  0  0  0
   -4.6875  -13.3292    0.0000 N   0  0  0  0  0  0  0  0  0  0  0  0
   -4.6458  -12.5042    0.0000 N   0  0  0  0  0  0  0  0  0  0  0  0
   -3.0083  -14.8000    0.0000 C   0  0  0  0  0  0  0  0  0  0  0  0
   -4.3208  -15.0167    0.0000 N   0  0  0  0  0  0  0  0  0  0  0  0
   -3.1250  -15.6167    0.0000 N   0  0  0  0  0  0  0  0  0  0  0  0
   -3.9458  -15.7417    0.0000 O   0  0  0  0  0  0  0  0  0  0  0  0
   -3.5458  -11.5167    0.0000 C   0  0  0  0  0  0  0  0  0  0  0  0
   -2.5750  -13.0417    0.0000 C   0  0  0  0  0  0  0  0  0  0  0  0
   -1.9125  -12.5042    0.0000 N   0  0  0  0  0  0  0  0  0  0  0  0
   -4.0583  -10.8750    0.0000 N   0  0  0  0  0  0  0  0  0  0  0  0
   -2.7583  -11.3875    0.0000 O   0  0  0  0  0  0  0  0  0  0  0  0
   -2.2625  -14.4167    0.0000 N   0  0  0  0  0  0  0  0  0  0  0  0
   -5.1875   -8.0917    0.0000 N   0  0  0  0  0  0  0  0  0  0  0  0
   -3.7583  -10.1042    0.0000 C   0  0  0  0  0  0  0  0  0  0  0  0
   -4.2708   -9.4542    0.0000 C   0  0  0  0  0  0  0  0  0  0  0  0
   -1.1208  -12.8125    0.0000 C   0  0  0  0  0  0  0  0  0  0  0  0
   -2.0500  -11.6667    0.0000 C   0  0  0  0  0  0  0  0  0  0  0  0
   -5.5500   -8.8375    0.0000 C   0  0  0  0  0  0  0  0  0  0  0  0
   -4.3625   -8.0292    0.0000 C   0  0  0  0  0  0  0  0  0  0  0  0
   -5.0958   -9.5167    0.0000 C   0  0  0  0  0  0  0  0  0  0  0  0
   -3.9083   -8.7167    0.0000 C   0  0  0  0  0  0  0  0  0  0  0  0
   -1.3833  -11.1292    0.0000 C   0  0  0  0  0  0  0  0  0  0  0  0
   -0.4583  -12.2792    0.0000 C   0  0  0  0  0  0  0  0  0  0  0  0
   -0.5875  -11.4375    0.0000 C   0  0  0  0  0  0  0  0  0  0  0  0
  2  1  1  0
  3  1  1  0
  4  2  2  0
  5  1  1  0
  6  5  2  0
  7  3  1  0
  8  3  2  0
  9  7  2  0
 10  8  1  0
 11  4  1  0
 12  2  1  0
 13 12  1  0
 14 11  1  0
 15 11  2  0
 16  7  1  0
 17 23  2  0
 18 14  1  0
 19 18  1  0
 20 13  1  0
 21 13  1  0
 22 24  2  0
 23 25  1  0
 24 19  1  0
 25 19  2  0
 26 21  1  0
 27 20  1  0
 28 26  1  0
  6  4  1  0
  9 10  1  0
 28 27  1  0
 22 17  1  0
M  END
> <chembl_id>
CHEMBL112483

> <chembl_pref_name>
None