
     RDKit          3D

 79 85  0  0  0  0  0  0  0  0999 V2000
   -4.7888   -4.4758    1.9423 C   0  0  0  0  0  0  0  0  0  0  0  0
   -5.5899   -3.5240    2.7083 N   0  0  0  0  0  0  0  0  0  0  0  0
   -6.9607   -2.8694    1.9812 S   0  0  0  0  0  0  0  0  0  0  0  0
   -7.4558   -3.8119    1.0039 O   0  0  0  0  0  0  0  0  0  0  0  0
   -7.7891   -2.3917    3.0663 O   0  0  0  0  0  0  0  0  0  0  0  0
   -6.2974   -1.4593    1.1339 C   0  0  0  0  0  0  0  0  0  0  0  0
   -5.8286   -1.6032   -0.1734 C   0  0  0  0  0  0  0  0  0  0  0  0
   -5.2992   -0.4978   -0.8404 C   0  0  0  0  0  0  0  0  0  0  0  0
   -5.2437    0.7625   -0.2191 C   0  0  0  0  0  0  0  0  0  0  0  0
   -4.6225    1.9082   -0.8982 C   0  0  0  0  0  0  0  0  0  0  0  0
   -5.4790    2.9140   -1.2200 N   0  0  0  0  0  0  0  0  0  0  0  0
   -4.9701    3.9559   -1.9045 C   0  0  0  0  0  0  0  0  0  0  0  0
   -5.8020    5.0066   -2.2735 C   0  0  0  0  0  0  0  0  0  0  0  0
   -5.3131    6.1016   -2.9896 C   0  0  0  0  0  0  0  0  0  0  0  0
   -3.9696    6.1495   -3.3425 C   0  0  0  0  0  0  0  0  0  0  0  0
   -3.1253    5.1005   -2.9743 C   0  0  0  0  0  0  0  0  0  0  0  0
   -3.6011    4.0053   -2.2643 C   0  0  0  0  0  0  0  0  0  0  0  0
   -2.7517    3.0173   -1.9319 N   0  0  0  0  0  0  0  0  0  0  0  0
   -3.2608    1.9684   -1.2337 C   0  0  0  0  0  0  0  0  0  0  0  0
   -2.2735    0.9437   -0.8671 C   0  0  0  0  0  0  0  0  0  0  0  0
   -1.5490    0.2633   -1.8580 C   0  0  0  0  0  0  0  0  0  0  0  0
   -0.6192   -0.7253   -1.5210 C   0  0  0  0  0  0  0  0  0  0  0  0
   -0.3722   -1.0475   -0.1800 C   0  0  0  0  0  0  0  0  0  0  0  0
    0.6448   -2.1028    0.1972 C   0  0  0  0  0  0  0  0  0  0  0  0
    2.0512   -1.6875    0.2127 N   0  0  0  0  0  0  0  0  0  0  0  0
    2.6171   -1.3873   -1.0934 C   0  0  0  0  0  0  0  0  0  0  0  0
    4.1386   -1.5029   -1.0125 C   0  0  0  0  0  0  0  0  0  0  0  0
    4.7160   -0.8872    0.2787 C   0  0  0  0  0  0  0  0  0  0  0  0
    6.0244   -0.2944    0.0266 N   0  0  0  0  0  0  0  0  0  0  0  0
    6.2803    0.8303   -0.7094 C   0  0  0  0  0  0  0  0  0  0  0  0
    5.3640    1.5604   -1.3098 O   0  0  0  0  0  0  0  0  0  0  0  0
    7.5490    1.1257   -0.7786 N   0  0  0  0  0  0  0  0  0  0  0  0
    8.1692    0.1314   -0.0606 C   0  0  0  0  0  0  0  0  0  0  0  0
    9.5375   -0.0656    0.1837 C   0  0  0  0  0  0  0  0  0  0  0  0
    9.9379   -1.1698    0.9450 C   0  0  0  0  0  0  0  0  0  0  0  0
    8.9950   -2.0610    1.4578 C   0  0  0  0  0  0  0  0  0  0  0  0
    7.6254   -1.8806    1.2300 C   0  0  0  0  0  0  0  0  0  0  0  0
    7.2431   -0.7741    0.4606 C   0  0  0  0  0  0  0  0  0  0  0  0
    3.7047    0.0592    0.9646 C   0  0  2  0  0  0  0  0  0  0  0  0
    4.2314    0.6591    2.2730 C   0  0  0  0  0  0  0  0  0  0  0  0
    2.3769   -0.6896    1.2335 C   0  0  0  0  0  0  0  0  0  0  0  0
   -1.0876   -0.3671    0.8145 C   0  0  0  0  0  0  0  0  0  0  0  0
   -2.0210    0.6158    0.4746 C   0  0  0  0  0  0  0  0  0  0  0  0
   -5.7766    0.8963    1.0759 C   0  0  0  0  0  0  0  0  0  0  0  0
   -6.2972   -0.2089    1.7563 C   0  0  0  0  0  0  0  0  0  0  0  0
   -5.3146   -5.4293    1.8523 H   0  0  0  0  0  0  0  0  0  0  0  0
   -4.5452   -4.0902    0.9498 H   0  0  0  0  0  0  0  0  0  0  0  0
   -3.8511   -4.6581    2.4735 H   0  0  0  0  0  0  0  0  0  0  0  0
   -5.7566   -3.7284    3.6930 H   0  0  0  0  0  0  0  0  0  0  0  0
   -5.8580   -2.5656   -0.6759 H   0  0  0  0  0  0  0  0  0  0  0  0
   -4.9170   -0.6234   -1.8535 H   0  0  0  0  0  0  0  0  0  0  0  0
   -6.8542    4.9686   -1.9992 H   0  0  0  0  0  0  0  0  0  0  0  0
   -5.9832    6.9120   -3.2684 H   0  0  0  0  0  0  0  0  0  0  0  0
   -3.5733    6.9976   -3.8965 H   0  0  0  0  0  0  0  0  0  0  0  0
   -2.0718    5.1363   -3.2431 H   0  0  0  0  0  0  0  0  0  0  0  0
   -1.7068    0.5111   -2.9067 H   0  0  0  0  0  0  0  0  0  0  0  0
   -0.0811   -1.2338   -2.3188 H   0  0  0  0  0  0  0  0  0  0  0  0
    0.3893   -2.5103    1.1858 H   0  0  0  0  0  0  0  0  0  0  0  0
    0.5258   -2.9580   -0.4818 H   0  0  0  0  0  0  0  0  0  0  0  0
    2.2712   -2.1055   -1.8469 H   0  0  0  0  0  0  0  0  0  0  0  0
    2.3238   -0.3871   -1.4424 H   0  0  0  0  0  0  0  0  0  0  0  0
    4.4236   -2.5628   -1.0416 H   0  0  0  0  0  0  0  0  0  0  0  0
    4.5689   -1.0589   -1.9164 H   0  0  0  0  0  0  0  0  0  0  0  0
    4.8872   -1.7160    0.9806 H   0  0  0  0  0  0  0  0  0  0  0  0
    5.9139    2.2596   -1.7115 H   0  0  0  0  0  0  0  0  0  0  0  0
   10.2644    0.6305   -0.2164 H   0  0  0  0  0  0  0  0  0  0  0  0
   10.9966   -1.3288    1.1383 H   0  0  0  0  0  0  0  0  0  0  0  0
    9.3308   -2.9118    2.0462 H   0  0  0  0  0  0  0  0  0  0  0  0
    6.9018   -2.5826    1.6276 H   0  0  0  0  0  0  0  0  0  0  0  0
    3.4830    0.8945    0.2884 H   0  0  0  0  0  0  0  0  0  0  0  0
    3.4852    1.3289    2.7137 H   0  0  0  0  0  0  0  0  0  0  0  0
    4.4652   -0.1245    3.0044 H   0  0  0  0  0  0  0  0  0  0  0  0
    5.1406    1.2472    2.1089 H   0  0  0  0  0  0  0  0  0  0  0  0
    2.4239   -1.2061    2.2011 H   0  0  0  0  0  0  0  0  0  0  0  0
    1.5965    0.0758    1.3220 H   0  0  0  0  0  0  0  0  0  0  0  0
   -0.9183   -0.5909    1.8667 H   0  0  0  0  0  0  0  0  0  0  0  0
   -2.5484    1.1328    1.2760 H   0  0  0  0  0  0  0  0  0  0  0  0
   -5.7762    1.8715    1.5637 H   0  0  0  0  0  0  0  0  0  0  0  0
   -6.6974   -0.0844    2.7624 H   0  0  0  0  0  0  0  0  0  0  0  0
  1  2  1  0
  2  3  1  0
  3  4  2  0
  3  5  2  0
  3  6  1  0
  6  7  2  0
  7  8  1  0
  8  9  2  0
  9 10  1  0
 10 11  2  0
 11 12  1  0
 12 13  2  0
 13 14  1  0
 14 15  2  0
 15 16  1  0
 16 17  2  0
 17 18  1  0
 18 19  2  0
 19 20  1  0
 20 21  2  0
 21 22  1  0
 22 23  2  0
 23 24  1  0
 24 25  1  0
 25 26  1  0
 26 27  1  0
 27 28  1  0
 28 29  1  0
 29 30  1  0
 30 31  1  0
 30 32  2  0
 32 33  1  0
 33 34  2  0
 34 35  1  0
 35 36  2  0
 36 37  1  0
 37 38  2  0
 28 39  1  0
 39 40  1  0
 39 41  1  0
 23 42  1  0
 42 43  2  0
  9 44  1  0
 44 45  2  0
 45  6  1  0
 19 10  1  0
 43 20  1  0
 17 12  1  0
 41 25  1  0
 38 29  1  0
 38 33  1  0
  1 46  1  0
  1 47  1  0
  1 48  1  0
  2 49  1  0
  7 50  1  0
  8 51  1  0
 13 52  1  0
 14 53  1  0
 15 54  1  0
 16 55  1  0
 21 56  1  0
 22 57  1  0
 24 58  1  0
 24 59  1  0
 26 60  1  0
 26 61  1  0
 27 62  1  0
 27 63  1  0
 28 64  1  0
 31 65  1  0
 34 66  1  0
 35 67  1  0
 36 68  1  0
 37 69  1  0
 39 70  1  6
 40 71  1  0
 40 72  1  0
 40 73  1  0
 41 74  1  0
 41 75  1  0
 42 76  1  0
 43 77  1  0
 44 78  1  0
 45 79  1  0
M  END
$$$$
