REMARK SMILES O=C(N[C@@H]1CCCN(C2CC2)C[C@H]1NC(=O)c1ccncc1F)c1ccc(C(=O)c2c(O)ccc(O)c2F)cc1
REMARK SMILES IDX 1 1 2 2 3 3 24 5 25 6 40 7 26 8 39 9 27 10 28 11 29 12 30 13
REMARK SMILES IDX 31 14 37 15 33 16 35 17 34 18 38 19 32 20 36 22 4 24 5 25
REMARK SMILES IDX 6 26 13 28 12 29 8 30 7 31 9 33 10 34 11 35 14 36 15 37
REMARK SMILES IDX 16 39 17 40 18 41 22 42 19 43 21 44 20 45 23 46
REMARK H PARENT 3 4 32 21 36 23 14 38
REMARK Flexibility Score:   88.900
ROOT
ATOM      1  O   UNL     1       0.248   1.850   2.054  1.00  0.00    -0.269 OA
ATOM      2  C   UNL     1       0.688   0.785   1.637  1.00  0.00     0.251 C 
ATOM      3  N   UNL     1      -0.094  -0.299   1.286  1.00  0.00    -0.347 N 
ATOM      4  H   UNL     1       0.334  -0.949   0.635  1.00  0.00     0.164 HD
ENDROOT
BRANCH   2   5
ATOM      5  C   UNL     1       2.152   0.616   1.427  1.00  0.00     0.039 A 
ATOM      6  C   UNL     1       2.921   1.744   1.114  1.00  0.00     0.014 A 
ATOM      7  C   UNL     1       2.772  -0.635   1.559  1.00  0.00     0.014 A 
ATOM      8  C   UNL     1       4.296   1.620   0.892  1.00  0.00     0.013 A 
ATOM      9  C   UNL     1       4.146  -0.759   1.339  1.00  0.00     0.013 A 
ATOM     10  C   UNL     1       4.904   0.361   0.976  1.00  0.00     0.023 A 
BRANCH  10  11
ATOM     11  C   UNL     1       6.357   0.181   0.747  1.00  0.00     0.199 C 
ATOM     12  O   UNL     1       6.984  -0.597   1.466  1.00  0.00    -0.288 OA
BRANCH  11  13
ATOM     13  C   UNL     1       7.105   0.921  -0.292  1.00  0.00     0.104 A 
ATOM     14  C   UNL     1       8.458   1.226  -0.084  1.00  0.00     0.130 A 
ATOM     15  C   UNL     1       6.516   1.292  -1.500  1.00  0.00     0.179 A 
ATOM     16  C   UNL     1       9.184   1.944  -1.036  1.00  0.00     0.051 A 
ATOM     17  C   UNL     1       7.245   2.002  -2.453  1.00  0.00     0.152 A 
ATOM     18  C   UNL     1       8.572   2.342  -2.225  1.00  0.00     0.053 A 
ATOM     19  F   UNL     1       5.250   0.962  -1.795  1.00  0.00    -0.202 F 
BRANCH  14  20
ATOM     20  O   UNL     1       9.140   0.846   1.042  1.00  0.00    -0.507 OA
ATOM     21  H   UNL     1       8.595   0.178   1.518  1.00  0.00     0.293 HD
ENDBRANCH  14  20
BRANCH  17  22
ATOM     22  O   UNL     1       6.675   2.378  -3.637  1.00  0.00    -0.505 OA
ATOM     23  H   UNL     1       5.762   2.031  -3.651  1.00  0.00     0.293 HD
ENDBRANCH  17  22
ENDBRANCH  11  13
ENDBRANCH  10  11
ENDBRANCH   2   5
BRANCH   3  24
ATOM     24  C   UNL     1      -1.564  -0.210   1.269  1.00  0.00     0.106 C 
BRANCH  24  25
ATOM     25  C   UNL     1      -2.102  -0.210   2.709  1.00  0.00     0.028 C 
BRANCH  25  26
ATOM     26  C   UNL     1      -3.615  -0.024   2.802  1.00  0.00     0.018 CG0
ATOM     27  G   UNL     1      -4.410  -1.323   2.691  1.00  0.00     0.000 G0
ENDBRANCH  25  26
ENDBRANCH  24  25
BRANCH  24  28
ATOM     28  C   UNL     1      -2.171  -1.296   0.324  1.00  0.00     0.118 C 
BRANCH  28  29
ATOM     29  C   UNL     1      -3.003  -2.401   1.006  1.00  0.00     0.111 C 
BRANCH  29  30
ATOM     30  N   UNL     1      -4.360  -1.943   1.363  1.00  0.00    -0.298 NA
BRANCH  30  31
ATOM     31  C   UNL     1      -4.410  -1.323   2.691  1.00  0.00     0.085 CG0
ATOM     32  G   UNL     1      -3.615  -0.024   2.802  1.00  0.00     0.000 G0
ENDBRANCH  30  31
BRANCH  30  33
ATOM     33  C   UNL     1      -5.345  -3.037   1.251  1.00  0.00     0.056 C 
ATOM     34  C   UNL     1      -5.876  -3.400  -0.112  1.00  0.00     0.021 C 
ATOM     35  C   UNL     1      -6.766  -2.708   0.878  1.00  0.00     0.021 C 
ENDBRANCH  30  33
ENDBRANCH  29  30
ENDBRANCH  28  29
BRANCH  28  36
ATOM     36  N   UNL     1      -2.971  -0.668  -0.736  1.00  0.00    -0.346 N 
ATOM     37  C   UNL     1      -2.399   0.024  -1.776  1.00  0.00     0.254 C 
ATOM     38  H   UNL     1      -3.964  -0.574  -0.526  1.00  0.00     0.164 HD
ATOM     39  O   UNL     1      -1.190   0.006  -1.990  1.00  0.00    -0.269 OA
BRANCH  37  40
ATOM     40  C   UNL     1      -3.297   0.832  -2.643  1.00  0.00     0.078 A 
ATOM     41  C   UNL     1      -2.720   1.589  -3.668  1.00  0.00     0.037 A 
ATOM     42  C   UNL     1      -4.676   0.888  -2.467  1.00  0.00     0.154 A 
ATOM     43  C   UNL     1      -3.545   2.364  -4.466  1.00  0.00     0.112 A 
ATOM     44  C   UNL     1      -5.420   1.692  -3.313  1.00  0.00     0.151 A 
ATOM     45  N   UNL     1      -4.885   2.433  -4.311  1.00  0.00    -0.262 NA
ATOM     46  F   UNL     1      -5.303   0.196  -1.506  1.00  0.00    -0.204 F 
ENDBRANCH  37  40
ENDBRANCH  28  36
ENDBRANCH  24  28
ENDBRANCH   3  24
TORSDOF 9
