MODEL        1USER    Run = 1USERUSER    Estimated Free Energy of Binding    =  -8.27 kcal/mol  [=(1)+(2)+(3)-(4)]USERUSER    (1) Final Intermolecular Energy     = -12.75 kcal/molUSER        vdW + Hbond + desolv Energy     = -13.25 kcal/molUSER        Electrostatic Energy            =  -0.07 kcal/molUSER        Moving Ligand-Fixed Receptor    = -13.32 kcal/molUSER        Moving Ligand-Moving Receptor   =  +0.57 kcal/molUSER    (2) Final Total Internal Energy     =  -3.17 kcal/molUSER    (3) Torsional Free Energy           =  +4.47 kcal/molUSER    (4) Unbound System's Energy         =  -3.17 kcal/molUSERUSERREMARK SMILES O=C(N[C@@H]1CCCN(C2CC2)C[C@H]1NC(=O)c1ccncc1F)c1ccc(C(=O)c2c(O)ccc(O)c2F)cc1REMARK SMILES IDX 1 1 2 2 3 3 24 5 25 6 40 7 26 8 39 9 27 10 28 11 29 12 30 13REMARK SMILES IDX 31 14 37 15 33 16 35 17 34 18 38 19 32 20 36 22 4 24 5 25REMARK SMILES IDX 6 26 13 28 12 29 8 30 7 31 9 33 10 34 11 35 14 36 15 37REMARK SMILES IDX 16 39 17 40 18 41 22 42 19 43 21 44 20 45 23 46REMARK H PARENT 3 4 32 21 36 23 14 38REMARK Flexibility Score:   88.900USER                              x       y       z     vdW  Elec       q    TypeUSER                           _______ _______ _______ _____ _____    ______ ____ROOTATOM      1  O   UNL     1      39.968  44.196  20.588 -0.20 -0.01    -0.269 OA ATOM      2  C   UNL     1      38.894  44.541  20.108 -0.25 -0.00    +0.251 C  ATOM      3  N   UNL     1      37.663  44.271  20.675 -0.17 +0.00    -0.347 N  ATOM      4  H   UNL     1      36.913  44.898  20.402 +0.09 -0.00    +0.164 HD ENDROOTBRANCH   2   5ATOM      5  C   UNL     1      38.863  45.353  18.861 -0.38 -0.00    +0.039 A  ATOM      6  C   UNL     1      37.630  45.578  18.236 -0.30 -0.00    +0.014 A  ATOM      7  C   UNL     1      40.030  45.912  18.320 -0.45 -0.00    +0.014 A  ATOM      8  C   UNL     1      37.565  46.320  17.053 -0.34 -0.01    +0.013 A  ATOM      9  C   UNL     1      39.965  46.655  17.139 -0.47 -0.00    +0.013 A  ATOM     10  C   UNL     1      38.739  46.835  16.488 -0.41 -0.01    +0.023 A  BRANCH  10  11ATOM     11  C   UNL     1      38.719  47.626  15.235 -0.40 -0.08    +0.199 C  ATOM     12  O   UNL     1      39.475  48.591  15.125 -0.36 +0.12    -0.288 OA BRANCH  11  13ATOM     13  C   UNL     1      37.803  47.330  14.112 -0.42 -0.04    +0.104 A  ATOM     14  C   UNL     1      36.952  48.336  13.631 -0.45 -0.07    +0.130 A  ATOM     15  C   UNL     1      37.788  46.087  13.482 -0.27 -0.06    +0.179 A  ATOM     16  C   UNL     1      36.060  48.080  12.588 -0.49 -0.03    +0.051 A  ATOM     17  C   UNL     1      36.902  45.835  12.435 -0.46 -0.05    +0.152 A  ATOM     18  C   UNL     1      36.029  46.819  11.991 -0.60 -0.03    +0.053 A  ATOM     19  F   UNL     1      38.631  45.107  13.841 -0.07 +0.05    -0.202 F  BRANCH  14  20ATOM     20  O   UNL     1      36.942  49.607  14.143 -0.13 +0.40    -0.507 OA ATOM     21  H   UNL     1      37.851  49.815  14.461 -0.33 -0.29    +0.293 HD ENDBRANCH  14  20BRANCH  17  22ATOM     22  O   UNL     1      36.873  44.617  11.817 -0.23 +0.16    -0.505 OA ATOM     23  H   UNL     1      36.965  44.769  10.856 +0.26 -0.08    +0.293 HD ENDBRANCH  17  22ENDBRANCH  11  13ENDBRANCH  10  11ENDBRANCH   2   5BRANCH   3  24ATOM     24  C   UNL     1      37.552  43.637  22.000 -0.37 +0.01    +0.106 C  BRANCH  24  25ATOM     25  C   UNL     1      36.367  42.657  22.010 -0.40 +0.00    +0.028 C  BRANCH  25  26ATOM     26  C   UNL     1      36.555  41.472  22.955 -0.55 +0.00    +0.018 CG0ATOM     27  G   UNL     1      36.573  41.852  24.434 +0.00 +0.00    +0.000 G0 ENDBRANCH  25  26ENDBRANCH  24  25BRANCH  24  28ATOM     28  C   UNL     1      37.541  44.717  23.129 -0.26 +0.01    +0.118 C  BRANCH  28  29ATOM     29  C   UNL     1      37.163  44.221  24.539 -0.30 +0.01    +0.111 C  BRANCH  29  30ATOM     30  N   UNL     1      37.602  42.833  24.783 -0.15 -0.01    -0.298 NA BRANCH  30  31ATOM     31  C   UNL     1      36.570  41.851  24.432 -0.39 -0.00    +0.085 CG0ATOM     32  G   UNL     1      36.554  41.465  22.955 +0.00 +0.00    +0.000 G0 ENDBRANCH  30  31BRANCH  30  33ATOM     33  C   UNL     1      38.059  42.648  26.174 -0.31 -0.00    +0.056 C  ATOM     34  C   UNL     1      37.176  41.893  27.135 -0.50 -0.00    +0.021 C  ATOM     35  C   UNL     1      37.347  43.377  27.282 -0.39 -0.00    +0.021 C  ENDBRANCH  30  33ENDBRANCH  29  30ENDBRANCH  28  29BRANCH  28  36ATOM     36  N   UNL     1      38.833  45.414  23.187 -0.13 -0.03    -0.346 N  ATOM     37  C   UNL     1      38.998  46.602  23.858 -0.23 +0.03    +0.254 C  ATOM     38  H   UNL     1      39.526  45.091  22.513 +0.09 +0.01    +0.164 HD ATOM     39  O   UNL     1      38.135  47.061  24.601 -0.54 -0.04    -0.269 OA BRANCH  37  40ATOM     40  C   UNL     1      40.266  47.346  23.640 -0.23 +0.01    +0.078 A  ATOM     41  C   UNL     1      40.465  48.535  24.350 -0.30 +0.01    +0.037 A  ATOM     42  C   UNL     1      41.250  46.929  22.748 -0.12 +0.02    +0.154 A  ATOM     43  C   UNL     1      41.632  49.249  24.136 -0.24 +0.03    +0.112 A  ATOM     44  C   UNL     1      42.383  47.709  22.600 -0.18 +0.02    +0.151 A  ATOM     45  N   UNL     1      42.598  48.862  23.275 -0.88 -0.08    -0.262 NA ATOM     46  F   UNL     1      41.132  45.805  22.029 -0.05 -0.02    -0.204 F  ENDBRANCH  37  40ENDBRANCH  28  36ENDBRANCH  24  28ENDBRANCH   3  24TORSDOF 9TERENDMDL