REMARK SMILES O=C(N[C@@H]1CCCN(C2CC2)C[C@H]1NC(=O)c1ccc(F)nc1)c1ccc(C(=O)c2c(O)ccc(O)c2F)cc1
REMARK SMILES IDX 3 1 2 2 1 3 4 5 13 6 14 7 15 8 16 9 17 11 18 12 23 13 19 14
REMARK SMILES IDX 22 15 20 16 21 17 12 18 8 19 9 20 10 21 11 22 7 23 6 24 5 26
REMARK SMILES IDX 24 28 25 29 40 30 26 31 39 32 27 33 28 34 29 35 30 36 31 37
REMARK SMILES IDX 37 38 33 39 35 40 34 41 38 42 32 43 36 45
REMARK H PARENT 3 4 14 10 32 44 36 46
REMARK Flexibility Score:   88.900
ROOT
ATOM      1  N   UNL     1      -0.104  -0.699  -0.643  1.00  0.00    -0.347 N 
ATOM      2  C   UNL     1       0.578  -1.617  -1.418  1.00  0.00     0.251 C 
ATOM      3  O   UNL     1       0.046  -2.386  -2.209  1.00  0.00    -0.269 OA
ATOM      4  H   UNL     1       0.378  -0.365   0.182  1.00  0.00     0.164 HD
ENDROOT
BRANCH   1   5
ATOM      5  C   UNL     1      -1.573  -0.614  -0.655  1.00  0.00     0.106 C 
BRANCH   5   6
ATOM      6  C   UNL     1      -2.098   0.154   0.589  1.00  0.00     0.118 C 
BRANCH   6   7
ATOM      7  N   UNL     1      -3.530  -0.094   0.805  1.00  0.00    -0.346 N 
ATOM      8  C   UNL     1      -4.006  -1.236   1.402  1.00  0.00     0.253 C 
ATOM      9  O   UNL     1      -3.265  -2.100   1.858  1.00  0.00    -0.269 OA
ATOM     10  H   UNL     1      -4.133   0.632   0.435  1.00  0.00     0.164 HD
BRANCH   8  11
ATOM     11  C   UNL     1      -5.477  -1.392   1.515  1.00  0.00     0.058 A 
ATOM     12  C   UNL     1      -5.997  -2.310   2.433  1.00  0.00     0.020 A 
ATOM     13  C   UNL     1      -6.384  -0.683   0.736  1.00  0.00     0.128 A 
ATOM     14  C   UNL     1      -7.378  -2.462   2.550  1.00  0.00     0.061 A 
ATOM     15  N   UNL     1      -7.732  -0.807   0.832  1.00  0.00    -0.227 NA
ATOM     16  C   UNL     1      -8.194  -1.694   1.738  1.00  0.00     0.212 A 
ATOM     17  F   UNL     1      -9.522  -1.833   1.849  1.00  0.00    -0.185 F 
ENDBRANCH   8  11
ENDBRANCH   6   7
BRANCH   6  18
ATOM     18  C   UNL     1      -1.856   1.682   0.544  1.00  0.00     0.111 C 
BRANCH  18  19
ATOM     19  N   UNL     1      -2.839   2.341  -0.334  1.00  0.00    -0.298 NA
BRANCH  19  20
ATOM     20  C   UNL     1      -3.324   3.620   0.216  1.00  0.00     0.056 C 
ATOM     21  C   UNL     1      -4.396   3.617   1.273  1.00  0.00     0.021 C 
ATOM     22  C   UNL     1      -4.720   4.075  -0.117  1.00  0.00     0.021 C 
ENDBRANCH  19  20
BRANCH  19  23
ATOM     23  C   UNL     1      -2.383   2.496  -1.722  1.00  0.00     0.085 C 
BRANCH  23  24
ATOM     24  C   UNL     1      -1.583   1.343  -2.335  1.00  0.00     0.018 CG0
ATOM     25  G   UNL     1      -2.102  -0.053  -1.994  1.00  0.00     0.000 G0
ENDBRANCH  23  24
ENDBRANCH  19  23
ENDBRANCH  18  19
ENDBRANCH   6  18
ENDBRANCH   5   6
BRANCH   5  26
ATOM     26  C   UNL     1      -2.102  -0.053  -1.994  1.00  0.00     0.028 CG0
ATOM     27  G   UNL     1      -1.583   1.343  -2.335  1.00  0.00     0.000 G0
ENDBRANCH   5  26
ENDBRANCH   1   5
BRANCH   2  28
ATOM     28  C   UNL     1       2.050  -1.660  -1.212  1.00  0.00     0.039 A 
ATOM     29  C   UNL     1       2.715  -2.883  -1.345  1.00  0.00     0.014 A 
ATOM     30  C   UNL     1       2.779  -0.497  -0.926  1.00  0.00     0.014 A 
ATOM     31  C   UNL     1       4.098  -2.952  -1.153  1.00  0.00     0.013 A 
ATOM     32  C   UNL     1       4.164  -0.566  -0.744  1.00  0.00     0.013 A 
ATOM     33  C   UNL     1       4.823  -1.798  -0.830  1.00  0.00     0.023 A 
BRANCH  33  34
ATOM     34  C   UNL     1       6.293  -1.913  -0.665  1.00  0.00     0.199 C 
ATOM     35  O   UNL     1       6.911  -2.728  -1.352  1.00  0.00    -0.288 OA
BRANCH  34  36
ATOM     36  C   UNL     1       7.080  -1.054   0.246  1.00  0.00     0.104 A 
ATOM     37  C   UNL     1       8.395  -0.708  -0.100  1.00  0.00     0.130 A 
ATOM     38  C   UNL     1       6.569  -0.601   1.462  1.00  0.00     0.179 A 
ATOM     39  C   UNL     1       9.159   0.120   0.722  1.00  0.00     0.051 A 
ATOM     40  C   UNL     1       7.337   0.225   2.289  1.00  0.00     0.152 A 
ATOM     41  C   UNL     1       8.628   0.595   1.921  1.00  0.00     0.053 A 
ATOM     42  F   UNL     1       5.340  -0.961   1.866  1.00  0.00    -0.202 F 
BRANCH  37  43
ATOM     43  O   UNL     1       9.000  -1.153  -1.246  1.00  0.00    -0.507 OA
ATOM     44  H   UNL     1       8.472  -1.907  -1.593  1.00  0.00     0.293 HD
ENDBRANCH  37  43
BRANCH  40  45
ATOM     45  O   UNL     1       6.795   0.665   3.464  1.00  0.00    -0.505 OA
ATOM     46  H   UNL     1       7.458   1.185   3.950  1.00  0.00     0.293 HD
ENDBRANCH  40  45
ENDBRANCH  34  36
ENDBRANCH  33  34
ENDBRANCH   2  28
TORSDOF 9
