MODEL        10USER    Run = 10USERUSER    Estimated Free Energy of Binding    =  -7.79 kcal/mol  [=(1)+(2)+(3)-(4)]USERUSER    (1) Final Intermolecular Energy     = -12.26 kcal/molUSER        vdW + Hbond + desolv Energy     = -12.67 kcal/molUSER        Electrostatic Energy            =  -0.13 kcal/molUSER        Moving Ligand-Fixed Receptor    = -12.81 kcal/molUSER        Moving Ligand-Moving Receptor   =  +0.54 kcal/molUSER    (2) Final Total Internal Energy     =  -3.29 kcal/molUSER    (3) Torsional Free Energy           =  +4.47 kcal/molUSER    (4) Unbound System's Energy         =  -3.29 kcal/molUSERUSERREMARK SMILES O=C(N[C@@H]1CCCN(C2CC2)C[C@H]1NC(=O)c1ccc(F)nc1)c1ccc(C(=O)c2c(O)ccc(O)c2F)cc1REMARK SMILES IDX 3 1 2 2 1 3 4 5 13 6 14 7 15 8 16 9 17 11 18 12 23 13 19 14REMARK SMILES IDX 22 15 20 16 21 17 12 18 8 19 9 20 10 21 11 22 7 23 6 24 5 26REMARK SMILES IDX 24 28 25 29 40 30 26 31 39 32 27 33 28 34 29 35 30 36 31 37REMARK SMILES IDX 37 38 33 39 35 40 34 41 38 42 32 43 36 45REMARK H PARENT 3 4 14 10 32 44 36 46REMARK Flexibility Score:   88.900USER                              x       y       z     vdW  Elec       q    TypeUSER                           _______ _______ _______ _____ _____    ______ ____ROOTATOM      1  N   UNL     1      37.699  45.836  18.084 -0.14 +0.09    -0.347 N  ATOM      2  C   UNL     1      38.195  44.578  18.367 -0.25 -0.04    +0.251 C  ATOM      3  O   UNL     1      38.849  43.901  17.584 -0.00 +0.03    -0.269 OA ATOM      4  H   UNL     1      36.923  46.149  18.654 +0.10 -0.04    +0.164 HD ENDROOTBRANCH   1   5ATOM      5  C   UNL     1      37.864  46.455  16.759 -0.36 -0.04    +0.106 C  BRANCH   5   6ATOM      6  C   UNL     1      36.531  47.081  16.265 -0.26 -0.11    +0.118 C  BRANCH   6   7ATOM      7  N   UNL     1      35.437  46.102  16.298 -0.13 +0.31    -0.346 N  ATOM      8  C   UNL     1      34.656  45.895  17.409 -0.27 -0.20    +0.253 C  ATOM      9  O   UNL     1      34.774  46.561  18.432 -0.53 +0.18    -0.269 OA ATOM     10  H   UNL     1      35.340  45.565  15.443 +0.12 -0.12    +0.164 HD BRANCH   8  11ATOM     11  C   UNL     1      33.616  44.839  17.333 -0.29 -0.03    +0.058 A  ATOM     12  C   UNL     1      33.047  44.530  16.093 -0.32 -0.01    +0.020 A  ATOM     13  C   UNL     1      33.151  44.142  18.442 -0.27 -0.03    +0.128 A  ATOM     14  C   UNL     1      32.072  43.537  16.010 -0.30 -0.03    +0.061 A  ATOM     15  N   UNL     1      32.207  43.168  18.389 -0.18 +0.04    -0.227 NA ATOM     16  C   UNL     1      31.692  42.891  17.173 -0.16 -0.07    +0.212 A  ATOM     17  F   UNL     1      30.758  41.934  17.098 -0.06 +0.05    -0.185 F  ENDBRANCH   8  11ENDBRANCH   6   7BRANCH   6  18ATOM     18  C   UNL     1      36.605  47.702  14.849 -0.37 -0.10    +0.111 C  BRANCH  18  19ATOM     19  N   UNL     1      37.681  47.077  14.060 -0.24 +0.12    -0.298 NA BRANCH  19  20ATOM     20  C   UNL     1      37.307  46.879  12.647 -0.62 -0.02    +0.056 C  ATOM     21  C   UNL     1      35.857  46.935  12.246 -0.69 -0.01    +0.021 C  ATOM     22  C   UNL     1      36.578  45.621  12.255 -0.66 -0.01    +0.021 C  ENDBRANCH  19  20BRANCH  19  23ATOM     23  C   UNL     1      38.976  47.760  14.178 -0.46 -0.02    +0.085 C  BRANCH  23  24ATOM     24  C   UNL     1      39.824  47.457  15.417 -0.56 -0.00    +0.018 CG0ATOM     25  G   UNL     1      39.054  47.446  16.736 +0.00 +0.00    +0.000 G0 ENDBRANCH  23  24ENDBRANCH  19  23ENDBRANCH  18  19ENDBRANCH   6  18ENDBRANCH   5   6BRANCH   5  26ATOM     26  C   UNL     1      39.055  47.440  16.733 -0.46 -0.01    +0.028 CG0ATOM     27  G   UNL     1      39.823  47.456  15.413 +0.00 +0.00    +0.000 G0 ENDBRANCH   5  26ENDBRANCH   1   5BRANCH   2  28ATOM     28  C   UNL     1      37.849  44.041  19.709 -0.31 -0.00    +0.039 A  ATOM     29  C   UNL     1      36.585  43.477  19.906 -0.39 -0.00    +0.014 A  ATOM     30  C   UNL     1      38.777  44.058  20.761 -0.27 +0.00    +0.014 A  ATOM     31  C   UNL     1      36.233  42.968  21.160 -0.42 +0.00    +0.013 A  ATOM     32  C   UNL     1      38.427  43.539  22.011 -0.31 +0.00    +0.013 A  ATOM     33  C   UNL     1      37.145  43.018  22.222 -0.40 +0.00    +0.023 A  BRANCH  33  34ATOM     34  C   UNL     1      36.739  42.439  23.526 -0.33 +0.02    +0.199 C  ATOM     35  O   UNL     1      36.540  41.226  23.607 -0.31 +0.01    -0.288 OA BRANCH  34  36ATOM     36  C   UNL     1      36.616  43.234  24.767 -0.28 +0.01    +0.104 A  ATOM     37  C   UNL     1      36.167  42.610  25.941 -0.32 -0.01    +0.130 A  ATOM     38  C   UNL     1      36.898  44.599  24.803 -0.15 +0.02    +0.179 A  ATOM     39  C   UNL     1      36.062  43.322  27.136 -0.42 -0.01    +0.051 A  ATOM     40  C   UNL     1      36.787  45.314  26.000 -0.16 -0.01    +0.152 A  ATOM     41  C   UNL     1      36.378  44.680  27.170 -0.34 -0.01    +0.053 A  ATOM     42  F   UNL     1      37.267  45.252  23.689 -0.02 -0.05    -0.202 F  BRANCH  37  43ATOM     43  O   UNL     1      35.812  41.288  25.987 -0.13 +0.17    -0.507 OA ATOM     44  H   UNL     1      36.107  40.866  25.149 -0.10 -0.14    +0.293 HD ENDBRANCH  37  43BRANCH  40  45ATOM     45  O   UNL     1      37.092  46.646  26.000 -0.41 +0.02    -0.505 OA ATOM     46  H   UNL     1      36.276  47.163  26.120 -0.22 -0.07    +0.293 HD ENDBRANCH  40  45ENDBRANCH  34  36ENDBRANCH  33  34ENDBRANCH   2  28TORSDOF 9TERENDMDL