MODEL        8USER    Run = 8USERUSER    Estimated Free Energy of Binding    = -11.88 kcal/mol  [=(1)+(2)+(3)-(4)]USERUSER    (1) Final Intermolecular Energy     = -13.67 kcal/molUSER        vdW + Hbond + desolv Energy     = -13.57 kcal/molUSER        Electrostatic Energy            =  -0.10 kcal/molUSER        Moving Ligand-Fixed Receptor    = -13.67 kcal/molUSER        Moving Ligand-Moving Receptor   =  +0.00 kcal/molUSER    (2) Final Total Internal Energy     =  -1.07 kcal/molUSER    (3) Torsional Free Energy           =  +1.79 kcal/molUSER    (4) Unbound System's Energy         =  -1.07 kcal/molUSERUSERREMARK SMILES CN1CCN(c2ccc3nc(-c4ccc(CN5CCC(n6c(O)nc7ccccc76)CC5)cc4)cnc3c2)CC1REMARK SMILES IDX 16 1 15 2 12 3 13 4 34 5 14 6 33 7 11 8 6 9 7 10 38 11 8 12REMARK SMILES IDX 37 13 9 14 36 15 10 16 35 17 5 18 2 19 3 20 40 21 4 22 39 23REMARK SMILES IDX 1 24 17 25 18 26 32 27 19 28 31 29 20 30 21 31 22 32 30 33REMARK SMILES IDX 24 34 29 35 25 36 28 37 26 38 27 39 23 40REMARK H PARENT 23 41USER                              x       y       z     vdW  Elec       q    TypeUSER                           _______ _______ _______ _____ _____    ______ ____ROOTATOM      1  C   UNL     1      41.018  44.901  19.556 -0.38 +0.01    +0.120 C  ENDROOTBRANCH   1   2ATOM      2  C   UNL     1      40.314  45.133  20.877 -0.32 -0.00    -0.034 A  ATOM      3  C   UNL     1      38.960  45.605  23.344 -0.29 +0.00    +0.002 A  ATOM      4  C   UNL     1      38.476  44.677  22.405 -0.33 +0.00    +0.011 A  ATOM      5  C   UNL     1      40.138  46.296  23.012 -0.25 +0.00    +0.011 A  ATOM      6  C   UNL     1      39.140  44.442  21.195 -0.33 +0.00    +0.006 A  ATOM      7  C   UNL     1      40.802  46.067  21.799 -0.24 +0.00    +0.006 A  BRANCH   3   8ATOM      8  C   UNL     1      38.231  45.850  24.603 -0.24 +0.01    +0.089 A  ATOM      9  C   UNL     1      35.752  48.014  28.358 -0.34 -0.01    +0.039 A  ATOM     10  C   UNL     1      35.802  48.910  27.287 -0.34 -0.00    +0.028 A  ATOM     11  C   UNL     1      36.318  46.748  28.133 -0.29 -0.01    +0.056 A  ATOM     12  C   UNL     1      36.435  48.577  26.084 -0.44 -0.00    +0.033 A  ATOM     13  C   UNL     1      36.952  46.395  26.943 -0.27 -0.02    +0.091 A  ATOM     14  C   UNL     1      37.022  47.340  25.898 -0.31 -0.00    +0.090 A  ATOM     15  N   UNL     1      37.497  45.171  26.805 -0.18 +0.03    -0.252 NA ATOM     16  N   UNL     1      37.652  47.070  24.737 -0.63 -0.06    -0.245 NA ATOM     17  C   UNL     1      38.130  44.923  25.632 -0.18 +0.00    +0.140 A  BRANCH   9  18ATOM     18  N   UNL     1      35.166  48.341  29.572 -0.17 +0.04    -0.369 N  ATOM     19  N   UNL     1      33.441  49.638  31.677 -0.05 -0.00    -0.303 NA ATOM     20  C   UNL     1      33.501  48.180  31.419 -0.19 -0.02    +0.105 C  ATOM     21  C   UNL     1      34.346  50.371  30.761 -0.13 +0.00    +0.105 C  ATOM     22  C   UNL     1      33.856  47.788  29.966 -0.36 -0.01    +0.132 C  ATOM     23  C   UNL     1      35.584  49.565  30.295 -0.18 -0.00    +0.132 C  ATOM     24  C   UNL     1      32.075  50.150  31.535 -0.17 +0.01    +0.105 C  ENDBRANCH   9  18ENDBRANCH   3   8ENDBRANCH   1   2BRANCH   1  25ATOM     25  N   UNL     1      40.371  45.443  18.355 -0.23 +0.01    -0.299 NA ATOM     26  C   UNL     1      38.962  45.066  18.218 -0.40 -0.01    +0.087 C  ATOM     27  C   UNL     1      40.614  46.860  18.114 -0.49 -0.01    +0.087 C  ATOM     28  C   UNL     1      38.204  45.920  17.192 -0.42 -0.01    +0.041 C  ATOM     29  C   UNL     1      40.331  47.194  16.648 -0.55 -0.01    +0.041 C  ATOM     30  C   UNL     1      39.139  46.402  16.079 -0.42 -0.02    +0.095 C  BRANCH  30  31ATOM     31  N   UNL     1      38.446  47.128  15.024 -0.21 +0.11    -0.291 N  ATOM     32  C   UNL     1      38.359  48.486  14.893 -0.29 -0.17    +0.295 A  ATOM     33  C   UNL     1      37.761  46.581  13.959 -0.40 -0.03    +0.072 A  ATOM     34  N   UNL     1      37.670  48.864  13.853 -0.52 +0.10    -0.195 NA ATOM     35  C   UNL     1      37.507  45.268  13.545 -0.40 -0.01    +0.029 A  ATOM     36  C   UNL     1      37.292  47.689  13.250 -0.49 -0.03    +0.092 A  ATOM     37  C   UNL     1      36.753  45.097  12.376 -0.53 -0.00    +0.002 A  ATOM     38  C   UNL     1      36.539  47.496  12.081 -0.60 -0.01    +0.031 A  ATOM     39  C   UNL     1      36.277  46.190  11.654 -0.55 -0.00    +0.002 A  BRANCH  32  40ATOM     40  O   UNL     1      38.910  49.357  15.711 -0.17 +0.32    -0.480 OA ATOM     41  H   UNL     1      38.533  50.194  15.380 -0.29 -0.30    +0.296 HD ENDBRANCH  32  40ENDBRANCH  30  31ENDBRANCH   1  25TORSDOF 6TERENDMDL