REMARK SMILES CN1CCN(c2ccc3nc(-c4ccc(CN5CCC(n6c(O)nc7ccccc76)CC5)cc4)cnc3c2)CC1
REMARK SMILES IDX 16 1 15 2 12 3 13 4 34 5 14 6 33 7 11 8 6 9 7 10 38 11 8 12
REMARK SMILES IDX 37 13 9 14 36 15 10 16 35 17 5 18 2 19 3 20 40 21 4 22 39 23
REMARK SMILES IDX 1 24 17 25 18 26 32 27 19 28 31 29 20 30 21 31 22 32 30 33
REMARK SMILES IDX 24 34 29 35 25 36 28 37 26 38 27 39 23 40
REMARK H PARENT 23 41
ROOT
ATOM      1  C   UNL     1      -3.402   0.195  -2.811  1.00  0.00     0.120 C 
ENDROOT
BRANCH   1   2
ATOM      2  C   UNL     1      -2.032   0.004  -2.194  1.00  0.00    -0.034 A 
ATOM      3  C   UNL     1       0.570  -0.348  -1.076  1.00  0.00     0.002 A 
ATOM      4  C   UNL     1      -0.054   0.912  -1.107  1.00  0.00     0.011 A 
ATOM      5  C   UNL     1      -0.142  -1.428  -1.626  1.00  0.00     0.011 A 
ATOM      6  C   UNL     1      -1.331   1.087  -1.653  1.00  0.00     0.006 A 
ATOM      7  C   UNL     1      -1.419  -1.255  -2.178  1.00  0.00     0.006 A 
BRANCH   3   8
ATOM      8  C   UNL     1       1.925  -0.502  -0.514  1.00  0.00     0.089 A 
ATOM      9  C   UNL     1       6.711   0.219   0.713  1.00  0.00     0.039 A 
ATOM     10  C   UNL     1       6.207   1.409   0.180  1.00  0.00     0.028 A 
ATOM     11  C   UNL     1       5.795  -0.838   0.843  1.00  0.00     0.056 A 
ATOM     12  C   UNL     1       4.880   1.512  -0.252  1.00  0.00     0.033 A 
ATOM     13  C   UNL     1       4.469  -0.756   0.420  1.00  0.00     0.091 A 
ATOM     14  C   UNL     1       4.006   0.446  -0.154  1.00  0.00     0.090 A 
ATOM     15  N   UNL     1       3.652  -1.819   0.550  1.00  0.00    -0.252 NA
ATOM     16  N   UNL     1       2.745   0.575  -0.613  1.00  0.00    -0.245 NA
ATOM     17  C   UNL     1       2.390  -1.670   0.077  1.00  0.00     0.140 A 
BRANCH   9  18
ATOM     18  N   UNL     1       8.034   0.085   1.108  1.00  0.00    -0.369 N 
ATOM     19  N   UNL     1      11.039  -0.156   1.065  1.00  0.00    -0.303 NA
ATOM     20  C   UNL     1      10.287   0.861   1.837  1.00  0.00     0.105 C 
ATOM     21  C   UNL     1      10.112  -1.039   0.318  1.00  0.00     0.105 C 
ATOM     22  C   UNL     1       8.919   1.259   1.235  1.00  0.00     0.132 C 
ATOM     23  C   UNL     1       8.722  -1.220   0.977  1.00  0.00     0.132 C 
ATOM     24  C   UNL     1      11.981   0.470   0.133  1.00  0.00     0.105 C 
ENDBRANCH   9  18
ENDBRANCH   3   8
ENDBRANCH   1   2
BRANCH   1  25
ATOM     25  N   UNL     1      -4.553   0.143  -1.901  1.00  0.00    -0.299 NA
ATOM     26  C   UNL     1      -4.832  -1.194  -1.371  1.00  0.00     0.087 C 
ATOM     27  C   UNL     1      -4.573   1.182  -0.879  1.00  0.00     0.087 C 
ATOM     28  C   UNL     1      -5.772  -1.181  -0.158  1.00  0.00     0.041 C 
ATOM     29  C   UNL     1      -5.992   1.342  -0.328  1.00  0.00     0.041 C 
ATOM     30  C   UNL     1      -6.743   0.002  -0.227  1.00  0.00     0.095 C 
BRANCH  30  31
ATOM     31  N   UNL     1      -7.726  -0.002   0.847  1.00  0.00    -0.291 N 
ATOM     32  C   UNL     1      -7.464   0.029   2.189  1.00  0.00     0.295 A 
ATOM     33  C   UNL     1      -9.098  -0.026   0.710  1.00  0.00     0.072 A 
ATOM     34  N   UNL     1      -8.538   0.012   2.928  1.00  0.00    -0.195 NA
ATOM     35  C   UNL     1      -9.959  -0.053  -0.394  1.00  0.00     0.029 A 
ATOM     36  C   UNL     1      -9.572  -0.015   2.024  1.00  0.00     0.092 A 
ATOM     37  C   UNL     1     -11.336  -0.070  -0.135  1.00  0.00     0.002 A 
ATOM     38  C   UNL     1     -10.955  -0.032   2.261  1.00  0.00     0.031 A 
ATOM     39  C   UNL     1     -11.829  -0.059   1.169  1.00  0.00     0.002 A 
BRANCH  32  40
ATOM     40  O   UNL     1      -6.261   0.080   2.719  1.00  0.00    -0.480 OA
ATOM     41  H   UNL     1      -6.472   0.063   3.672  1.00  0.00     0.296 HD
ENDBRANCH  32  40
ENDBRANCH  30  31
ENDBRANCH   1  25
TORSDOF 6
