REMARK SMILES Oc1nc2cc(F)ccc2n1C1CCN(Cc2ccc(-c3nc4ccccc4nc3-c3ccc(N4CCOCC4)cc3)cc2)CC1
REMARK SMILES IDX 16 1 15 2 12 3 13 4 46 5 14 6 45 7 11 8 2 9 3 10 4 11 10 12
REMARK SMILES IDX 5 13 9 14 6 15 8 16 7 17 1 18 17 20 18 21 44 22 19 23 43 24
REMARK SMILES IDX 20 25 21 26 22 27 30 28 23 29 29 30 24 31 28 32 25 33 27 34
REMARK SMILES IDX 26 35 31 36 32 37 42 38 33 39 41 40 34 41 35 42 36 43 40 44
REMARK SMILES IDX 37 45 39 46 38 47
REMARK H PARENT 1 19
ROOT
ATOM      1  C   UNL     1       1.655   1.736   1.063  1.00  0.00     0.120 C 
ENDROOT
BRANCH   1   2
ATOM      2  N   UNL     1       2.997   1.460   0.523  1.00  0.00    -0.299 NA
ATOM      3  C   UNL     1       5.294   0.143  -0.641  1.00  0.00     0.095 C 
ATOM      4  C   UNL     1       4.410   1.095  -1.455  1.00  0.00     0.041 C 
ATOM      5  C   UNL     1       5.207   0.440   0.861  1.00  0.00     0.041 C 
ATOM      6  C   UNL     1       2.986   1.115  -0.901  1.00  0.00     0.087 C 
ATOM      7  C   UNL     1       3.749   0.485   1.317  1.00  0.00     0.087 C 
BRANCH   3   8
ATOM      8  N   UNL     1       6.667   0.095  -1.127  1.00  0.00    -0.291 N 
ATOM      9  C   UNL     1       7.272  -1.019  -1.643  1.00  0.00     0.295 A 
ATOM     10  N   UNL     1       8.503  -0.812  -2.022  1.00  0.00    -0.195 NA
ATOM     11  C   UNL     1       8.728   0.513  -1.740  1.00  0.00     0.095 A 
ATOM     12  C   UNL     1       7.598   1.113  -1.174  1.00  0.00     0.072 A 
ATOM     13  C   UNL     1       9.889   1.270  -1.947  1.00  0.00     0.070 A 
ATOM     14  C   UNL     1       7.580   2.463  -0.795  1.00  0.00     0.032 A 
ATOM     15  C   UNL     1       9.873   2.611  -1.574  1.00  0.00     0.125 A 
ATOM     16  C   UNL     1       8.748   3.203  -1.009  1.00  0.00     0.041 A 
ATOM     17  F   UNL     1      10.973   3.354  -1.763  1.00  0.00    -0.207 F 
BRANCH   9  18
ATOM     18  O   UNL     1       6.699  -2.199  -1.760  1.00  0.00    -0.480 OA
ATOM     19  H   UNL     1       7.420  -2.723  -2.156  1.00  0.00     0.296 HD
ENDBRANCH   9  18
ENDBRANCH   3   8
ENDBRANCH   1   2
BRANCH   1  20
ATOM     20  C   UNL     1       0.662   0.592   1.050  1.00  0.00    -0.034 A 
ATOM     21  C   UNL     1      -0.183   0.394  -0.050  1.00  0.00     0.006 A 
ATOM     22  C   UNL     1       0.567  -0.289   2.133  1.00  0.00     0.006 A 
ATOM     23  C   UNL     1      -1.097  -0.665  -0.066  1.00  0.00     0.011 A 
ATOM     24  C   UNL     1      -0.351  -1.345   2.115  1.00  0.00     0.011 A 
ATOM     25  C   UNL     1      -1.210  -1.547   1.022  1.00  0.00     0.002 A 
BRANCH  25  26
ATOM     26  C   UNL     1      -2.173  -2.664   1.025  1.00  0.00     0.097 A 
ATOM     27  N   UNL     1      -1.615  -3.871   1.329  1.00  0.00    -0.244 NA
ATOM     28  C   UNL     1      -3.541  -2.555   0.728  1.00  0.00     0.097 A 
ATOM     29  C   UNL     1      -2.414  -4.952   1.302  1.00  0.00     0.089 A 
ATOM     30  N   UNL     1      -4.343  -3.657   0.689  1.00  0.00    -0.244 NA
ATOM     31  C   UNL     1      -1.885  -6.203   1.594  1.00  0.00     0.030 A 
ATOM     32  C   UNL     1      -3.784  -4.845   0.976  1.00  0.00     0.089 A 
ATOM     33  C   UNL     1      -2.679  -7.351   1.571  1.00  0.00     0.002 A 
ATOM     34  C   UNL     1      -4.566  -5.993   0.956  1.00  0.00     0.030 A 
ATOM     35  C   UNL     1      -4.026  -7.246   1.250  1.00  0.00     0.002 A 
BRANCH  28  36
ATOM     36  C   UNL     1      -4.249  -1.293   0.453  1.00  0.00     0.003 A 
ATOM     37  C   UNL     1      -5.011  -1.141  -0.711  1.00  0.00     0.012 A 
ATOM     38  C   UNL     1      -4.205  -0.207   1.335  1.00  0.00     0.012 A 
ATOM     39  C   UNL     1      -5.668   0.064  -0.999  1.00  0.00     0.026 A 
ATOM     40  C   UNL     1      -4.869   0.994   1.041  1.00  0.00     0.026 A 
ATOM     41  C   UNL     1      -5.610   1.169  -0.137  1.00  0.00     0.037 A 
BRANCH  41  42
ATOM     42  N   UNL     1      -6.250   2.358  -0.430  1.00  0.00    -0.367 N 
ATOM     43  C   UNL     1      -6.555   3.360   0.604  1.00  0.00     0.145 C 
ATOM     44  C   UNL     1      -6.631   2.722  -1.804  1.00  0.00     0.145 C 
ATOM     45  C   UNL     1      -7.747   4.227   0.162  1.00  0.00     0.181 C 
ATOM     46  C   UNL     1      -6.637   4.253  -1.961  1.00  0.00     0.181 C 
ATOM     47  O   UNL     1      -7.531   4.932  -1.068  1.00  0.00    -0.378 OA
ENDBRANCH  41  42
ENDBRANCH  28  36
ENDBRANCH  25  26
ENDBRANCH   1  20
TORSDOF 7
