MODEL        6USER    Run = 6USERUSER    Estimated Free Energy of Binding    = -11.14 kcal/mol  [=(1)+(2)+(3)-(4)]USERUSER    (1) Final Intermolecular Energy     = -13.23 kcal/molUSER        vdW + Hbond + desolv Energy     = -13.05 kcal/molUSER        Electrostatic Energy            =  -0.18 kcal/molUSER        Moving Ligand-Fixed Receptor    = -13.23 kcal/molUSER        Moving Ligand-Moving Receptor   =  +0.00 kcal/molUSER    (2) Final Total Internal Energy     =  -1.48 kcal/molUSER    (3) Torsional Free Energy           =  +2.09 kcal/molUSER    (4) Unbound System's Energy         =  -1.48 kcal/molUSERUSERREMARK SMILES N#Cc1ccc(-c2nc3ccccc3nc2-c2ccc(CN3CC[C@@H](n4c(O)nc5ccccc54)C[C@@H]3F)cc2)cc1REMARK SMILES IDX 17 1 18 2 19 3 20 4 39 5 40 6 16 7 7 8 8 9 9 10 15 11 10 12REMARK SMILES IDX 14 13 11 14 13 15 12 16 6 17 3 18 4 19 42 20 5 21 41 22 2 23REMARK SMILES IDX 1 24 21 25 22 26 23 27 37 28 24 29 36 30 25 31 38 32 26 33REMARK SMILES IDX 27 34 35 35 29 36 34 37 30 38 33 39 31 40 32 41 28 42REMARK H PARENT 28 43USER                              x       y       z     vdW  Elec       q    TypeUSER                           _______ _______ _______ _____ _____    ______ ____ROOTATOM      1  C   UNL     1      33.545  42.436  18.663 -0.39 -0.00    +0.002 A  ATOM      2  C   UNL     1      33.768  43.247  19.789 -0.38 +0.00    +0.011 A  ATOM      3  C   UNL     1      34.907  44.058  19.885 -0.38 -0.00    +0.006 A  ATOM      4  C   UNL     1      35.875  44.054  18.874 -0.33 +0.01    -0.034 A  ATOM      5  C   UNL     1      35.675  43.234  17.758 -0.33 -0.00    +0.006 A  ATOM      6  C   UNL     1      34.525  42.444  17.653 -0.40 -0.00    +0.011 A  ENDROOTBRANCH   1   7ATOM      7  C   UNL     1      32.353  41.574  18.532 -0.32 -0.01    +0.097 A  ATOM      8  C   UNL     1      31.231  41.838  17.727 -0.24 -0.02    +0.097 A  ATOM      9  N   UNL     1      30.151  41.003  17.733 -0.14 +0.03    -0.244 NA ATOM     10  C   UNL     1      30.212  39.901  18.501 -0.25 +0.00    +0.089 A  ATOM     11  N   UNL     1      32.413  40.443  19.298 -0.58 -0.04    -0.244 NA ATOM     12  C   UNL     1      29.138  39.020  18.527 -0.30 +0.01    +0.030 A  ATOM     13  C   UNL     1      31.355  39.615  19.279 -0.34 +0.01    +0.089 A  ATOM     14  C   UNL     1      29.169  37.855  19.296 -0.35 +0.00    +0.002 A  ATOM     15  C   UNL     1      31.379  38.452  20.041 -0.45 +0.01    +0.030 A  ATOM     16  C   UNL     1      30.297  37.569  20.054 -0.40 +0.00    +0.002 A  BRANCH   8  17ATOM     17  C   UNL     1      31.090  42.959  16.776 -0.30 -0.00    +0.002 A  ATOM     18  C   UNL     1      30.753  45.053  14.902 -0.39 -0.03    +0.052 A  ATOM     19  C   UNL     1      29.684  44.653  15.708 -0.32 -0.01    +0.020 A  ATOM     20  C   UNL     1      31.986  44.408  15.021 -0.30 -0.01    +0.020 A  ATOM     21  C   UNL     1      29.853  43.612  16.627 -0.27 -0.00    +0.012 A  ATOM     22  C   UNL     1      32.148  43.368  15.943 -0.33 -0.01    +0.012 A  BRANCH  18  23ATOM     23  C   UNL     1      30.580  46.108  13.949 -0.56 -0.06    +0.099 C  ATOM     24  N   UNL     1      30.443  46.965  13.178 -0.50 +0.08    -0.192 NA ENDBRANCH  18  23ENDBRANCH   8  17ENDBRANCH   1   7BRANCH   4  25ATOM     25  C   UNL     1      37.126  44.900  19.004 -0.25 -0.02    +0.122 C  BRANCH  25  26ATOM     26  N   UNL     1      38.184  44.282  19.820 -0.19 +0.01    -0.270 NA ATOM     27  C   UNL     1      38.234  44.831  21.184 -0.33 +0.00    +0.090 C  ATOM     28  C   UNL     1      39.483  44.299  19.140 -0.21 -0.01    +0.239 C  ATOM     29  C   UNL     1      39.640  44.839  21.784 -0.32 +0.00    +0.041 C  ATOM     30  C   UNL     1      40.318  45.542  19.424 -0.43 +0.00    +0.080 C  ATOM     31  C   UNL     1      40.545  45.741  20.929 -0.30 +0.01    +0.098 C  ATOM     32  F   UNL     1      39.301  44.216  17.792 +0.00 +0.02    -0.230 F  BRANCH  31  33ATOM     33  N   UNL     1      41.946  45.648  21.317 -0.15 -0.05    -0.291 N  ATOM     34  C   UNL     1      42.913  46.587  21.099 -0.19 +0.09    +0.295 A  ATOM     35  C   UNL     1      42.543  44.607  22.002 -0.22 +0.01    +0.072 A  ATOM     36  N   UNL     1      44.087  46.235  21.546 -0.36 -0.14    -0.195 NA ATOM     37  C   UNL     1      42.070  43.396  22.524 -0.30 +0.00    +0.029 A  ATOM     38  C   UNL     1      43.878  45.002  22.118 -0.11 +0.04    +0.092 A  ATOM     39  C   UNL     1      42.997  42.575  23.180 -0.25 -0.00    +0.002 A  ATOM     40  C   UNL     1      44.793  44.159  22.769 -0.20 +0.01    +0.031 A  ATOM     41  C   UNL     1      44.338  42.946  23.299 -0.24 +0.00    +0.002 A  BRANCH  34  42ATOM     42  O   UNL     1      42.707  47.749  20.518 -0.06 -0.03    -0.480 OA ATOM     43  H   UNL     1      43.413  48.290  20.916 -0.38 -0.06    +0.296 HD ENDBRANCH  34  42ENDBRANCH  31  33ENDBRANCH  25  26ENDBRANCH   4  25TORSDOF 7TERENDMDL