MODEL        3USER    Run = 3USERUSER    Estimated Free Energy of Binding    = -10.38 kcal/mol  [=(1)+(2)+(3)-(4)]USERUSER    (1) Final Intermolecular Energy     = -12.77 kcal/molUSER        vdW + Hbond + desolv Energy     = -12.68 kcal/molUSER        Electrostatic Energy            =  -0.09 kcal/molUSER        Moving Ligand-Fixed Receptor    = -12.77 kcal/molUSER        Moving Ligand-Moving Receptor   =  +0.00 kcal/molUSER    (2) Final Total Internal Energy     =  -1.32 kcal/molUSER    (3) Torsional Free Energy           =  +2.39 kcal/molUSER    (4) Unbound System's Energy         =  -1.32 kcal/molUSERUSERREMARK SMILES COc1ccc(O)c(C(=O)c2ccc(CN3CCC(n4c(O)nc5ccccc54)CC3)cc2)c1FREMARK SMILES IDX 11 1 12 2 13 3 14 4 32 5 33 6 9 7 10 8 8 9 3 10 4 11 34 12REMARK SMILES IDX 5 13 6 14 35 15 2 16 1 17 7 18 15 20 16 21 17 22 31 23 18 24REMARK SMILES IDX 30 25 19 26 20 27 21 28 29 29 23 30 28 31 24 32 27 33 25 34REMARK SMILES IDX 26 35 22 36REMARK H PARENT 7 19 22 37USER                              x       y       z     vdW  Elec       q    TypeUSER                           _______ _______ _______ _____ _____    ______ ____ROOTATOM      1  C   UNL     1      37.806  43.446  23.660 -0.32 +0.00    +0.023 A  ATOM      2  C   UNL     1      39.194  43.450  23.833 -0.23 +0.00    +0.012 A  ATOM      3  C   UNL     1      39.999  44.236  23.004 -0.22 +0.00    +0.006 A  ATOM      4  C   UNL     1      39.425  45.038  22.006 -0.29 -0.00    -0.034 A  ATOM      5  C   UNL     1      38.031  45.040  21.854 -0.31 +0.00    +0.006 A  ATOM      6  C   UNL     1      37.224  44.258  22.682 -0.32 +0.00    +0.012 A  ENDROOTBRANCH   1   7ATOM      7  C   UNL     1      36.918  42.647  24.535 -0.32 +0.01    +0.199 C  ATOM      8  O   UNL     1      36.536  41.541  24.148 -0.34 +0.02    -0.288 OA BRANCH   7   9ATOM      9  C   UNL     1      36.418  43.134  25.839 -0.32 -0.01    +0.104 A  ATOM     10  C   UNL     1      36.383  44.776  27.643 -0.32 -0.04    +0.155 A  ATOM     11  C   UNL     1      35.423  44.014  28.313 -0.46 -0.02    +0.053 A  ATOM     12  C   UNL     1      36.875  44.323  26.409 -0.24 -0.02    +0.179 A  ATOM     13  C   UNL     1      34.980  42.807  27.766 -0.54 -0.01    +0.051 A  ATOM     14  C   UNL     1      35.486  42.365  26.547 -0.38 -0.02    +0.130 A  ATOM     15  F   UNL     1      37.824  45.046  25.794 -0.05 +0.00    -0.202 F  BRANCH  10  16ATOM     16  O   UNL     1      36.904  45.962  28.085 -0.15 +0.11    -0.494 OA ATOM     17  C   UNL     1      36.642  47.121  27.303 -0.18 -0.06    +0.278 C  ENDBRANCH  10  16BRANCH  14  18ATOM     18  O   UNL     1      35.025  41.156  26.098 -0.18 +0.20    -0.507 OA ATOM     19  H   UNL     1      35.805  40.614  25.838 -0.23 -0.18    +0.293 HD ENDBRANCH  14  18ENDBRANCH   7   9ENDBRANCH   1   7BRANCH   4  20ATOM     20  C   UNL     1      40.301  45.873  21.094 -0.25 +0.01    +0.120 C  BRANCH  20  21ATOM     21  N   UNL     1      40.994  45.082  20.062 -0.20 -0.02    -0.299 NA ATOM     22  C   UNL     1      40.082  44.449  19.099 -0.39 -0.00    +0.087 C  ATOM     23  C   UNL     1      42.026  45.870  19.374 -0.33 +0.01    +0.087 C  ATOM     24  C   UNL     1      39.434  45.426  18.118 -0.46 -0.00    +0.041 C  ATOM     25  C   UNL     1      41.464  46.918  18.413 -0.57 -0.00    +0.041 C  ATOM     26  C   UNL     1      40.499  46.272  17.411 -0.48 -0.01    +0.095 C  BRANCH  26  27ATOM     27  N   UNL     1      39.925  47.241  16.491 -0.28 +0.07    -0.291 N  ATOM     28  C   UNL     1      40.467  48.441  16.123 -0.32 -0.07    +0.295 A  ATOM     29  C   UNL     1      38.731  47.117  15.809 -0.39 -0.03    +0.072 A  ATOM     30  N   UNL     1      39.734  49.102  15.271 -0.37 +0.09    -0.195 NA ATOM     31  C   UNL     1      37.740  46.128  15.767 -0.36 -0.01    +0.029 A  ATOM     32  C   UNL     1      38.645  48.292  15.059 -0.46 -0.05    +0.092 A  ATOM     33  C   UNL     1      36.639  46.357  14.932 -0.40 -0.00    +0.002 A  ATOM     34  C   UNL     1      37.534  48.502  14.228 -0.53 -0.02    +0.031 A  ATOM     35  C   UNL     1      36.535  47.523  14.173 -0.48 -0.00    +0.002 A  BRANCH  28  36ATOM     36  O   UNL     1      41.614  48.918  16.562 -0.78 -0.05    -0.480 OA ATOM     37  H   UNL     1      42.181  48.127  16.503 -0.29 +0.01    +0.296 HD ENDBRANCH  28  36ENDBRANCH  26  27ENDBRANCH  20  21ENDBRANCH   4  20TORSDOF 8TERENDMDL