MODEL        7USER    Run = 7USERUSER    Estimated Free Energy of Binding    = -11.26 kcal/mol  [=(1)+(2)+(3)-(4)]USERUSER    (1) Final Intermolecular Energy     = -13.34 kcal/molUSER        vdW + Hbond + desolv Energy     = -13.18 kcal/molUSER        Electrostatic Energy            =  -0.16 kcal/molUSER        Moving Ligand-Fixed Receptor    = -13.34 kcal/molUSER        Moving Ligand-Moving Receptor   =  +0.00 kcal/molUSER    (2) Final Total Internal Energy     =  -1.92 kcal/molUSER    (3) Torsional Free Energy           =  +2.09 kcal/molUSER    (4) Unbound System's Energy         =  -1.92 kcal/molUSERUSERREMARK SMILES Oc1nc2cc(F)ccc2n1C1CCN(Cc2ccc(-c3nc4ccccc4nc3-c3ccc(N4CCOCC4)cc3)cc2)CC1REMARK SMILES IDX 16 1 15 2 12 3 13 4 46 5 14 6 45 7 11 8 2 9 3 10 4 11 10 12REMARK SMILES IDX 5 13 9 14 6 15 8 16 7 17 1 18 17 20 18 21 44 22 19 23 43 24REMARK SMILES IDX 20 25 21 26 22 27 30 28 23 29 29 30 24 31 28 32 25 33 27 34REMARK SMILES IDX 26 35 31 36 32 37 42 38 33 39 41 40 34 41 35 42 36 43 40 44REMARK SMILES IDX 37 45 39 46 38 47REMARK H PARENT 1 19USER                              x       y       z     vdW  Elec       q    TypeUSER                           _______ _______ _______ _____ _____    ______ ____ROOTATOM      1  C   UNL     1      37.763  48.980  24.565 -0.35 +0.01    +0.120 C  ENDROOTBRANCH   1   2ATOM      2  N   UNL     1      37.217  48.950  25.933 -0.23 -0.01    -0.299 NA ATOM      3  C   UNL     1      35.462  48.597  28.204 -0.33 -0.01    +0.095 C  ATOM      4  C   UNL     1      36.592  47.608  27.895 -0.35 -0.01    +0.041 C  ATOM      5  C   UNL     1      35.748  49.982  27.610 -0.27 +0.00    +0.041 C  ATOM      6  C   UNL     1      36.904  47.597  26.399 -0.37 -0.01    +0.087 C  ATOM      7  C   UNL     1      36.093  49.869  26.126 -0.43 -0.00    +0.087 C  BRANCH   3   8ATOM      8  N   UNL     1      35.132  48.650  29.623 -0.18 +0.03    -0.291 N  ATOM      9  C   UNL     1      35.955  49.150  30.596 -0.10 -0.03    +0.295 A  ATOM     10  N   UNL     1      35.435  49.100  31.791 -0.13 +0.01    -0.195 NA ATOM     11  C   UNL     1      34.198  48.534  31.601 -0.19 -0.01    +0.095 A  ATOM     12  C   UNL     1      33.976  48.235  30.252 -0.30 -0.01    +0.072 A  ATOM     13  C   UNL     1      33.208  48.246  32.550 -0.16 -0.01    +0.070 A  ATOM     14  C   UNL     1      32.784  47.647  29.804 -0.24 +0.00    +0.032 A  ATOM     15  C   UNL     1      32.024  47.664  32.108 -0.24 -0.02    +0.125 A  ATOM     16  C   UNL     1      31.808  47.367  30.766 -0.43 -0.00    +0.041 A  ATOM     17  F   UNL     1      31.063  47.381  32.999 -0.14 +0.01    -0.207 F  BRANCH   9  18ATOM     18  O   UNL     1      37.159  49.639  30.383 -0.03 +0.06    -0.480 OA ATOM     19  H   UNL     1      37.721  48.917  30.719 -0.51 -0.17    +0.296 HD ENDBRANCH   9  18ENDBRANCH   3   8ENDBRANCH   1   2BRANCH   1  20ATOM     20  C   UNL     1      38.801  47.933  24.218 -0.38 -0.00    -0.034 A  ATOM     21  C   UNL     1      40.168  48.214  24.348 -0.33 +0.00    +0.006 A  ATOM     22  C   UNL     1      38.420  46.667  23.760 -0.27 +0.00    +0.006 A  ATOM     23  C   UNL     1      41.128  47.247  24.033 -0.22 +0.00    +0.011 A  ATOM     24  C   UNL     1      39.384  45.703  23.443 -0.26 +0.00    +0.011 A  ATOM     25  C   UNL     1      40.756  45.977  23.560 -0.19 +0.00    +0.002 A  BRANCH  25  26ATOM     26  C   UNL     1      41.756  44.948  23.216 -0.12 +0.01    +0.097 A  ATOM     27  N   UNL     1      42.202  44.235  24.289 -0.04 -0.01    -0.244 NA ATOM     28  C   UNL     1      42.252  44.701  21.926 -0.21 +0.02    +0.097 A  ATOM     29  C   UNL     1      43.155  43.311  24.071 -0.14 +0.00    +0.089 A  ATOM     30  N   UNL     1      43.228  43.772  21.714 -0.14 -0.06    -0.244 NA ATOM     31  C   UNL     1      43.647  42.569  25.137 -0.12 -0.00    +0.030 A  ATOM     32  C   UNL     1      43.674  43.082  22.778 -0.26 +0.01    +0.089 A  ATOM     33  C   UNL     1      44.641  41.605  24.955 -0.15 -0.00    +0.002 A  ATOM     34  C   UNL     1      44.662  42.121  22.606 -0.28 -0.00    +0.030 A  ATOM     35  C   UNL     1      45.151  41.380  23.683 -0.25 -0.00    +0.002 A  BRANCH  28  36ATOM     36  C   UNL     1      41.788  45.369  20.698 -0.34 +0.00    +0.003 A  ATOM     37  C   UNL     1      40.640  44.923  20.034 -0.38 +0.00    +0.012 A  ATOM     38  C   UNL     1      42.456  46.472  20.154 -0.38 +0.00    +0.012 A  ATOM     39  C   UNL     1      40.203  45.532  18.849 -0.44 -0.00    +0.026 A  ATOM     40  C   UNL     1      42.008  47.078  18.970 -0.50 +0.00    +0.026 A  ATOM     41  C   UNL     1      40.877  46.621  18.277 -0.48 -0.00    +0.037 A  BRANCH  41  42ATOM     42  N   UNL     1      40.448  47.212  17.104 -0.24 +0.06    -0.367 N  ATOM     43  C   UNL     1      39.305  46.692  16.337 -0.41 -0.04    +0.145 C  ATOM     44  C   UNL     1      41.080  48.427  16.565 -0.49 -0.01    +0.145 C  ATOM     45  C   UNL     1      39.430  47.105  14.860 -0.40 -0.04    +0.181 C  ATOM     46  C   UNL     1      40.054  49.238  15.754 -0.48 -0.07    +0.181 C  ATOM     47  O   UNL     1      39.477  48.523  14.652 -0.29 +0.14    -0.378 OA ENDBRANCH  41  42ENDBRANCH  28  36ENDBRANCH  25  26ENDBRANCH   1  20TORSDOF 7TERENDMDL