MODEL        10USER    Run = 10USERUSER    Estimated Free Energy of Binding    =  -5.53 kcal/mol  [=(1)+(2)+(3)-(4)]USERUSER    (1) Final Intermolecular Energy     = -10.00 kcal/molUSER        vdW + Hbond + desolv Energy     = -10.74 kcal/molUSER        Electrostatic Energy            =  -0.09 kcal/molUSER        Moving Ligand-Fixed Receptor    = -10.83 kcal/molUSER        Moving Ligand-Moving Receptor   =  +0.83 kcal/molUSER    (2) Final Total Internal Energy     =  -3.37 kcal/molUSER    (3) Torsional Free Energy           =  +4.47 kcal/molUSER    (4) Unbound System's Energy         =  -3.37 kcal/molUSERUSERREMARK SMILES COc1ccc(O)c(C(=O)c2ccc(C(=O)O[C@@H]3CCCNC[C@H]3NC(=O)c3ccncc3)cc2)c1FREMARK SMILES IDX 17 1 15 2 16 3 14 4 11 5 12 6 35 7 13 8 34 9 9 10 10 11 8 12REMARK SMILES IDX 3 13 4 14 36 15 5 16 6 17 37 18 2 19 1 20 7 21 18 23 24 25REMARK SMILES IDX 23 26 22 27 21 29 20 30 19 31 25 33 26 34 27 36 28 37 29 38REMARK SMILES IDX 33 39 30 40 32 41 31 42REMARK H PARENT 7 22 22 28 25 35REMARK Flexibility Score:   99.900USER                              x       y       z     vdW  Elec       q    TypeUSER                           _______ _______ _______ _____ _____    ______ ____ROOTATOM      1  O   UNL     1      36.763  43.308  20.182 -0.12 +0.02    -0.457 OA ENDROOTBRANCH   1   2ATOM      2  C   UNL     1      37.049  43.262  21.508 -0.24 +0.01    +0.338 C  ATOM      3  O   UNL     1      36.481  42.590  22.357 -0.34 -0.02    -0.246 OA BRANCH   2   4ATOM      4  C   UNL     1      38.215  44.131  21.797 -0.32 +0.00    +0.060 A  ATOM      5  C   UNL     1      40.471  45.720  22.316 -0.25 +0.00    +0.023 A  ATOM      6  C   UNL     1      39.217  46.093  22.818 -0.31 +0.00    +0.013 A  ATOM      7  C   UNL     1      40.591  44.546  21.558 -0.28 +0.00    +0.013 A  ATOM      8  C   UNL     1      38.093  45.301  22.559 -0.28 +0.00    +0.016 A  ATOM      9  C   UNL     1      39.470  43.749  21.307 -0.10 +0.00    +0.016 A  BRANCH   5  10ATOM     10  C   UNL     1      41.694  46.540  22.540 -0.18 +0.02    +0.199 C  ATOM     11  O   UNL     1      42.563  46.624  21.679 -0.21 -0.06    -0.288 OA BRANCH  10  12ATOM     12  C   UNL     1      41.888  47.264  23.802 -0.18 +0.01    +0.104 A  ATOM     13  C   UNL     1      41.699  47.298  26.219 -0.09 +0.01    +0.155 A  ATOM     14  C   UNL     1      42.180  48.613  26.223 -0.21 +0.00    +0.053 A  ATOM     15  C   UNL     1      41.550  46.633  24.996 -0.06 +0.01    +0.179 A  ATOM     16  C   UNL     1      42.535  49.242  25.023 -0.33 +0.01    +0.051 A  ATOM     17  C   UNL     1      42.396  48.563  23.814 -0.32 +0.03    +0.130 A  ATOM     18  F   UNL     1      41.120  45.361  24.983 +0.01 -0.01    -0.202 F  BRANCH  13  19ATOM     19  O   UNL     1      41.372  46.569  27.332 -0.49 -0.07    -0.494 OA ATOM     20  C   UNL     1      42.336  45.641  27.812 -0.04 +0.03    +0.278 C  ENDBRANCH  13  19BRANCH  17  21ATOM     21  O   UNL     1      42.760  49.162  22.643 -0.62 -0.16    -0.507 OA ATOM     22  H   UNL     1      43.325  48.566  22.125 -0.26 +0.03    +0.293 HD ENDBRANCH  17  21ENDBRANCH  10  12ENDBRANCH   5  10ENDBRANCH   2   4ENDBRANCH   1   2BRANCH   1  23ATOM     23  C   UNL     1      35.607  44.095  19.793 -0.32 -0.02    +0.200 CG0ATOM     24  G   UNL     1      34.406  43.150  19.771 +0.00 +0.00    +0.000 G0 BRANCH  23  25ATOM     25  C   UNL     1      35.934  44.739  18.429 -0.31 -0.04    +0.137 C  BRANCH  25  26ATOM     26  C   UNL     1      35.000  45.897  18.026 -0.40 -0.06    +0.109 C  BRANCH  26  27ATOM     27  N   UNL     1      33.734  45.936  18.762 -0.32 +0.17    -0.315 NA ATOM     28  H   UNL     1      33.250  46.800  18.518 -0.21 -0.10    +0.122 HD BRANCH  27  29ATOM     29  C   UNL     1      32.824  44.810  18.531 -0.32 -0.02    +0.081 C  BRANCH  29  30ATOM     30  C   UNL     1      33.385  43.388  18.658 -0.41 -0.00    +0.019 C  BRANCH  30  31ATOM     31  C   UNL     1      34.413  43.153  19.771 -0.44 -0.00    +0.049 CG0ATOM     32  G   UNL     1      35.614  44.098  19.795 +0.00 +0.00    +0.000 G0 ENDBRANCH  30  31ENDBRANCH  29  30ENDBRANCH  27  29ENDBRANCH  26  27ENDBRANCH  25  26BRANCH  25  33ATOM     33  N   UNL     1      37.331  45.193  18.435 -0.14 +0.07    -0.344 N  ATOM     34  C   UNL     1      37.811  46.099  17.522 -0.23 -0.08    +0.251 C  ATOM     35  H   UNL     1      37.833  45.061  19.302 +0.09 -0.02    +0.164 HD ATOM     36  O   UNL     1      37.146  46.566  16.606 -0.26 +0.15    -0.269 OA BRANCH  34  37ATOM     37  C   UNL     1      39.222  46.515  17.704 -0.39 -0.01    +0.042 A  ATOM     38  C   UNL     1      39.870  46.177  18.891 -0.38 -0.00    +0.034 A  ATOM     39  C   UNL     1      39.888  47.264  16.736 -0.47 -0.01    +0.034 A  ATOM     40  C   UNL     1      41.181  46.585  19.049 -0.39 +0.00    +0.112 A  ATOM     41  C   UNL     1      41.196  47.628  16.995 -0.28 -0.01    +0.112 A  ATOM     42  N   UNL     1      41.858  47.299  18.125 -0.35 +0.01    -0.265 NA ENDBRANCH  34  37ENDBRANCH  25  33ENDBRANCH  23  25ENDBRANCH   1  23TORSDOF 9TERENDMDL