MODEL        6USER    Run = 6USERUSER    Estimated Free Energy of Binding    =  -8.02 kcal/mol  [=(1)+(2)+(3)-(4)]USERUSER    (1) Final Intermolecular Energy     = -12.20 kcal/molUSER        vdW + Hbond + desolv Energy     = -12.20 kcal/molUSER        Electrostatic Energy            =  -0.31 kcal/molUSER        Moving Ligand-Fixed Receptor    = -12.51 kcal/molUSER        Moving Ligand-Moving Receptor   =  +0.31 kcal/molUSER    (2) Final Total Internal Energy     =  -2.76 kcal/molUSER    (3) Torsional Free Energy           =  +4.18 kcal/molUSER    (4) Unbound System's Energy         =  -2.76 kcal/molUSERUSERREMARK SMILES COc1ccc(O)c(C(=O)c2ccc(C(=O)N[C@@H]3CCCNC[C@H]3NC(=O)c3ccncc3)cc2)c1FREMARK SMILES IDX 15 1 16 2 17 3 14 5 11 6 12 7 35 8 13 9 34 10 9 11 10 12REMARK SMILES IDX 8 13 3 14 4 15 36 16 5 17 6 18 37 19 2 20 1 21 7 22 18 24REMARK SMILES IDX 19 25 24 27 23 28 22 29 21 31 20 32 25 34 26 35 27 37 28 38REMARK SMILES IDX 29 39 33 40 30 41 32 42 31 43REMARK H PARENT 17 4 7 23 22 30 25 36REMARK Flexibility Score:   88.900USER                              x       y       z     vdW  Elec       q    TypeUSER                           _______ _______ _______ _____ _____    ______ ____ROOTATOM      1  C   UNL     1      39.984  46.003  16.088 -0.18 -0.03    +0.251 C  ATOM      2  O   UNL     1      40.678  45.884  15.084 -0.42 -0.00    -0.269 OA ATOM      3  N   UNL     1      38.605  45.943  16.067 -0.14 +0.10    -0.347 N  ATOM      4  H   UNL     1      38.105  46.254  16.888 +0.10 -0.06    +0.164 HD ENDROOTBRANCH   1   5ATOM      5  C   UNL     1      40.612  46.301  17.405 -0.46 -0.00    +0.039 A  ATOM      6  C   UNL     1      41.814  46.723  19.903 -0.35 +0.00    +0.023 A  ATOM      7  C   UNL     1      40.983  45.616  19.703 -0.41 +0.00    +0.013 A  ATOM      8  C   UNL     1      42.043  47.621  18.853 -0.36 +0.00    +0.013 A  ATOM      9  C   UNL     1      40.374  45.413  18.462 -0.45 -0.00    +0.014 A  ATOM     10  C   UNL     1      41.434  47.416  17.608 -0.44 -0.00    +0.014 A  BRANCH   6  11ATOM     11  C   UNL     1      42.497  46.852  21.208 -0.27 +0.04    +0.199 C  ATOM     12  O   UNL     1      43.694  46.565  21.266 -0.31 -0.16    -0.288 OA BRANCH  11  13ATOM     13  C   UNL     1      41.845  47.349  22.442 -0.10 +0.01    +0.104 A  ATOM     14  C   UNL     1      40.054  47.289  24.099 -0.21 +0.02    +0.155 A  ATOM     15  C   UNL     1      40.664  48.333  24.799 -0.28 +0.01    +0.053 A  ATOM     16  C   UNL     1      40.654  46.803  22.925 -0.09 +0.02    +0.179 A  ATOM     17  C   UNL     1      41.871  48.869  24.341 -0.37 +0.01    +0.051 A  ATOM     18  C   UNL     1      42.460  48.370  23.181 -0.29 +0.03    +0.130 A  ATOM     19  F   UNL     1      40.074  45.775  22.286 -0.06 -0.01    -0.202 F  BRANCH  14  20ATOM     20  O   UNL     1      38.883  46.674  24.457 -0.11 -0.05    -0.494 OA ATOM     21  C   UNL     1      37.990  47.411  25.287 -0.24 +0.03    +0.278 C  ENDBRANCH  14  20BRANCH  18  22ATOM     22  O   UNL     1      43.656  48.935  22.826 -0.49 -0.16    -0.507 OA ATOM     23  H   UNL     1      43.875  48.614  21.919 -0.45 -0.00    +0.293 HD ENDBRANCH  18  22ENDBRANCH  11  13ENDBRANCH   6  11ENDBRANCH   1   5BRANCH   3  24ATOM     24  C   UNL     1      37.871  45.935  14.795 -0.38 -0.04    +0.106 C  BRANCH  24  25ATOM     25  C   UNL     1      38.490  46.956  13.832 -0.49 -0.01    +0.028 CG0ATOM     26  G   UNL     1      37.614  48.176  13.500 +0.00 +0.00    +0.000 G0 ENDBRANCH  24  25BRANCH  24  27ATOM     27  C   UNL     1      36.351  46.145  15.047 -0.36 -0.08    +0.118 C  BRANCH  27  28ATOM     28  C   UNL     1      35.465  46.083  13.779 -0.41 -0.07    +0.108 C  BRANCH  28  29ATOM     29  N   UNL     1      35.274  47.333  13.035 -0.21 +0.23    -0.315 NA ATOM     30  H   UNL     1      34.599  47.190  12.287 -0.18 -0.13    +0.122 HD BRANCH  29  31ATOM     31  C   UNL     1      36.479  47.955  12.500 -0.63 -0.03    +0.081 C  BRANCH  31  32ATOM     32  C   UNL     1      37.615  48.175  13.496 -0.55 -0.01    +0.017 CG0ATOM     33  G   UNL     1      38.492  46.958  13.832 +0.00 +0.00    +0.000 G0 ENDBRANCH  31  32ENDBRANCH  29  31ENDBRANCH  28  29ENDBRANCH  27  28BRANCH  27  34ATOM     34  N   UNL     1      35.873  45.206  16.070 -0.10 +0.19    -0.346 N  ATOM     35  C   UNL     1      35.794  45.564  17.396 -0.23 -0.13    +0.251 C  ATOM     36  H   UNL     1      35.350  44.406  15.750 +0.11 -0.08    +0.164 HD ATOM     37  O   UNL     1      36.191  46.636  17.834 -0.03 +0.16    -0.269 OA BRANCH  35  38ATOM     38  C   UNL     1      35.159  44.581  18.307 -0.31 -0.01    +0.042 A  ATOM     39  C   UNL     1      33.807  44.741  18.615 -0.38 -0.01    +0.034 A  ATOM     40  C   UNL     1      35.878  43.529  18.877 -0.33 -0.01    +0.034 A  ATOM     41  C   UNL     1      33.223  43.825  19.467 -0.37 -0.01    +0.112 A  ATOM     42  C   UNL     1      35.200  42.667  19.720 -0.36 -0.01    +0.112 A  ATOM     43  N   UNL     1      33.888  42.789  20.022 -0.61 -0.03    -0.265 NA ENDBRANCH  35  38ENDBRANCH  27  34ENDBRANCH  24  27ENDBRANCH   3  24TORSDOF 8TERENDMDL