MODEL        10USER    Run = 10USERUSER    Estimated Free Energy of Binding    =  -6.55 kcal/mol  [=(1)+(2)+(3)-(4)]USERUSER    (1) Final Intermolecular Energy     = -11.02 kcal/molUSER        vdW + Hbond + desolv Energy     = -11.40 kcal/molUSER        Electrostatic Energy            =  -0.09 kcal/molUSER        Moving Ligand-Fixed Receptor    = -11.49 kcal/molUSER        Moving Ligand-Moving Receptor   =  +0.47 kcal/molUSER    (2) Final Total Internal Energy     =  -3.47 kcal/molUSER    (3) Torsional Free Energy           =  +4.47 kcal/molUSER    (4) Unbound System's Energy         =  -3.47 kcal/molUSERUSERREMARK SMILES COc1ccc(O)c(C(=O)c2ccc(CO[C@@H]3CCCNC[C@@H]3NC(=O)c3ccncc3)cc2)c1FREMARK SMILES IDX 16 1 15 2 14 3 11 4 12 5 34 6 13 7 33 8 9 9 10 10 8 11 3 12REMARK SMILES IDX 4 13 35 14 5 15 6 16 36 17 2 18 1 19 7 20 17 22 18 23 23 25REMARK SMILES IDX 22 26 21 27 20 29 19 30 24 32 25 33 26 35 27 36 28 37 32 38REMARK SMILES IDX 29 39 31 40 30 41REMARK H PARENT 7 21 21 28 24 34REMARK Flexibility Score:   99.900USER                              x       y       z     vdW  Elec       q    TypeUSER                           _______ _______ _______ _____ _____    ______ ____ROOTATOM      1  O   UNL     1      33.749  41.324  17.477 -0.24 +0.17    -0.371 OA ENDROOTBRANCH   1   2ATOM      2  C   UNL     1      34.445  42.223  18.338 -0.33 -0.04    +0.196 C  BRANCH   2   3ATOM      3  C   UNL     1      35.000  43.344  17.499 -0.33 +0.01    -0.022 A  ATOM      4  C   UNL     1      36.006  45.450  15.934 -0.33 -0.01    +0.023 A  ATOM      5  C   UNL     1      35.381  45.722  17.155 -0.35 -0.01    +0.012 A  ATOM      6  C   UNL     1      36.157  44.125  15.512 -0.38 -0.00    +0.012 A  ATOM      7  C   UNL     1      34.876  44.674  17.927 -0.33 -0.00    +0.007 A  ATOM      8  C   UNL     1      35.652  43.078  16.287 -0.44 -0.00    +0.007 A  BRANCH   4   9ATOM      9  C   UNL     1      36.587  46.527  15.097 -0.31 -0.13    +0.199 C  ATOM     10  O   UNL     1      35.897  47.034  14.209 -0.30 +0.23    -0.288 OA BRANCH   9  11ATOM     11  C   UNL     1      37.985  46.989  15.226 -0.35 -0.05    +0.104 A  ATOM     12  C   UNL     1      40.181  46.902  16.284 -0.37 -0.03    +0.155 A  ATOM     13  C   UNL     1      40.637  47.896  15.414 -0.50 -0.01    +0.053 A  ATOM     14  C   UNL     1      38.853  46.463  16.185 -0.29 -0.05    +0.179 A  ATOM     15  C   UNL     1      39.768  48.454  14.473 -0.45 -0.02    +0.051 A  ATOM     16  C   UNL     1      38.449  48.013  14.391 -0.42 -0.05    +0.130 A  ATOM     17  F   UNL     1      38.416  45.532  17.049 -0.08 +0.05    -0.202 F  BRANCH  12  18ATOM     18  O   UNL     1      40.932  46.294  17.253 -0.14 +0.04    -0.494 OA ATOM     19  C   UNL     1      40.592  46.564  18.608 -0.32 -0.02    +0.278 C  ENDBRANCH  12  18BRANCH  16  20ATOM     20  O   UNL     1      37.657  48.634  13.463 -0.47 +0.18    -0.507 OA ATOM     21  H   UNL     1      36.721  48.394  13.657 +0.23 -0.17    +0.293 HD ENDBRANCH  16  20ENDBRANCH   9  11ENDBRANCH   4   9ENDBRANCH   2   3ENDBRANCH   1   2BRANCH   1  22ATOM     22  C   UNL     1      32.696  40.592  18.142 -0.34 -0.03    +0.142 C  BRANCH  22  23ATOM     23  C   UNL     1      32.796  39.168  17.576 -0.34 -0.01    +0.035 CG0ATOM     24  G   UNL     1      32.201  38.008  18.366 +0.00 +0.00    +0.000 G0 ENDBRANCH  22  23BRANCH  22  25ATOM     25  C   UNL     1      31.347  41.317  17.917 -0.30 -0.02    +0.125 C  BRANCH  25  26ATOM     26  C   UNL     1      30.177  40.305  17.845 -0.31 -0.00    +0.108 C  BRANCH  26  27ATOM     27  N   UNL     1      30.135  39.274  18.880 -0.14 -0.04    -0.315 NA ATOM     28  H   UNL     1      29.168  39.171  19.192 +0.07 +0.02    +0.122 HD BRANCH  27  29ATOM     29  C   UNL     1      30.686  37.988  18.477 -0.42 +0.03    +0.081 C  BRANCH  29  30ATOM     30  C   UNL     1      32.203  38.009  18.364 -0.54 +0.00    +0.018 CG0ATOM     31  G   UNL     1      32.802  39.170  17.578 +0.00 +0.00    +0.000 G0 ENDBRANCH  29  30ENDBRANCH  27  29ENDBRANCH  26  27ENDBRANCH  25  26BRANCH  25  32ATOM     32  N   UNL     1      31.422  42.234  16.770 -0.10 +0.14    -0.345 N  ATOM     33  C   UNL     1      30.942  43.525  16.853 -0.18 -0.07    +0.251 C  ATOM     34  H   UNL     1      32.235  42.104  16.180 -0.41 -0.11    +0.164 HD ATOM     35  O   UNL     1      30.336  43.965  17.821 -0.04 +0.02    -0.269 OA BRANCH  33  36ATOM     36  C   UNL     1      31.235  44.411  15.693 -0.33 -0.02    +0.042 A  ATOM     37  C   UNL     1      32.511  44.966  15.591 -0.34 -0.02    +0.034 A  ATOM     38  C   UNL     1      30.269  44.723  14.738 -0.27 -0.03    +0.034 A  ATOM     39  C   UNL     1      32.772  45.802  14.521 -0.12 -0.10    +0.112 A  ATOM     40  C   UNL     1      30.630  45.573  13.706 -0.41 -0.09    +0.112 A  ATOM     41  N   UNL     1      31.859  46.113  13.575 -0.35 +0.18    -0.265 NA ENDBRANCH  33  36ENDBRANCH  25  32ENDBRANCH  22  25ENDBRANCH   1  22TORSDOF 9TERENDMDL