MODEL        7USER    Run = 7USERUSER    Estimated Free Energy of Binding    =  -7.43 kcal/mol  [=(1)+(2)+(3)-(4)]USERUSER    (1) Final Intermolecular Energy     = -11.90 kcal/molUSER        vdW + Hbond + desolv Energy     = -11.97 kcal/molUSER        Electrostatic Energy            =  -0.30 kcal/molUSER        Moving Ligand-Fixed Receptor    = -12.27 kcal/molUSER        Moving Ligand-Moving Receptor   =  +0.36 kcal/molUSER    (2) Final Total Internal Energy     =  -1.36 kcal/molUSER    (3) Torsional Free Energy           =  +4.47 kcal/molUSER    (4) Unbound System's Energy         =  -1.36 kcal/molUSERUSERREMARK SMILES COc1ccc(O)c(C(=O)c2ccc(/C=C/[C@@H]3CCCNC[C@H]3NC(=O)c3ccncc3)cc2)c1FREMARK SMILES IDX 16 1 15 2 14 3 11 4 12 5 34 6 13 7 33 8 9 9 10 10 8 11 3 12REMARK SMILES IDX 4 13 35 14 5 15 6 16 36 17 2 18 1 19 7 20 17 22 18 23 23 25REMARK SMILES IDX 22 26 21 27 20 29 19 30 24 32 25 33 26 35 27 36 28 37 32 38REMARK SMILES IDX 29 39 31 40 30 41REMARK H PARENT 7 21 21 28 24 34REMARK Flexibility Score:   99.900USER                              x       y       z     vdW  Elec       q    TypeUSER                           _______ _______ _______ _____ _____    ______ ____ROOTATOM      1  C   UNL     1      37.075  45.773  17.551 -0.39 +0.01    -0.021 C  ENDROOTBRANCH   1   2ATOM      2  C   UNL     1      36.667  44.622  18.108 -0.39 -0.00    +0.004 C  BRANCH   2   3ATOM      3  C   UNL     1      35.377  43.989  17.805 -0.29 +0.01    -0.026 A  ATOM      4  C   UNL     1      32.950  42.706  17.218 -0.33 -0.01    +0.023 A  ATOM      5  C   UNL     1      34.135  42.264  16.622 -0.31 -0.01    +0.013 A  ATOM      6  C   UNL     1      32.980  43.761  18.135 -0.32 -0.00    +0.013 A  ATOM      7  C   UNL     1      35.344  42.903  16.921 -0.42 -0.00    +0.009 A  ATOM      8  C   UNL     1      34.187  44.403  18.419 -0.35 -0.00    +0.009 A  BRANCH   4   9ATOM      9  C   UNL     1      31.660  42.036  16.951 -0.19 -0.08    +0.199 C  ATOM     10  O   UNL     1      30.923  42.493  16.076 -0.22 +0.14    -0.288 OA BRANCH   9  11ATOM     11  C   UNL     1      31.186  40.866  17.725 -0.28 -0.02    +0.104 A  ATOM     12  C   UNL     1      31.340  39.371  19.645 -0.31 +0.02    +0.155 A  ATOM     13  C   UNL     1      30.255  38.641  19.159 -0.36 +0.01    +0.053 A  ATOM     14  C   UNL     1      31.799  40.480  18.918 -0.26 +0.00    +0.179 A  ATOM     15  C   UNL     1      29.653  39.002  17.951 -0.31 +0.02    +0.051 A  ATOM     16  C   UNL     1      30.125  40.097  17.235 -0.28 -0.00    +0.130 A  ATOM     17  F   UNL     1      32.869  41.150  19.376 -0.09 -0.02    -0.202 F  BRANCH  12  18ATOM     18  O   UNL     1      32.022  39.103  20.802 -1.05 -0.20    -0.494 OA ATOM     19  C   UNL     1      31.399  38.233  21.739 -0.33 +0.02    +0.278 C  ENDBRANCH  12  18BRANCH  16  20ATOM     20  O   UNL     1      29.497  40.363  16.047 -0.19 +0.04    -0.507 OA ATOM     21  H   UNL     1      30.100  40.925  15.507 +0.08 -0.11    +0.293 HD ENDBRANCH  16  20ENDBRANCH   9  11ENDBRANCH   4   9ENDBRANCH   2   3ENDBRANCH   1   2BRANCH   1  22ATOM     22  C   UNL     1      36.847  46.202  16.104 -0.41 -0.02    +0.035 C  BRANCH  22  23ATOM     23  C   UNL     1      35.552  45.511  15.632 -0.40 -0.01    +0.011 CG0ATOM     24  G   UNL     1      34.693  46.217  14.589 +0.00 +0.00    +0.000 G0 ENDBRANCH  22  23BRANCH  22  25ATOM     25  C   UNL     1      38.053  46.034  15.129 -0.38 -0.04    +0.103 C  BRANCH  25  26ATOM     26  C   UNL     1      37.569  45.690  13.690 -0.42 -0.04    +0.106 C  BRANCH  26  27ATOM     27  N   UNL     1      36.602  46.580  13.059 -0.30 +0.14    -0.315 NA ATOM     28  H   UNL     1      36.861  46.722  12.082 +0.08 -0.04    +0.122 HD BRANCH  27  29ATOM     29  C   UNL     1      35.213  46.158  13.160 -0.25 -0.05    +0.081 C  BRANCH  29  30ATOM     30  C   UNL     1      34.694  46.216  14.589 -0.38 -0.02    +0.016 CG0ATOM     31  G   UNL     1      35.553  45.506  15.629 +0.00 +0.00    +0.000 G0 ENDBRANCH  29  30ENDBRANCH  27  29ENDBRANCH  26  27ENDBRANCH  25  26BRANCH  25  32ATOM     32  N   UNL     1      38.864  47.259  15.067 -0.19 +0.12    -0.347 N  ATOM     33  C   UNL     1      40.239  47.217  14.999 -0.34 -0.04    +0.251 C  ATOM     34  H   UNL     1      38.385  48.130  14.882 +0.12 -0.08    +0.164 HD ATOM     35  O   UNL     1      40.886  46.178  14.989 -0.37 -0.02    -0.269 OA BRANCH  33  36ATOM     36  C   UNL     1      40.928  48.528  14.901 -0.53 -0.01    +0.042 A  ATOM     37  C   UNL     1      41.806  48.819  13.858 +0.05 -0.00    +0.034 A  ATOM     38  C   UNL     1      40.653  49.495  15.867 -0.58 -0.01    +0.034 A  ATOM     39  C   UNL     1      42.396  50.069  13.844 -0.57 -0.02    +0.112 A  ATOM     40  C   UNL     1      41.297  50.713  15.764 -0.12 -0.04    +0.112 A  ATOM     41  N   UNL     1      42.170  51.017  14.779 -0.41 +0.05    -0.265 NA ENDBRANCH  33  36ENDBRANCH  25  32ENDBRANCH  22  25ENDBRANCH   1  22TORSDOF 9TERENDMDL