MODEL        1USER    Run = 1USERUSER    Estimated Free Energy of Binding    = -12.89 kcal/mol  [=(1)+(2)+(3)-(4)]USERUSER    (1) Final Intermolecular Energy     = -15.28 kcal/molUSER        vdW + Hbond + desolv Energy     = -15.16 kcal/molUSER        Electrostatic Energy            =  -0.12 kcal/molUSER        Moving Ligand-Fixed Receptor    = -15.28 kcal/molUSER        Moving Ligand-Moving Receptor   =  +0.00 kcal/molUSER    (2) Final Total Internal Energy     =  -2.51 kcal/molUSER    (3) Torsional Free Energy           =  +2.39 kcal/molUSER    (4) Unbound System's Energy         =  -2.51 kcal/molUSERUSERREMARK SMILES N#Cc1cnc(-c2ccc(CNCc3ccc(-c4csnn4)cc3)cc2)c(-c2ccccc2)c1REMARK SMILES IDX 11 1 10 2 7 3 8 4 26 5 9 6 25 7 6 8 3 9 4 10 34 11 5 12REMARK SMILES IDX 27 13 2 14 1 15 28 16 29 17 33 18 30 19 32 20 31 21 12 22REMARK SMILES IDX 13 24 14 25 15 26 24 27 16 28 23 29 17 30 18 31 19 32 22 33REMARK SMILES IDX 20 34 21 35REMARK H PARENT 12 23USER                              x       y       z     vdW  Elec       q    TypeUSER                           _______ _______ _______ _____ _____    ______ ____ROOTATOM      1  C   UNL     1      36.337  43.263  20.295 -0.41 -0.00    +0.117 C  ENDROOTBRANCH   1   2ATOM      2  C   UNL     1      35.454  43.786  19.187 -0.36 +0.01    -0.034 A  ATOM      3  C   UNL     1      33.822  44.759  17.076 -0.32 -0.00    +0.001 A  ATOM      4  C   UNL     1      34.211  45.591  18.140 -0.44 -0.01    +0.011 A  ATOM      5  C   UNL     1      34.255  43.423  17.102 -0.34 -0.00    +0.011 A  ATOM      6  C   UNL     1      35.020  45.117  19.178 -0.32 -0.00    +0.006 A  ATOM      7  C   UNL     1      35.067  42.946  18.136 -0.36 -0.00    +0.006 A  BRANCH   3   8ATOM      8  C   UNL     1      32.969  45.286  15.991 -0.26 -0.06    +0.078 A  ATOM      9  C   UNL     1      31.136  46.171  14.118 -0.51 -0.05    +0.071 A  ATOM     10  C   UNL     1      30.759  45.677  15.351 -0.36 -0.06    +0.131 A  ATOM     11  C   UNL     1      32.498  46.230  13.828 -0.15 -0.03    +0.032 A  ATOM     12  N   UNL     1      31.636  45.244  16.284 -0.65 +0.10    -0.254 NA ATOM     13  C   UNL     1      33.454  45.790  14.766 -0.14 -0.01    +0.009 A  BRANCH   9  14ATOM     14  C   UNL     1      30.155  46.614  13.180 -0.58 -0.06    +0.101 C  ATOM     15  N   UNL     1      29.360  46.975  12.417 -0.71 +0.09    -0.192 NA ENDBRANCH   9  14BRANCH  13  16ATOM     16  C   UNL     1      34.883  45.914  14.432 -0.34 +0.01    -0.016 A  ATOM     17  C   UNL     1      35.818  44.982  14.917 -0.34 -0.00    +0.009 A  ATOM     18  C   UNL     1      35.349  46.952  13.609 -0.42 -0.01    +0.009 A  ATOM     19  C   UNL     1      37.174  45.092  14.599 -0.39 -0.00    +0.001 A  ATOM     20  C   UNL     1      36.705  47.064  13.292 -0.58 -0.00    +0.001 A  ATOM     21  C   UNL     1      37.617  46.134  13.787 -0.45 -0.00    +0.000 A  ENDBRANCH  13  16ENDBRANCH   3   8ENDBRANCH   1   2BRANCH   1  22ATOM     22  N   UNL     1      37.265  44.301  20.743 -0.20 +0.00    -0.309 NA ATOM     23  H   UNL     1      37.257  44.315  21.762 +0.06 +0.01    +0.123 HD BRANCH  22  24ATOM     24  C   UNL     1      38.632  44.057  20.282 -0.24 -0.00    +0.117 C  BRANCH  24  25ATOM     25  C   UNL     1      39.114  45.070  19.271 -0.38 +0.00    -0.034 A  ATOM     26  C   UNL     1      38.342  45.383  18.145 -0.39 -0.00    +0.006 A  ATOM     27  C   UNL     1      40.354  45.701  19.430 -0.42 +0.00    +0.006 A  ATOM     28  C   UNL     1      38.796  46.316  17.205 -0.41 -0.00    +0.011 A  ATOM     29  C   UNL     1      40.808  46.631  18.491 -0.48 -0.00    +0.011 A  ATOM     30  C   UNL     1      40.033  46.956  17.369 -0.49 -0.00    +0.003 A  BRANCH  30  31ATOM     31  C   UNL     1      40.535  47.934  16.408 -0.47 -0.02    +0.105 A  ATOM     32  C   UNL     1      40.195  47.965  15.065 -0.44 -0.03    +0.118 A  ATOM     33  N   UNL     1      41.404  48.949  16.803 -1.01 -0.00    -0.138 NA ATOM     34  S   UNL     1      41.021  49.292  14.355 -0.82 +0.00    -0.020 S  ATOM     35  N   UNL     1      41.742  49.736  15.796 -1.05 -0.00    -0.091 NA ENDBRANCH  30  31ENDBRANCH  24  25ENDBRANCH  22  24ENDBRANCH   1  22TORSDOF 8TERENDMDL