MODEL        5USER    Run = 5USERUSER    Estimated Free Energy of Binding    = -12.38 kcal/mol  [=(1)+(2)+(3)-(4)]USERUSER    (1) Final Intermolecular Energy     = -14.17 kcal/molUSER        vdW + Hbond + desolv Energy     = -13.88 kcal/molUSER        Electrostatic Energy            =  -0.29 kcal/molUSER        Moving Ligand-Fixed Receptor    = -14.17 kcal/molUSER        Moving Ligand-Moving Receptor   =  +0.00 kcal/molUSER    (2) Final Total Internal Energy     =  -1.85 kcal/molUSER    (3) Torsional Free Energy           =  +1.79 kcal/molUSER    (4) Unbound System's Energy         =  -1.85 kcal/molUSERUSERREMARK SMILES Oc1nc2ccccc2n1C1CCN(Cc2ccc(-c3cc4ccccc4nc3-c3ccccc3)cc2)CC1REMARK SMILES IDX 11 1 12 2 13 3 14 4 38 5 39 6 10 7 2 8 3 9 4 10 9 11 5 12REMARK SMILES IDX 8 13 6 14 7 15 1 16 15 18 16 19 17 20 37 21 18 22 36 23REMARK SMILES IDX 19 24 20 25 21 26 29 27 22 28 28 29 23 30 27 31 24 32 26 33REMARK SMILES IDX 25 34 30 35 31 36 35 37 32 38 34 39 33 40REMARK H PARENT 1 17USER                              x       y       z     vdW  Elec       q    TypeUSER                           _______ _______ _______ _____ _____    ______ ____ROOTATOM      1  C   UNL     1      28.052  41.605  15.967 -0.28 -0.03    +0.095 C  ATOM      2  C   UNL     1      29.285  40.788  15.556 -0.42 -0.01    +0.041 C  ATOM      3  C   UNL     1      30.481  40.928  16.492 -0.34 -0.03    +0.087 C  ATOM      4  N   UNL     1      30.779  42.308  16.882 -0.12 +0.10    -0.299 NA ATOM      5  C   UNL     1      29.621  42.922  17.537 -0.21 -0.02    +0.087 C  ATOM      6  C   UNL     1      28.348  42.925  16.695 -0.26 -0.01    +0.041 C  ENDROOTBRANCH   1   7ATOM      7  N   UNL     1      26.981  40.812  16.567 -0.12 +0.01    -0.291 N  ATOM      8  C   UNL     1      26.241  39.889  15.866 -0.09 +0.06    +0.295 A  ATOM      9  N   UNL     1      25.316  39.309  16.577 -0.60 -0.02    -0.195 NA ATOM     10  C   UNL     1      25.449  39.867  17.819 -0.27 -0.00    +0.092 A  ATOM     11  C   UNL     1      26.489  40.807  17.857 -0.20 -0.00    +0.072 A  ATOM     12  C   UNL     1      24.697  39.605  18.977 -0.30 -0.01    +0.031 A  ATOM     13  C   UNL     1      26.805  41.489  19.039 -0.17 -0.00    +0.029 A  ATOM     14  C   UNL     1      25.005  40.287  20.156 -0.33 -0.00    +0.002 A  ATOM     15  C   UNL     1      26.044  41.212  20.183 -0.34 -0.00    +0.002 A  BRANCH   8  16ATOM     16  O   UNL     1      26.415  39.589  14.595 -0.69 -0.13    -0.480 OA ATOM     17  H   UNL     1      26.532  40.476  14.208 +0.14 -0.15    +0.296 HD ENDBRANCH   8  16ENDBRANCH   1   7BRANCH   4  18ATOM     18  C   UNL     1      31.320  43.099  15.764 -0.33 -0.06    +0.120 C  BRANCH  18  19ATOM     19  C   UNL     1      32.710  43.635  16.030 -0.31 +0.02    -0.034 A  ATOM     20  C   UNL     1      32.987  45.004  15.923 -0.34 -0.00    +0.006 A  ATOM     21  C   UNL     1      33.747  42.763  16.390 -0.32 -0.00    +0.006 A  ATOM     22  C   UNL     1      34.275  45.489  16.169 -0.31 -0.01    +0.009 A  ATOM     23  C   UNL     1      35.035  43.249  16.627 -0.40 -0.00    +0.009 A  ATOM     24  C   UNL     1      35.319  44.617  16.515 -0.31 +0.01    -0.016 A  BRANCH  24  25ATOM     25  C   UNL     1      36.673  45.128  16.774 -0.34 -0.00    +0.009 A  ATOM     26  C   UNL     1      37.245  44.939  18.041 -0.34 -0.01    +0.021 A  ATOM     27  C   UNL     1      37.464  45.774  15.810 -0.31 -0.03    +0.079 A  ATOM     28  C   UNL     1      38.549  45.369  18.314 -0.40 -0.00    +0.001 A  ATOM     29  N   UNL     1      38.741  46.185  16.058 -0.21 +0.07    -0.247 NA ATOM     30  C   UNL     1      39.142  45.187  19.576 -0.39 -0.00    +0.010 A  ATOM     31  C   UNL     1      39.266  45.991  17.277 -0.38 -0.01    +0.071 A  ATOM     32  C   UNL     1      40.445  45.621  19.813 -0.41 +0.00    +0.001 A  ATOM     33  C   UNL     1      40.564  46.414  17.537 -0.48 -0.00    +0.029 A  ATOM     34  C   UNL     1      41.159  46.236  18.790 -0.49 +0.00    +0.002 A  BRANCH  27  35ATOM     35  C   UNL     1      37.009  46.079  14.440 -0.41 -0.00    +0.001 A  ATOM     36  C   UNL     1      36.974  45.070  13.460 -0.46 -0.00    +0.010 A  ATOM     37  C   UNL     1      36.619  47.375  14.061 -0.50 -0.01    +0.010 A  ATOM     38  C   UNL     1      36.543  45.342  12.159 -0.57 -0.00    +0.001 A  ATOM     39  C   UNL     1      36.188  47.649  12.760 -0.66 -0.00    +0.001 A  ATOM     40  C   UNL     1      36.146  46.630  11.810 -0.64 -0.00    +0.000 A  ENDBRANCH  27  35ENDBRANCH  24  25ENDBRANCH  18  19ENDBRANCH   4  18TORSDOF 6TERENDMDL