MODEL        5USER    Run = 5USERUSER    Estimated Free Energy of Binding    = -13.49 kcal/mol  [=(1)+(2)+(3)-(4)]USERUSER    (1) Final Intermolecular Energy     = -15.28 kcal/molUSER        vdW + Hbond + desolv Energy     = -15.15 kcal/molUSER        Electrostatic Energy            =  -0.14 kcal/molUSER        Moving Ligand-Fixed Receptor    = -15.28 kcal/molUSER        Moving Ligand-Moving Receptor   =  +0.00 kcal/molUSER    (2) Final Total Internal Energy     =  -2.73 kcal/molUSER    (3) Torsional Free Energy           =  +1.79 kcal/molUSER    (4) Unbound System's Energy         =  -2.73 kcal/molUSERUSERREMARK SMILES Oc1nc2ccccc2n1C1CCN(Cc2ccc(-c3nc4ccccc4nc3-c3ccccc3)cc2)CC1REMARK SMILES IDX 11 1 12 2 13 3 14 4 38 5 39 6 10 7 2 8 3 9 4 10 9 11 5 12REMARK SMILES IDX 8 13 6 14 7 15 1 16 15 18 16 19 17 20 37 21 18 22 36 23REMARK SMILES IDX 19 24 20 25 21 26 29 27 22 28 28 29 23 30 27 31 24 32 26 33REMARK SMILES IDX 25 34 30 35 31 36 35 37 32 38 34 39 33 40REMARK H PARENT 1 17USER                              x       y       z     vdW  Elec       q    TypeUSER                           _______ _______ _______ _____ _____    ______ ____ROOTATOM      1  C   UNL     1      38.536  47.225  15.290 -0.45 -0.04    +0.095 C  ATOM      2  C   UNL     1      37.592  48.407  15.014 -0.57 -0.03    +0.041 C  ATOM      3  C   UNL     1      37.029  48.366  13.593 -0.56 -0.04    +0.087 C  ATOM      4  N   UNL     1      36.592  47.033  13.168 -0.35 +0.14    -0.299 NA ATOM      5  C   UNL     1      37.660  46.024  13.266 -0.42 -0.03    +0.087 C  ATOM      6  C   UNL     1      38.921  46.487  14.003 -0.35 -0.01    +0.041 C  ENDROOTBRANCH   1   7ATOM      7  N   UNL     1      39.688  47.606  16.093 -0.27 +0.08    -0.291 N  ATOM      8  C   UNL     1      40.479  48.706  15.909 -0.33 -0.07    +0.295 A  ATOM      9  N   UNL     1      41.440  48.805  16.785 -0.95 -0.00    -0.195 NA ATOM     10  C   UNL     1      41.269  47.714  17.602 -0.45 -0.01    +0.092 A  ATOM     11  C   UNL     1      40.176  46.943  17.201 -0.45 -0.01    +0.072 A  ATOM     12  C   UNL     1      42.016  47.320  18.724 -0.52 +0.00    +0.031 A  ATOM     13  C   UNL     1      39.785  45.780  17.881 -0.43 -0.00    +0.029 A  ATOM     14  C   UNL     1      41.642  46.161  19.414 -0.45 +0.00    +0.002 A  ATOM     15  C   UNL     1      40.545  45.407  18.997 -0.45 +0.00    +0.002 A  BRANCH   8  16ATOM     16  O   UNL     1      40.310  49.603  14.959 -0.20 +0.22    -0.480 OA ATOM     17  H   UNL     1      39.581  50.136  15.327 -0.20 -0.24    +0.296 HD ENDBRANCH   8  16ENDBRANCH   1   7BRANCH   4  18ATOM     18  C   UNL     1      35.351  46.573  13.814 -0.44 -0.09    +0.120 C  BRANCH  18  19ATOM     19  C   UNL     1      35.569  45.902  15.152 -0.35 +0.03    -0.034 A  ATOM     20  C   UNL     1      35.455  46.628  16.343 -0.23 -0.01    +0.006 A  ATOM     21  C   UNL     1      35.905  44.544  15.220 -0.34 -0.00    +0.006 A  ATOM     22  C   UNL     1      35.654  46.000  17.577 -0.36 -0.01    +0.011 A  ATOM     23  C   UNL     1      36.102  43.919  16.454 -0.36 -0.00    +0.011 A  ATOM     24  C   UNL     1      35.964  44.632  17.657 -0.32 -0.00    +0.002 A  BRANCH  24  25ATOM     25  C   UNL     1      36.151  43.986  18.966 -0.29 -0.02    +0.097 A  ATOM     26  N   UNL     1      37.313  44.336  19.591 -0.22 +0.02    -0.244 NA ATOM     27  C   UNL     1      35.258  43.073  19.550 -0.35 -0.01    +0.097 A  ATOM     28  C   UNL     1      37.585  43.747  20.769 -0.31 -0.00    +0.089 A  ATOM     29  N   UNL     1      35.549  42.472  20.740 -0.31 -0.01    -0.244 NA ATOM     30  C   UNL     1      38.763  44.064  21.436 -0.30 +0.00    +0.030 A  ATOM     31  C   UNL     1      36.701  42.809  21.344 -0.39 +0.00    +0.089 A  ATOM     32  C   UNL     1      39.086  43.474  22.659 -0.28 +0.00    +0.002 A  ATOM     33  C   UNL     1      37.032  42.226  22.561 -0.47 +0.00    +0.030 A  ATOM     34  C   UNL     1      38.216  42.551  23.224 -0.33 +0.00    +0.002 A  BRANCH  27  35ATOM     35  C   UNL     1      33.951  42.685  18.990 -0.40 -0.00    +0.002 A  ATOM     36  C   UNL     1      32.815  43.482  19.221 -0.41 -0.00    +0.010 A  ATOM     37  C   UNL     1      33.793  41.538  18.191 -0.35 -0.00    +0.010 A  ATOM     38  C   UNL     1      31.566  43.135  18.697 -0.29 -0.00    +0.001 A  ATOM     39  C   UNL     1      32.544  41.187  17.669 -0.36 -0.00    +0.001 A  ATOM     40  C   UNL     1      31.431  41.984  17.924 -0.30 -0.00    +0.000 A  ENDBRANCH  27  35ENDBRANCH  24  25ENDBRANCH  18  19ENDBRANCH   4  18TORSDOF 6TERENDMDL