MODEL        5USER    Run = 5USERUSER    Estimated Free Energy of Binding    = -12.51 kcal/mol  [=(1)+(2)+(3)-(4)]USERUSER    (1) Final Intermolecular Energy     = -14.30 kcal/molUSER        vdW + Hbond + desolv Energy     = -14.18 kcal/molUSER        Electrostatic Energy            =  -0.12 kcal/molUSER        Moving Ligand-Fixed Receptor    = -14.30 kcal/molUSER        Moving Ligand-Moving Receptor   =  +0.00 kcal/molUSER    (2) Final Total Internal Energy     =  -0.58 kcal/molUSER    (3) Torsional Free Energy           =  +1.79 kcal/molUSER    (4) Unbound System's Energy         =  -0.58 kcal/molUSERUSERREMARK SMILES Cn1ccc2ccc3c4[nH]c5c(CCCN[C@H]6CC[C@H](O)CC6)cccc5c4c4c(c3c21)C(=O)NC4=OREMARK SMILES IDX 15 1 14 2 13 3 12 4 2 5 3 6 32 7 4 8 31 9 5 10 30 11 8 12REMARK SMILES IDX 6 13 29 14 33 15 7 16 9 17 28 18 36 19 35 20 10 21 27 22REMARK SMILES IDX 11 23 26 24 25 25 24 26 1 27 34 28 37 29 16 32 17 34 23 35REMARK SMILES IDX 18 36 22 37 19 38 20 39 21 40REMARK H PARENT 35 30 10 31 16 33 21 41USER                              x       y       z     vdW  Elec       q    TypeUSER                           _______ _______ _______ _____ _____    ______ ____ROOTATOM      1  C   UNL     1      38.714  45.784  23.334 -0.32 +0.01    +0.081 C  ENDROOTBRANCH   1   2ATOM      2  C   UNL     1      38.777  44.619  22.341 -0.35 +0.00    +0.020 C  BRANCH   2   3ATOM      3  C   UNL     1      40.209  44.265  21.922 -0.29 +0.00    +0.039 C  BRANCH   3   4ATOM      4  C   UNL     1      40.810  45.217  20.917 -0.33 -0.00    -0.024 A  ATOM      5  N   UNL     1      36.016  46.539  13.812 -0.21 +0.22    -0.350 N  ATOM      6  C   UNL     1      34.690  46.283  13.550 -0.16 -0.07    +0.086 A  ATOM      7  C   UNL     1      36.299  46.319  15.155 -0.34 -0.04    +0.057 A  ATOM      8  C   UNL     1      34.153  45.686  14.658 -0.15 -0.02    +0.028 A  ATOM      9  C   UNL     1      37.448  46.571  15.995 -0.38 -0.01    +0.022 A  ATOM     10  C   UNL     1      35.172  45.631  15.643 -0.34 -0.00    +0.000 A  ATOM     11  C   UNL     1      38.540  47.419  15.755 -0.41 -0.03    +0.063 A  ATOM     12  C   UNL     1      37.464  45.871  17.242 -0.36 -0.00    +0.009 A  ATOM     13  C   UNL     1      35.203  45.050  16.922 -0.31 -0.01    +0.011 A  ATOM     14  C   UNL     1      39.657  47.470  16.598 -0.44 -0.02    +0.063 A  ATOM     15  C   UNL     1      38.747  48.501  14.776 -0.38 -0.13    +0.259 C  ATOM     16  C   UNL     1      36.361  45.128  17.689 -0.33 -0.00    +0.012 A  ATOM     17  C   UNL     1      38.623  45.939  18.078 -0.34 -0.01    +0.055 A  ATOM     18  C   UNL     1      39.748  46.714  17.770 -0.43 -0.00    +0.022 A  ATOM     19  C   UNL     1      40.584  48.463  16.061 -0.44 -0.05    +0.259 C  ATOM     20  N   UNL     1      40.025  48.932  14.919 -0.32 +0.11    -0.288 N  ATOM     21  N   UNL     1      38.899  45.325  19.280 -0.18 +0.02    -0.354 N  ATOM     22  C   UNL     1      40.712  46.521  18.817 -0.44 -0.00    +0.008 A  ATOM     23  C   UNL     1      40.151  45.644  19.746 -0.36 +0.00    +0.050 A  ATOM     24  C   UNL     1      42.012  47.006  19.070 -0.52 +0.00    +0.011 A  ATOM     25  C   UNL     1      42.695  46.605  20.221 -0.39 +0.00    +0.001 A  ATOM     26  C   UNL     1      42.103  45.729  21.125 -0.31 +0.00    +0.006 A  ATOM     27  C   UNL     1      36.953  46.739  12.726 -0.57 -0.06    +0.149 C  ATOM     28  O   UNL     1      37.915  49.006  14.051 -0.36 +0.16    -0.269 OA ATOM     29  O   UNL     1      41.622  48.854  16.553 -0.96 -0.02    -0.269 OA ATOM     30  H   UNL     1      40.370  49.760  14.459 -0.02 -0.09    +0.173 HD ATOM     31  H   UNL     1      38.272  44.695  19.756 +0.10 -0.01    +0.167 HD ENDBRANCH   3   4ENDBRANCH   2   3ENDBRANCH   1   2BRANCH   1  32ATOM     32  N   UNL     1      37.674  45.512  24.329 -0.48 -0.06    -0.314 NA ATOM     33  H   UNL     1      37.637  46.269  25.011 +0.05 +0.02    +0.122 HD BRANCH  32  34ATOM     34  C   UNL     1      37.865  44.227  25.015 -0.29 +0.00    +0.053 C  ATOM     35  C   UNL     1      37.734  44.337  26.549 -0.31 -0.00    +0.021 C  ATOM     36  C   UNL     1      36.842  43.240  24.417 -0.40 +0.00    +0.021 C  ATOM     37  C   UNL     1      36.321  44.021  27.037 -0.46 -0.01    +0.033 C  ATOM     38  C   UNL     1      36.562  42.089  25.374 -0.46 -0.00    +0.033 C  ATOM     39  C   UNL     1      35.913  42.589  26.668 -0.47 -0.02    +0.114 C  BRANCH  39  40ATOM     40  O   UNL     1      36.288  41.695  27.715 -0.29 +0.14    -0.393 OA ATOM     41  H   UNL     1      36.130  42.150  28.560 -0.41 -0.14    +0.210 HD ENDBRANCH  39  40ENDBRANCH  32  34ENDBRANCH   1  32TORSDOF 6TERENDMDL