MODEL        8USER    Run = 8USERUSER    Estimated Free Energy of Binding    =  -7.08 kcal/mol  [=(1)+(2)+(3)-(4)]USERUSER    (1) Final Intermolecular Energy     = -11.56 kcal/molUSER        vdW + Hbond + desolv Energy     = -11.93 kcal/molUSER        Electrostatic Energy            =  -0.11 kcal/molUSER        Moving Ligand-Fixed Receptor    = -12.03 kcal/molUSER        Moving Ligand-Moving Receptor   =  +0.47 kcal/molUSER    (2) Final Total Internal Energy     =  -1.29 kcal/molUSER    (3) Torsional Free Energy           =  +4.47 kcal/molUSER    (4) Unbound System's Energy         =  -1.29 kcal/molUSERUSERREMARK SMILES COc1ccc(O)c(C(=O)c2ccc(NC[C@@H]3CCCNC[C@@H]3NC(=O)c3ccncc3)cc2)c1FREMARK SMILES IDX 16 1 15 2 14 4 11 5 12 6 34 7 13 8 33 9 9 10 10 11 8 12 3 13REMARK SMILES IDX 4 14 35 15 5 16 6 17 36 18 2 19 1 20 7 21 17 23 18 24 23 26REMARK SMILES IDX 22 27 21 28 20 30 19 31 24 33 25 34 26 36 27 37 28 38 32 39REMARK SMILES IDX 29 40 31 41 30 42REMARK H PARENT 15 3 7 22 21 29 24 35REMARK Flexibility Score:   99.900USER                              x       y       z     vdW  Elec       q    TypeUSER                           _______ _______ _______ _____ _____    ______ ____ROOTATOM      1  C   UNL     1      37.270  44.431  23.860 -0.29 +0.02    +0.118 C  ENDROOTBRANCH   1   2ATOM      2  N   UNL     1      37.398  43.739  22.574 -0.14 -0.03    -0.385 N  ATOM      3  H   UNL     1      37.492  42.732  22.668 +0.10 +0.01    +0.160 HD BRANCH   2   4ATOM      4  C   UNL     1      38.113  44.270  21.504 -0.35 +0.00    +0.034 A  ATOM      5  C   UNL     1      39.691  45.228  19.358 -0.40 -0.00    +0.023 A  ATOM      6  C   UNL     1      38.308  45.101  19.218 -0.36 -0.00    +0.014 A  ATOM      7  C   UNL     1      40.297  44.825  20.549 -0.35 +0.00    +0.014 A  ATOM      8  C   UNL     1      37.531  44.619  20.279 -0.28 -0.00    +0.026 A  ATOM      9  C   UNL     1      39.509  44.347  21.603 -0.28 +0.00    +0.026 A  BRANCH   5  10ATOM     10  C   UNL     1      40.478  45.710  18.198 -0.39 -0.01    +0.199 C  ATOM     11  O   UNL     1      41.676  45.431  18.130 -0.29 -0.02    -0.288 OA BRANCH  10  12ATOM     12  C   UNL     1      39.911  46.564  17.131 -0.40 -0.02    +0.104 A  ATOM     13  C   UNL     1      38.261  47.007  15.391 -0.32 -0.07    +0.155 A  ATOM     14  C   UNL     1      38.872  48.234  15.128 -0.49 -0.02    +0.053 A  ATOM     15  C   UNL     1      38.794  46.177  16.390 -0.28 -0.05    +0.179 A  ATOM     16  C   UNL     1      40.011  48.617  15.841 -0.52 -0.02    +0.051 A  ATOM     17  C   UNL     1      40.533  47.780  16.824 -0.43 -0.02    +0.130 A  ATOM     18  F   UNL     1      38.223  44.981  16.604 -0.07 +0.05    -0.202 F  BRANCH  13  19ATOM     19  O   UNL     1      37.155  46.518  14.747 -0.06 +0.26    -0.494 OA ATOM     20  C   UNL     1      37.370  45.561  13.718 -0.30 -0.10    +0.278 C  ENDBRANCH  13  19BRANCH  17  21ATOM     21  O   UNL     1      41.669  48.215  17.452 -0.49 +0.01    -0.507 OA ATOM     22  H   UNL     1      42.274  47.445  17.549 -0.30 -0.05    +0.293 HD ENDBRANCH  17  21ENDBRANCH  10  12ENDBRANCH   5  10ENDBRANCH   2   4ENDBRANCH   1   2BRANCH   1  23ATOM     23  C   UNL     1      37.695  43.532  25.048 -0.33 +0.00    +0.032 C  BRANCH  23  24ATOM     24  C   UNL     1      36.515  42.640  25.485 -0.46 -0.00    +0.009 CG0ATOM     25  G   UNL     1      35.477  43.217  26.448 +0.00 +0.00    +0.000 G0 ENDBRANCH  23  24BRANCH  23  26ATOM     26  C   UNL     1      38.331  44.387  26.168 -0.21 -0.00    +0.101 C  BRANCH  26  27ATOM     27  C   UNL     1      38.369  43.624  27.514 -0.28 -0.01    +0.106 C  BRANCH  27  28ATOM     28  N   UNL     1      37.106  43.619  28.263 -0.13 +0.09    -0.315 NA ATOM     29  H   UNL     1      36.881  42.644  28.475 -0.42 -0.06    +0.122 HD BRANCH  28  30ATOM     30  C   UNL     1      35.989  44.182  27.504 -0.46 -0.02    +0.081 C  BRANCH  30  31ATOM     31  C   UNL     1      35.476  43.214  26.445 -0.46 -0.00    +0.016 CG0ATOM     32  G   UNL     1      36.514  42.640  25.480 +0.00 +0.00    +0.000 G0 ENDBRANCH  30  31ENDBRANCH  28  30ENDBRANCH  27  28ENDBRANCH  26  27BRANCH  26  33ATOM     33  N   UNL     1      37.667  45.674  26.356 -0.13 +0.02    -0.348 N  ATOM     34  C   UNL     1      37.885  46.761  25.544 -0.23 +0.02    +0.251 C  ATOM     35  H   UNL     1      37.119  45.750  27.204 +0.06 -0.03    +0.164 HD ATOM     36  O   UNL     1      38.661  46.741  24.596 -0.28 -0.03    -0.269 OA BRANCH  34  37ATOM     37  C   UNL     1      37.143  48.007  25.876 -0.39 -0.00    +0.042 A  ATOM     38  C   UNL     1      37.146  49.041  24.939 -0.40 +0.00    +0.034 A  ATOM     39  C   UNL     1      36.430  48.161  27.066 -0.34 -0.00    +0.034 A  ATOM     40  C   UNL     1      36.454  50.198  25.242 -0.30 -0.00    +0.112 A  ATOM     41  C   UNL     1      35.769  49.358  27.273 -0.26 -0.00    +0.112 A  ATOM     42  N   UNL     1      35.769  50.380  26.392 -0.21 -0.01    -0.265 NA ENDBRANCH  34  37ENDBRANCH  26  33ENDBRANCH  23  26ENDBRANCH   1  23TORSDOF 9TERENDMDL