MODEL        8USER    Run = 8USERUSER    Estimated Free Energy of Binding    = -10.76 kcal/mol  [=(1)+(2)+(3)-(4)]USERUSER    (1) Final Intermolecular Energy     = -12.25 kcal/molUSER        vdW + Hbond + desolv Energy     = -12.01 kcal/molUSER        Electrostatic Energy            =  -0.24 kcal/molUSER        Moving Ligand-Fixed Receptor    = -12.25 kcal/molUSER        Moving Ligand-Moving Receptor   =  +0.00 kcal/molUSER    (2) Final Total Internal Energy     =  -0.90 kcal/molUSER    (3) Torsional Free Energy           =  +1.49 kcal/molUSER    (4) Unbound System's Energy         =  -0.90 kcal/molUSERUSERREMARK SMILES Cc1cc(NC2=NC=C3C2=CN=C3C=C2C=CC(NC(=O)N3CCN(O)CC3)=C2)ccn1REMARK SMILES IDX 15 1 16 2 17 3 18 4 29 5 14 6 13 7 5 8 6 9 7 10 10 11 8 12REMARK SMILES IDX 9 13 11 14 12 15 4 17 2 18 3 19 32 20 31 21 30 22 1 23 19 24REMARK SMILES IDX 20 25 22 26 23 27 28 28 24 29 27 30 25 31 21 33 26 34REMARK H PARENT 5 16 19 32 26 35USER                              x       y       z     vdW  Elec       q    TypeUSER                           _______ _______ _______ _____ _____    ______ ____ROOTATOM      1  C   UNL     1      36.569  42.670  21.947 -0.49 -0.00    -0.021 C  ATOM      2  C   UNL     1      37.098  41.905  23.061 -0.52 +0.00    +0.010 C  ATOM      3  C   UNL     1      38.057  42.654  23.631 -0.36 +0.00    +0.027 C  ATOM      4  C   UNL     1      38.186  43.906  22.906 -0.35 +0.00    +0.043 C  ATOM      5  C   UNL     1      37.314  43.918  21.886 -0.42 +0.00    +0.034 C  ENDROOTBRANCH   1   6ATOM      6  C   UNL     1      35.609  42.348  21.071 -0.39 +0.00    +0.037 C  BRANCH   6   7ATOM      7  C   UNL     1      35.110  43.192  19.979 -0.43 -0.00    +0.073 C  ATOM      8  N   UNL     1      35.418  45.923  16.093 -0.12 +0.29    -0.340 N  ATOM      9  C   UNL     1      35.936  45.171  17.115 -0.29 -0.07    +0.139 C  ATOM     10  N   UNL     1      37.202  44.908  17.395 -0.19 +0.07    -0.238 NA ATOM     11  C   UNL     1      35.087  44.497  18.121 -0.35 -0.02    +0.046 C  ATOM     12  C   UNL     1      37.205  44.098  18.529 -0.27 -0.02    +0.124 C  ATOM     13  C   UNL     1      35.989  43.840  19.001 -0.40 -0.01    +0.031 C  ATOM     14  C   UNL     1      33.858  44.229  18.563 -0.34 -0.03    +0.124 C  ATOM     15  N   UNL     1      33.843  43.415  19.696 -0.50 +0.01    -0.255 NA ATOM     16  H   UNL     1      34.410  45.998  16.058 +0.02 -0.20    +0.168 HD BRANCH   8  17ATOM     17  C   UNL     1      36.084  46.581  15.043 -0.35 -0.03    +0.043 A  ATOM     18  C   UNL     1      37.903  47.829  14.067 -0.50 -0.02    +0.039 A  ATOM     19  C   UNL     1      37.327  47.199  15.169 -0.40 -0.03    +0.049 A  ATOM     20  N   UNL     1      37.308  47.876  12.855 -0.91 +0.06    -0.261 NA ATOM     21  C   UNL     1      36.106  47.281  12.743 -0.55 -0.06    +0.113 A  ATOM     22  C   UNL     1      35.464  46.635  13.788 -0.44 -0.03    +0.046 A  ATOM     23  C   UNL     1      39.238  48.493  14.201 -0.47 -0.02    +0.067 C  ENDBRANCH   8  17ENDBRANCH   6   7ENDBRANCH   1   6BRANCH   4  24ATOM     24  N   UNL     1      39.099  44.848  23.282 -0.10 -0.02    -0.308 N  ATOM     25  C   UNL     1      38.847  46.022  23.958 -0.17 +0.03    +0.321 C  ATOM     26  N   UNL     1      39.957  46.836  24.140 -0.10 -0.03    -0.322 N  ATOM     27  C   UNL     1      39.810  48.052  24.949 -0.28 +0.02    +0.139 C  ATOM     28  C   UNL     1      41.268  46.660  23.498 -0.18 +0.01    +0.139 C  ATOM     29  C   UNL     1      41.113  48.388  25.697 -0.24 +0.02    +0.136 C  ATOM     30  C   UNL     1      42.095  47.957  23.492 -0.30 +0.02    +0.136 C  ATOM     31  N   UNL     1      42.320  48.502  24.847 -0.24 -0.03    -0.189 NA ATOM     32  H   UNL     1      40.066  44.602  23.152 +0.09 +0.01    +0.171 HD ATOM     33  O   UNL     1      37.741  46.344  24.385 -0.62 -0.06    -0.248 OA BRANCH  31  34ATOM     34  O   UNL     1      42.540  49.926  24.639 -0.37 -0.11    -0.314 OA ATOM     35  H   UNL     1      42.872  50.199  25.513 -0.43 +0.02    +0.238 HD ENDBRANCH  31  34ENDBRANCH   4  24TORSDOF 5TERENDMDL