MODEL        8USER    Run = 8USERUSER    Estimated Free Energy of Binding    =  -9.36 kcal/mol  [=(1)+(2)+(3)-(4)]USERUSER    (1) Final Intermolecular Energy     = -10.55 kcal/molUSER        vdW + Hbond + desolv Energy     = -10.36 kcal/molUSER        Electrostatic Energy            =  -0.20 kcal/molUSER        Moving Ligand-Fixed Receptor    = -10.55 kcal/molUSER        Moving Ligand-Moving Receptor   =  +0.00 kcal/molUSER    (2) Final Total Internal Energy     =  -1.23 kcal/molUSER    (3) Torsional Free Energy           =  +1.19 kcal/molUSER    (4) Unbound System's Energy         =  -1.23 kcal/molUSERUSERREMARK SMILES O=C1C=C(c2ccnc(-c3ccnc(F)c3)c2)NC[C@@H]1NC1CC1REMARK SMILES IDX 1 1 2 2 3 3 4 4 18 5 19 6 20 7 21 9 22 11 23 12 24 13 5 14REMARK SMILES IDX 6 15 17 16 7 17 9 18 8 19 10 20 11 21 16 22 12 23 14 24REMARK SMILES IDX 13 25 15 26REMARK H PARENT 18 8 21 10USER                              x       y       z     vdW  Elec       q    TypeUSER                           _______ _______ _______ _____ _____    ______ ____ROOTATOM      1  O   UNL     1      35.096  42.118  16.716 -0.36 +0.13    -0.293 OA ATOM      2  C   UNL     1      34.614  43.070  16.099 -0.31 -0.08    +0.176 C  ATOM      3  C   UNL     1      35.551  44.060  15.506 -0.31 -0.03    +0.075 C  ATOM      4  C   UNL     1      35.055  45.233  15.088 -0.35 -0.03    +0.045 C  ATOM      5  N   UNL     1      33.714  45.559  15.177 -0.08 +0.36    -0.382 N  ATOM      6  C   UNL     1      32.829  44.790  16.053 -0.29 -0.08    +0.140 C  ATOM      7  C   UNL     1      33.104  43.285  15.887 -0.25 -0.07    +0.145 C  ATOM      8  H   UNL     1      33.539  46.565  15.182 -0.26 -0.32    +0.160 HD ENDROOTBRANCH   7   9ATOM      9  N   UNL     1      32.350  42.413  16.810 -0.12 +0.14    -0.303 NA ATOM     10  H   UNL     1      32.777  41.486  16.850 -0.39 -0.08    +0.123 HD BRANCH   9  11ATOM     11  C   UNL     1      32.067  42.995  18.118 -0.34 -0.01    +0.054 C  ATOM     12  C   UNL     1      32.367  42.182  19.347 -0.37 +0.00    +0.020 C  ATOM     13  C   UNL     1      33.197  43.390  19.028 -0.45 -0.00    +0.020 C  ENDBRANCH   9  11ENDBRANCH   7   9BRANCH   4  14ATOM     14  C   UNL     1      35.952  46.239  14.488 -0.42 -0.00    +0.001 A  ATOM     15  C   UNL     1      35.673  46.814  13.249 -0.53 -0.02    +0.030 A  ATOM     16  C   UNL     1      37.124  46.613  15.156 -0.37 -0.02    +0.039 A  ATOM     17  C   UNL     1      36.570  47.732  12.739 -0.57 -0.05    +0.112 A  ATOM     18  C   UNL     1      37.975  47.556  14.581 -0.44 -0.03    +0.071 A  ATOM     19  N   UNL     1      37.702  48.107  13.372 -0.73 +0.08    -0.256 NA BRANCH  18  20ATOM     20  C   UNL     1      39.221  48.021  15.223 -0.53 -0.00    +0.006 A  ATOM     21  C   UNL     1      39.590  47.634  16.520 -0.46 -0.01    +0.030 A  ATOM     22  C   UNL     1      40.086  48.896  14.553 -0.43 -0.02    +0.070 A  ATOM     23  C   UNL     1      40.775  48.112  17.062 -0.40 -0.02    +0.115 A  ATOM     24  C   UNL     1      41.246  49.317  15.178 -0.45 -0.03    +0.213 A  ATOM     25  N   UNL     1      41.616  48.940  16.416 -0.88 -0.02    -0.228 NA ATOM     26  F   UNL     1      42.064  50.148  14.515 -0.26 +0.03    -0.185 F  ENDBRANCH  18  20ENDBRANCH   4  14TORSDOF 4TERENDMDL