REMARK SMILES CNCCNC(=O)NC1=CC(=CC2=NC=C3C2=CN=C3Nc2ccnc(C)c2)C=C1
REMARK SMILES IDX 9 1 10 2 11 3 29 4 30 5 8 6 5 7 6 8 7 10 4 12 3 13 2 14 1 15
REMARK SMILES IDX 12 17 13 18 14 19 17 20 15 21 16 22 18 23 20 24 19 25 21 26
REMARK SMILES IDX 22 28 23 29 28 30 24 31 26 32 25 33 27 34
REMARK H PARENT 5 9 8 11 2 16 21 27
ROOT
ATOM      1  C   UNL     1       2.922  -0.244  -0.390  1.00  0.00     0.043 C 
ATOM      2  C   UNL     1       2.405  -1.451  -0.673  1.00  0.00     0.034 C 
ATOM      3  C   UNL     1       0.972  -1.270  -0.858  1.00  0.00    -0.021 C 
ATOM      4  C   UNL     1       0.694   0.144  -0.696  1.00  0.00     0.010 C 
ATOM      5  C   UNL     1       1.861   0.744  -0.410  1.00  0.00     0.027 C 
ENDROOT
BRANCH   1   6
ATOM      6  N   UNL     1       4.244  -0.007  -0.151  1.00  0.00    -0.308 N 
ATOM      7  N   UNL     1       6.203   1.043   0.305  1.00  0.00    -0.337 N 
ATOM      8  C   UNL     1       4.830   1.182   0.227  1.00  0.00     0.319 C 
ATOM      9  H   UNL     1       6.593   0.456  -0.417  1.00  0.00     0.165 HD
ATOM     10  O   UNL     1       4.250   2.229   0.484  1.00  0.00    -0.249 OA
ATOM     11  H   UNL     1       4.856  -0.808  -0.144  1.00  0.00     0.171 HD
BRANCH   7  12
ATOM     12  C   UNL     1       7.021   2.215   0.583  1.00  0.00     0.133 C 
BRANCH  12  13
ATOM     13  C   UNL     1       8.434   1.843   1.056  1.00  0.00     0.102 C 
BRANCH  13  14
ATOM     14  N   UNL     1       9.046   0.812   0.200  1.00  0.00    -0.318 NA
ATOM     15  C   UNL     1      10.453   0.634   0.543  1.00  0.00     0.101 C 
ATOM     16  H   UNL     1       8.563  -0.069   0.378  1.00  0.00     0.122 HD
ENDBRANCH  13  14
ENDBRANCH  12  13
ENDBRANCH   7  12
ENDBRANCH   1   6
BRANCH   3  17
ATOM     17  C   UNL     1       0.138  -2.272  -1.161  1.00  0.00     0.037 C 
BRANCH  17  18
ATOM     18  C   UNL     1      -1.315  -2.175  -1.342  1.00  0.00     0.073 C 
ATOM     19  N   UNL     1      -2.008  -2.784  -2.282  1.00  0.00    -0.255 NA
ATOM     20  C   UNL     1      -2.198  -1.436  -0.435  1.00  0.00     0.031 C 
ATOM     21  C   UNL     1      -3.339  -2.435  -2.042  1.00  0.00     0.124 C 
ATOM     22  C   UNL     1      -3.495  -1.655  -0.975  1.00  0.00     0.046 C 
ATOM     23  C   UNL     1      -2.382  -0.687   0.649  1.00  0.00     0.124 C 
ATOM     24  C   UNL     1      -4.424  -0.921  -0.089  1.00  0.00     0.139 C 
ATOM     25  N   UNL     1      -3.716  -0.355   0.875  1.00  0.00    -0.238 NA
ATOM     26  N   UNL     1      -5.778  -0.887  -0.299  1.00  0.00    -0.340 N 
ATOM     27  H   UNL     1      -6.121  -1.391  -1.106  1.00  0.00     0.168 HD
BRANCH  26  28
ATOM     28  C   UNL     1      -6.778  -0.232   0.442  1.00  0.00     0.043 A 
ATOM     29  C   UNL     1      -6.532   0.541   1.574  1.00  0.00     0.046 A 
ATOM     30  C   UNL     1      -8.112  -0.361   0.031  1.00  0.00     0.049 A 
ATOM     31  C   UNL     1      -7.597   1.138   2.229  1.00  0.00     0.113 A 
ATOM     32  C   UNL     1      -9.127   0.272   0.747  1.00  0.00     0.039 A 
ATOM     33  N   UNL     1      -8.884   1.021   1.842  1.00  0.00    -0.261 NA
ATOM     34  C   UNL     1     -10.555   0.135   0.310  1.00  0.00     0.067 C 
ENDBRANCH  26  28
ENDBRANCH  17  18
ENDBRANCH   3  17
TORSDOF 7
