MODEL        10USER    Run = 10USERUSER    Estimated Free Energy of Binding    = -10.73 kcal/mol  [=(1)+(2)+(3)-(4)]USERUSER    (1) Final Intermolecular Energy     = -12.82 kcal/molUSER        vdW + Hbond + desolv Energy     = -12.65 kcal/molUSER        Electrostatic Energy            =  -0.17 kcal/molUSER        Moving Ligand-Fixed Receptor    = -12.82 kcal/molUSER        Moving Ligand-Moving Receptor   =  +0.00 kcal/molUSER    (2) Final Total Internal Energy     =  -1.75 kcal/molUSER    (3) Torsional Free Energy           =  +2.09 kcal/molUSER    (4) Unbound System's Energy         =  -1.75 kcal/molUSERUSERREMARK SMILES CNCCNC(=O)NC1=CC(=CC2=NC=C3C2=CN=C3Nc2ccnc(C)c2)C=C1REMARK SMILES IDX 9 1 10 2 11 3 29 4 30 5 8 6 5 7 6 8 7 10 4 12 3 13 2 14 1 15REMARK SMILES IDX 12 17 13 18 14 19 17 20 15 21 16 22 18 23 20 24 19 25 21 26REMARK SMILES IDX 22 28 23 29 28 30 24 31 26 32 25 33 27 34REMARK H PARENT 5 9 8 11 2 16 21 27USER                              x       y       z     vdW  Elec       q    TypeUSER                           _______ _______ _______ _____ _____    ______ ____ROOTATOM      1  C   UNL     1      42.152  50.165  14.457 -0.70 -0.01    +0.043 C  ATOM      2  C   UNL     1      41.642  49.078  13.855 -0.30 -0.00    +0.034 C  ATOM      3  C   UNL     1      40.572  48.579  14.707 -0.62 +0.00    -0.021 C  ATOM      4  C   UNL     1      40.470  49.480  15.839 -0.65 -0.00    +0.010 C  ATOM      5  C   UNL     1      41.420  50.416  15.684 -0.63 -0.01    +0.027 C  ENDROOTBRANCH   1   6ATOM      6  N   UNL     1      43.178  50.914  13.960 -0.26 +0.09    -0.308 N  ATOM      7  N   UNL     1      44.553  52.019  12.532 -0.18 +0.16    -0.337 N  ATOM      8  C   UNL     1      43.355  51.341  12.661 -0.27 -0.15    +0.319 C  ATOM      9  H   UNL     1      45.304  51.622  13.076 -0.45 -0.11    +0.165 HD ATOM     10  O   UNL     1      42.577  51.178  11.730 -0.53 +0.14    -0.249 OA ATOM     11  H   UNL     1      43.831  51.292  14.628 -0.37 -0.04    +0.171 HD BRANCH   7  12ATOM     12  C   UNL     1      44.982  52.458  11.212 -0.34 -0.06    +0.133 C  BRANCH  12  13ATOM     13  C   UNL     1      46.394  51.967  10.862 -0.35 -0.03    +0.102 C  BRANCH  13  14ATOM     14  N   UNL     1      47.133  51.524  12.058 -0.19 +0.09    -0.318 NA ATOM     15  C   UNL     1      47.614  52.675  12.815 -0.23 -0.02    +0.101 C  ATOM     16  H   UNL     1      46.486  51.004  12.650 -0.53 -0.06    +0.122 HD ENDBRANCH  13  14ENDBRANCH  12  13ENDBRANCH   7  12ENDBRANCH   1   6BRANCH   3  17ATOM     17  C   UNL     1      39.836  47.502  14.407 -0.40 -0.01    +0.037 C  BRANCH  17  18ATOM     18  C   UNL     1      38.410  47.310  14.694 -0.48 -0.03    +0.073 C  ATOM     19  N   UNL     1      37.418  47.858  14.023 -0.38 +0.13    -0.255 NA ATOM     20  C   UNL     1      37.906  46.409  15.734 -0.43 -0.01    +0.031 C  ATOM     21  C   UNL     1      36.255  47.366  14.621 -0.33 -0.11    +0.124 C  ATOM     22  C   UNL     1      36.493  46.517  15.617 -0.41 -0.03    +0.046 C  ATOM     23  C   UNL     1      38.119  45.529  16.708 -0.34 -0.04    +0.124 C  ATOM     24  C   UNL     1      35.938  45.622  16.655 -0.31 -0.08    +0.139 C  ATOM     25  N   UNL     1      36.948  45.045  17.287 -0.19 +0.08    -0.238 NA ATOM     26  N   UNL     1      34.592  45.468  16.860 -0.11 +0.26    -0.340 N  ATOM     27  H   UNL     1      33.981  46.009  16.262 -0.08 -0.22    +0.168 HD BRANCH  26  28ATOM     28  C   UNL     1      33.919  44.670  17.803 -0.31 -0.02    +0.043 A  ATOM     29  C   UNL     1      33.458  45.134  19.033 -0.36 -0.02    +0.046 A  ATOM     30  C   UNL     1      33.697  43.319  17.504 -0.29 -0.02    +0.049 A  ATOM     31  C   UNL     1      32.811  44.256  19.887 -0.31 -0.01    +0.113 A  ATOM     32  C   UNL     1      33.038  42.500  18.419 -0.34 -0.01    +0.039 A  ATOM     33  N   UNL     1      32.592  42.954  19.609 -0.55 -0.01    -0.261 NA ATOM     34  C   UNL     1      32.800  41.054  18.102 -0.43 -0.01    +0.067 C  ENDBRANCH  26  28ENDBRANCH  17  18ENDBRANCH   3  17TORSDOF 7TERENDMDL