REMARK SMILES O=C1C=C(c2ccnc(-c3ccnc(F)c3)c2)NC[C@@H]1NC1CC1
REMARK SMILES IDX 1 1 2 2 3 3 4 4 18 5 19 6 20 7 21 9 22 11 23 12 24 13 5 14
REMARK SMILES IDX 6 15 17 16 7 17 9 18 8 19 10 20 11 21 16 22 12 23 14 24
REMARK SMILES IDX 13 25 15 26
REMARK H PARENT 18 8 21 10
ROOT
ATOM      1  O   UNL     1      -3.013  -1.692   2.563  1.00  0.00    -0.293 OA
ATOM      2  C   UNL     1      -2.345  -1.179   1.664  1.00  0.00     0.176 C 
ATOM      3  C   UNL     1      -0.909  -0.908   1.933  1.00  0.00     0.075 C 
ATOM      4  C   UNL     1      -0.245  -0.103   1.091  1.00  0.00     0.045 C 
ATOM      5  N   UNL     1      -0.833   0.478  -0.017  1.00  0.00    -0.382 N 
ATOM      6  C   UNL     1      -2.291   0.533  -0.129  1.00  0.00     0.140 C 
ATOM      7  C   UNL     1      -2.900  -0.822   0.272  1.00  0.00     0.145 C 
ATOM      8  H   UNL     1      -0.356   1.323  -0.336  1.00  0.00     0.160 HD
ENDROOT
BRANCH   7   9
ATOM      9  N   UNL     1      -4.376  -0.850   0.312  1.00  0.00    -0.303 NA
ATOM     10  H   UNL     1      -4.718  -0.365   1.143  1.00  0.00     0.123 HD
BRANCH   9  11
ATOM     11  C   UNL     1      -5.036  -0.447  -0.926  1.00  0.00     0.054 C 
ATOM     12  C   UNL     1      -6.517  -0.185  -0.899  1.00  0.00     0.020 C 
ATOM     13  C   UNL     1      -5.558   0.955  -1.080  1.00  0.00     0.020 C 
ENDBRANCH   9  11
ENDBRANCH   7   9
BRANCH   4  14
ATOM     14  C   UNL     1       1.184   0.185   1.321  1.00  0.00     0.001 A 
ATOM     15  C   UNL     1       1.633   0.710   2.531  1.00  0.00     0.030 A 
ATOM     16  C   UNL     1       2.113  -0.046   0.300  1.00  0.00     0.039 A 
ATOM     17  C   UNL     1       2.982   0.976   2.667  1.00  0.00     0.112 A 
ATOM     18  C   UNL     1       3.461   0.237   0.517  1.00  0.00     0.071 A 
ATOM     19  N   UNL     1       3.892   0.755   1.694  1.00  0.00    -0.256 NA
BRANCH  18  20
ATOM     20  C   UNL     1       4.510   0.007  -0.497  1.00  0.00     0.006 A 
ATOM     21  C   UNL     1       4.412  -1.001  -1.468  1.00  0.00     0.030 A 
ATOM     22  C   UNL     1       5.671   0.792  -0.514  1.00  0.00     0.070 A 
ATOM     23  C   UNL     1       5.438  -1.161  -2.389  1.00  0.00     0.115 A 
ATOM     24  C   UNL     1       6.639   0.555  -1.473  1.00  0.00     0.213 A 
ATOM     25  N   UNL     1       6.548  -0.400  -2.418  1.00  0.00    -0.228 NA
ATOM     26  F   UNL     1       7.738   1.323  -1.476  1.00  0.00    -0.185 F 
ENDBRANCH  18  20
ENDBRANCH   4  14
TORSDOF 4
