MODEL        3USER    Run = 3USERUSER    Estimated Free Energy of Binding    =  -7.98 kcal/mol  [=(1)+(2)+(3)-(4)]USERUSER    (1) Final Intermolecular Energy     = -10.07 kcal/molUSER        vdW + Hbond + desolv Energy     =  -9.88 kcal/molUSER        Electrostatic Energy            =  -0.20 kcal/molUSER        Moving Ligand-Fixed Receptor    = -10.07 kcal/molUSER        Moving Ligand-Moving Receptor   =  +0.00 kcal/molUSER    (2) Final Total Internal Energy     =  -1.25 kcal/molUSER    (3) Torsional Free Energy           =  +2.09 kcal/molUSER    (4) Unbound System's Energy         =  -1.25 kcal/molUSERUSERREMARK SMILES NCCc1ccc[nH]cnccc(-c2ccccc2)c(C(=O)CC(F)(F)F)cc1REMARK SMILES IDX 4 1 5 2 6 3 7 4 8 5 9 6 10 7 11 8 12 9 13 10 20 11 28 12REMARK SMILES IDX 29 13 3 15 2 16 1 17 21 20 22 21 23 22 24 23 25 24 26 25REMARK SMILES IDX 27 26 14 27 15 28 19 29 16 30 18 31 17 32REMARK H PARENT 8 14 1 18 1 19USER                              x       y       z     vdW  Elec       q    TypeUSER                           _______ _______ _______ _____ _____    ______ ____ROOTATOM      1  C   UNL     1      35.744  42.578  19.773 -0.41 +0.00    -0.047 A  ATOM      2  C   UNL     1      36.151  41.604  20.630 -0.38 -0.00    +0.005 A  ATOM      3  C   UNL     1      36.732  41.584  21.845 -0.56 +0.00    +0.018 A  ATOM      4  C   UNL     1      37.434  42.530  22.489 -0.38 +0.01    +0.083 A  ATOM      5  N   UNL     1      37.829  43.785  22.066 -0.15 -0.02    -0.353 N  ATOM      6  C   UNL     1      39.104  44.020  21.551 -0.17 +0.01    +0.196 A  ATOM      7  N   UNL     1      39.294  44.341  20.248 -0.19 +0.00    -0.247 NA ATOM      8  C   UNL     1      38.230  44.859  19.585 -0.28 -0.01    +0.113 A  ATOM      9  C   UNL     1      37.929  44.881  18.271 -0.36 -0.01    +0.029 A  ATOM     10  C   UNL     1      36.751  45.293  17.739 -0.34 +0.00    -0.006 A  ATOM     11  C   UNL     1      35.559  45.446  18.378 -0.31 -0.01    +0.026 A  ATOM     12  C   UNL     1      35.074  44.934  19.533 -0.19 -0.00    +0.013 A  ATOM     13  C   UNL     1      35.337  43.796  20.207 -0.39 -0.00    +0.004 A  ATOM     14  H   UNL     1      37.237  44.016  21.289 +0.10 +0.00    +0.167 HD ENDROOTBRANCH   1  15ATOM     15  C   UNL     1      35.608  42.146  18.310 -0.19 -0.01    +0.050 C  BRANCH  15  16ATOM     16  C   UNL     1      34.186  42.311  17.743 -0.41 -0.03    +0.082 C  BRANCH  16  17ATOM     17  N   UNL     1      33.483  41.034  17.576 -0.18 +0.15    -0.330 NA ATOM     18  H   UNL     1      34.176  40.299  17.449 -0.49 -0.09    +0.118 HD ATOM     19  H   UNL     1      32.940  41.064  16.715 -0.42 -0.09    +0.118 HD ENDBRANCH  16  17ENDBRANCH  15  16ENDBRANCH   1  15BRANCH  11  20ATOM     20  C   UNL     1      34.528  46.350  17.757 -0.36 -0.16    +0.172 C  ATOM     21  O   UNL     1      34.161  47.373  18.334 -1.08 +0.31    -0.294 OA BRANCH  20  22ATOM     22  C   UNL     1      33.931  45.873  16.461 +0.05 -0.23    +0.196 C  BRANCH  22  23ATOM     23  C   UNL     1      32.664  45.113  16.709 -0.09 -0.22    +0.396 C  ATOM     24  F   UNL     1      32.626  43.938  16.045 -0.08 +0.08    -0.171 F  ATOM     25  F   UNL     1      31.612  45.842  16.249 -0.06 +0.08    -0.171 F  ATOM     26  F   UNL     1      32.420  44.884  18.013 -0.08 +0.04    -0.171 F  ENDBRANCH  22  23ENDBRANCH  20  22ENDBRANCH  11  20BRANCH  10  27ATOM     27  C   UNL     1      36.876  45.665  16.302 -0.35 +0.01    -0.018 A  ATOM     28  C   UNL     1      37.168  46.988  15.934 -0.40 -0.01    +0.009 A  ATOM     29  C   UNL     1      36.717  44.699  15.298 -0.37 -0.00    +0.009 A  ATOM     30  C   UNL     1      37.272  47.339  14.587 -0.47 -0.00    +0.001 A  ATOM     31  C   UNL     1      36.824  45.053  13.951 -0.43 -0.00    +0.001 A  ATOM     32  C   UNL     1      37.095  46.373  13.597 -0.49 -0.00    +0.000 A  ENDBRANCH  10  27TORSDOF 7TERENDMDL