MODEL        6USER    Run = 6USERUSER    Estimated Free Energy of Binding    =  -6.29 kcal/mol  [=(1)+(2)+(3)-(4)]USERUSER    (1) Final Intermolecular Energy     =  -8.08 kcal/molUSER        vdW + Hbond + desolv Energy     =  -7.92 kcal/molUSER        Electrostatic Energy            =  -0.16 kcal/molUSER        Moving Ligand-Fixed Receptor    =  -8.08 kcal/molUSER        Moving Ligand-Moving Receptor   =  +0.00 kcal/molUSER    (2) Final Total Internal Energy     =  -2.93 kcal/molUSER    (3) Torsional Free Energy           =  +1.79 kcal/molUSER    (4) Unbound System's Energy         =  -2.93 kcal/molUSERUSERREMARK SMILES CC(C)C[C@@H](C(N)=O)n1cncccc(Nc2ccncn2)nc1REMARK SMILES IDX 5 1 4 2 2 3 1 4 3 5 6 6 7 7 8 8 9 11 10 12 24 13 11 14 23 15REMARK SMILES IDX 12 16 15 17 13 18 14 19 16 20 17 22 18 23 22 24 19 25 21 26REMARK SMILES IDX 20 27REMARK H PARENT 7 9 7 10 16 21USER                              x       y       z     vdW  Elec       q    TypeUSER                           _______ _______ _______ _____ _____    ______ ____ROOTATOM      1  C   UNL     1      31.840  42.854  16.497 -0.26 -0.08    +0.178 C  ENDROOTBRANCH   1   2ATOM      2  C   UNL     1      30.427  42.262  16.660 -0.33 -0.01    +0.038 C  BRANCH   2   3ATOM      3  C   UNL     1      30.212  40.798  16.223 -0.41 +0.00    -0.015 C  ATOM      4  C   UNL     1      28.885  40.620  15.480 -0.45 -0.00    +0.007 C  ATOM      5  C   UNL     1      30.211  39.878  17.451 -0.41 +0.00    +0.007 C  ENDBRANCH   2   3ENDBRANCH   1   2BRANCH   1   6ATOM      6  C   UNL     1      31.863  44.387  16.299 -0.22 -0.10    +0.240 C  ATOM      7  N   UNL     1      32.798  44.809  15.380 -0.10 +0.24    -0.368 N  ATOM      8  O   UNL     1      31.088  45.188  16.827 -0.67 +0.01    -0.273 OA ATOM      9  H   UNL     1      33.131  45.746  15.524 -0.06 -0.18    +0.159 HD ATOM     10  H   UNL     1      33.570  44.117  15.330 +0.10 -0.09    +0.159 HD ENDBRANCH   1   6BRANCH   1  11ATOM     11  N   UNL     1      32.803  42.424  17.559 -0.13 +0.10    -0.311 N  ATOM     12  C   UNL     1      32.490  42.592  18.905 -0.23 -0.02    +0.201 A  ATOM     13  C   UNL     1      34.083  42.010  17.209 -0.24 -0.09    +0.203 A  ATOM     14  N   UNL     1      33.170  43.264  19.842 -0.81 -0.01    -0.247 NA ATOM     15  N   UNL     1      34.683  42.594  16.165 -0.31 +0.10    -0.221 NA ATOM     16  C   UNL     1      34.314  43.974  19.704 -0.31 -0.01    +0.113 A  ATOM     17  C   UNL     1      35.596  43.514  16.559 -0.30 -0.05    +0.133 A  ATOM     18  C   UNL     1      35.334  44.370  18.913 -0.35 -0.01    +0.024 A  ATOM     19  C   UNL     1      35.854  44.225  17.683 -0.28 -0.02    +0.049 A  BRANCH  17  20ATOM     20  N   UNL     1      36.435  43.706  15.438 -0.21 +0.11    -0.325 N  ATOM     21  H   UNL     1      37.310  43.881  15.936 +0.10 -0.05    +0.170 HD BRANCH  20  22ATOM     22  C   UNL     1      36.265  44.841  14.596 -0.27 -0.06    +0.134 A  ATOM     23  C   UNL     1      37.182  45.120  13.592 -0.40 -0.02    +0.067 A  ATOM     24  N   UNL     1      35.146  45.584  14.739 -0.23 +0.15    -0.219 NA ATOM     25  C   UNL     1      36.923  46.203  12.787 -0.49 -0.04    +0.116 A  ATOM     26  C   UNL     1      35.001  46.617  13.899 -0.23 -0.19    +0.224 A  ATOM     27  N   UNL     1      35.834  46.982  12.910 -0.41 +0.15    -0.245 NA ENDBRANCH  20  22ENDBRANCH  17  20ENDBRANCH   1  11TORSDOF 6TERENDMDL