REMARK SMILES Nc1ccccc1Oc1ccnc(NC(=O)Cc2ccccc2C=O)n1
REMARK SMILES IDX 9 1 10 2 11 3 12 4 13 5 26 6 8 7 7 8 2 9 3 10 4 11 6 12 5 13
REMARK SMILES IDX 1 14 14 17 15 18 16 20 17 21 18 22 19 23 23 24 20 25 22 26
REMARK SMILES IDX 21 27 24 28 25 29
REMARK H PARENT 1 15 1 16 14 19
ROOT
ATOM      1  C   UNL     1       1.808   1.505  -0.171  1.00  0.00     0.224 A 
ATOM      2  C   UNL     1       2.031   2.136  -1.371  1.00  0.00     0.089 A 
ATOM      3  C   UNL     1       1.194   1.752  -2.385  1.00  0.00     0.121 A 
ATOM      4  N   UNL     1       0.217   0.842  -2.230  1.00  0.00    -0.221 NA
ATOM      5  C   UNL     1       0.063   0.309  -1.015  1.00  0.00     0.232 A 
ATOM      6  N   UNL     1       0.832   0.599   0.042  1.00  0.00    -0.177 NA
ENDROOT
BRANCH   1   7
ATOM      7  O   UNL     1       2.568   1.833   0.936  1.00  0.00    -0.437 OA
BRANCH   7   8
ATOM      8  C   UNL     1       3.862   1.353   0.898  1.00  0.00     0.152 A 
ATOM      9  C   UNL     1       4.146  -0.020   1.005  1.00  0.00     0.075 A 
ATOM     10  C   UNL     1       5.488  -0.416   1.031  1.00  0.00     0.029 A 
ATOM     11  C   UNL     1       6.515   0.522   0.895  1.00  0.00     0.002 A 
ATOM     12  C   UNL     1       4.888   2.298   0.792  1.00  0.00     0.049 A 
ATOM     13  C   UNL     1       6.216   1.878   0.776  1.00  0.00     0.004 A 
BRANCH   9  14
ATOM     14  N   UNL     1       3.149  -0.963   1.311  1.00  0.00    -0.396 N 
ATOM     15  H   UNL     1       3.355  -1.899   0.980  1.00  0.00     0.156 HD
ATOM     16  H   UNL     1       2.215  -0.647   1.045  1.00  0.00     0.156 HD
ENDBRANCH   9  14
ENDBRANCH   7   8
ENDBRANCH   1   7
BRANCH   5  17
ATOM     17  N   UNL     1      -0.935  -0.615  -0.744  1.00  0.00    -0.294 N 
ATOM     18  C   UNL     1      -1.869  -1.082  -1.633  1.00  0.00     0.231 C 
ATOM     19  H   UNL     1      -0.964  -0.887   0.225  1.00  0.00     0.173 HD
ATOM     20  O   UNL     1      -1.968  -0.794  -2.822  1.00  0.00    -0.274 OA
BRANCH  18  21
ATOM     21  C   UNL     1      -2.843  -2.068  -1.006  1.00  0.00     0.136 C 
BRANCH  21  22
ATOM     22  C   UNL     1      -3.792  -1.422  -0.022  1.00  0.00    -0.028 A 
ATOM     23  C   UNL     1      -3.577  -1.643   1.353  1.00  0.00     0.005 A 
ATOM     24  C   UNL     1      -4.871  -0.600  -0.409  1.00  0.00     0.018 A 
ATOM     25  C   UNL     1      -4.404  -1.058   2.314  1.00  0.00     0.000 A 
ATOM     26  C   UNL     1      -5.696  -0.018   0.567  1.00  0.00     0.012 A 
ATOM     27  C   UNL     1      -5.461  -0.245   1.922  1.00  0.00     0.001 A 
BRANCH  24  28
ATOM     28  C   UNL     1      -5.200  -0.322  -1.831  1.00  0.00     0.260 C 
ATOM     29  O   UNL     1      -6.175   0.351  -2.148  1.00  0.00    -0.298 OA
ENDBRANCH  24  28
ENDBRANCH  21  22
ENDBRANCH  18  21
ENDBRANCH   5  17
TORSDOF 7
