REMARK SMILES Clc1ccc(Cc2n[nH]c3c(-c4ccccc4)ncnc23)o1
REMARK SMILES IDX 6 1 5 2 2 3 3 4 22 5 4 6 1 7 7 8 8 9 21 10 9 11 20 12 10 13
REMARK SMILES IDX 19 14 11 15 18 16 12 18 13 19 17 20 14 21 16 22 15 23
REMARK H PARENT 9 17
ROOT
ATOM      1  C   UNL     1      -3.067  -1.184  -0.938  1.00  0.00     0.136 C 
ENDROOT
BRANCH   1   2
ATOM      2  C   UNL     1      -3.948  -0.522   0.065  1.00  0.00     0.112 A 
ATOM      3  C   UNL     1      -5.494   0.919   0.662  1.00  0.00     0.193 A 
ATOM      4  C   UNL     1      -5.125   0.246   1.806  1.00  0.00     0.064 A 
ATOM      5  O   UNL     1      -4.783   0.451  -0.402  1.00  0.00    -0.449 OA
ATOM      6  C   UNL     1      -4.132  -0.687   1.423  1.00  0.00     0.048 A 
ATOM      7  Cl  UNL     1      -6.669   2.167   0.537  1.00  0.00    -0.043 Cl
ENDBRANCH   1   2
BRANCH   1   8
ATOM      8  C   UNL     1      -1.618  -1.017  -0.620  1.00  0.00     0.096 A 
ATOM      9  N   UNL     1      -0.965  -1.906   0.153  1.00  0.00    -0.177 NA
ATOM     10  C   UNL     1      -0.762   0.026  -1.052  1.00  0.00     0.116 A 
ATOM     11  N   UNL     1       0.285  -1.406   0.221  1.00  0.00    -0.274 N 
ATOM     12  N   UNL     1      -0.986   1.110  -1.824  1.00  0.00    -0.233 NA
ATOM     13  C   UNL     1       0.471  -0.266  -0.503  1.00  0.00     0.110 A 
ATOM     14  C   UNL     1       0.102   1.879  -1.978  1.00  0.00     0.223 A 
ATOM     15  C   UNL     1       1.556   0.566  -0.730  1.00  0.00     0.099 A 
ATOM     16  N   UNL     1       1.336   1.677  -1.477  1.00  0.00    -0.234 NA
ATOM     17  H   UNL     1       0.968  -1.897   0.788  1.00  0.00     0.190 HD
BRANCH  15  18
ATOM     18  C   UNL     1       2.898   0.337  -0.198  1.00  0.00     0.002 A 
ATOM     19  C   UNL     1       3.536  -0.911  -0.308  1.00  0.00     0.010 A 
ATOM     20  C   UNL     1       3.599   1.378   0.436  1.00  0.00     0.010 A 
ATOM     21  C   UNL     1       4.815  -1.117   0.219  1.00  0.00     0.001 A 
ATOM     22  C   UNL     1       4.876   1.174   0.964  1.00  0.00     0.001 A 
ATOM     23  C   UNL     1       5.481  -0.075   0.859  1.00  0.00     0.000 A 
ENDBRANCH  15  18
ENDBRANCH   1   8
TORSDOF 3
