MODEL        10USER    Run = 10USERUSER    Estimated Free Energy of Binding    = -10.34 kcal/mol  [=(1)+(2)+(3)-(4)]USERUSER    (1) Final Intermolecular Energy     = -13.03 kcal/molUSER        vdW + Hbond + desolv Energy     = -12.82 kcal/molUSER        Electrostatic Energy            =  -0.20 kcal/molUSER        Moving Ligand-Fixed Receptor    = -13.03 kcal/molUSER        Moving Ligand-Moving Receptor   =  +0.00 kcal/molUSER    (2) Final Total Internal Energy     =  -2.16 kcal/molUSER    (3) Torsional Free Energy           =  +2.68 kcal/molUSER    (4) Unbound System's Energy         =  -2.16 kcal/molUSERUSERREMARK SMILES Cc1[nH]c2ccccc2c1C=CCC[C@@H](CO)c1ccc(-c2nnc[nH]2)cc1REMARK SMILES IDX 13 1 12 2 11 3 10 4 2 5 3 6 4 7 9 8 5 9 8 10 6 11 7 12 1 13REMARK SMILES IDX 14 15 15 16 16 17 17 18 18 20 19 21 28 22 20 23 27 24 21 25REMARK SMILES IDX 22 26 23 27 26 28 24 29 25 30REMARK H PARENT 3 14 17 19 26 31USER                              x       y       z     vdW  Elec       q    TypeUSER                           _______ _______ _______ _____ _____    ______ ____ROOTATOM      1  C   UNL     1      36.303  43.896  19.684 -0.44 -0.00    +0.028 C  ENDROOTBRANCH   1   2ATOM      2  C   UNL     1      37.592  44.440  19.130 -0.40 +0.00    -0.026 C  BRANCH   2   3ATOM      3  C   UNL     1      37.755  45.523  18.351 -0.38 -0.00    +0.006 C  BRANCH   3   4ATOM      4  C   UNL     1      38.998  46.016  17.842 -0.42 -0.00    +0.002 A  ATOM      5  C   UNL     1      40.271  45.683  18.275 -0.45 -0.00    +0.020 A  ATOM      6  N   UNL     1      41.159  46.398  17.506 -0.20 +0.03    -0.358 N  ATOM      7  C   UNL     1      40.497  47.207  16.614 -0.47 -0.01    +0.046 A  ATOM      8  C   UNL     1      39.132  46.992  16.803 -0.45 -0.00    +0.007 A  ATOM      9  C   UNL     1      41.001  48.105  15.666 -0.47 -0.00    +0.027 A  ATOM     10  C   UNL     1      38.224  47.711  15.995 -0.42 -0.01    +0.011 A  ATOM     11  C   UNL     1      40.080  48.806  14.882 -0.56 -0.00    +0.002 A  ATOM     12  C   UNL     1      38.711  48.613  15.041 -0.50 -0.00    +0.001 A  ATOM     13  C   UNL     1      40.763  44.778  19.348 -0.43 +0.00    +0.065 C  ATOM     14  H   UNL     1      42.164  46.356  17.592 -0.36 -0.03    +0.166 HD ENDBRANCH   3   4ENDBRANCH   2   3ENDBRANCH   1   2BRANCH   1  15ATOM     15  C   UNL     1      35.784  42.590  19.068 -0.41 -0.00    +0.015 C  BRANCH  15  16ATOM     16  C   UNL     1      34.581  42.808  18.125 -0.40 -0.01    +0.045 C  BRANCH  16  17ATOM     17  C   UNL     1      33.297  43.295  18.833 -0.32 -0.02    +0.164 C  BRANCH  17  18ATOM     18  O   UNL     1      33.491  43.602  20.210 -0.80 -0.03    -0.396 OA ATOM     19  H   UNL     1      33.410  44.565  20.318 -0.19 -0.04    +0.210 HD ENDBRANCH  17  18ENDBRANCH  16  17BRANCH  16  20ATOM     20  C   UNL     1      34.988  43.723  16.974 -0.31 +0.02    -0.043 A  ATOM     21  C   UNL     1      34.330  44.933  16.720 -0.31 -0.00    +0.005 A  ATOM     22  C   UNL     1      36.068  43.371  16.154 -0.43 -0.00    +0.005 A  ATOM     23  C   UNL     1      34.729  45.763  15.664 -0.29 -0.01    +0.012 A  ATOM     24  C   UNL     1      36.467  44.201  15.101 -0.36 -0.00    +0.012 A  ATOM     25  C   UNL     1      35.803  45.407  14.838 -0.36 -0.01    +0.019 A  BRANCH  25  26ATOM     26  C   UNL     1      36.253  46.241  13.722 -0.36 -0.09    +0.161 A  ATOM     27  N   UNL     1      37.498  46.413  13.312 -0.40 +0.04    -0.131 NA ATOM     28  N   UNL     1      35.441  46.985  12.902 -0.32 +0.22    -0.328 N  ATOM     29  N   UNL     1      37.496  47.269  12.235 -1.03 +0.03    -0.139 NA ATOM     30  C   UNL     1      36.251  47.601  12.001 -0.32 -0.11    +0.223 A  ATOM     31  H   UNL     1      34.436  47.056  12.952 -0.28 -0.16    +0.169 HD ENDBRANCH  25  26ENDBRANCH  16  20ENDBRANCH  15  16ENDBRANCH   1  15TORSDOF 9TERENDMDL