REMARK SMILES O=S(=O)(Nc1cccc2cccnc12)c1cccc2cccnc12
REMARK SMILES IDX 1 1 2 2 3 3 4 4 5 6 6 7 14 8 7 9 13 10 9 11 8 12 12 13 10 14
REMARK SMILES IDX 11 15 15 16 16 17 24 18 17 19 23 20 19 21 18 22 22 23 20 24
REMARK SMILES IDX 21 25
REMARK H PARENT 4 5
ROOT
ATOM      1  O   UNL     1      -1.706  -3.474  -0.374  1.00  0.00    -0.201 OA
ATOM      2  S   UNL     1      -0.982  -2.377  -0.981  1.00  0.00     0.264 S 
ATOM      3  O   UNL     1      -0.858  -2.314  -2.426  1.00  0.00    -0.201 OA
ENDROOT
BRANCH   2   4
ATOM      4  N   UNL     1       0.584  -2.324  -0.297  1.00  0.00    -0.277 N 
ATOM      5  H   UNL     1       0.460  -2.024   0.683  1.00  0.00     0.180 HD
BRANCH   4   6
ATOM      6  C   UNL     1       1.528  -1.455  -0.968  1.00  0.00     0.075 A 
ATOM      7  C   UNL     1       2.119  -1.905  -2.154  1.00  0.00     0.029 A 
ATOM      8  C   UNL     1       1.803  -0.183  -0.451  1.00  0.00     0.094 A 
ATOM      9  C   UNL     1       3.001  -1.085  -2.849  1.00  0.00     0.003 A 
ATOM     10  N   UNL     1       1.228   0.228   0.700  1.00  0.00    -0.254 NA
ATOM     11  C   UNL     1       2.697   0.642  -1.167  1.00  0.00     0.002 A 
ATOM     12  C   UNL     1       3.289   0.186  -2.358  1.00  0.00     0.010 A 
ATOM     13  C   UNL     1       1.517   1.465   1.160  1.00  0.00     0.112 A 
ATOM     14  C   UNL     1       2.974   1.918  -0.658  1.00  0.00     0.012 A 
ATOM     15  C   UNL     1       2.374   2.339   0.523  1.00  0.00     0.021 A 
ENDBRANCH   4   6
ENDBRANCH   2   4
BRANCH   2  16
ATOM     16  C   UNL     1      -1.748  -0.874  -0.446  1.00  0.00     0.114 A 
ATOM     17  C   UNL     1      -2.273  -0.000  -1.412  1.00  0.00     0.024 A 
ATOM     18  C   UNL     1      -1.823  -0.616   0.923  1.00  0.00     0.091 A 
ATOM     19  C   UNL     1      -2.899   1.171  -1.009  1.00  0.00     0.002 A 
ATOM     20  N   UNL     1      -1.288  -1.448   1.849  1.00  0.00    -0.255 NA
ATOM     21  C   UNL     1      -2.467   0.581   1.311  1.00  0.00     0.002 A 
ATOM     22  C   UNL     1      -2.999   1.459   0.349  1.00  0.00     0.010 A 
ATOM     23  C   UNL     1      -1.400  -1.131   3.157  1.00  0.00     0.112 A 
ATOM     24  C   UNL     1      -2.561   0.878   2.677  1.00  0.00     0.012 A 
ATOM     25  C   UNL     1      -2.022   0.010   3.617  1.00  0.00     0.021 A 
ENDBRANCH   2  16
TORSDOF 3
