MODEL        6USER    Run = 6USERUSER    Estimated Free Energy of Binding    =  -7.03 kcal/mol  [=(1)+(2)+(3)-(4)]USERUSER    (1) Final Intermolecular Energy     =  -9.12 kcal/molUSER        vdW + Hbond + desolv Energy     =  -9.04 kcal/molUSER        Electrostatic Energy            =  -0.09 kcal/molUSER        Moving Ligand-Fixed Receptor    =  -9.12 kcal/molUSER        Moving Ligand-Moving Receptor   =  +0.00 kcal/molUSER    (2) Final Total Internal Energy     =  -3.93 kcal/molUSER    (3) Torsional Free Energy           =  +2.09 kcal/molUSER    (4) Unbound System's Energy         =  -3.93 kcal/molUSERUSERREMARK SMILES Nc1ccccc1Oc1ccnc(NC(=O)Cc2ccccc2C=O)n1REMARK SMILES IDX 9 1 10 2 11 3 12 4 13 5 26 6 8 7 7 8 2 9 3 10 4 11 6 12 5 13REMARK SMILES IDX 1 14 14 17 15 18 16 20 17 21 18 22 19 23 23 24 20 25 22 26REMARK SMILES IDX 21 27 24 28 25 29REMARK H PARENT 1 15 1 16 14 19USER                              x       y       z     vdW  Elec       q    TypeUSER                           _______ _______ _______ _____ _____    ______ ____ROOTATOM      1  C   UNL     1      40.048  47.560  14.848 -0.31 -0.04    +0.224 A  ATOM      2  C   UNL     1      40.310  48.899  14.685 -0.49 -0.03    +0.089 A  ATOM      3  C   UNL     1      40.957  49.490  15.738 -0.55 -0.03    +0.121 A  ATOM      4  N   UNL     1      41.326  48.822  16.845 -0.86 +0.00    -0.221 NA ATOM      5  C   UNL     1      41.052  47.516  16.892 -0.26 -0.03    +0.232 A  ATOM      6  N   UNL     1      40.412  46.841  15.930 -0.33 +0.02    -0.177 NA ENDROOTBRANCH   1   7ATOM      7  O   UNL     1      39.429  46.847  13.839 -0.09 +0.07    -0.437 OA BRANCH   7   8ATOM      8  C   UNL     1      38.054  46.782  13.952 -0.35 -0.05    +0.152 A  ATOM      9  C   UNL     1      37.428  46.339  15.130 -0.34 -0.04    +0.075 A  ATOM     10  C   UNL     1      36.032  46.234  15.136 -0.36 -0.02    +0.029 A  ATOM     11  C   UNL     1      35.280  46.615  14.021 -0.43 -0.00    +0.002 A  ATOM     12  C   UNL     1      37.307  47.135  12.824 -0.56 -0.02    +0.049 A  ATOM     13  C   UNL     1      35.916  47.065  12.866 -0.62 -0.00    +0.004 A  BRANCH   9  14ATOM     14  N   UNL     1      38.159  45.793  16.200 -0.10 +0.13    -0.396 N  ATOM     15  H   UNL     1      38.430  46.473  16.900 +0.09 -0.05    +0.156 HD ATOM     16  H   UNL     1      38.941  45.215  15.886 +0.10 -0.03    +0.156 HD ENDBRANCH   9  14ENDBRANCH   7   8ENDBRANCH   1   7BRANCH   5  17ATOM     17  N   UNL     1      41.419  46.732  17.976 -0.32 +0.02    -0.294 N  ATOM     18  C   UNL     1      40.766  45.612  18.423 -0.37 -0.00    +0.231 C  ATOM     19  H   UNL     1      42.211  47.102  18.477 +0.02 +0.00    +0.173 HD ATOM     20  O   UNL     1      39.770  45.090  17.931 -0.26 +0.02    -0.274 OA BRANCH  18  21ATOM     21  C   UNL     1      41.414  45.001  19.657 -0.34 +0.02    +0.136 C  BRANCH  21  22ATOM     22  C   UNL     1      40.943  45.631  20.948 -0.32 -0.00    -0.028 A  ATOM     23  C   UNL     1      39.635  45.348  21.389 -0.33 +0.00    +0.005 A  ATOM     24  C   UNL     1      41.751  46.475  21.740 -0.26 +0.00    +0.018 A  ATOM     25  C   UNL     1      39.147  45.881  22.584 -0.33 +0.00    +0.000 A  ATOM     26  C   UNL     1      41.248  47.005  22.939 -0.21 +0.00    +0.012 A  ATOM     27  C   UNL     1      39.953  46.706  23.360 -0.26 +0.00    +0.001 A  BRANCH  24  28ATOM     28  C   UNL     1      43.134  46.856  21.355 -0.26 +0.08    +0.260 C  ATOM     29  O   UNL     1      43.434  47.112  20.194 -0.35 -0.12    -0.298 OA ENDBRANCH  24  28ENDBRANCH  21  22ENDBRANCH  18  21ENDBRANCH   5  17TORSDOF 7TERENDMDL