REMARK SMILES Cc1[nH]c2ccccc2c1C=CCC[C@@H](CO)c1ccc(-c2nnc[nH]2)cc1
REMARK SMILES IDX 13 1 12 2 11 3 10 4 2 5 3 6 4 7 9 8 5 9 8 10 6 11 7 12 1 13
REMARK SMILES IDX 14 15 15 16 16 17 17 18 18 20 19 21 28 22 20 23 27 24 21 25
REMARK SMILES IDX 22 26 23 27 26 28 24 29 25 30
REMARK H PARENT 3 14 17 19 26 31
ROOT
ATOM      1  C   UNL     1      -0.777  -2.390  -0.547  1.00  0.00     0.028 C 
ENDROOT
BRANCH   1   2
ATOM      2  C   UNL     1      -2.148  -1.807  -0.333  1.00  0.00    -0.026 C 
BRANCH   2   3
ATOM      3  C   UNL     1      -2.463  -0.518  -0.116  1.00  0.00     0.006 C 
BRANCH   3   4
ATOM      4  C   UNL     1      -3.778   0.003   0.101  1.00  0.00     0.002 A 
ATOM      5  C   UNL     1      -4.953  -0.413  -0.503  1.00  0.00     0.020 A 
ATOM      6  N   UNL     1      -5.965   0.370   0.002  1.00  0.00    -0.358 N 
ATOM      7  C   UNL     1      -5.473   1.300   0.886  1.00  0.00     0.046 A 
ATOM      8  C   UNL     1      -4.096   1.097   0.968  1.00  0.00     0.007 A 
ATOM      9  C   UNL     1      -6.139   2.296   1.610  1.00  0.00     0.027 A 
ATOM     10  C   UNL     1      -3.347   1.933   1.825  1.00  0.00     0.011 A 
ATOM     11  C   UNL     1      -5.373   3.111   2.448  1.00  0.00     0.002 A 
ATOM     12  C   UNL     1      -3.997   2.934   2.557  1.00  0.00     0.001 A 
ATOM     13  C   UNL     1      -5.245  -1.456  -1.522  1.00  0.00     0.065 C 
ATOM     14  H   UNL     1      -6.939   0.293  -0.253  1.00  0.00     0.166 HD
ENDBRANCH   3   4
ENDBRANCH   2   3
ENDBRANCH   1   2
BRANCH   1  15
ATOM     15  C   UNL     1       0.403  -1.410  -0.509  1.00  0.00     0.015 C 
BRANCH  15  16
ATOM     16  C   UNL     1       1.767  -2.107  -0.707  1.00  0.00     0.045 C 
BRANCH  16  17
ATOM     17  C   UNL     1       1.933  -2.804  -2.075  1.00  0.00     0.164 C 
BRANCH  17  18
ATOM     18  O   UNL     1       1.531  -1.995  -3.176  1.00  0.00    -0.396 OA
ATOM     19  H   UNL     1       0.561  -1.929  -3.163  1.00  0.00     0.210 HD
ENDBRANCH  17  18
ENDBRANCH  16  17
BRANCH  16  20
ATOM     20  C   UNL     1       2.896  -1.121  -0.420  1.00  0.00    -0.043 A 
ATOM     21  C   UNL     1       3.213  -0.080  -1.301  1.00  0.00     0.005 A 
ATOM     22  C   UNL     1       3.629  -1.230   0.769  1.00  0.00     0.005 A 
ATOM     23  C   UNL     1       4.246   0.821  -1.011  1.00  0.00     0.012 A 
ATOM     24  C   UNL     1       4.659  -0.329   1.059  1.00  0.00     0.012 A 
ATOM     25  C   UNL     1       4.986   0.707   0.173  1.00  0.00     0.019 A 
BRANCH  25  26
ATOM     26  C   UNL     1       6.075   1.623   0.516  1.00  0.00     0.161 A 
ATOM     27  N   UNL     1       6.768   1.645   1.642  1.00  0.00    -0.131 NA
ATOM     28  N   UNL     1       6.567   2.618  -0.292  1.00  0.00    -0.328 N 
ATOM     29  N   UNL     1       7.702   2.652   1.568  1.00  0.00    -0.139 NA
ATOM     30  C   UNL     1       7.568   3.225   0.398  1.00  0.00     0.223 A 
ATOM     31  H   UNL     1       6.253   2.849  -1.222  1.00  0.00     0.169 HD
ENDBRANCH  25  26
ENDBRANCH  16  20
ENDBRANCH  15  16
ENDBRANCH   1  15
TORSDOF 9
