MODEL        2USER    Run = 2USERUSER    Estimated Free Energy of Binding    =  -8.74 kcal/mol  [=(1)+(2)+(3)-(4)]USERUSER    (1) Final Intermolecular Energy     = -10.83 kcal/molUSER        vdW + Hbond + desolv Energy     = -11.22 kcal/molUSER        Electrostatic Energy            =  -0.08 kcal/molUSER        Moving Ligand-Fixed Receptor    = -11.30 kcal/molUSER        Moving Ligand-Moving Receptor   =  +0.47 kcal/molUSER    (2) Final Total Internal Energy     =  -1.07 kcal/molUSER    (3) Torsional Free Energy           =  +2.09 kcal/molUSER    (4) Unbound System's Energy         =  -1.07 kcal/molUSERUSERREMARK SMILES O=C1Cc2ccccc2-c2ccc(C(=O)NCc3ccccc3)cc2CN1REMARK SMILES IDX 10 1 11 2 12 3 13 4 24 5 25 6 26 7 27 8 2 9 1 10 9 13 8 14REMARK SMILES IDX 4 15 7 16 5 17 6 18 3 19 14 21 16 22 15 23 17 25 18 26 19 27REMARK SMILES IDX 23 28 20 29 22 30 21 31REMARK H PARENT 27 11 16 24REMARK Flexibility Score:   45.900USER                              x       y       z     vdW  Elec       q    TypeUSER                           _______ _______ _______ _____ _____    ______ ____ROOTATOM      1  C   UNL     1      41.400  45.683  20.365 -0.37 -0.00    -0.013 A  ATOM      2  C   UNL     1      40.272  45.402  19.569 -0.42 +0.00    +0.010 A  ATOM      3  C   UNL     1      40.013  46.128  18.402 -0.45 -0.00    +0.014 A  ATOM      4  C   UNL     1      40.889  47.145  18.012 -0.48 -0.00    +0.040 A  ATOM      5  C   UNL     1      42.020  47.432  18.783 -0.48 +0.00    +0.020 A  ATOM      6  C   UNL     1      42.284  46.710  19.961 -0.42 -0.00    -0.020 A  ENDROOTBRANCH   6   7ATOM      7  C   UNL     1      43.499  47.065  20.784 -0.31 +0.06    +0.152 C  BRANCH   7   8ATOM      8  N   UNL     1      43.241  48.095  21.769 +0.03 -0.03    -0.352 N  ATOM      9  C   UNL     1      42.460  48.037  22.886 -0.24 +0.04    +0.224 CG0ATOM     10  O   UNL     1      42.643  48.889  23.763 -0.81 -0.08    -0.275 OA ATOM     11  H   UNL     1      43.903  48.853  21.824 -0.53 -0.03    +0.163 HD ATOM     12  G   UNL     1      41.301  47.061  22.988 +0.00 +0.00    +0.000 G0 ENDBRANCH   7   8ENDBRANCH   6   7BRANCH   1  13ATOM     13  C   UNL     1      41.631  44.936  21.616 -0.28 -0.00    -0.014 A  ATOM     14  C   UNL     1      41.908  43.562  21.571 -0.34 +0.00    +0.009 A  ATOM     15  C   UNL     1      41.638  45.591  22.868 -0.17 -0.00    -0.031 A  ATOM     16  C   UNL     1      42.198  42.848  22.737 -0.31 -0.00    +0.001 A  ATOM     17  C   UNL     1      41.940  44.861  24.031 -0.10 +0.00    +0.005 A  ATOM     18  C   UNL     1      42.217  43.498  23.964 -0.17 +0.00    +0.000 A  BRANCH  15  19ATOM     19  C   UNL     1      41.305  47.060  22.988 -0.19 +0.02    +0.136 CG0ATOM     20  G   UNL     1      42.465  48.035  22.883 +0.00 +0.00    +0.000 G0 ENDBRANCH  15  19ENDBRANCH   1  13BRANCH   4  21ATOM     21  C   UNL     1      40.668  47.926  16.773 -0.40 -0.04    +0.251 C  ATOM     22  N   UNL     1      39.586  47.542  16.010 -0.22 +0.10    -0.348 N  ATOM     23  O   UNL     1      41.404  48.866  16.508 -1.00 -0.00    -0.269 OA ATOM     24  H   UNL     1      38.911  46.909  16.416 +0.11 -0.05    +0.164 HD BRANCH  22  25ATOM     25  C   UNL     1      39.131  48.357  14.902 -0.48 -0.06    +0.152 C  BRANCH  25  26ATOM     26  C   UNL     1      38.029  47.660  14.142 -0.49 +0.01    -0.029 A  ATOM     27  C   UNL     1      36.980  48.389  13.563 -0.56 -0.00    +0.005 A  ATOM     28  C   UNL     1      38.068  46.267  13.963 -0.43 -0.00    +0.005 A  ATOM     29  C   UNL     1      35.988  47.735  12.829 -0.58 -0.00    +0.000 A  ATOM     30  C   UNL     1      37.079  45.617  13.227 -0.50 -0.00    +0.000 A  ATOM     31  C   UNL     1      36.039  46.351  12.658 -0.61 -0.00    +0.000 A  ENDBRANCH  25  26ENDBRANCH  22  25ENDBRANCH   4  21TORSDOF 3TERENDMDL