REMARK SMILES OCCNC1=NC=C(Nc2ccccc2Cl)N=C(N2CCCC2)N=C1
REMARK SMILES IDX 6 1 5 2 4 3 3 6 2 7 1 8 7 10 8 11 9 12 10 14 11 15 15 16
REMARK SMILES IDX 12 17 14 18 13 19 16 20 17 21 18 22 19 23 20 24 23 25 21 26
REMARK SMILES IDX 22 27 24 28 25 29
REMARK H PARENT 4 4 1 9 9 13
REMARK Flexibility Score:  115.900
ROOT
ATOM      1  N   UNL     1       1.131  -1.529   0.494  1.00  0.00    -0.234 NA
ENDROOT
BRANCH   1   2
ATOM      2  C   UNL     1       1.820  -0.595  -0.100  1.00  0.00     0.144 CG0
ATOM      3  N   UNL     1       3.126  -0.299   0.237  1.00  0.00    -0.366 N 
ATOM      4  H   UNL     1       3.424   0.628  -0.054  1.00  0.00     0.162 HD
ATOM      5  G   UNL     1       1.214   0.222  -1.238  1.00  0.00     0.000 G0
BRANCH   3   6
ATOM      6  C   UNL     1       3.701  -0.694   1.524  1.00  0.00     0.142 C 
BRANCH   6   7
ATOM      7  C   UNL     1       4.073  -2.182   1.557  1.00  0.00     0.177 C 
BRANCH   7   8
ATOM      8  O   UNL     1       2.960  -3.009   1.881  1.00  0.00    -0.395 OA
ATOM      9  H   UNL     1       2.190  -2.644   1.389  1.00  0.00     0.210 HD
ENDBRANCH   7   8
ENDBRANCH   6   7
ENDBRANCH   3   6
ENDBRANCH   1   2
BRANCH   1  10
ATOM     10  C   UNL     1      -0.196  -1.659   0.136  1.00  0.00     0.160 C 
BRANCH  10  11
ATOM     11  C   UNL     1      -1.158  -0.710   0.288  1.00  0.00     0.153 C 
BRANCH  11  12
ATOM     12  N   UNL     1      -2.490  -0.872  -0.080  1.00  0.00    -0.338 N 
ATOM     13  H   UNL     1      -2.874   0.055  -0.255  1.00  0.00     0.168 HD
BRANCH  12  14
ATOM     14  C   UNL     1      -3.020  -1.850  -0.950  1.00  0.00     0.059 A 
ATOM     15  C   UNL     1      -3.042  -3.199  -0.567  1.00  0.00     0.027 A 
ATOM     16  C   UNL     1      -3.499  -1.514  -2.229  1.00  0.00     0.064 A 
ATOM     17  C   UNL     1      -3.540  -4.182  -1.426  1.00  0.00     0.002 A 
ATOM     18  C   UNL     1      -3.994  -2.498  -3.091  1.00  0.00     0.023 A 
ATOM     19  C   UNL     1      -4.016  -3.832  -2.686  1.00  0.00     0.002 A 
ATOM     20  Cl  UNL     1      -3.492   0.128  -2.777  1.00  0.00    -0.082 Cl
ENDBRANCH  12  14
ENDBRANCH  11  12
BRANCH  11  21
ATOM     21  N   UNL     1      -0.807   0.488   0.877  1.00  0.00    -0.194 NA
BRANCH  21  22
ATOM     22  C   UNL     1      -0.093   1.357   0.218  1.00  0.00     0.227 C 
ATOM     23  N   UNL     1       0.261   2.545   0.808  1.00  0.00    -0.341 N 
ATOM     24  C   UNL     1      -0.165   2.912   2.149  1.00  0.00     0.120 C 
ATOM     25  C   UNL     1       0.765   3.695   0.076  1.00  0.00     0.120 C 
ATOM     26  C   UNL     1       0.514   4.255   2.386  1.00  0.00     0.023 C 
ATOM     27  C   UNL     1       0.504   4.880   1.002  1.00  0.00     0.023 C 
BRANCH  22  28
ATOM     28  N   UNL     1       0.315   1.138  -1.073  1.00  0.00    -0.218 NA
BRANCH  28  29
ATOM     29  C   UNL     1       1.214   0.222  -1.238  1.00  0.00     0.161 CG0
ATOM     30  G   UNL     1       1.820  -0.595  -0.100  1.00  0.00     0.000 G0
ENDBRANCH  28  29
ENDBRANCH  22  28
ENDBRANCH  21  22
ENDBRANCH  11  21
ENDBRANCH  10  11
ENDBRANCH   1  10
TORSDOF 5
