REMARK SMILES NCCc1ccc[nH]cnccc(-c2ccccc2)c(C(=O)CC(F)(F)F)cc1
REMARK SMILES IDX 4 1 5 2 6 3 7 4 8 5 9 6 10 7 11 8 12 9 13 10 20 11 28 12
REMARK SMILES IDX 29 13 3 15 2 16 1 17 21 20 22 21 23 22 24 23 25 24 26 25
REMARK SMILES IDX 27 26 14 27 15 28 19 29 16 30 18 31 17 32
REMARK H PARENT 8 14 1 18 1 19
ROOT
ATOM      1  C   UNL     1       2.253   0.712  -0.585  1.00  0.00    -0.047 A 
ATOM      2  C   UNL     1       3.612   0.747  -0.551  1.00  0.00     0.005 A 
ATOM      3  C   UNL     1       4.599   0.002  -1.085  1.00  0.00     0.018 A 
ATOM      4  C   UNL     1       4.582  -1.254  -1.560  1.00  0.00     0.083 A 
ATOM      5  N   UNL     1       3.558  -2.182  -1.578  1.00  0.00    -0.353 N 
ATOM      6  C   UNL     1       3.448  -3.175  -0.604  1.00  0.00     0.196 A 
ATOM      7  N   UNL     1       2.431  -3.179   0.291  1.00  0.00    -0.247 NA
ATOM      8  C   UNL     1       1.313  -2.490  -0.050  1.00  0.00     0.113 A 
ATOM      9  C   UNL     1       0.345  -1.938   0.709  1.00  0.00     0.029 A 
ATOM     10  C   UNL     1      -0.648  -1.132   0.257  1.00  0.00    -0.006 A 
ATOM     11  C   UNL     1      -0.699  -0.461  -0.926  1.00  0.00     0.026 A 
ATOM     12  C   UNL     1       0.263  -0.080  -1.798  1.00  0.00     0.013 A 
ATOM     13  C   UNL     1       1.571   0.208  -1.643  1.00  0.00     0.004 A 
ATOM     14  H   UNL     1       2.709  -1.662  -1.453  1.00  0.00     0.167 HD
ENDROOT
BRANCH   1  15
ATOM     15  C   UNL     1       1.552   1.437   0.567  1.00  0.00     0.050 C 
BRANCH  15  16
ATOM     16  C   UNL     1       1.593   2.972   0.451  1.00  0.00     0.082 C 
BRANCH  16  17
ATOM     17  N   UNL     1       0.267   3.568   0.253  1.00  0.00    -0.330 NA
ATOM     18  H   UNL     1       0.352   4.579   0.339  1.00  0.00     0.118 HD
ATOM     19  H   UNL     1      -0.348   3.270   1.009  1.00  0.00     0.118 HD
ENDBRANCH  16  17
ENDBRANCH  15  16
ENDBRANCH   1  15
BRANCH  11  20
ATOM     20  C   UNL     1      -2.046  -0.032  -1.445  1.00  0.00     0.172 C 
ATOM     21  O   UNL     1      -2.682  -0.753  -2.212  1.00  0.00    -0.294 OA
BRANCH  20  22
ATOM     22  C   UNL     1      -2.498   1.345  -1.039  1.00  0.00     0.196 C 
BRANCH  22  23
ATOM     23  C   UNL     1      -3.961   1.523  -1.306  1.00  0.00     0.396 C 
ATOM     24  F   UNL     1      -4.242   1.595  -2.624  1.00  0.00    -0.171 F 
ATOM     25  F   UNL     1      -4.370   2.703  -0.766  1.00  0.00    -0.171 F 
ATOM     26  F   UNL     1      -4.730   0.569  -0.748  1.00  0.00    -0.171 F 
ENDBRANCH  22  23
ENDBRANCH  20  22
ENDBRANCH  11  20
BRANCH  10  27
ATOM     27  C   UNL     1      -1.808  -1.082   1.190  1.00  0.00    -0.018 A 
ATOM     28  C   UNL     1      -2.924  -1.907   0.980  1.00  0.00     0.009 A 
ATOM     29  C   UNL     1      -1.797  -0.222   2.297  1.00  0.00     0.009 A 
ATOM     30  C   UNL     1      -4.017  -1.851   1.847  1.00  0.00     0.001 A 
ATOM     31  C   UNL     1      -2.891  -0.169   3.164  1.00  0.00     0.001 A 
ATOM     32  C   UNL     1      -4.002  -0.979   2.935  1.00  0.00     0.000 A 
ENDBRANCH  10  27
TORSDOF 7
