REMARK SMILES O=C1Cc2ccccc2-c2ccc(C(=O)NCc3ccccc3)cc2CN1
REMARK SMILES IDX 10 1 11 2 12 3 13 4 24 5 25 6 26 7 27 8 2 9 1 10 9 13 8 14
REMARK SMILES IDX 4 15 7 16 5 17 6 18 3 19 14 21 16 22 15 23 17 25 18 26 19 27
REMARK SMILES IDX 23 28 20 29 22 30 21 31
REMARK H PARENT 27 11 16 24
REMARK Flexibility Score:   45.900
ROOT
ATOM      1  C   UNL     1      -1.791   1.286   0.870  1.00  0.00    -0.013 A 
ATOM      2  C   UNL     1      -0.737   1.701   1.707  1.00  0.00     0.010 A 
ATOM      3  C   UNL     1       0.570   1.811   1.222  1.00  0.00     0.014 A 
ATOM      4  C   UNL     1       0.838   1.512  -0.117  1.00  0.00     0.040 A 
ATOM      5  C   UNL     1      -0.197   1.108  -0.967  1.00  0.00     0.020 A 
ATOM      6  C   UNL     1      -1.513   0.989  -0.485  1.00  0.00    -0.020 A 
ENDROOT
BRANCH   6   7
ATOM      7  C   UNL     1      -2.600   0.524  -1.423  1.00  0.00     0.152 C 
BRANCH   7   8
ATOM      8  N   UNL     1      -2.748  -0.917  -1.456  1.00  0.00    -0.352 N 
ATOM      9  C   UNL     1      -3.189  -1.756  -0.475  1.00  0.00     0.224 CG0
ATOM     10  O   UNL     1      -3.564  -2.886  -0.808  1.00  0.00    -0.275 OA
ATOM     11  H   UNL     1      -2.808  -1.351  -2.364  1.00  0.00     0.163 HD
ATOM     12  G   UNL     1      -3.079  -1.381   0.992  1.00  0.00     0.000 G0
ENDBRANCH   7   8
ENDBRANCH   6   7
BRANCH   1  13
ATOM     13  C   UNL     1      -3.154   1.133   1.411  1.00  0.00    -0.014 A 
ATOM     14  C   UNL     1      -3.858   2.257   1.867  1.00  0.00     0.009 A 
ATOM     15  C   UNL     1      -3.798  -0.125   1.429  1.00  0.00    -0.031 A 
ATOM     16  C   UNL     1      -5.175   2.147   2.320  1.00  0.00     0.001 A 
ATOM     17  C   UNL     1      -5.126  -0.219   1.880  1.00  0.00     0.005 A 
ATOM     18  C   UNL     1      -5.809   0.911   2.323  1.00  0.00     0.000 A 
BRANCH  15  19
ATOM     19  C   UNL     1      -3.079  -1.381   0.992  1.00  0.00     0.136 CG0
ATOM     20  G   UNL     1      -3.189  -1.756  -0.475  1.00  0.00     0.000 G0
ENDBRANCH  15  19
ENDBRANCH   1  13
BRANCH   4  21
ATOM     21  C   UNL     1       2.202   1.635  -0.681  1.00  0.00     0.251 C 
ATOM     22  N   UNL     1       3.225   1.186   0.126  1.00  0.00    -0.348 N 
ATOM     23  O   UNL     1       2.354   2.078  -1.811  1.00  0.00    -0.269 OA
ATOM     24  H   UNL     1       2.990   0.635   0.940  1.00  0.00     0.164 HD
BRANCH  22  25
ATOM     25  C   UNL     1       4.571   1.043  -0.390  1.00  0.00     0.152 C 
BRANCH  25  26
ATOM     26  C   UNL     1       4.798  -0.354  -0.914  1.00  0.00    -0.029 A 
ATOM     27  C   UNL     1       5.363  -1.347  -0.100  1.00  0.00     0.005 A 
ATOM     28  C   UNL     1       4.399  -0.691  -2.218  1.00  0.00     0.005 A 
ATOM     29  C   UNL     1       5.532  -2.645  -0.585  1.00  0.00     0.000 A 
ATOM     30  C   UNL     1       4.564  -1.989  -2.699  1.00  0.00     0.000 A 
ATOM     31  C   UNL     1       5.130  -2.967  -1.882  1.00  0.00     0.000 A 
ENDBRANCH  25  26
ENDBRANCH  22  25
ENDBRANCH   4  21
TORSDOF 3
