MODEL        3USER    Run = 3USERUSER    Estimated Free Energy of Binding    =  -5.06 kcal/mol  [=(1)+(2)+(3)-(4)]USERUSER    (1) Final Intermolecular Energy     =  -8.64 kcal/molUSER        vdW + Hbond + desolv Energy     =  -9.01 kcal/molUSER        Electrostatic Energy            =  -0.27 kcal/molUSER        Moving Ligand-Fixed Receptor    =  -9.27 kcal/molUSER        Moving Ligand-Moving Receptor   =  +0.64 kcal/molUSER    (2) Final Total Internal Energy     =  -2.15 kcal/molUSER    (3) Torsional Free Energy           =  +3.58 kcal/molUSER    (4) Unbound System's Energy         =  -2.15 kcal/molUSERUSERREMARK SMILES OCCNC1=NC=C(Nc2ccccc2Cl)N=C(N2CCCC2)N=C1REMARK SMILES IDX 6 1 5 2 4 3 3 6 2 7 1 8 7 10 8 11 9 12 10 14 11 15 15 16REMARK SMILES IDX 12 17 14 18 13 19 16 20 17 21 18 22 19 23 20 24 23 25 21 26REMARK SMILES IDX 22 27 24 28 25 29REMARK H PARENT 4 4 1 9 9 13REMARK Flexibility Score:  115.900USER                              x       y       z     vdW  Elec       q    TypeUSER                           _______ _______ _______ _____ _____    ______ ____ROOTATOM      1  N   UNL     1      25.647  40.150  21.702 -0.65 +0.04    -0.234 NA ENDROOTBRANCH   1   2ATOM      2  C   UNL     1      24.646  40.768  21.140 -0.41 -0.03    +0.144 CG0ATOM      3  N   UNL     1      24.286  42.061  21.464 -0.29 +0.09    -0.366 N  ATOM      4  H   UNL     1      23.330  42.296  21.212 +0.04 -0.03    +0.162 HD ATOM      5  G   UNL     1      23.815  40.087  20.055 +0.00 +0.00    +0.000 G0 BRANCH   3   6ATOM      6  C   UNL     1      24.705  42.688  22.719 -0.46 -0.04    +0.142 C  BRANCH   6   7ATOM      7  C   UNL     1      23.513  43.229  23.519 -0.48 -0.08    +0.177 C  BRANCH   7   8ATOM      8  O   UNL     1      22.305  42.536  23.222 -0.86 +0.09    -0.395 OA ATOM      9  H   UNL     1      21.894  42.309  24.087 -0.44 -0.26    +0.210 HD ENDBRANCH   7   8ENDBRANCH   6   7ENDBRANCH   3   6ENDBRANCH   1   2BRANCH   1  10ATOM     10  C   UNL     1      26.814  40.044  20.972 -0.09 -0.02    +0.160 C  BRANCH  10  11ATOM     11  C   UNL     1      27.054  39.143  19.982 -0.22 -0.02    +0.153 C  BRANCH  11  12ATOM     12  N   UNL     1      27.784  37.969  20.146 -0.11 +0.03    -0.338 N  ATOM     13  H   UNL     1      27.261  37.219  19.696 +0.09 -0.03    +0.168 HD BRANCH  12  14ATOM     14  C   UNL     1      29.181  37.810  20.014 -0.30 +0.01    +0.059 A  ATOM     15  C   UNL     1      29.839  38.267  18.863 -0.37 +0.01    +0.027 A  ATOM     16  C   UNL     1      29.942  37.159  21.001 -0.34 +0.00    +0.064 A  ATOM     17  C   UNL     1      31.216  38.094  18.706 -0.49 +0.00    +0.002 A  ATOM     18  C   UNL     1      31.321  36.982  20.843 -0.49 +0.00    +0.023 A  ATOM     19  C   UNL     1      31.956  37.454  19.695 -0.54 +0.00    +0.002 A  ATOM     20  Cl  UNL     1      29.198  36.556  22.443 -0.54 -0.00    -0.082 Cl ENDBRANCH  12  14ENDBRANCH  11  12BRANCH  11  21ATOM     21  N   UNL     1      26.515  39.383  18.735 -0.16 +0.00    -0.194 NA BRANCH  21  22ATOM     22  C   UNL     1      25.537  40.233  18.597 -0.19 -0.03    +0.227 C  ATOM     23  N   UNL     1      25.797  41.523  18.207 -0.07 +0.03    -0.341 N  ATOM     24  C   UNL     1      27.145  42.015  17.973 -0.19 -0.01    +0.120 C  ATOM     25  C   UNL     1      24.846  42.615  18.332 -0.24 -0.01    +0.120 C  ATOM     26  C   UNL     1      26.928  43.448  17.505 -0.31 -0.00    +0.023 C  ATOM     27  C   UNL     1      25.707  43.875  18.301 -0.49 -0.00    +0.023 C  BRANCH  22  28ATOM     28  N   UNL     1      24.232  39.891  18.846 -0.09 +0.05    -0.218 NA BRANCH  28  29ATOM     29  C   UNL     1      23.814  40.085  20.055 -0.32 -0.05    +0.161 CG0ATOM     30  G   UNL     1      24.637  40.768  21.145 +0.00 +0.00    +0.000 G0 ENDBRANCH  28  29ENDBRANCH  22  28ENDBRANCH  21  22ENDBRANCH  11  21ENDBRANCH  10  11ENDBRANCH   1  10TORSDOF 5TERENDMDL