MODEL        2USER    Run = 2USERUSER    Estimated Free Energy of Binding    =  -8.74 kcal/mol  [=(1)+(2)+(3)-(4)]USERUSER    (1) Final Intermolecular Energy     =  -9.63 kcal/molUSER        vdW + Hbond + desolv Energy     =  -9.43 kcal/molUSER        Electrostatic Energy            =  -0.20 kcal/molUSER        Moving Ligand-Fixed Receptor    =  -9.63 kcal/molUSER        Moving Ligand-Moving Receptor   =  +0.00 kcal/molUSER    (2) Final Total Internal Energy     =  -0.66 kcal/molUSER    (3) Torsional Free Energy           =  +0.89 kcal/molUSER    (4) Unbound System's Energy         =  -0.66 kcal/molUSERUSERREMARK SMILES Clc1ccc(Cc2n[nH]c3c(-c4ccccc4)ncnc23)o1REMARK SMILES IDX 6 1 5 2 2 3 3 4 22 5 4 6 1 7 7 8 8 9 21 10 9 11 20 12 10 13REMARK SMILES IDX 19 14 11 15 18 16 12 18 13 19 17 20 14 21 16 22 15 23REMARK H PARENT 9 17USER                              x       y       z     vdW  Elec       q    TypeUSER                           _______ _______ _______ _____ _____    ______ ____ROOTATOM      1  C   UNL     1      40.036  48.873  14.516 -0.44 -0.05    +0.136 C  ENDROOTBRANCH   1   2ATOM      2  C   UNL     1      38.645  48.383  14.300 -0.41 -0.05    +0.112 A  ATOM      3  C   UNL     1      37.084  47.383  13.124 -0.44 -0.07    +0.193 A  ATOM      4  C   UNL     1      36.493  47.772  14.305 -0.37 -0.05    +0.064 A  ATOM      5  O   UNL     1      38.397  47.749  13.118 -0.55 +0.06    -0.449 OA ATOM      6  C   UNL     1      37.499  48.413  15.068 -0.48 -0.04    +0.048 A  ATOM      7  Cl  UNL     1      36.329  46.556  11.820 -0.92 +0.02    -0.043 Cl ENDBRANCH   1   2BRANCH   1   8ATOM      8  C   UNL     1      40.591  48.448  15.835 -0.51 -0.02    +0.096 A  ATOM      9  N   UNL     1      41.553  49.161  16.451 -1.00 -0.01    -0.177 NA ATOM     10  C   UNL     1      40.218  47.311  16.593 -0.42 -0.02    +0.116 A  ATOM     11  N   UNL     1      41.794  48.459  17.576 -0.32 -0.01    -0.274 N  ATOM     12  N   UNL     1      39.315  46.335  16.363 -0.25 +0.05    -0.233 NA ATOM     13  C   UNL     1      41.006  47.357  17.726 -0.44 -0.01    +0.110 A  ATOM     14  C   UNL     1      39.283  45.410  17.333 -0.19 -0.03    +0.223 A  ATOM     15  C   UNL     1      40.896  46.375  18.698 -0.42 -0.00    +0.099 A  ATOM     16  N   UNL     1      40.015  45.370  18.464 -0.27 +0.01    -0.234 NA ATOM     17  H   UNL     1      42.520  48.790  18.202 +0.05 +0.02    +0.190 HD BRANCH  15  18ATOM     18  C   UNL     1      41.680  46.342  19.931 -0.41 +0.00    +0.002 A  ATOM     19  C   UNL     1      41.250  45.629  21.064 -0.32 +0.00    +0.010 A  ATOM     20  C   UNL     1      42.907  47.023  20.012 -0.46 +0.00    +0.010 A  ATOM     21  C   UNL     1      42.006  45.619  22.241 -0.23 +0.00    +0.001 A  ATOM     22  C   UNL     1      43.663  47.016  21.187 -0.36 +0.00    +0.001 A  ATOM     23  C   UNL     1      43.210  46.317  22.302 -0.26 +0.00    +0.000 A  ENDBRANCH  15  18ENDBRANCH   1   8TORSDOF 3TERENDMDL