MODEL        7USER    Run = 7USERUSER    Estimated Free Energy of Binding    =  -8.99 kcal/mol  [=(1)+(2)+(3)-(4)]USERUSER    (1) Final Intermolecular Energy     = -10.48 kcal/molUSER        vdW + Hbond + desolv Energy     =  -9.97 kcal/molUSER        Electrostatic Energy            =  -0.50 kcal/molUSER        Moving Ligand-Fixed Receptor    = -10.48 kcal/molUSER        Moving Ligand-Moving Receptor   =  +0.00 kcal/molUSER    (2) Final Total Internal Energy     =  -1.00 kcal/molUSER    (3) Torsional Free Energy           =  +1.49 kcal/molUSER    (4) Unbound System's Energy         =  -1.00 kcal/molUSERUSERREMARK SMILES CN(C)c1ccc(-c2c3cnccc(O)n-3c2Nc2ccncc2)cc1REMARK SMILES IDX 8 1 9 2 10 3 11 4 12 5 13 6 14 7 16 8 17 9 7 10 4 11 5 12REMARK SMILES IDX 26 13 6 14 25 15 2 16 1 17 3 18 18 19 19 21 20 22 24 23REMARK SMILES IDX 21 24 23 25 22 26 15 27REMARK H PARENT 18 20 15 28USER                              x       y       z     vdW  Elec       q    TypeUSER                           _______ _______ _______ _____ _____    ______ ____ROOTATOM      1  C   UNL     1      37.556  46.694  16.224 -0.35 -0.03    +0.049 A  ATOM      2  C   UNL     1      37.438  46.861  14.823 -0.36 -0.04    +0.080 A  ATOM      3  C   UNL     1      38.257  47.018  13.780 -0.35 -0.04    +0.138 A  ATOM      4  N   UNL     1      37.922  47.181  12.462 -0.71 +0.04    -0.262 NA ATOM      5  C   UNL     1      36.710  47.045  12.036 -0.59 -0.04    +0.116 A  ATOM      6  C   UNL     1      35.413  46.693  12.680 -0.41 -0.06    +0.087 A  ATOM      7  C   UNL     1      35.190  46.597  14.001 -0.26 -0.17    +0.198 A  ATOM      8  N   UNL     1      36.145  46.787  14.969 -0.21 +0.22    -0.264 N  ATOM      9  C   UNL     1      36.207  46.703  16.280 -0.27 -0.11    +0.128 A  ENDROOTBRANCH   1  10ATOM     10  C   UNL     1      38.772  46.624  17.144 -0.40 +0.00    -0.012 A  ATOM     11  C   UNL     1      41.056  46.537  18.843 -0.46 -0.00    +0.036 A  ATOM     12  C   UNL     1      41.011  47.348  17.693 -0.51 -0.00    +0.026 A  ATOM     13  C   UNL     1      39.892  45.794  19.115 -0.41 -0.00    +0.026 A  ATOM     14  C   UNL     1      39.890  47.394  16.851 -0.49 -0.00    +0.011 A  ATOM     15  C   UNL     1      38.765  45.827  18.281 -0.39 -0.00    +0.011 A  BRANCH  11  16ATOM     16  N   UNL     1      42.173  46.509  19.689 -0.21 -0.06    -0.378 N  ATOM     17  C   UNL     1      43.316  47.366  19.380 -0.42 +0.03    +0.143 C  ATOM     18  C   UNL     1      41.978  46.208  21.107 -0.30 +0.02    +0.143 C  ENDBRANCH  11  16ENDBRANCH   1  10BRANCH   9  19ATOM     19  N   UNL     1      35.295  46.604  17.222 -0.17 +0.35    -0.341 N  ATOM     20  H   UNL     1      34.501  47.236  17.172 -0.30 -0.35    +0.168 HD BRANCH  19  21ATOM     21  C   UNL     1      34.957  45.477  18.012 -0.37 -0.02    +0.043 A  ATOM     22  C   UNL     1      33.712  45.446  18.646 -0.43 -0.02    +0.046 A  ATOM     23  C   UNL     1      35.833  44.416  18.248 -0.30 -0.01    +0.046 A  ATOM     24  C   UNL     1      33.392  44.363  19.451 -0.36 -0.02    +0.113 A  ATOM     25  C   UNL     1      35.423  43.375  19.066 -0.30 -0.02    +0.113 A  ATOM     26  N   UNL     1      34.218  43.320  19.670 -0.39 +0.01    -0.265 NA ENDBRANCH  19  21ENDBRANCH   9  19BRANCH   7  27ATOM     27  O   UNL     1      33.921  46.253  14.441 -0.10 +0.56    -0.494 OA ATOM     28  H   UNL     1      33.527  46.991  14.928 -0.15 -0.74    +0.295 HD ENDBRANCH   7  27TORSDOF 5TERENDMDL