REMARK SMILES O=C(O)CCNc1c(-c2ccc3[nH]ncc3c2)nnc2ccsc12
REMARK SMILES IDX 5 1 4 2 2 3 1 4 3 5 6 7 7 9 8 10 24 11 18 12 23 13 20 14
REMARK SMILES IDX 19 15 22 16 21 17 9 18 10 19 17 20 11 21 16 22 12 23 15 24
REMARK SMILES IDX 13 25 14 26
REMARK H PARENT 3 6 6 8 13 27
ROOT
ATOM      1  C   UNL     1      -1.748  -0.771   0.082  1.00  0.00     0.124 C 
ENDROOT
BRANCH   1   2
ATOM      2  C   UNL     1      -2.389  -2.001  -0.549  1.00  0.00     0.143 C 
BRANCH   2   3
ATOM      3  C   UNL     1      -2.985  -2.877   0.511  1.00  0.00     0.305 C 
ATOM      4  O   UNL     1      -2.916  -2.728   1.719  1.00  0.00    -0.252 OA
BRANCH   3   5
ATOM      5  O   UNL     1      -3.641  -3.931  -0.014  1.00  0.00    -0.481 OA
ATOM      6  H   UNL     1      -3.980  -4.423   0.763  1.00  0.00     0.296 HD
ENDBRANCH   3   5
ENDBRANCH   2   3
ENDBRANCH   1   2
BRANCH   1   7
ATOM      7  N   UNL     1      -1.168   0.071  -0.977  1.00  0.00    -0.381 N 
ATOM      8  H   UNL     1      -0.396  -0.412  -1.435  1.00  0.00     0.160 HD
BRANCH   7   9
ATOM      9  C   UNL     1      -0.732   1.323  -0.479  1.00  0.00     0.082 A 
ATOM     10  C   UNL     1       0.525   1.546   0.119  1.00  0.00     0.118 A 
ATOM     11  C   UNL     1      -1.570   2.452  -0.467  1.00  0.00     0.080 A 
ATOM     12  N   UNL     1       0.901   2.732   0.664  1.00  0.00    -0.148 NA
ATOM     13  S   UNL     1      -3.178   2.624  -1.079  1.00  0.00    -0.140 S 
ATOM     14  C   UNL     1      -1.135   3.648   0.094  1.00  0.00     0.106 A 
ATOM     15  N   UNL     1       0.094   3.773   0.655  1.00  0.00    -0.149 NA
ATOM     16  C   UNL     1      -3.268   4.262  -0.602  1.00  0.00     0.068 A 
ATOM     17  C   UNL     1      -2.112   4.682   0.012  1.00  0.00     0.043 A 
BRANCH  10  18
ATOM     18  C   UNL     1       1.561   0.504   0.207  1.00  0.00     0.005 A 
ATOM     19  C   UNL     1       1.939  -0.015   1.458  1.00  0.00     0.013 A 
ATOM     20  C   UNL     1       2.197   0.021  -0.956  1.00  0.00     0.022 A 
ATOM     21  C   UNL     1       2.909  -1.017   1.588  1.00  0.00     0.029 A 
ATOM     22  C   UNL     1       3.171  -0.987  -0.846  1.00  0.00     0.020 A 
ATOM     23  C   UNL     1       3.500  -1.480   0.410  1.00  0.00     0.065 A 
ATOM     24  C   UNL     1       3.997  -1.708  -1.736  1.00  0.00     0.143 A 
ATOM     25  N   UNL     1       4.465  -2.427   0.185  1.00  0.00    -0.278 N 
ATOM     26  N   UNL     1       4.777  -2.595  -1.113  1.00  0.00    -0.183 NA
ATOM     27  H   UNL     1       4.948  -2.993   0.873  1.00  0.00     0.190 HD
ENDBRANCH  10  18
ENDBRANCH   7   9
ENDBRANCH   1   7
TORSDOF 6
