REMARK SMILES CN(C)c1ccc(-c2c3cnccc(O)n-3c2Nc2ccncc2)cc1
REMARK SMILES IDX 8 1 9 2 10 3 11 4 12 5 13 6 14 7 16 8 17 9 7 10 4 11 5 12
REMARK SMILES IDX 26 13 6 14 25 15 2 16 1 17 3 18 18 19 19 21 20 22 24 23
REMARK SMILES IDX 21 24 23 25 22 26 15 27
REMARK H PARENT 18 20 15 28
ROOT
ATOM      1  C   UNL     1      -0.334  -0.724   0.151  1.00  0.00     0.049 A 
ATOM      2  C   UNL     1      -1.017  -1.921  -0.174  1.00  0.00     0.080 A 
ATOM      3  C   UNL     1      -0.700  -3.155  -0.575  1.00  0.00     0.138 A 
ATOM      4  N   UNL     1      -1.547  -4.194  -0.855  1.00  0.00    -0.262 NA
ATOM      5  C   UNL     1      -2.814  -4.138  -0.606  1.00  0.00     0.116 A 
ATOM      6  C   UNL     1      -3.712  -3.116   0.002  1.00  0.00     0.087 A 
ATOM      7  C   UNL     1      -3.378  -1.849   0.294  1.00  0.00     0.198 A 
ATOM      8  N   UNL     1      -2.133  -1.305   0.097  1.00  0.00    -0.264 N 
ATOM      9  C   UNL     1      -1.544  -0.153   0.337  1.00  0.00     0.128 A 
ENDROOT
BRANCH   1  10
ATOM     10  C   UNL     1       1.150  -0.368   0.167  1.00  0.00    -0.012 A 
ATOM     11  C   UNL     1       3.907   0.346   0.198  1.00  0.00     0.036 A 
ATOM     12  C   UNL     1       2.904   1.256  -0.186  1.00  0.00     0.026 A 
ATOM     13  C   UNL     1       3.459  -0.929   0.592  1.00  0.00     0.026 A 
ATOM     14  C   UNL     1       1.545   0.911  -0.206  1.00  0.00     0.011 A 
ATOM     15  C   UNL     1       2.104  -1.290   0.575  1.00  0.00     0.011 A 
BRANCH  11  16
ATOM     16  N   UNL     1       5.262   0.703   0.231  1.00  0.00    -0.378 N 
ATOM     17  C   UNL     1       6.268  -0.350   0.353  1.00  0.00     0.143 C 
ATOM     18  C   UNL     1       5.693   1.905  -0.482  1.00  0.00     0.143 C 
ENDBRANCH  11  16
ENDBRANCH   1  10
BRANCH   9  19
ATOM     19  N   UNL     1      -1.991   1.034   0.681  1.00  0.00    -0.341 N 
ATOM     20  H   UNL     1      -1.338   1.665   1.137  1.00  0.00     0.168 HD
BRANCH  19  21
ATOM     21  C   UNL     1      -3.055   1.778   0.113  1.00  0.00     0.043 A 
ATOM     22  C   UNL     1      -3.518   2.913   0.785  1.00  0.00     0.046 A 
ATOM     23  C   UNL     1      -3.716   1.400  -1.056  1.00  0.00     0.046 A 
ATOM     24  C   UNL     1      -4.584   3.623   0.253  1.00  0.00     0.113 A 
ATOM     25  C   UNL     1      -4.771   2.175  -1.513  1.00  0.00     0.113 A 
ATOM     26  N   UNL     1      -5.218   3.284  -0.888  1.00  0.00    -0.265 NA
ENDBRANCH  19  21
ENDBRANCH   9  19
BRANCH   7  27
ATOM     27  O   UNL     1      -4.333  -1.021   0.865  1.00  0.00    -0.494 OA
ATOM     28  H   UNL     1      -5.166  -1.502   0.974  1.00  0.00     0.295 HD
ENDBRANCH   7  27
TORSDOF 5
