MODEL        2USER    Run = 2USERUSER    Estimated Free Energy of Binding    =  -9.04 kcal/mol  [=(1)+(2)+(3)-(4)]USERUSER    (1) Final Intermolecular Energy     =  -9.93 kcal/molUSER        vdW + Hbond + desolv Energy     =  -9.87 kcal/molUSER        Electrostatic Energy            =  -0.06 kcal/molUSER        Moving Ligand-Fixed Receptor    =  -9.93 kcal/molUSER        Moving Ligand-Moving Receptor   =  +0.00 kcal/molUSER    (2) Final Total Internal Energy     =  -1.27 kcal/molUSER    (3) Torsional Free Energy           =  +0.89 kcal/molUSER    (4) Unbound System's Energy         =  -1.27 kcal/molUSERUSERREMARK SMILES O=S(=O)(Nc1cccc2cccnc12)c1cccc2cccnc12REMARK SMILES IDX 1 1 2 2 3 3 4 4 5 6 6 7 14 8 7 9 13 10 9 11 8 12 12 13 10 14REMARK SMILES IDX 11 15 15 16 16 17 24 18 17 19 23 20 19 21 18 22 22 23 20 24REMARK SMILES IDX 21 25REMARK H PARENT 4 5USER                              x       y       z     vdW  Elec       q    TypeUSER                           _______ _______ _______ _____ _____    ______ ____ROOTATOM      1  O   UNL     1      41.269  48.815  16.236 -0.93 +0.01    -0.201 OA ATOM      2  S   UNL     1      40.319  47.793  15.853 -0.54 -0.05    +0.264 S  ATOM      3  O   UNL     1      40.554  47.011  14.652 -0.37 +0.01    -0.201 OA ENDROOTBRANCH   2   4ATOM      4  N   UNL     1      38.772  48.512  15.740 -0.29 +0.16    -0.277 N  ATOM      5  H   UNL     1      38.389  48.523  16.699 +0.13 -0.14    +0.180 HD BRANCH   4   6ATOM      6  C   UNL     1      37.844  47.858  14.841 -0.45 -0.04    +0.075 A  ATOM      7  C   UNL     1      38.056  47.980  13.463 -0.41 -0.01    +0.029 A  ATOM      8  C   UNL     1      36.788  47.095  15.354 -0.33 -0.07    +0.094 A  ATOM      9  C   UNL     1      37.210  47.335  12.568 -0.61 -0.00    +0.003 A  ATOM     10  N   UNL     1      36.597  46.997  16.687 -0.14 +0.21    -0.254 NA ATOM     11  C   UNL     1      35.939  46.442  14.435 -0.43 -0.00    +0.002 A  ATOM     12  C   UNL     1      36.155  46.567  13.051 -0.58 -0.01    +0.010 A  ATOM     13  C   UNL     1      35.569  46.245  17.139 -0.29 -0.09    +0.112 A  ATOM     14  C   UNL     1      34.882  45.672  14.940 -0.34 -0.01    +0.012 A  ATOM     15  C   UNL     1      34.694  45.569  16.314 -0.30 -0.02    +0.021 A  ENDBRANCH   4   6ENDBRANCH   2   4BRANCH   2  16ATOM     16  C   UNL     1      40.181  46.661  17.207 -0.41 -0.02    +0.114 A  ATOM     17  C   UNL     1      39.160  45.696  17.182 -0.38 -0.00    +0.024 A  ATOM     18  C   UNL     1      41.106  46.752  18.247 -0.45 -0.00    +0.091 A  ATOM     19  C   UNL     1      39.053  44.785  18.223 -0.39 -0.00    +0.002 A  ATOM     20  N   UNL     1      42.070  47.703  18.280 -0.41 +0.01    -0.255 NA ATOM     21  C   UNL     1      40.980  45.812  19.295 -0.45 +0.00    +0.002 A  ATOM     22  C   UNL     1      39.962  44.841  19.275 -0.41 -0.00    +0.010 A  ATOM     23  C   UNL     1      42.930  47.728  19.321 -0.32 +0.01    +0.112 A  ATOM     24  C   UNL     1      41.888  45.871  20.360 -0.36 +0.00    +0.012 A  ATOM     25  C   UNL     1      42.881  46.842  20.375 -0.40 +0.01    +0.021 A  ENDBRANCH   2  16TORSDOF 3TERENDMDL