REMARK SMILES CC(C)C[C@@H](C(N)=O)n1cncccc(Nc2ccncn2)nc1
REMARK SMILES IDX 5 1 4 2 2 3 1 4 3 5 6 6 7 7 8 8 9 11 10 12 24 13 11 14 23 15
REMARK SMILES IDX 12 16 15 17 13 18 14 19 16 20 17 22 18 23 22 24 19 25 21 26
REMARK SMILES IDX 20 27
REMARK H PARENT 7 9 7 10 16 21
ROOT
ATOM      1  C   UNL     1      -1.887   0.435  -0.077  1.00  0.00     0.178 C 
ENDROOT
BRANCH   1   2
ATOM      2  C   UNL     1      -2.965  -0.589   0.325  1.00  0.00     0.038 C 
BRANCH   2   3
ATOM      3  C   UNL     1      -3.514  -0.519   1.765  1.00  0.00    -0.015 C 
ATOM      4  C   UNL     1      -2.764  -1.469   2.703  1.00  0.00     0.007 C 
ATOM      5  C   UNL     1      -5.002  -0.894   1.779  1.00  0.00     0.007 C 
ENDBRANCH   2   3
ENDBRANCH   1   2
BRANCH   1   6
ATOM      6  C   UNL     1      -2.397   1.893  -0.151  1.00  0.00     0.240 C 
ATOM      7  N   UNL     1      -1.422   2.800  -0.500  1.00  0.00    -0.368 N 
ATOM      8  O   UNL     1      -3.568   2.249  -0.001  1.00  0.00    -0.273 OA
ATOM      9  H   UNL     1      -1.580   3.733  -0.163  1.00  0.00     0.159 HD
ATOM     10  H   UNL     1      -0.492   2.431  -0.224  1.00  0.00     0.159 HD
ENDBRANCH   1   6
BRANCH   1  11
ATOM     11  N   UNL     1      -0.628   0.335   0.725  1.00  0.00    -0.311 N 
ATOM     12  C   UNL     1      -0.437   1.144   1.842  1.00  0.00     0.201 A 
ATOM     13  C   UNL     1       0.429  -0.443   0.265  1.00  0.00     0.203 A 
ATOM     14  N   UNL     1       0.556   2.008   2.087  1.00  0.00    -0.247 NA
ATOM     15  N   UNL     1       0.642  -0.520  -1.053  1.00  0.00    -0.221 NA
ATOM     16  C   UNL     1       1.603   2.333   1.293  1.00  0.00     0.113 A 
ATOM     17  C   UNL     1       1.670   0.271  -1.445  1.00  0.00     0.133 A 
ATOM     18  C   UNL     1       2.291   2.118   0.151  1.00  0.00     0.024 A 
ATOM     19  C   UNL     1       2.336   1.338  -0.942  1.00  0.00     0.049 A 
BRANCH  17  20
ATOM     20  N   UNL     1       2.064  -0.231  -2.705  1.00  0.00    -0.325 N 
ATOM     21  H   UNL     1       1.338  -0.942  -2.815  1.00  0.00     0.170 HD
BRANCH  20  22
ATOM     22  C   UNL     1       3.290  -0.941  -2.848  1.00  0.00     0.134 A 
ATOM     23  C   UNL     1       3.794  -1.699  -1.801  1.00  0.00     0.067 A 
ATOM     24  N   UNL     1       3.899  -0.931  -4.054  1.00  0.00    -0.219 NA
ATOM     25  C   UNL     1       4.955  -2.397  -2.032  1.00  0.00     0.116 A 
ATOM     26  C   UNL     1       5.026  -1.647  -4.161  1.00  0.00     0.224 A 
ATOM     27  N   UNL     1       5.606  -2.396  -3.209  1.00  0.00    -0.245 NA
ENDBRANCH  20  22
ENDBRANCH  17  20
ENDBRANCH   1  11
TORSDOF 6
