MODEL        8USER    Run = 8USERUSER    Estimated Free Energy of Binding    =  -9.52 kcal/mol  [=(1)+(2)+(3)-(4)]USERUSER    (1) Final Intermolecular Energy     = -11.31 kcal/molUSER        vdW + Hbond + desolv Energy     = -11.19 kcal/molUSER        Electrostatic Energy            =  -0.12 kcal/molUSER        Moving Ligand-Fixed Receptor    = -11.31 kcal/molUSER        Moving Ligand-Moving Receptor   =  +0.00 kcal/molUSER    (2) Final Total Internal Energy     =  -0.96 kcal/molUSER    (3) Torsional Free Energy           =  +1.79 kcal/molUSER    (4) Unbound System's Energy         =  -0.96 kcal/molUSERUSERREMARK SMILES O=C(O)CCNc1c(-c2ccc3[nH]ncc3c2)nnc2ccsc12REMARK SMILES IDX 5 1 4 2 2 3 1 4 3 5 6 7 7 9 8 10 24 11 18 12 23 13 20 14REMARK SMILES IDX 19 15 22 16 21 17 9 18 10 19 17 20 11 21 16 22 12 23 15 24REMARK SMILES IDX 13 25 14 26REMARK H PARENT 3 6 6 8 13 27USER                              x       y       z     vdW  Elec       q    TypeUSER                           _______ _______ _______ _____ _____    ______ ____ROOTATOM      1  C   UNL     1      40.940  47.901  14.986 -0.42 -0.01    +0.124 C  ENDROOTBRANCH   1   2ATOM      2  C   UNL     1      40.867  49.218  14.222 -0.46 -0.04    +0.143 C  BRANCH   2   3ATOM      3  C   UNL     1      41.902  50.173  14.734 -0.45 -0.05    +0.305 C  ATOM      4  O   UNL     1      42.788  50.715  14.096 -0.54 +0.06    -0.252 OA BRANCH   3   5ATOM      5  O   UNL     1      41.777  50.392  16.058 -0.73 +0.03    -0.481 OA ATOM      6  H   UNL     1      41.192  51.176  16.125 -0.32 -0.15    +0.296 HD ENDBRANCH   3   5ENDBRANCH   2   3ENDBRANCH   1   2BRANCH   1   7ATOM      7  N   UNL     1      40.783  48.167  16.426 -0.25 +0.06    -0.381 N  ATOM      8  H   UNL     1      41.686  48.376  16.851 -0.02 +0.00    +0.160 HD BRANCH   7   9ATOM      9  C   UNL     1      40.167  47.085  17.100 -0.44 -0.01    +0.082 A  ATOM     10  C   UNL     1      38.944  46.500  16.711 -0.34 -0.03    +0.118 A  ATOM     11  C   UNL     1      40.696  46.548  18.287 -0.44 -0.01    +0.080 A  ATOM     12  N   UNL     1      38.324  45.515  17.411 -0.29 +0.04    -0.148 NA ATOM     13  S   UNL     1      42.153  46.967  19.119 -0.63 -0.01    -0.140 S  ATOM     14  C   UNL     1      40.028  45.533  18.962 -0.37 -0.00    +0.106 A  ATOM     15  N   UNL     1      38.848  45.030  18.518 -0.31 +0.02    -0.149 NA ATOM     16  C   UNL     1      41.881  45.806  20.342 -0.32 +0.01    +0.068 A  ATOM     17  C   UNL     1      40.713  45.111  20.138 -0.36 +0.00    +0.043 A  BRANCH  10  18ATOM     18  C   UNL     1      38.219  46.903  15.495 -0.42 -0.00    +0.005 A  ATOM     19  C   UNL     1      37.760  48.224  15.350 -0.49 -0.01    +0.013 A  ATOM     20  C   UNL     1      37.964  45.971  14.467 -0.40 -0.01    +0.022 A  ATOM     21  C   UNL     1      37.079  48.656  14.204 -0.50 -0.02    +0.029 A  ATOM     22  C   UNL     1      37.284  46.386  13.308 -0.50 -0.01    +0.020 A  ATOM     23  C   UNL     1      36.864  47.706  13.203 -0.56 -0.03    +0.065 A  ATOM     24  C   UNL     1      36.859  45.783  12.105 -0.47 -0.05    +0.143 A  ATOM     25  N   UNL     1      36.241  47.790  11.985 -0.43 +0.14    -0.278 N  ATOM     26  N   UNL     1      36.235  46.638  11.291 -0.39 +0.09    -0.183 NA ATOM     27  H   UNL     1      35.801  48.604  11.571 -0.34 -0.13    +0.190 HD ENDBRANCH  10  18ENDBRANCH   7   9ENDBRANCH   1   7TORSDOF 6TERENDMDL