REMARK SMILES CCN(CC)CCNC(=O)[C@H](C)NC(=O)c1ccc(N)c(-c2ccccc2C(=O)O)c1C
REMARK SMILES IDX 11 1 12 2 9 3 8 4 10 6 7 7 6 8 3 9 2 10 1 11 4 12 5 13 13 14
REMARK SMILES IDX 14 15 15 17 16 18 17 19 31 20 18 21 21 22 19 23 32 24 22 25
REMARK SMILES IDX 23 26 27 27 24 28 26 29 25 30 28 31 29 32 30 33 20 35
REMARK H PARENT 8 5 13 16 30 34 20 36 20 37
ROOT
ATOM      1  C   UNL     1       1.238  -1.047  -2.137  1.00  0.00     0.168 C 
ATOM      2  C   UNL     1       2.074  -0.750  -3.374  1.00  0.00     0.041 C 
ENDROOT
BRANCH   1   3
ATOM      3  C   UNL     1       1.910  -0.419  -0.901  1.00  0.00     0.242 C 
ATOM      4  N   UNL     1       2.912  -1.189  -0.343  1.00  0.00    -0.353 N 
ATOM      5  H   UNL     1       2.922  -2.177  -0.562  1.00  0.00     0.163 HD
ATOM      6  O   UNL     1       1.619   0.707  -0.497  1.00  0.00    -0.273 OA
BRANCH   4   7
ATOM      7  C   UNL     1       3.617  -0.758   0.854  1.00  0.00     0.131 C 
BRANCH   7   8
ATOM      8  C   UNL     1       4.703   0.295   0.547  1.00  0.00     0.105 C 
BRANCH   8   9
ATOM      9  N   UNL     1       5.480   0.707   1.724  1.00  0.00    -0.302 NA
BRANCH   9  10
ATOM     10  C   UNL     1       6.183   1.980   1.534  1.00  0.00     0.081 C 
ATOM     11  C   UNL     1       7.345   1.988   0.547  1.00  0.00     0.021 C 
ENDBRANCH   9  10
BRANCH   9  12
ATOM     12  C   UNL     1       6.273  -0.337   2.380  1.00  0.00     0.081 C 
ATOM     13  C   UNL     1       7.077  -1.281   1.487  1.00  0.00     0.021 C 
ENDBRANCH   9  12
ENDBRANCH   8   9
ENDBRANCH   7   8
ENDBRANCH   4   7
ENDBRANCH   1   3
BRANCH   1  14
ATOM     14  N   UNL     1      -0.098  -0.479  -2.268  1.00  0.00    -0.341 N 
ATOM     15  C   UNL     1      -1.178  -1.135  -1.712  1.00  0.00     0.252 C 
ATOM     16  H   UNL     1      -0.138   0.535  -2.246  1.00  0.00     0.164 HD
ATOM     17  O   UNL     1      -1.137  -2.288  -1.302  1.00  0.00    -0.269 OA
BRANCH  15  18
ATOM     18  C   UNL     1      -2.430  -0.333  -1.627  1.00  0.00     0.043 A 
ATOM     19  C   UNL     1      -2.833   0.365  -2.772  1.00  0.00     0.016 A 
ATOM     20  C   UNL     1      -3.199  -0.284  -0.444  1.00  0.00    -0.028 A 
ATOM     21  C   UNL     1      -4.018   1.093  -2.765  1.00  0.00     0.027 A 
ATOM     22  C   UNL     1      -4.430   0.433  -0.450  1.00  0.00     0.009 A 
ATOM     23  C   UNL     1      -4.851   1.090  -1.641  1.00  0.00     0.040 A 
ATOM     24  C   UNL     1      -2.721  -1.004   0.796  1.00  0.00     0.046 C 
BRANCH  22  25
ATOM     25  C   UNL     1      -5.269   0.512   0.768  1.00  0.00    -0.001 A 
ATOM     26  C   UNL     1      -5.210   1.683   1.551  1.00  0.00     0.010 A 
ATOM     27  C   UNL     1      -6.101  -0.536   1.215  1.00  0.00     0.067 A 
ATOM     28  C   UNL     1      -5.936   1.802   2.738  1.00  0.00     0.001 A 
ATOM     29  C   UNL     1      -6.812  -0.419   2.420  1.00  0.00     0.016 A 
ATOM     30  C   UNL     1      -6.732   0.749   3.177  1.00  0.00     0.001 A 
BRANCH  27  31
ATOM     31  C   UNL     1      -6.259  -1.815   0.490  1.00  0.00     0.336 C 
ATOM     32  O   UNL     1      -6.300  -2.917   1.005  1.00  0.00    -0.246 OA
BRANCH  31  33
ATOM     33  O   UNL     1      -6.463  -1.641  -0.827  1.00  0.00    -0.478 OA
ATOM     34  H   UNL     1      -6.541  -2.552  -1.178  1.00  0.00     0.297 HD
ENDBRANCH  31  33
ENDBRANCH  27  31
ENDBRANCH  22  25
BRANCH  23  35
ATOM     35  N   UNL     1      -5.998   1.915  -1.669  1.00  0.00    -0.398 N 
ATOM     36  H   UNL     1      -6.378   2.053  -2.596  1.00  0.00     0.156 HD
ATOM     37  H   UNL     1      -6.712   1.615  -1.010  1.00  0.00     0.156 HD
ENDBRANCH  23  35
ENDBRANCH  15  18
ENDBRANCH   1  14
TORSDOF 12
