REMARK SMILES COc1ccc(-c2c(C#N)cc3c(N)nc(C)n3c2-c2ccccc2)cc1
REMARK SMILES IDX 7 1 8 2 11 3 12 4 13 5 15 6 16 7 17 8 18 9 19 10 6 11 3 12
REMARK SMILES IDX 4 13 27 14 5 15 26 16 2 17 1 18 9 19 10 20 20 21 21 22 25 23
REMARK SMILES IDX 22 24 24 25 23 26 14 27
REMARK H PARENT 14 28 14 29
ROOT
ATOM      1  C   UNL     1      -0.080  -1.143   0.424  1.00  0.00     0.024 A 
ATOM      2  C   UNL     1      -0.366  -2.558   0.750  1.00  0.00     0.064 A 
ATOM      3  C   UNL     1      -1.609  -3.063   0.636  1.00  0.00     0.050 A 
ATOM      4  C   UNL     1      -2.670  -2.237   0.196  1.00  0.00     0.091 A 
ATOM      5  C   UNL     1      -4.007  -2.411  -0.032  1.00  0.00     0.149 A 
ATOM      6  N   UNL     1      -4.598  -1.280  -0.463  1.00  0.00    -0.216 NA
ATOM      7  C   UNL     1      -3.636  -0.374  -0.519  1.00  0.00     0.113 A 
ATOM      8  C   UNL     1      -3.876   1.025  -0.958  1.00  0.00     0.088 C 
ATOM      9  N   UNL     1      -2.405  -0.905  -0.120  1.00  0.00    -0.294 N 
ATOM     10  C   UNL     1      -1.104  -0.345  -0.007  1.00  0.00     0.064 A 
ENDROOT
BRANCH   1  11
ATOM     11  C   UNL     1       1.297  -0.602   0.563  1.00  0.00    -0.015 A 
ATOM     12  C   UNL     1       3.915   0.387   0.833  1.00  0.00     0.118 A 
ATOM     13  C   UNL     1       3.501  -0.183  -0.371  1.00  0.00     0.047 A 
ATOM     14  C   UNL     1       3.017   0.454   1.902  1.00  0.00     0.047 A 
ATOM     15  C   UNL     1       2.199  -0.679  -0.505  1.00  0.00     0.012 A 
ATOM     16  C   UNL     1       1.717  -0.041   1.774  1.00  0.00     0.012 A 
BRANCH  12  17
ATOM     17  O   UNL     1       5.152   0.907   1.095  1.00  0.00    -0.497 OA
ATOM     18  C   UNL     1       6.117   0.824   0.054  1.00  0.00     0.278 C 
ENDBRANCH  12  17
ENDBRANCH   1  11
BRANCH   2  19
ATOM     19  C   UNL     1       0.688  -3.419   1.191  1.00  0.00     0.100 C 
ATOM     20  N   UNL     1       1.520  -4.144   1.550  1.00  0.00    -0.192 NA
ENDBRANCH   2  19
BRANCH  10  21
ATOM     21  C   UNL     1      -0.845   1.070  -0.348  1.00  0.00    -0.001 A 
ATOM     22  C   UNL     1      -0.474   1.427  -1.653  1.00  0.00     0.010 A 
ATOM     23  C   UNL     1      -0.934   2.064   0.636  1.00  0.00     0.010 A 
ATOM     24  C   UNL     1      -0.210   2.760  -1.969  1.00  0.00     0.001 A 
ATOM     25  C   UNL     1      -0.668   3.396   0.316  1.00  0.00     0.001 A 
ATOM     26  C   UNL     1      -0.308   3.743  -0.985  1.00  0.00     0.000 A 
ENDBRANCH  10  21
BRANCH   5  27
ATOM     27  N   UNL     1      -4.728  -3.521   0.133  1.00  0.00    -0.382 N 
ATOM     28  H   UNL     1      -5.735  -3.400   0.112  1.00  0.00     0.158 HD
ATOM     29  H   UNL     1      -4.427  -4.238   0.781  1.00  0.00     0.158 HD
ENDBRANCH   5  27
TORSDOF 5
