MODEL        7USER    Run = 7USERUSER    Estimated Free Energy of Binding    =  -8.47 kcal/mol  [=(1)+(2)+(3)-(4)]USERUSER    (1) Final Intermolecular Energy     = -11.45 kcal/molUSER        vdW + Hbond + desolv Energy     = -11.15 kcal/molUSER        Electrostatic Energy            =  -0.30 kcal/molUSER        Moving Ligand-Fixed Receptor    = -11.45 kcal/molUSER        Moving Ligand-Moving Receptor   =  +0.00 kcal/molUSER    (2) Final Total Internal Energy     =  -1.96 kcal/molUSER    (3) Torsional Free Energy           =  +2.98 kcal/molUSER    (4) Unbound System's Energy         =  -1.96 kcal/molUSERUSERREMARK SMILES CNS(=O)(=O)C=CC(F)=C(CCl)c1csc(-c2cnc(N)c(OC)c2)n1REMARK SMILES IDX 8 1 9 2 7 3 6 4 3 5 4 6 5 7 2 8 1 9 10 11 11 12 12 13 13 14REMARK SMILES IDX 14 15 26 16 15 17 16 18 17 19 18 20 25 21 19 22 22 23 20 24REMARK SMILES IDX 23 25 24 26 21 27REMARK H PARENT 2 10 21 28 21 29USER                              x       y       z     vdW  Elec       q    TypeUSER                           _______ _______ _______ _____ _____    ______ ____ROOTATOM      1  C   UNL     1      36.044  44.134  14.877 -0.14 -0.05    +0.130 C  ATOM      2  F   UNL     1      36.511  42.962  14.388 +0.15 +0.06    -0.207 F  ENDROOTBRANCH   1   3ATOM      3  C   UNL     1      36.138  45.272  13.981 -0.39 -0.02    +0.053 C  BRANCH   3   4ATOM      4  C   UNL     1      36.200  46.580  14.283 -0.42 -0.08    +0.125 C  BRANCH   4   5ATOM      5  S   UNL     1      36.803  47.789  13.203 -0.65 -0.10    +0.233 S  ATOM      6  O   UNL     1      38.065  47.333  12.661 -0.90 +0.03    -0.208 OA ATOM      7  O   UNL     1      35.731  48.258  12.354 -0.62 +0.12    -0.208 OA BRANCH   5   8ATOM      8  N   UNL     1      37.226  49.083  14.192 -0.39 +0.15    -0.215 NA ATOM      9  C   UNL     1      38.025  48.846  15.386 -0.42 -0.09    +0.120 C  ATOM     10  H   UNL     1      37.335  49.965  13.694 -0.44 -0.09    +0.140 HD ENDBRANCH   5   8ENDBRANCH   4   5ENDBRANCH   3   4ENDBRANCH   1   3BRANCH   1  11ATOM     11  C   UNL     1      35.587  44.153  16.147 -0.40 -0.01    +0.029 C  BRANCH  11  12ATOM     12  C   UNL     1      34.169  43.811  16.533 -0.29 -0.07    +0.150 C  ATOM     13  Cl  UNL     1      33.070  45.144  16.086 -0.45 +0.09    -0.121 Cl ENDBRANCH  11  12BRANCH  11  14ATOM     14  C   UNL     1      36.421  44.464  17.277 -0.27 -0.03    +0.082 A  ATOM     15  C   UNL     1      36.126  44.203  18.598 -0.28 -0.02    +0.095 A  ATOM     16  N   UNL     1      37.641  45.075  17.062 -0.20 +0.07    -0.236 NA ATOM     17  S   UNL     1      37.405  44.746  19.597 -0.38 +0.01    -0.122 S  ATOM     18  C   UNL     1      38.266  45.295  18.206 -0.31 -0.02    +0.125 A  BRANCH  18  19ATOM     19  C   UNL     1      39.587  45.935  18.302 -0.42 -0.00    +0.033 A  ATOM     20  C   UNL     1      40.530  45.419  19.189 -0.36 +0.00    +0.125 A  ATOM     21  C   UNL     1      39.987  47.050  17.550 -0.42 -0.01    +0.063 A  ATOM     22  N   UNL     1      41.778  45.913  19.374 -0.28 -0.03    -0.235 NA ATOM     23  C   UNL     1      41.268  47.587  17.713 -0.38 -0.01    +0.161 A  ATOM     24  C   UNL     1      42.132  46.982  18.643 -0.41 +0.00    +0.166 A  BRANCH  23  25ATOM     25  O   UNL     1      41.770  48.671  17.037 -0.67 -0.05    -0.493 OA ATOM     26  C   UNL     1      41.122  49.039  15.826 -0.42 -0.03    +0.278 C  ENDBRANCH  23  25BRANCH  24  27ATOM     27  N   UNL     1      43.430  47.494  18.835 -0.27 -0.07    -0.381 N  ATOM     28  H   UNL     1      43.756  47.837  17.934 -0.24 -0.00    +0.158 HD ATOM     29  H   UNL     1      43.346  48.316  19.428 -0.51 -0.02    +0.158 HD ENDBRANCH  24  27ENDBRANCH  18  19ENDBRANCH  11  14ENDBRANCH   1  11TORSDOF 10TERENDMDL