MODEL        7USER    Run = 7USERUSER    Estimated Free Energy of Binding    =  -9.70 kcal/mol  [=(1)+(2)+(3)-(4)]USERUSER    (1) Final Intermolecular Energy     = -10.90 kcal/molUSER        vdW + Hbond + desolv Energy     = -10.57 kcal/molUSER        Electrostatic Energy            =  -0.32 kcal/molUSER        Moving Ligand-Fixed Receptor    = -10.90 kcal/molUSER        Moving Ligand-Moving Receptor   =  +0.00 kcal/molUSER    (2) Final Total Internal Energy     =  -1.01 kcal/molUSER    (3) Torsional Free Energy           =  +1.19 kcal/molUSER    (4) Unbound System's Energy         =  -1.01 kcal/molUSERUSERREMARK SMILES CC1(C)C(=O)N([C@H]2CCc3c(O)cccc32)c2nc(Nc3ccccc3)ncc21REMARK SMILES IDX 1 1 2 2 3 3 4 4 5 5 6 6 17 7 18 8 19 9 27 10 28 11 29 12REMARK SMILES IDX 7 13 8 14 16 15 9 16 15 17 10 18 14 19 11 20 13 21 12 22REMARK SMILES IDX 20 24 21 26 22 27 26 28 23 29 25 30 24 31REMARK H PARENT 12 23 20 25USER                              x       y       z     vdW  Elec       q    TypeUSER                           _______ _______ _______ _____ _____    ______ ____ROOTATOM      1  C   UNL     1      38.682  45.706  23.519 -0.34 +0.00    +0.027 C  ATOM      2  C   UNL     1      39.121  44.633  22.525 -0.29 +0.00    +0.074 C  ATOM      3  C   UNL     1      39.900  43.512  23.213 -0.27 +0.00    +0.027 C  ATOM      4  C   UNL     1      37.889  44.046  21.811 -0.27 +0.01    +0.239 C  ATOM      5  O   UNL     1      36.986  43.428  22.358 -0.28 -0.03    -0.273 OA ATOM      6  N   UNL     1      38.002  44.345  20.449 -0.19 +0.00    -0.288 N  ATOM      7  C   UNL     1      39.193  45.035  20.190 -0.28 -0.00    +0.145 A  ATOM      8  N   UNL     1      39.624  45.481  19.012 -0.30 +0.01    -0.195 NA ATOM      9  C   UNL     1      40.814  46.106  19.017 -0.30 +0.00    +0.229 A  ATOM     10  N   UNL     1      41.562  46.290  20.128 -0.26 -0.02    -0.221 NA ATOM     11  C   UNL     1      41.073  45.850  21.299 -0.24 +0.01    +0.123 A  ATOM     12  C   UNL     1      39.873  45.215  21.372 -0.30 +0.00    +0.029 A  ENDROOTBRANCH   6  13ATOM     13  C   UNL     1      37.086  43.792  19.477 -0.31 -0.01    +0.123 C  ATOM     14  C   UNL     1      35.731  43.247  19.970 -0.47 -0.00    +0.035 C  ATOM     15  C   UNL     1      36.648  44.802  18.444 -0.33 +0.00    -0.018 A  ATOM     16  C   UNL     1      34.659  44.309  19.671 -0.40 -0.01    +0.042 C  ATOM     17  C   UNL     1      37.424  45.424  17.474 -0.36 -0.00    +0.006 A  ATOM     18  C   UNL     1      35.280  45.072  18.546 -0.37 +0.00    -0.001 A  ATOM     19  C   UNL     1      36.811  46.337  16.611 -0.36 -0.00    +0.004 A  ATOM     20  C   UNL     1      34.676  45.980  17.698 -0.34 -0.09    +0.119 A  ATOM     21  C   UNL     1      35.441  46.617  16.722 -0.26 -0.05    +0.046 A  BRANCH  20  22ATOM     22  O   UNL     1      33.345  46.230  17.834 -0.13 +0.45    -0.508 OA ATOM     23  H   UNL     1      33.128  47.030  17.329 -0.35 -0.60    +0.293 HD ENDBRANCH  20  22ENDBRANCH   6  13BRANCH   9  24ATOM     24  N   UNL     1      41.399  46.594  17.851 -0.27 +0.02    -0.324 N  ATOM     25  H   UNL     1      42.402  46.593  17.964 -0.35 -0.02    +0.170 HD BRANCH  24  26ATOM     26  C   UNL     1      40.910  47.323  16.763 -0.41 -0.01    +0.041 A  ATOM     27  C   UNL     1      40.146  46.763  15.735 -0.45 -0.00    +0.026 A  ATOM     28  C   UNL     1      41.260  48.677  16.650 -0.44 -0.00    +0.026 A  ATOM     29  C   UNL     1      39.724  47.530  14.644 -0.48 -0.00    +0.002 A  ATOM     30  C   UNL     1      40.843  49.450  15.562 -0.66 -0.00    +0.002 A  ATOM     31  C   UNL     1      40.071  48.874  14.558 -0.51 -0.00    +0.000 A  ENDBRANCH  24  26ENDBRANCH   9  24TORSDOF 4TERENDMDL