REMARK SMILES CCN(CCc1c(Cl)cnn1C)C(=O)C=C1C=CC(Nc2ncc(C(F)(F)F)c(-c3ccccc3)n2)=C1
REMARK SMILES IDX 13 1 14 2 3 3 2 4 1 5 4 6 5 7 6 8 7 9 11 10 9 11 10 12 8 13
REMARK SMILES IDX 12 14 15 15 16 16 17 17 37 18 18 19 19 20 20 21 21 23 22 24
REMARK SMILES IDX 36 25 23 26 29 27 24 28 30 29 31 30 35 31 32 32 34 33 33 34
REMARK SMILES IDX 25 35 26 36 27 37 28 38
REMARK H PARENT 20 22
ROOT
ATOM      1  C   UNL     1      -3.238   0.172   0.206  1.00  0.00     0.247 C 
ATOM      2  O   UNL     1      -3.612  -0.980   0.421  1.00  0.00    -0.270 OA
ENDROOT
BRANCH   1   3
ATOM      3  N   UNL     1      -4.150   1.222   0.135  1.00  0.00    -0.339 N 
BRANCH   3   4
ATOM      4  C   UNL     1      -3.860   2.612  -0.226  1.00  0.00     0.116 C 
ATOM      5  C   UNL     1      -3.450   3.437   0.983  1.00  0.00     0.027 C 
ENDBRANCH   3   4
BRANCH   3   6
ATOM      6  C   UNL     1      -5.547   0.908   0.448  1.00  0.00     0.126 C 
BRANCH   6   7
ATOM      7  C   UNL     1      -6.293   0.342  -0.766  1.00  0.00     0.079 C 
BRANCH   7   8
ATOM      8  C   UNL     1      -7.662  -0.125  -0.399  1.00  0.00     0.058 A 
ATOM      9  C   UNL     1      -8.869   0.539  -0.375  1.00  0.00     0.082 A 
ATOM     10  N   UNL     1      -7.943  -1.405   0.017  1.00  0.00    -0.271 N 
ATOM     11  C   UNL     1      -9.807  -0.412   0.060  1.00  0.00     0.155 A 
ATOM     12  N   UNL     1      -9.247  -1.600   0.303  1.00  0.00    -0.180 NA
ATOM     13  Cl  UNL     1      -9.196   2.153  -0.768  1.00  0.00    -0.081 Cl
ATOM     14  C   UNL     1      -7.016  -2.505   0.165  1.00  0.00     0.174 C 
ENDBRANCH   7   8
ENDBRANCH   6   7
ENDBRANCH   3   6
ENDBRANCH   1   3
BRANCH   1  15
ATOM     15  C   UNL     1      -1.794   0.492   0.018  1.00  0.00     0.079 C 
BRANCH  15  16
ATOM     16  C   UNL     1      -0.782  -0.363   0.222  1.00  0.00    -0.018 C 
ATOM     17  C   UNL     1      -0.809  -1.743   0.659  1.00  0.00     0.010 C 
ATOM     18  C   UNL     1       0.616  -0.006   0.027  1.00  0.00     0.034 C 
ATOM     19  C   UNL     1       0.466  -2.162   0.708  1.00  0.00     0.027 C 
ATOM     20  C   UNL     1       1.369  -1.083   0.318  1.00  0.00     0.041 C 
BRANCH  20  21
ATOM     21  N   UNL     1       2.714  -1.286   0.303  1.00  0.00    -0.324 N 
ATOM     22  H   UNL     1       3.062  -2.196   0.566  1.00  0.00     0.170 HD
BRANCH  21  23
ATOM     23  C   UNL     1       3.756  -0.415   0.019  1.00  0.00     0.227 A 
ATOM     24  N   UNL     1       3.541   0.862  -0.322  1.00  0.00    -0.221 NA
ATOM     25  N   UNL     1       4.984  -0.942   0.115  1.00  0.00    -0.212 NA
ATOM     26  C   UNL     1       4.620   1.626  -0.574  1.00  0.00     0.130 A 
ATOM     27  C   UNL     1       6.054  -0.146  -0.132  1.00  0.00     0.088 A 
ATOM     28  C   UNL     1       5.918   1.175  -0.502  1.00  0.00     0.100 A 
BRANCH  27  29
ATOM     29  C   UNL     1       7.346  -0.829   0.021  1.00  0.00     0.001 A 
ATOM     30  C   UNL     1       8.242  -0.481   1.045  1.00  0.00     0.010 A 
ATOM     31  C   UNL     1       7.704  -1.871  -0.849  1.00  0.00     0.010 A 
ATOM     32  C   UNL     1       9.467  -1.139   1.179  1.00  0.00     0.001 A 
ATOM     33  C   UNL     1       8.929  -2.530  -0.714  1.00  0.00     0.001 A 
ATOM     34  C   UNL     1       9.810  -2.161   0.298  1.00  0.00     0.000 A 
ENDBRANCH  27  29
BRANCH  28  35
ATOM     35  C   UNL     1       7.061   2.074  -0.807  1.00  0.00     0.419 C 
ATOM     36  F   UNL     1       7.946   1.551  -1.697  1.00  0.00    -0.166 F 
ATOM     37  F   UNL     1       6.667   3.262  -1.353  1.00  0.00    -0.166 F 
ATOM     38  F   UNL     1       7.779   2.412   0.298  1.00  0.00    -0.166 F 
ENDBRANCH  28  35
ENDBRANCH  21  23
ENDBRANCH  20  21
ENDBRANCH  15  16
ENDBRANCH   1  15
TORSDOF 11
