MODEL        2USER    Run = 2USERUSER    Estimated Free Energy of Binding    =  -9.62 kcal/mol  [=(1)+(2)+(3)-(4)]USERUSER    (1) Final Intermolecular Energy     = -11.11 kcal/molUSER        vdW + Hbond + desolv Energy     = -11.02 kcal/molUSER        Electrostatic Energy            =  -0.09 kcal/molUSER        Moving Ligand-Fixed Receptor    = -11.11 kcal/molUSER        Moving Ligand-Moving Receptor   =  +0.00 kcal/molUSER    (2) Final Total Internal Energy     =  -1.55 kcal/molUSER    (3) Torsional Free Energy           =  +1.49 kcal/molUSER    (4) Unbound System's Energy         =  -1.55 kcal/molUSERUSERREMARK SMILES COc1ccc(-c2c(C#N)cc3c(N)nc(C)n3c2-c2ccccc2)cc1REMARK SMILES IDX 7 1 8 2 11 3 12 4 13 5 15 6 16 7 17 8 18 9 19 10 6 11 3 12REMARK SMILES IDX 4 13 27 14 5 15 26 16 2 17 1 18 9 19 10 20 20 21 21 22 25 23REMARK SMILES IDX 22 24 24 25 23 26 14 27REMARK H PARENT 14 28 14 29USER                              x       y       z     vdW  Elec       q    TypeUSER                           _______ _______ _______ _____ _____    ______ ____ROOTATOM      1  C   UNL     1      38.176  45.856  17.249 -0.37 -0.01    +0.024 A  ATOM      2  C   UNL     1      38.889  45.624  18.526 -0.36 -0.01    +0.064 A  ATOM      3  C   UNL     1      40.036  46.268  18.811 -0.38 -0.00    +0.050 A  ATOM      4  C   UNL     1      40.581  47.186  17.883 -0.42 -0.01    +0.091 A  ATOM      5  C   UNL     1      41.686  47.991  17.846 -0.32 -0.01    +0.149 A  ATOM      6  N   UNL     1      41.756  48.703  16.705 -0.78 -0.02    -0.216 NA ATOM      7  C   UNL     1      40.687  48.359  16.004 -0.49 -0.02    +0.113 A  ATOM      8  C   UNL     1      40.387  48.931  14.666 -0.56 -0.03    +0.088 C  ATOM      9  N   UNL     1      39.910  47.415  16.682 -0.28 +0.07    -0.294 N  ATOM     10  C   UNL     1      38.699  46.748  16.354 -0.38 -0.02    +0.064 A  ENDROOTBRANCH   1  11ATOM     11  C   UNL     1      36.914  45.130  16.950 -0.33 +0.01    -0.015 A  ATOM     12  C   UNL     1      34.529  43.769  16.346 -0.27 -0.05    +0.118 A  ATOM     13  C   UNL     1      35.763  43.173  16.084 -0.42 -0.02    +0.047 A  ATOM     14  C   UNL     1      34.494  45.050  16.905 -0.29 -0.03    +0.047 A  ATOM     15  C   UNL     1      36.951  43.852  16.380 -0.34 -0.00    +0.012 A  ATOM     16  C   UNL     1      35.676  45.732  17.201 -0.35 -0.01    +0.012 A  BRANCH  12  17ATOM     17  O   UNL     1      33.301  43.218  16.107 -0.09 +0.24    -0.497 OA ATOM     18  C   UNL     1      32.280  44.097  15.653 -0.21 -0.14    +0.278 C  ENDBRANCH  12  17ENDBRANCH   1  11BRANCH   2  19ATOM     19  C   UNL     1      38.358  44.706  19.486 -0.36 -0.01    +0.100 C  ATOM     20  N   UNL     1      37.896  43.974  20.259 -0.23 +0.01    -0.192 NA ENDBRANCH   2  19BRANCH  10  21ATOM     21  C   UNL     1      38.003  47.005  15.075 -0.43 +0.00    -0.001 A  ATOM     22  C   UNL     1      37.306  48.207  14.878 -0.51 -0.01    +0.010 A  ATOM     23  C   UNL     1      38.003  46.038  14.061 -0.42 -0.00    +0.010 A  ATOM     24  C   UNL     1      36.633  48.440  13.678 -0.46 -0.00    +0.001 A  ATOM     25  C   UNL     1      37.328  46.275  12.863 -0.52 -0.00    +0.001 A  ATOM     26  C   UNL     1      36.645  47.475  12.672 -0.67 -0.00    +0.000 A  ENDBRANCH  10  21BRANCH   5  27ATOM     27  N   UNL     1      42.638  48.118  18.772 -0.27 -0.00    -0.382 N  ATOM     28  H   UNL     1      42.363  47.888  19.721 -0.01 +0.00    +0.158 HD ATOM     29  H   UNL     1      43.305  48.878  18.723 -0.50 -0.01    +0.158 HD ENDBRANCH   5  27TORSDOF 5TERENDMDL