MODEL        6USER    Run = 6USERUSER    Estimated Free Energy of Binding    = -10.41 kcal/mol  [=(1)+(2)+(3)-(4)]USERUSER    (1) Final Intermolecular Energy     = -13.69 kcal/molUSER        vdW + Hbond + desolv Energy     = -13.63 kcal/molUSER        Electrostatic Energy            =  -0.06 kcal/molUSER        Moving Ligand-Fixed Receptor    = -13.69 kcal/molUSER        Moving Ligand-Moving Receptor   =  +0.00 kcal/molUSER    (2) Final Total Internal Energy     =  -1.54 kcal/molUSER    (3) Torsional Free Energy           =  +3.28 kcal/molUSER    (4) Unbound System's Energy         =  -1.54 kcal/molUSERUSERREMARK SMILES CCN(CCc1c(Cl)cnn1C)C(=O)C=C1C=CC(Nc2ncc(C(F)(F)F)c(-c3ccccc3)n2)=C1REMARK SMILES IDX 13 1 14 2 3 3 2 4 1 5 4 6 5 7 6 8 7 9 11 10 9 11 10 12 8 13REMARK SMILES IDX 12 14 15 15 16 16 17 17 37 18 18 19 19 20 20 21 21 23 22 24REMARK SMILES IDX 36 25 23 26 29 27 24 28 30 29 31 30 35 31 32 32 34 33 33 34REMARK SMILES IDX 25 35 26 36 27 37 28 38REMARK H PARENT 20 22USER                              x       y       z     vdW  Elec       q    TypeUSER                           _______ _______ _______ _____ _____    ______ ____ROOTATOM      1  C   UNL     1      38.569  47.251  24.416 -0.27 +0.03    +0.247 C  ATOM      2  O   UNL     1      38.932  48.374  24.070 -0.34 -0.04    -0.270 OA ENDROOTBRANCH   1   3ATOM      3  N   UNL     1      37.550  47.080  25.348 -0.16 -0.04    -0.339 N  BRANCH   3   4ATOM      4  C   UNL     1      36.611  48.102  25.818 -0.42 -0.01    +0.116 C  ATOM      5  C   UNL     1      37.319  49.217  26.571 -0.37 +0.00    +0.027 C  ENDBRANCH   3   4BRANCH   3   6ATOM      6  C   UNL     1      37.391  45.739  25.918 -0.31 -0.00    +0.126 C  BRANCH   6   7ATOM      7  C   UNL     1      37.052  45.788  27.413 -0.35 -0.01    +0.079 C  BRANCH   7   8ATOM      8  C   UNL     1      36.011  44.780  27.771 -0.37 -0.02    +0.058 A  ATOM      9  C   UNL     1      35.877  43.453  27.423 -0.43 -0.02    +0.082 A  ATOM     10  N   UNL     1      34.927  45.057  28.570 -0.37 +0.07    -0.271 N  ATOM     11  C   UNL     1      34.699  43.021  28.054 -0.43 -0.04    +0.155 A  ATOM     12  N   UNL     1      34.113  43.997  28.754 -0.55 +0.03    -0.180 NA ATOM     13  Cl  UNL     1      36.886  42.510  26.443 -0.57 +0.01    -0.081 Cl ATOM     14  C   UNL     1      34.598  46.316  29.200 -0.36 -0.04    +0.174 C  ENDBRANCH   7   8ENDBRANCH   6   7ENDBRANCH   3   6ENDBRANCH   1   3BRANCH   1  15ATOM     15  C   UNL     1      39.203  46.027  23.847 -0.28 +0.01    +0.079 C  BRANCH  15  16ATOM     16  C   UNL     1      38.943  45.516  22.635 -0.36 -0.00    -0.018 C  ATOM     17  C   UNL     1      37.923  44.574  22.226 -0.41 +0.00    +0.010 C  ATOM     18  C   UNL     1      39.713  45.852  21.446 -0.28 +0.00    +0.034 C  ATOM     19  C   UNL     1      38.077  44.380  20.906 -0.41 +0.00    +0.027 C  ATOM     20  C   UNL     1      39.197  45.172  20.405 -0.40 +0.00    +0.041 C  BRANCH  20  21ATOM     21  N   UNL     1      39.537  45.123  19.089 -0.21 +0.02    -0.324 N  ATOM     22  H   UNL     1      39.588  44.219  18.643 +0.10 -0.01    +0.170 HD BRANCH  21  23ATOM     23  C   UNL     1      39.888  46.135  18.208 -0.30 -0.02    +0.227 A  ATOM     24  N   UNL     1      40.966  46.906  18.405 -0.35 +0.01    -0.221 NA ATOM     25  N   UNL     1      39.077  46.281  17.152 -0.28 +0.05    -0.212 NA ATOM     26  C   UNL     1      41.222  47.858  17.489 -0.39 -0.01    +0.130 A  ATOM     27  C   UNL     1      39.366  47.240  16.238 -0.41 -0.03    +0.088 A  ATOM     28  C   UNL     1      40.448  48.084  16.374 -0.47 -0.02    +0.100 A  BRANCH  27  29ATOM     29  C   UNL     1      38.417  47.294  15.117 -0.46 -0.00    +0.001 A  ATOM     30  C   UNL     1      37.678  48.455  14.838 -0.53 -0.01    +0.010 A  ATOM     31  C   UNL     1      38.246  46.180  14.280 -0.42 -0.00    +0.010 A  ATOM     32  C   UNL     1      36.779  48.491  13.769 -0.50 -0.00    +0.001 A  ATOM     33  C   UNL     1      37.348  46.217  13.210 -0.50 -0.00    +0.001 A  ATOM     34  C   UNL     1      36.614  47.372  12.958 -0.64 -0.00    +0.000 A  ENDBRANCH  27  29BRANCH  28  35ATOM     35  C   UNL     1      40.786  49.164  15.411 -0.34 -0.10    +0.419 C  ATOM     36  F   UNL     1      40.343  48.928  14.147 -0.19 +0.05    -0.166 F  ATOM     37  F   UNL     1      40.245  50.369  15.759 -0.22 +0.09    -0.166 F  ATOM     38  F   UNL     1      42.124  49.390  15.315 -0.12 -0.02    -0.166 F  ENDBRANCH  28  35ENDBRANCH  21  23ENDBRANCH  20  21ENDBRANCH  15  16ENDBRANCH   1  15TORSDOF 11TERENDMDL