REMARK SMILES CCCc1cncc(/C=C2\SC(=N)NC2=O)c1N(C)CCN1CCOCC1
REMARK SMILES IDX 4 1 5 2 6 3 7 4 8 5 17 6 3 7 2 8 1 9 18 10 19 11 20 12 21 13
REMARK SMILES IDX 22 14 23 15 27 16 24 17 26 18 25 19 9 20 10 21 11 22 15 23
REMARK SMILES IDX 12 24 14 25 16 26 13 28
REMARK H PARENT 14 27 13 29
ROOT
ATOM      1  C   UNL     1      -1.767  -2.087   0.983  1.00  0.00    -0.006 A 
ATOM      2  C   UNL     1      -2.825  -2.316   1.864  1.00  0.00     0.116 A 
ATOM      3  N   UNL     1      -3.541  -1.349   2.472  1.00  0.00    -0.264 NA
ATOM      4  C   UNL     1      -3.184  -0.080   2.187  1.00  0.00     0.121 A 
ATOM      5  C   UNL     1      -2.147   0.285   1.326  1.00  0.00     0.018 A 
ATOM      6  C   UNL     1      -1.410  -0.748   0.701  1.00  0.00     0.050 A 
ENDROOT
BRANCH   1   7
ATOM      7  C   UNL     1      -1.058  -3.277   0.378  1.00  0.00     0.039 C 
BRANCH   7   8
ATOM      8  C   UNL     1      -1.905  -4.066  -0.627  1.00  0.00     0.001 C 
ATOM      9  C   UNL     1      -2.231  -3.280  -1.889  1.00  0.00     0.004 C 
ENDBRANCH   7   8
ENDBRANCH   1   7
BRANCH   6  10
ATOM     10  N   UNL     1      -0.329  -0.529  -0.186  1.00  0.00    -0.373 N 
ATOM     11  C   UNL     1      -0.704   0.146  -1.430  1.00  0.00     0.143 C 
BRANCH  10  12
ATOM     12  C   UNL     1       0.890  -0.027   0.483  1.00  0.00     0.131 C 
BRANCH  12  13
ATOM     13  C   UNL     1       2.158  -0.577  -0.211  1.00  0.00     0.106 C 
BRANCH  13  14
ATOM     14  N   UNL     1       3.410  -0.129   0.427  1.00  0.00    -0.297 NA
ATOM     15  C   UNL     1       3.741   1.284   0.138  1.00  0.00     0.113 C 
ATOM     16  C   UNL     1       4.532  -1.014   0.045  1.00  0.00     0.113 C 
ATOM     17  C   UNL     1       4.855   1.459  -0.908  1.00  0.00     0.175 C 
ATOM     18  C   UNL     1       5.891  -0.340   0.282  1.00  0.00     0.175 C 
ATOM     19  O   UNL     1       6.084   0.820  -0.539  1.00  0.00    -0.379 OA
ENDBRANCH  13  14
ENDBRANCH  12  13
ENDBRANCH  10  12
ENDBRANCH   6  10
BRANCH   5  20
ATOM     20  C   UNL     1      -1.854   1.715   1.157  1.00  0.00     0.033 C 
BRANCH  20  21
ATOM     21  C   UNL     1      -2.607   2.595   0.485  1.00  0.00     0.081 C 
ATOM     22  S   UNL     1      -4.080   2.314  -0.368  1.00  0.00    -0.047 SA
ATOM     23  C   UNL     1      -2.217   4.026   0.357  1.00  0.00     0.264 C 
ATOM     24  C   UNL     1      -4.192   3.977  -0.846  1.00  0.00     0.165 C 
ATOM     25  N   UNL     1      -3.154   4.700  -0.374  1.00  0.00    -0.301 N 
ATOM     26  O   UNL     1      -1.206   4.529   0.821  1.00  0.00    -0.268 OA
ATOM     27  H   UNL     1      -3.031   5.683  -0.552  1.00  0.00     0.172 HD
BRANCH  24  28
ATOM     28  N   UNL     1      -5.137   4.459  -1.559  1.00  0.00    -0.278 NA
ATOM     29  H   UNL     1      -5.001   5.458  -1.716  1.00  0.00     0.190 HD
ENDBRANCH  24  28
ENDBRANCH  20  21
ENDBRANCH   5  20
TORSDOF 9
