MODEL        9USER    Run = 9USERUSER    Estimated Free Energy of Binding    =  -9.46 kcal/mol  [=(1)+(2)+(3)-(4)]USERUSER    (1) Final Intermolecular Energy     = -12.15 kcal/molUSER        vdW + Hbond + desolv Energy     = -11.92 kcal/molUSER        Electrostatic Energy            =  -0.23 kcal/molUSER        Moving Ligand-Fixed Receptor    = -12.15 kcal/molUSER        Moving Ligand-Moving Receptor   =  +0.00 kcal/molUSER    (2) Final Total Internal Energy     =  -1.46 kcal/molUSER    (3) Torsional Free Energy           =  +2.68 kcal/molUSER    (4) Unbound System's Energy         =  -1.46 kcal/molUSERUSERREMARK SMILES CCCc1cncc(/C=C2\SC(=N)NC2=O)c1N(C)CCN1CCOCC1REMARK SMILES IDX 4 1 5 2 6 3 7 4 8 5 17 6 3 7 2 8 1 9 18 10 19 11 20 12 21 13REMARK SMILES IDX 22 14 23 15 27 16 24 17 26 18 25 19 9 20 10 21 11 22 15 23REMARK SMILES IDX 12 24 14 25 16 26 13 28REMARK H PARENT 14 27 13 29USER                              x       y       z     vdW  Elec       q    TypeUSER                           _______ _______ _______ _____ _____    ______ ____ROOTATOM      1  C   UNL     1      36.528  44.402  19.535 -0.36 +0.00    -0.006 A  ATOM      2  C   UNL     1      37.474  44.280  20.554 -0.30 -0.00    +0.116 A  ATOM      3  N   UNL     1      38.770  44.636  20.445 -0.20 +0.00    -0.264 NA ATOM      4  C   UNL     1      39.146  45.143  19.253 -0.32 -0.01    +0.121 A  ATOM      5  C   UNL     1      38.301  45.317  18.155 -0.38 -0.00    +0.018 A  ATOM      6  C   UNL     1      36.946  44.935  18.294 -0.31 -0.01    +0.050 A  ENDROOTBRANCH   1   7ATOM      7  C   UNL     1      35.109  43.959  19.809 -0.45 -0.00    +0.039 C  BRANCH   7   8ATOM      8  C   UNL     1      34.854  42.471  19.541 -0.49 -0.00    +0.001 C  ATOM      9  C   UNL     1      34.492  42.173  18.093 -0.48 -0.00    +0.004 C  ENDBRANCH   7   8ENDBRANCH   1   7BRANCH   6  10ATOM     10  N   UNL     1      35.980  45.044  17.266 -0.07 +0.16    -0.373 N  ATOM     11  C   UNL     1      35.429  46.391  17.104 -0.31 -0.13    +0.143 C  BRANCH  10  12ATOM     12  C   UNL     1      36.361  44.344  16.021 -0.33 -0.05    +0.131 C  BRANCH  12  13ATOM     13  C   UNL     1      35.689  45.006  14.796 -0.29 -0.05    +0.106 C  BRANCH  13  14ATOM     14  N   UNL     1      36.658  45.544  13.822 -0.21 +0.13    -0.297 NA ATOM     15  C   UNL     1      37.383  46.736  14.315 -0.42 -0.05    +0.113 C  ATOM     16  C   UNL     1      35.991  45.837  12.535 -0.48 -0.05    +0.113 C  ATOM     17  C   UNL     1      36.879  48.060  13.717 -0.49 -0.10    +0.175 C  ATOM     18  C   UNL     1      36.815  46.809  11.678 -0.57 -0.06    +0.175 C  ATOM     19  O   UNL     1      36.954  48.100  12.286 -0.95 +0.08    -0.379 OA ENDBRANCH  13  14ENDBRANCH  12  13ENDBRANCH  10  12ENDBRANCH   6  10BRANCH   5  20ATOM     20  C   UNL     1      38.878  45.841  16.909 -0.44 -0.01    +0.033 C  BRANCH  20  21ATOM     21  C   UNL     1      39.730  46.870  16.812 -0.48 -0.02    +0.081 C  ATOM     22  S   UNL     1      39.509  48.370  15.989 -0.66 +0.02    -0.047 SA ATOM     23  C   UNL     1      41.086  46.827  17.424 -0.30 -0.03    +0.264 C  ATOM     24  C   UNL     1      41.091  48.919  16.438 -0.47 -0.02    +0.165 C  ATOM     25  N   UNL     1      41.745  47.998  17.177 -0.20 +0.02    -0.301 N  ATOM     26  O   UNL     1      41.554  45.885  18.045 -0.33 +0.00    -0.268 OA ATOM     27  H   UNL     1      42.681  48.123  17.526 -0.26 +0.01    +0.172 HD BRANCH  24  28ATOM     28  N   UNL     1      41.580  50.053  16.108 -0.91 +0.01    -0.278 NA ATOM     29  H   UNL     1      41.447  50.737  16.854 -0.46 -0.05    +0.190 HD ENDBRANCH  24  28ENDBRANCH  20  21ENDBRANCH   5  20TORSDOF 9TERENDMDL