REMARK SMILES O=C(Nc1cccc(-c2ccc(F)cc2O)c1)c1ccc(O)c(C(F)(F)F)c1
REMARK SMILES IDX 4 1 5 2 6 3 7 4 8 5 17 6 3 7 2 8 1 9 18 11 19 12 28 13 20 14
REMARK SMILES IDX 23 15 21 16 24 17 25 18 26 19 27 20 22 21 9 23 10 24 15 25
REMARK SMILES IDX 11 26 14 27 12 28 13 29 16 30
REMARK H PARENT 3 10 22 22 16 31
ROOT
ATOM      1  C   UNL     1      -0.712  -1.291  -0.297  1.00  0.00     0.042 A 
ATOM      2  C   UNL     1      -1.268  -2.438  -0.861  1.00  0.00     0.026 A 
ATOM      3  C   UNL     1      -2.651  -2.543  -1.022  1.00  0.00     0.003 A 
ATOM      4  C   UNL     1      -3.487  -1.501  -0.621  1.00  0.00     0.009 A 
ATOM      5  C   UNL     1      -2.958  -0.333  -0.051  1.00  0.00    -0.013 A 
ATOM      6  C   UNL     1      -1.562  -0.249   0.102  1.00  0.00     0.035 A 
ENDROOT
BRANCH   1   7
ATOM      7  N   UNL     1       0.674  -1.097  -0.111  1.00  0.00    -0.322 N 
ATOM      8  C   UNL     1       1.688  -2.006  -0.351  1.00  0.00     0.255 C 
ATOM      9  O   UNL     1       1.567  -3.176  -0.691  1.00  0.00    -0.269 OA
ATOM     10  H   UNL     1       0.932  -0.211   0.303  1.00  0.00     0.170 HD
BRANCH   8  11
ATOM     11  C   UNL     1       3.063  -1.479  -0.124  1.00  0.00     0.041 A 
ATOM     12  C   UNL     1       4.024  -2.332   0.423  1.00  0.00     0.017 A 
ATOM     13  C   UNL     1       3.419  -0.169  -0.478  1.00  0.00     0.030 A 
ATOM     14  C   UNL     1       5.321  -1.868   0.645  1.00  0.00     0.047 A 
ATOM     15  C   UNL     1       4.729   0.307  -0.261  1.00  0.00     0.098 A 
ATOM     16  C   UNL     1       5.668  -0.559   0.309  1.00  0.00     0.127 A 
BRANCH  15  17
ATOM     17  C   UNL     1       5.056   1.718  -0.662  1.00  0.00     0.419 C 
ATOM     18  F   UNL     1       6.341   2.075  -0.371  1.00  0.00    -0.166 F 
ATOM     19  F   UNL     1       4.899   1.936  -1.995  1.00  0.00    -0.166 F 
ATOM     20  F   UNL     1       4.265   2.633  -0.036  1.00  0.00    -0.166 F 
ENDBRANCH  15  17
BRANCH  16  21
ATOM     21  O   UNL     1       6.963  -0.211   0.571  1.00  0.00    -0.507 OA
ATOM     22  H   UNL     1       7.149   0.710   0.309  1.00  0.00     0.293 HD
ENDBRANCH  16  21
ENDBRANCH   8  11
ENDBRANCH   1   7
BRANCH   5  23
ATOM     23  C   UNL     1      -3.842   0.764   0.390  1.00  0.00     0.024 A 
ATOM     24  C   UNL     1      -4.879   0.497   1.307  1.00  0.00     0.015 A 
ATOM     25  C   UNL     1      -3.701   2.089  -0.068  1.00  0.00     0.126 A 
ATOM     26  C   UNL     1      -5.737   1.509   1.744  1.00  0.00     0.040 A 
ATOM     27  C   UNL     1      -4.555   3.105   0.365  1.00  0.00     0.086 A 
ATOM     28  C   UNL     1      -5.565   2.801   1.268  1.00  0.00     0.126 A 
ATOM     29  F   UNL     1      -6.386   3.773   1.688  1.00  0.00    -0.207 F 
BRANCH  25  30
ATOM     30  O   UNL     1      -2.710   2.391  -0.966  1.00  0.00    -0.507 OA
ATOM     31  H   UNL     1      -2.833   3.300  -1.284  1.00  0.00     0.293 HD
ENDBRANCH  25  30
ENDBRANCH   5  23
TORSDOF 6
