MODEL        6USER    Run = 6USERUSER    Estimated Free Energy of Binding    =  -8.23 kcal/mol  [=(1)+(2)+(3)-(4)]USERUSER    (1) Final Intermolecular Energy     = -10.02 kcal/molUSER        vdW + Hbond + desolv Energy     =  -9.30 kcal/molUSER        Electrostatic Energy            =  -0.72 kcal/molUSER        Moving Ligand-Fixed Receptor    = -10.02 kcal/molUSER        Moving Ligand-Moving Receptor   =  +0.00 kcal/molUSER    (2) Final Total Internal Energy     =  -0.52 kcal/molUSER    (3) Torsional Free Energy           =  +1.79 kcal/molUSER    (4) Unbound System's Energy         =  -0.52 kcal/molUSERUSERREMARK SMILES O=C(Nc1cccc(-c2ccc(F)cc2O)c1)c1ccc(O)c(C(F)(F)F)c1REMARK SMILES IDX 4 1 5 2 6 3 7 4 8 5 17 6 3 7 2 8 1 9 18 11 19 12 28 13 20 14REMARK SMILES IDX 23 15 21 16 24 17 25 18 26 19 27 20 22 21 9 23 10 24 15 25REMARK SMILES IDX 11 26 14 27 12 28 13 29 16 30REMARK H PARENT 3 10 22 22 16 31USER                              x       y       z     vdW  Elec       q    TypeUSER                           _______ _______ _______ _____ _____    ______ ____ROOTATOM      1  C   UNL     1      38.457  46.930  16.690 -0.37 -0.02    +0.042 A  ATOM      2  C   UNL     1      38.423  47.535  15.435 -0.45 -0.01    +0.026 A  ATOM      3  C   UNL     1      37.277  47.444  14.641 -0.47 -0.00    +0.003 A  ATOM      4  C   UNL     1      36.159  46.748  15.098 -0.37 -0.01    +0.009 A  ATOM      5  C   UNL     1      36.161  46.128  16.357 -0.36 +0.01    -0.013 A  ATOM      6  C   UNL     1      37.326  46.233  17.140 -0.33 -0.02    +0.035 A  ENDROOTBRANCH   1   7ATOM      7  N   UNL     1      39.567  46.985  17.561 -0.24 +0.07    -0.322 N  ATOM      8  C   UNL     1      39.927  46.056  18.520 -0.33 -0.02    +0.255 C  ATOM      9  O   UNL     1      39.306  45.054  18.849 -0.28 +0.02    -0.269 OA ATOM     10  H   UNL     1      40.113  47.834  17.508 +0.10 -0.04    +0.170 HD BRANCH   8  11ATOM     11  C   UNL     1      41.197  46.362  19.236 -0.42 +0.00    +0.041 A  ATOM     12  C   UNL     1      42.143  47.173  18.604 -0.52 +0.00    +0.017 A  ATOM     13  C   UNL     1      41.446  45.889  20.533 -0.35 +0.00    +0.030 A  ATOM     14  C   UNL     1      43.341  47.479  19.251 -0.37 +0.01    +0.047 A  ATOM     15  C   UNL     1      42.652  46.197  21.196 -0.27 +0.03    +0.098 A  ATOM     16  C   UNL     1      43.594  46.992  20.533 -0.26 +0.06    +0.127 A  BRANCH  15  17ATOM     17  C   UNL     1      42.865  45.665  22.585 -0.06 +0.09    +0.419 C  ATOM     18  F   UNL     1      42.761  46.626  23.550 -0.03 -0.03    -0.166 F  ATOM     19  F   UNL     1      41.970  44.698  22.921 -0.03 -0.02    -0.166 F  ATOM     20  F   UNL     1      44.097  45.109  22.747 -0.05 -0.06    -0.166 F  ENDBRANCH  15  17BRANCH  16  21ATOM     21  O   UNL     1      44.797  47.352  21.070 -0.58 -0.49    -0.507 OA ATOM     22  H   UNL     1      44.806  48.289  21.341 -0.40 +0.05    +0.293 HD ENDBRANCH  16  21ENDBRANCH   8  11ENDBRANCH   1   7BRANCH   5  23ATOM     23  C   UNL     1      34.985  45.376  16.836 -0.31 -0.02    +0.024 A  ATOM     24  C   UNL     1      34.723  44.090  16.320 -0.33 -0.01    +0.015 A  ATOM     25  C   UNL     1      34.092  45.887  17.799 -0.35 -0.09    +0.126 A  ATOM     26  C   UNL     1      33.618  43.350  16.747 -0.31 -0.02    +0.040 A  ATOM     27  C   UNL     1      32.985  45.153  18.229 -0.23 -0.03    +0.086 A  ATOM     28  C   UNL     1      32.762  43.890  17.696 -0.22 -0.04    +0.126 A  ATOM     29  F   UNL     1      31.702  43.181  18.108 -0.04 +0.03    -0.207 F  BRANCH  25  30ATOM     30  O   UNL     1      34.305  47.137  18.321 -0.76 +0.49    -0.507 OA ATOM     31  H   UNL     1      33.998  47.805  17.686 -0.31 -0.67    +0.293 HD ENDBRANCH  25  30ENDBRANCH   5  23TORSDOF 6TERENDMDL