REMARK SMILES CC(C)Nc1ncc2c(n1)nc([C@@H](C)c1ccc(F)cc1)c(=O)n2CCN1CCOCC1
REMARK SMILES IDX 5 1 6 2 7 3 8 4 9 5 10 6 11 7 12 8 22 9 23 10 24 11 4 12
REMARK SMILES IDX 2 14 1 15 3 16 25 17 26 18 27 19 28 20 32 21 29 22 31 23
REMARK SMILES IDX 30 24 13 25 14 26 15 27 16 28 21 29 17 30 20 31 18 32 19 33
REMARK H PARENT 4 13
ROOT
ATOM      1  C   UNL     1      -1.957  -2.670   0.391  1.00  0.00     0.225 A 
ATOM      2  N   UNL     1      -0.715  -2.949   0.811  1.00  0.00    -0.219 NA
ATOM      3  C   UNL     1       0.223  -1.992   0.655  1.00  0.00     0.145 A 
ATOM      4  C   UNL     1      -0.028  -0.760   0.099  1.00  0.00     0.108 A 
ATOM      5  C   UNL     1      -1.343  -0.578  -0.294  1.00  0.00     0.182 A 
ATOM      6  N   UNL     1      -2.303  -1.506  -0.157  1.00  0.00    -0.191 NA
ATOM      7  N   UNL     1      -1.799   0.613  -0.868  1.00  0.00    -0.225 NA
ATOM      8  C   UNL     1      -0.942   1.567  -1.083  1.00  0.00     0.115 A 
ATOM      9  C   UNL     1       0.542   1.446  -0.737  1.00  0.00     0.273 A 
ATOM     10  O   UNL     1       1.306   2.351  -1.046  1.00  0.00    -0.267 OA
ATOM     11  N   UNL     1       0.927   0.273  -0.092  1.00  0.00    -0.301 N 
ENDROOT
BRANCH   1  12
ATOM     12  N   UNL     1      -2.870  -3.688   0.561  1.00  0.00    -0.352 N 
ATOM     13  H   UNL     1      -2.454  -4.345   1.212  1.00  0.00     0.163 HD
BRANCH  12  14
ATOM     14  C   UNL     1      -4.286  -3.412   0.784  1.00  0.00     0.076 C 
ATOM     15  C   UNL     1      -4.525  -2.500   1.985  1.00  0.00     0.030 C 
ATOM     16  C   UNL     1      -4.992  -2.918  -0.475  1.00  0.00     0.030 C 
ENDBRANCH  12  14
ENDBRANCH   1  12
BRANCH  11  17
ATOM     17  C   UNL     1       2.332   0.097   0.271  1.00  0.00     0.142 C 
BRANCH  17  18
ATOM     18  C   UNL     1       3.154  -0.542  -0.868  1.00  0.00     0.106 C 
BRANCH  18  19
ATOM     19  N   UNL     1       4.576  -0.729  -0.536  1.00  0.00    -0.297 NA
ATOM     20  C   UNL     1       5.368  -1.128  -1.722  1.00  0.00     0.113 C 
ATOM     21  C   UNL     1       4.776  -1.694   0.569  1.00  0.00     0.113 C 
ATOM     22  C   UNL     1       5.643  -2.638  -1.796  1.00  0.00     0.175 C 
ATOM     23  C   UNL     1       6.165  -2.349   0.522  1.00  0.00     0.175 C 
ATOM     24  O   UNL     1       6.356  -3.141  -0.658  1.00  0.00    -0.379 OA
ENDBRANCH  18  19
ENDBRANCH  17  18
ENDBRANCH  11  17
BRANCH   8  25
ATOM     25  C   UNL     1      -1.397   2.907  -1.655  1.00  0.00     0.071 C 
ATOM     26  C   UNL     1      -2.572   2.745  -2.624  1.00  0.00     0.020 C 
BRANCH  25  27
ATOM     27  C   UNL     1      -1.710   3.886  -0.533  1.00  0.00    -0.039 A 
ATOM     28  C   UNL     1      -2.800   3.684   0.331  1.00  0.00     0.007 A 
ATOM     29  C   UNL     1      -0.880   5.001  -0.328  1.00  0.00     0.007 A 
ATOM     30  C   UNL     1      -3.061   4.585   1.365  1.00  0.00     0.039 A 
ATOM     31  C   UNL     1      -1.143   5.899   0.707  1.00  0.00     0.039 A 
ATOM     32  C   UNL     1      -2.231   5.684   1.542  1.00  0.00     0.123 A 
ATOM     33  F   UNL     1      -2.481   6.546   2.537  1.00  0.00    -0.207 F 
ENDBRANCH  25  27
ENDBRANCH   8  25
TORSDOF 7
