MODEL        1USER    Run = 1USERUSER    Estimated Free Energy of Binding    =  -9.44 kcal/mol  [=(1)+(2)+(3)-(4)]USERUSER    (1) Final Intermolecular Energy     = -11.53 kcal/molUSER        vdW + Hbond + desolv Energy     = -11.45 kcal/molUSER        Electrostatic Energy            =  -0.07 kcal/molUSER        Moving Ligand-Fixed Receptor    = -11.53 kcal/molUSER        Moving Ligand-Moving Receptor   =  +0.00 kcal/molUSER    (2) Final Total Internal Energy     =  -1.75 kcal/molUSER    (3) Torsional Free Energy           =  +2.09 kcal/molUSER    (4) Unbound System's Energy         =  -1.75 kcal/molUSERUSERREMARK SMILES CC(C)Nc1ncc2c(n1)nc([C@@H](C)c1ccc(F)cc1)c(=O)n2CCN1CCOCC1REMARK SMILES IDX 5 1 6 2 7 3 8 4 9 5 10 6 11 7 12 8 22 9 23 10 24 11 4 12REMARK SMILES IDX 2 14 1 15 3 16 25 17 26 18 27 19 28 20 32 21 29 22 31 23REMARK SMILES IDX 30 24 13 25 14 26 15 27 16 28 21 29 17 30 20 31 18 32 19 33REMARK H PARENT 4 13USER                              x       y       z     vdW  Elec       q    TypeUSER                           _______ _______ _______ _____ _____    ______ ____ROOTATOM      1  C   UNL     1      40.769  49.436  15.776 -0.43 -0.06    +0.225 A  ATOM      2  N   UNL     1      39.711  48.915  15.139 -0.36 +0.09    -0.219 NA ATOM      3  C   UNL     1      39.218  47.749  15.606 -0.39 -0.05    +0.145 A  ATOM      4  C   UNL     1      39.735  47.080  16.689 -0.41 -0.03    +0.108 A  ATOM      5  C   UNL     1      40.821  47.710  17.273 -0.38 -0.03    +0.182 A  ATOM      6  N   UNL     1      41.341  48.868  16.837 -0.92 +0.00    -0.191 NA ATOM      7  N   UNL     1      41.477  47.194  18.395 -0.38 +0.01    -0.225 NA ATOM      8  C   UNL     1      41.079  46.054  18.877 -0.40 +0.00    +0.115 A  ATOM      9  C   UNL     1      39.926  45.251  18.273 -0.25 -0.02    +0.273 A  ATOM     10  O   UNL     1      39.662  44.146  18.727 -0.27 +0.01    -0.267 OA ATOM     11  N   UNL     1      39.254  45.850  17.210 -0.21 +0.06    -0.301 N  ENDROOTBRANCH   1  12ATOM     12  N   UNL     1      41.240  50.619  15.249 -0.35 +0.12    -0.352 N  ATOM     13  H   UNL     1      41.625  51.149  16.023 -0.43 -0.06    +0.163 HD BRANCH  12  14ATOM     14  C   UNL     1      42.041  50.643  14.028 -0.57 -0.02    +0.076 C  ATOM     15  C   UNL     1      43.297  51.500  14.165 -0.31 -0.01    +0.030 C  ATOM     16  C   UNL     1      42.342  49.244  13.497 -0.37 -0.00    +0.030 C  ENDBRANCH  12  14ENDBRANCH   1  12BRANCH  11  17ATOM     17  C   UNL     1      38.139  45.137  16.591 -0.29 -0.04    +0.142 C  BRANCH  17  18ATOM     18  C   UNL     1      36.868  45.169  17.465 -0.33 -0.04    +0.106 C  BRANCH  18  19ATOM     19  N   UNL     1      36.709  43.980  18.319 -0.13 +0.06    -0.297 NA ATOM     20  C   UNL     1      35.520  43.185  17.935 -0.32 -0.03    +0.113 C  ATOM     21  C   UNL     1      36.661  44.322  19.759 -0.36 -0.01    +0.113 C  ATOM     22  C   UNL     1      34.296  43.443  18.827 -0.31 -0.03    +0.175 C  ATOM     23  C   UNL     1      35.914  43.261  20.581 -0.37 +0.00    +0.175 C  ATOM     24  O   UNL     1      34.532  43.156  20.212 -0.51 -0.02    -0.379 OA ENDBRANCH  18  19ENDBRANCH  17  18ENDBRANCH  11  17BRANCH   8  25ATOM     25  C   UNL     1      41.723  45.473  20.133 -0.37 +0.01    +0.071 C  ATOM     26  C   UNL     1      42.711  46.452  20.774 -0.39 +0.01    +0.020 C  BRANCH  25  27ATOM     27  C   UNL     1      40.656  45.011  21.114 -0.30 -0.00    -0.039 A  ATOM     28  C   UNL     1      39.563  45.831  21.446 -0.25 +0.00    +0.007 A  ATOM     29  C   UNL     1      40.738  43.729  21.682 -0.28 +0.00    +0.007 A  ATOM     30  C   UNL     1      38.585  45.383  22.335 -0.31 +0.00    +0.039 A  ATOM     31  C   UNL     1      39.758  43.283  22.571 -0.25 +0.00    +0.039 A  ATOM     32  C   UNL     1      38.693  44.114  22.890 -0.22 +0.01    +0.123 A  ATOM     33  F   UNL     1      37.752  43.684  23.741 -0.06 -0.02    -0.207 F  ENDBRANCH  25  27ENDBRANCH   8  25TORSDOF 7TERENDMDL