MODEL        4USER    Run = 4USERUSER    Estimated Free Energy of Binding    =  -4.43 kcal/mol  [=(1)+(2)+(3)-(4)]USERUSER    (1) Final Intermolecular Energy     =  -8.90 kcal/molUSER        vdW + Hbond + desolv Energy     =  -9.26 kcal/molUSER        Electrostatic Energy            =  -0.08 kcal/molUSER        Moving Ligand-Fixed Receptor    =  -9.33 kcal/molUSER        Moving Ligand-Moving Receptor   =  +0.43 kcal/molUSER    (2) Final Total Internal Energy     =  -2.52 kcal/molUSER    (3) Torsional Free Energy           =  +4.47 kcal/molUSER    (4) Unbound System's Energy         =  -2.52 kcal/molUSERUSERREMARK SMILES C[C@@H]1Oc2cc(O)ccc2Cc2c(O)cccc2CCN1CCOCCOREMARK SMILES IDX 21 1 2 2 1 3 3 4 4 5 5 6 10 7 6 8 9 9 8 10 11 11 12 12 13 13REMARK SMILES IDX 18 14 15 15 17 16 16 17 14 18 19 20 7 22 20 24 22 26 23 27REMARK SMILES IDX 24 28 25 29 26 30 27 31REMARK H PARENT 14 19 7 23 27 32REMARK Flexibility Score:  205.900USER                              x       y       z     vdW  Elec       q    TypeUSER                           _______ _______ _______ _____ _____    ______ ____ROOTATOM      1  N   UNL     1      37.402  45.050  16.605 -0.17 +0.09    -0.266 NA ENDROOTBRANCH   1   2ATOM      2  C   UNL     1      37.803  45.307  18.017 -0.27 -0.05    +0.241 C  ATOM      3  C   UNL     1      38.912  44.366  18.501 -0.36 -0.01    +0.071 C  BRANCH   2   4ATOM      4  O   UNL     1      36.752  45.191  19.035 -0.03 +0.08    -0.475 OA BRANCH   4   5ATOM      5  C   UNL     1      36.875  44.328  20.099 -0.28 -0.01    +0.128 A  ATOM      6  C   UNL     1      37.553  44.692  21.266 -0.24 +0.00    +0.093 A  ATOM      7  C   UNL     1      36.292  43.026  19.985 -0.42 +0.00    -0.001 A  ATOM      8  C   UNL     1      37.637  43.788  22.323 -0.30 +0.01    +0.119 A  ATOM      9  C   UNL     1      36.392  42.147  21.079 -0.50 +0.00    +0.012 A  ATOM     10  C   UNL     1      37.062  42.527  22.240 -0.43 +0.00    +0.047 A  BRANCH   7  11ATOM     11  C   UNL     1      35.518  42.527  18.757 -0.37 -0.01    +0.079 C  BRANCH  11  12ATOM     12  C   UNL     1      34.452  43.467  18.135 -0.33 -0.00    +0.002 A  ATOM     13  C   UNL     1      33.367  43.930  18.882 -0.31 -0.02    +0.119 A  ATOM     14  C   UNL     1      34.517  43.843  16.752 -0.31 +0.02    -0.040 A  ATOM     15  C   UNL     1      32.381  44.728  18.295 -0.10 -0.01    +0.046 A  ATOM     16  C   UNL     1      33.536  44.637  16.166 -0.32 -0.00    +0.004 A  ATOM     17  C   UNL     1      32.464  45.074  16.943 -0.27 -0.00    +0.004 A  BRANCH  13  18ATOM     18  O   UNL     1      33.270  43.596  20.204 -0.73 -0.04    -0.508 OA ATOM     19  H   UNL     1      33.212  44.413  20.727 -0.15 -0.03    +0.293 HD ENDBRANCH  13  18BRANCH  14  20ATOM     20  C   UNL     1      35.744  43.396  16.049 -0.45 -0.02    +0.051 CG0ATOM     21  G   UNL     1      37.229  43.647  16.125 +0.00 +0.00    +0.000 G0 ENDBRANCH  14  20ENDBRANCH  11  12ENDBRANCH   7  11BRANCH   8  22ATOM     22  O   UNL     1      38.291  44.109  23.479 -0.04 -0.03    -0.508 OA ATOM     23  H   UNL     1      38.692  44.986  23.372 +0.15 +0.02    +0.293 HD ENDBRANCH   8  22ENDBRANCH   4   5ENDBRANCH   2   4ENDBRANCH   1   2BRANCH   1  24ATOM     24  C   UNL     1      37.232  43.647  16.128 -0.26 -0.03    +0.093 CG0ATOM     25  G   UNL     1      35.747  43.396  16.051 +0.00 +0.00    +0.000 G0 ENDBRANCH   1  24BRANCH   1  26ATOM     26  C   UNL     1      38.027  45.932  15.606 -0.35 -0.04    +0.116 C  BRANCH  26  27ATOM     27  C   UNL     1      37.570  47.404  15.526 -0.37 -0.11    +0.176 C  BRANCH  27  28ATOM     28  O   UNL     1      36.855  47.639  14.309 -0.24 +0.25    -0.378 OA BRANCH  28  29ATOM     29  C   UNL     1      36.285  46.462  13.727 -0.41 -0.10    +0.188 C  BRANCH  29  30ATOM     30  C   UNL     1      36.714  46.217  12.278 -0.55 -0.07    +0.184 C  BRANCH  30  31ATOM     31  O   UNL     1      37.230  47.409  11.681 -0.94 +0.09    -0.394 OA ATOM     32  H   UNL     1      36.915  48.162  12.211 +0.10 -0.04    +0.210 HD ENDBRANCH  30  31ENDBRANCH  29  30ENDBRANCH  28  29ENDBRANCH  27  28ENDBRANCH  26  27ENDBRANCH   1  26TORSDOF 8TERENDMDL