REMARK SMILES Cc1c(O)cccc1-c1c[nH]c2ccc(-c3nnc(NC4CC4)o3)cc12
REMARK SMILES IDX 9 1 10 2 11 3 12 4 13 5 14 6 15 7 25 8 26 9 8 11 2 12 3 13
REMARK SMILES IDX 5 14 7 15 6 16 1 17 4 18 16 20 17 21 24 22 18 23 19 24 20 25
REMARK SMILES IDX 21 27 22 28 23 29
REMARK H PARENT 11 10 4 19 20 26
ROOT
ATOM      1  C   UNL     1      -2.568   1.322  -0.324  1.00  0.00     0.007 A 
ATOM      2  C   UNL     1      -2.799   2.669  -0.135  1.00  0.00     0.092 A 
ATOM      3  N   UNL     1      -1.601   3.263   0.160  1.00  0.00    -0.361 N 
ATOM      4  C   UNL     1      -0.589   2.329   0.152  1.00  0.00     0.046 A 
ATOM      5  C   UNL     1       0.780   2.481   0.389  1.00  0.00     0.027 A 
ATOM      6  C   UNL     1       1.583   1.336   0.309  1.00  0.00     0.016 A 
ATOM      7  C   UNL     1       1.047   0.076   0.002  1.00  0.00     0.040 A 
ATOM      8  C   UNL     1      -0.336  -0.040  -0.230  1.00  0.00     0.024 A 
ATOM      9  C   UNL     1      -1.168   1.097  -0.153  1.00  0.00     0.008 A 
ATOM     10  H   UNL     1      -1.472   4.246   0.354  1.00  0.00     0.166 HD
ENDROOT
BRANCH   1  11
ATOM     11  C   UNL     1      -3.625   0.381  -0.649  1.00  0.00    -0.010 A 
ATOM     12  C   UNL     1      -4.106  -0.555   0.290  1.00  0.00    -0.001 A 
ATOM     13  C   UNL     1      -5.089  -1.466  -0.128  1.00  0.00     0.119 A 
ATOM     14  C   UNL     1      -5.612  -1.436  -1.422  1.00  0.00     0.046 A 
ATOM     15  C   UNL     1      -4.154   0.408  -1.950  1.00  0.00     0.009 A 
ATOM     16  C   UNL     1      -5.145  -0.493  -2.333  1.00  0.00     0.004 A 
ATOM     17  C   UNL     1      -3.554  -0.629   1.689  1.00  0.00     0.049 C 
BRANCH  13  18
ATOM     18  O   UNL     1      -5.540  -2.406   0.758  1.00  0.00    -0.508 OA
ATOM     19  H   UNL     1      -6.181  -2.980   0.309  1.00  0.00     0.293 HD
ENDBRANCH  13  18
ENDBRANCH   1  11
BRANCH   7  20
ATOM     20  C   UNL     1       1.886  -1.113  -0.083  1.00  0.00     0.249 A 
ATOM     21  N   UNL     1       1.564  -2.364  -0.345  1.00  0.00    -0.106 NA
ATOM     22  O   UNL     1       3.230  -0.952   0.132  1.00  0.00    -0.403 OA
ATOM     23  N   UNL     1       2.740  -3.086  -0.299  1.00  0.00    -0.090 NA
ATOM     24  C   UNL     1       3.697  -2.228  -0.019  1.00  0.00     0.315 A 
BRANCH  24  25
ATOM     25  N   UNL     1       5.018  -2.459   0.133  1.00  0.00    -0.335 N 
ATOM     26  H   UNL     1       5.316  -3.375  -0.187  1.00  0.00     0.165 HD
BRANCH  25  27
ATOM     27  C   UNL     1       5.933  -1.336  -0.052  1.00  0.00     0.084 C 
ATOM     28  C   UNL     1       6.262  -0.402   1.079  1.00  0.00     0.027 C 
ATOM     29  C   UNL     1       7.296  -1.369   0.583  1.00  0.00     0.027 C 
ENDBRANCH  25  27
ENDBRANCH  24  25
ENDBRANCH   7  20
TORSDOF 5
