REMARK SMILES NCCC[C@@H]1COc2ccc(O)c(O)c2-c2cc(O)ccc21
REMARK SMILES IDX 4 1 3 2 2 3 1 4 5 7 22 9 21 10 16 11 20 12 17 13 18 14 15 15
REMARK SMILES IDX 13 16 8 17 11 18 9 19 10 20 14 21 7 23 6 24 12 26 19 28
REMARK H PARENT 1 5 1 6 14 22 12 27 19 29
REMARK Flexibility Score:   90.900
ROOT
ATOM      1  C   UNL     1       2.434  -0.648  -0.257  1.00  0.00     0.013 C 
ENDROOT
BRANCH   1   2
ATOM      2  C   UNL     1       3.233   0.549  -0.799  1.00  0.00     0.016 C 
BRANCH   2   3
ATOM      3  C   UNL     1       3.473   1.681   0.193  1.00  0.00     0.077 C 
BRANCH   3   4
ATOM      4  N   UNL     1       4.389   2.662  -0.378  1.00  0.00    -0.330 NA
ATOM      5  H   UNL     1       4.564   3.402   0.301  1.00  0.00     0.118 HD
ATOM      6  H   UNL     1       5.292   2.228  -0.566  1.00  0.00     0.118 HD
ENDBRANCH   3   4
ENDBRANCH   2   3
ENDBRANCH   1   2
BRANCH   1   7
ATOM      7  C   UNL     1       0.976  -0.343   0.171  1.00  0.00     0.058 CG0
ATOM      8  G   UNL     1       0.884   0.083   1.660  1.00  0.00     0.000 G0
BRANCH   7   9
ATOM      9  C   UNL     1      -0.021  -1.487  -0.049  1.00  0.00    -0.033 A 
ATOM     10  C   UNL     1       0.371  -2.824  -0.228  1.00  0.00     0.008 A 
ATOM     11  C   UNL     1      -1.405  -1.172  -0.013  1.00  0.00    -0.003 A 
ATOM     12  C   UNL     1      -0.582  -3.828  -0.400  1.00  0.00     0.046 A 
ATOM     13  C   UNL     1      -2.351  -2.203  -0.166  1.00  0.00     0.055 A 
ATOM     14  C   UNL     1      -1.932  -3.514  -0.365  1.00  0.00     0.116 A 
BRANCH  11  15
ATOM     15  C   UNL     1      -1.843   0.215   0.253  1.00  0.00     0.070 A 
ATOM     16  C   UNL     1      -2.764   0.903  -0.552  1.00  0.00     0.169 A 
ATOM     17  C   UNL     1      -1.315   0.916   1.360  1.00  0.00     0.131 A 
ATOM     18  C   UNL     1      -3.180   2.196  -0.221  1.00  0.00     0.158 A 
ATOM     19  C   UNL     1      -1.745   2.204   1.695  1.00  0.00     0.051 A 
ATOM     20  C   UNL     1      -2.685   2.849   0.897  1.00  0.00     0.054 A 
BRANCH  16  21
ATOM     21  O   UNL     1      -3.288   0.384  -1.712  1.00  0.00    -0.504 OA
ATOM     22  H   UNL     1      -2.728  -0.368  -1.979  1.00  0.00     0.293 HD
ENDBRANCH  16  21
BRANCH  17  23
ATOM     23  O   UNL     1      -0.425   0.319   2.215  1.00  0.00    -0.492 OA
BRANCH  23  24
ATOM     24  C   UNL     1       0.884   0.083   1.660  1.00  0.00     0.238 CG0
ATOM     25  G   UNL     1       0.976  -0.343   0.171  1.00  0.00     0.000 G0
ENDBRANCH  23  24
ENDBRANCH  17  23
BRANCH  18  26
ATOM     26  O   UNL     1      -4.087   2.842  -1.015  1.00  0.00    -0.504 OA
ATOM     27  H   UNL     1      -4.289   2.202  -1.727  1.00  0.00     0.293 HD
ENDBRANCH  18  26
ENDBRANCH  11  15
BRANCH  14  28
ATOM     28  O   UNL     1      -2.826  -4.531  -0.517  1.00  0.00    -0.508 OA
ATOM     29  H   UNL     1      -3.723  -4.184  -0.380  1.00  0.00     0.293 HD
ENDBRANCH  14  28
ENDBRANCH   7   9
ENDBRANCH   1   7
TORSDOF 7
