REMARK SMILES COc1cccc(-c2nc(C=C3C=CC(NCCc4cccc(C#N)c4)=C3)ccc[nH][nH]2)c1C
REMARK SMILES IDX 12 1 13 2 14 3 15 4 27 5 11 6 10 7 8 8 9 9 32 10 31 11 28 12
REMARK SMILES IDX 30 13 29 14 7 17 3 18 4 19 33 20 5 21 6 22 34 23 2 24 1 25
REMARK SMILES IDX 16 26 17 28 18 29 19 30 20 31 26 32 21 33 23 34 22 35 24 36
REMARK SMILES IDX 25 37
REMARK H PARENT 32 15 31 16 16 27
ROOT
ATOM      1  C   UNL     1       0.477  -2.259   0.255  1.00  0.00    -0.021 C 
ATOM      2  C   UNL     1       0.740  -1.825   1.609  1.00  0.00     0.010 C 
ATOM      3  C   UNL     1       2.037  -1.476   1.663  1.00  0.00     0.026 C 
ATOM      4  C   UNL     1       2.649  -1.651   0.353  1.00  0.00     0.035 C 
ATOM      5  C   UNL     1       1.714  -2.122  -0.491  1.00  0.00     0.033 C 
ENDROOT
BRANCH   1   6
ATOM      6  C   UNL     1      -0.694  -2.685  -0.251  1.00  0.00     0.036 C 
BRANCH   6   7
ATOM      7  C   UNL     1      -1.970  -2.815   0.490  1.00  0.00     0.066 A 
ATOM      8  C   UNL     1      -3.803  -1.258   0.738  1.00  0.00     0.152 A 
ATOM      9  N   UNL     1      -2.721  -1.747   0.112  1.00  0.00    -0.229 NA
ATOM     10  N   UNL     1      -4.679  -1.964   1.529  1.00  0.00    -0.284 N 
ATOM     11  N   UNL     1      -4.905  -3.302   1.325  1.00  0.00    -0.307 N 
ATOM     12  C   UNL     1      -1.980  -3.892   1.315  1.00  0.00     0.030 A 
ATOM     13  C   UNL     1      -4.219  -4.175   2.138  1.00  0.00     0.101 A 
ATOM     14  C   UNL     1      -2.916  -4.459   2.089  1.00  0.00     0.022 A 
ATOM     15  H   UNL     1      -5.495  -1.418   1.795  1.00  0.00     0.189 HD
ATOM     16  H   UNL     1      -4.459  -3.435   0.392  1.00  0.00     0.187 HD
BRANCH   8  17
ATOM     17  C   UNL     1      -4.163   0.141   0.423  1.00  0.00     0.025 A 
ATOM     18  C   UNL     1      -3.886   2.534   0.641  1.00  0.00     0.122 A 
ATOM     19  C   UNL     1      -4.924   2.753  -0.270  1.00  0.00     0.047 A 
ATOM     20  C   UNL     1      -3.505   1.238   1.022  1.00  0.00     0.002 A 
ATOM     21  C   UNL     1      -5.590   1.666  -0.829  1.00  0.00     0.005 A 
ATOM     22  C   UNL     1      -5.209   0.368  -0.488  1.00  0.00     0.012 A 
ATOM     23  C   UNL     1      -2.383   1.007   2.000  1.00  0.00     0.049 C 
BRANCH  18  24
ATOM     24  O   UNL     1      -3.272   3.615   1.230  1.00  0.00    -0.496 OA
ATOM     25  C   UNL     1      -2.381   4.246   0.304  1.00  0.00     0.278 C 
ENDBRANCH  18  24
ENDBRANCH   8  17
ENDBRANCH   6   7
ENDBRANCH   1   6
BRANCH   4  26
ATOM     26  N   UNL     1       3.956  -1.338   0.070  1.00  0.00    -0.385 N 
ATOM     27  H   UNL     1       4.145  -1.363  -0.930  1.00  0.00     0.160 HD
BRANCH  26  28
ATOM     28  C   UNL     1       4.762  -0.355   0.788  1.00  0.00     0.117 C 
BRANCH  28  29
ATOM     29  C   UNL     1       4.347   1.083   0.460  1.00  0.00     0.056 C 
BRANCH  29  30
ATOM     30  C   UNL     1       4.690   1.487  -0.962  1.00  0.00    -0.045 A 
ATOM     31  C   UNL     1       3.725   1.393  -1.976  1.00  0.00     0.004 A 
ATOM     32  C   UNL     1       5.980   1.936  -1.288  1.00  0.00     0.023 A 
ATOM     33  C   UNL     1       4.038   1.744  -3.293  1.00  0.00     0.002 A 
ATOM     34  C   UNL     1       6.292   2.298  -2.604  1.00  0.00     0.052 A 
ATOM     35  C   UNL     1       5.318   2.199  -3.606  1.00  0.00     0.019 A 
BRANCH  34  36
ATOM     36  C   UNL     1       7.603   2.781  -2.924  1.00  0.00     0.099 C 
ATOM     37  N   UNL     1       8.668   3.177  -3.179  1.00  0.00    -0.192 NA
ENDBRANCH  34  36
ENDBRANCH  29  30
ENDBRANCH  28  29
ENDBRANCH  26  28
ENDBRANCH   4  26
TORSDOF 9
