MODEL        8USER    Run = 8USERUSER    Estimated Free Energy of Binding    =  -7.13 kcal/mol  [=(1)+(2)+(3)-(4)]USERUSER    (1) Final Intermolecular Energy     = -11.01 kcal/molUSER        vdW + Hbond + desolv Energy     = -11.19 kcal/molUSER        Electrostatic Energy            =  -0.06 kcal/molUSER        Moving Ligand-Fixed Receptor    = -11.26 kcal/molUSER        Moving Ligand-Moving Receptor   =  +0.25 kcal/molUSER    (2) Final Total Internal Energy     =  -3.68 kcal/molUSER    (3) Torsional Free Energy           =  +3.88 kcal/molUSER    (4) Unbound System's Energy         =  -3.68 kcal/molUSERUSERREMARK SMILES CCOc1cc(F)ccc1C[C@H](N)C1=NC=Nc2cc(-c3ccc([N+](=O)[O-])cc3)[nH]c2[C@H]1CREMARK SMILES IDX 14 1 12 3 11 4 10 5 4 6 5 7 6 8 9 9 8 10 7 11 3 12 2 13 1 14REMARK SMILES IDX 13 15 15 18 16 19 17 20 18 21 19 22 31 23 20 24 30 25 32 27REMARK SMILES IDX 33 28 21 30 22 31 29 32 23 33 28 34 24 35 25 36 26 37 27 38REMARK H PARENT 13 16 13 17 30 26REMARK Flexibility Score:  188.900USER                              x       y       z     vdW  Elec       q    TypeUSER                           _______ _______ _______ _____ _____    ______ ____ROOTATOM      1  C   UNL     1      40.877  45.715  22.044 -0.28 +0.00    +0.046 CG0ATOM      2  G   UNL     1      40.754  44.658  20.928 +0.00 +0.00    +0.000 G0 ENDROOTBRANCH   1   3ATOM      3  C   UNL     1      39.697  45.923  23.020 -0.27 +0.01    +0.101 C  BRANCH   3   4ATOM      4  C   UNL     1      38.378  45.774  22.230 -0.17 +0.01    +0.064 C  BRANCH   4   5ATOM      5  C   UNL     1      37.729  44.399  22.252 -0.37 -0.00    -0.004 A  ATOM      6  C   UNL     1      37.193  43.830  21.073 -0.32 +0.00    +0.125 A  ATOM      7  C   UNL     1      36.620  42.557  21.119 -0.41 +0.00    +0.086 A  ATOM      8  C   UNL     1      36.598  41.848  22.315 -0.44 +0.01    +0.126 A  ATOM      9  C   UNL     1      37.711  43.648  23.443 -0.33 +0.00    +0.010 A  ATOM     10  C   UNL     1      37.140  42.378  23.475 -0.40 +0.00    +0.040 A  ATOM     11  F   UNL     1      36.048  40.625  22.343 -0.13 -0.00    -0.207 F  BRANCH   6  12ATOM     12  O   UNL     1      37.286  44.599  19.944 -0.10 +0.03    -0.493 OA BRANCH  12  13ATOM     13  C   UNL     1      36.166  44.719  19.069 -0.24 -0.04    +0.226 C  ATOM     14  C   UNL     1      36.164  43.607  18.035 -0.34 -0.01    +0.049 C  ENDBRANCH  12  13ENDBRANCH   6  12ENDBRANCH   4   5ENDBRANCH   3   4BRANCH   3  15ATOM     15  N   UNL     1      39.824  47.263  23.635 -0.15 -0.03    -0.323 NA ATOM     16  H   UNL     1      40.411  47.824  23.009 +0.06 +0.01    +0.119 HD ATOM     17  H   UNL     1      40.390  47.179  24.480 +0.05 +0.01    +0.119 HD ENDBRANCH   3  15ENDBRANCH   1   3BRANCH   1  18ATOM     18  N   UNL     1      41.923  46.476  22.218 -0.14 -0.03    -0.243 NA BRANCH  18  19ATOM     19  C   UNL     1      42.591  47.095  21.192 -0.23 +0.04    +0.222 C  BRANCH  19  20ATOM     20  N   UNL     1      42.742  46.758  19.948 -0.30 -0.06    -0.235 NA BRANCH  20  21ATOM     21  C   UNL     1      41.625  46.354  19.235 -0.41 +0.01    +0.087 A  ATOM     22  C   UNL     1      41.211  46.893  18.010 -0.48 -0.00    +0.057 A  ATOM     23  C   UNL     1      40.686  45.457  19.667 -0.39 +0.00    +0.050 A  ATOM     24  C   UNL     1      40.013  46.280  17.671 -0.44 -0.01    +0.048 A  ATOM     25  N   UNL     1      39.710  45.409  18.703 -0.19 +0.02    -0.356 N  ATOM     26  H   UNL     1      38.868  44.852  18.743 +0.10 -0.02    +0.166 HD BRANCH  23  27ATOM     27  C   UNL     1      40.753  44.660  20.925 -0.34 +0.01    +0.081 CG0ATOM     28  C   UNL     1      41.808  43.562  20.890 -0.25 +0.00    +0.021 C  ATOM     29  G   UNL     1      40.878  45.714  22.044 +0.00 +0.00    +0.000 G0 ENDBRANCH  23  27BRANCH  24  30ATOM     30  C   UNL     1      39.142  46.477  16.512 -0.43 +0.00    -0.002 A  ATOM     31  C   UNL     1      38.174  45.514  16.187 -0.34 -0.01    +0.017 A  ATOM     32  C   UNL     1      39.251  47.624  15.712 -0.49 -0.01    +0.017 A  ATOM     33  C   UNL     1      37.336  45.683  15.079 -0.32 -0.04    +0.086 A  ATOM     34  C   UNL     1      38.416  47.805  14.603 -0.45 -0.04    +0.086 A  ATOM     35  C   UNL     1      37.463  46.830  14.290 -0.24 -0.12    +0.269 A  BRANCH  35  36ATOM     36  N   UNL     1      36.586  47.015  13.127 -0.53 -0.03    +0.062 N  ATOM     37  O   UNL     1      35.702  46.167  12.933 -0.41 +0.14    -0.258 OA ATOM     38  O   UNL     1      36.779  48.006  12.409 -1.06 +0.08    -0.258 OA ENDBRANCH  35  36ENDBRANCH  24  30ENDBRANCH  20  21ENDBRANCH  19  20ENDBRANCH  18  19ENDBRANCH   1  18TORSDOF 8TERENDMDL