REMARK SMILES C[C@@H]1Oc2cc(O)ccc2Cc2c(O)cccc2CCN1CCOCCO
REMARK SMILES IDX 21 1 2 2 1 3 3 4 4 5 5 6 10 7 6 8 9 9 8 10 11 11 12 12 13 13
REMARK SMILES IDX 18 14 15 15 17 16 16 17 14 18 19 20 7 22 20 24 22 26 23 27
REMARK SMILES IDX 24 28 25 29 26 30 27 31
REMARK H PARENT 14 19 7 23 27 32
REMARK Flexibility Score:  205.900
ROOT
ATOM      1  N   UNL     1       1.043  -0.988  -0.253  1.00  0.00    -0.266 NA
ENDROOT
BRANCH   1   2
ATOM      2  C   UNL     1       0.531  -1.200  -1.637  1.00  0.00     0.241 C 
ATOM      3  C   UNL     1       1.340  -0.439  -2.694  1.00  0.00     0.071 C 
BRANCH   2   4
ATOM      4  O   UNL     1      -0.862  -0.817  -1.893  1.00  0.00    -0.475 OA
BRANCH   4   5
ATOM      5  C   UNL     1      -1.910  -1.488  -1.308  1.00  0.00     0.128 A 
ATOM      6  C   UNL     1      -1.901  -2.878  -1.158  1.00  0.00     0.093 A 
ATOM      7  C   UNL     1      -3.033  -0.726  -0.854  1.00  0.00    -0.001 A 
ATOM      8  C   UNL     1      -2.980  -3.511  -0.545  1.00  0.00     0.119 A 
ATOM      9  C   UNL     1      -4.098  -1.403  -0.232  1.00  0.00     0.012 A 
ATOM     10  C   UNL     1      -4.071  -2.788  -0.080  1.00  0.00     0.047 A 
BRANCH   7  11
ATOM     11  C   UNL     1      -3.143   0.802  -0.958  1.00  0.00     0.079 C 
BRANCH  11  12
ATOM     12  C   UNL     1      -2.832   1.643   0.307  1.00  0.00     0.002 A 
ATOM     13  C   UNL     1      -3.812   2.430   0.916  1.00  0.00     0.119 A 
ATOM     14  C   UNL     1      -1.508   1.685   0.858  1.00  0.00    -0.040 A 
ATOM     15  C   UNL     1      -3.505   3.230   2.020  1.00  0.00     0.046 A 
ATOM     16  C   UNL     1      -1.200   2.482   1.957  1.00  0.00     0.004 A 
ATOM     17  C   UNL     1      -2.204   3.259   2.533  1.00  0.00     0.004 A 
BRANCH  13  18
ATOM     18  O   UNL     1      -5.087   2.416   0.423  1.00  0.00    -0.508 OA
ATOM     19  H   UNL     1      -5.638   2.999   0.971  1.00  0.00     0.293 HD
ENDBRANCH  13  18
BRANCH  14  20
ATOM     20  C   UNL     1      -0.546   0.753   0.221  1.00  0.00     0.051 CG0
ATOM     21  G   UNL     1       0.897   0.349   0.392  1.00  0.00     0.000 G0
ENDBRANCH  14  20
ENDBRANCH  11  12
ENDBRANCH   7  11
BRANCH   8  22
ATOM     22  O   UNL     1      -3.006  -4.867  -0.380  1.00  0.00    -0.508 OA
ATOM     23  H   UNL     1      -2.174  -5.234  -0.720  1.00  0.00     0.293 HD
ENDBRANCH   8  22
ENDBRANCH   4   5
ENDBRANCH   2   4
ENDBRANCH   1   2
BRANCH   1  24
ATOM     24  C   UNL     1       0.897   0.349   0.392  1.00  0.00     0.093 CG0
ATOM     25  G   UNL     1      -0.546   0.753   0.221  1.00  0.00     0.000 G0
ENDBRANCH   1  24
BRANCH   1  26
ATOM     26  C   UNL     1       2.328  -1.640   0.046  1.00  0.00     0.116 C 
BRANCH  26  27
ATOM     27  C   UNL     1       3.628  -0.823  -0.110  1.00  0.00     0.176 C 
BRANCH  27  28
ATOM     28  O   UNL     1       3.772   0.099   0.975  1.00  0.00    -0.378 OA
BRANCH  28  29
ATOM     29  C   UNL     1       5.068   0.699   1.065  1.00  0.00     0.188 C 
BRANCH  29  30
ATOM     30  C   UNL     1       5.447   1.542  -0.156  1.00  0.00     0.184 C 
BRANCH  30  31
ATOM     31  O   UNL     1       5.970   0.726  -1.207  1.00  0.00    -0.394 OA
ATOM     32  H   UNL     1       6.808   0.344  -0.892  1.00  0.00     0.210 HD
ENDBRANCH  30  31
ENDBRANCH  29  30
ENDBRANCH  28  29
ENDBRANCH  27  28
ENDBRANCH  26  27
ENDBRANCH   1  26
TORSDOF 8
