MODEL        4USER    Run = 4USERUSER    Estimated Free Energy of Binding    =  -7.78 kcal/mol  [=(1)+(2)+(3)-(4)]USERUSER    (1) Final Intermolecular Energy     =  -8.07 kcal/molUSER        vdW + Hbond + desolv Energy     =  -7.98 kcal/molUSER        Electrostatic Energy            =  -0.09 kcal/molUSER        Moving Ligand-Fixed Receptor    =  -8.07 kcal/molUSER        Moving Ligand-Moving Receptor   =  +0.00 kcal/molUSER    (2) Final Total Internal Energy     =  -0.45 kcal/molUSER    (3) Torsional Free Energy           =  +0.30 kcal/molUSER    (4) Unbound System's Energy         =  -0.45 kcal/molUSERUSERREMARK SMILES O=c1c2ccccc2sn1-c1nc(Br)cc2c1OCO2REMARK SMILES IDX 1 1 2 2 3 3 4 4 5 5 6 6 7 7 8 8 9 9 10 10 11 11 12 12 17 13REMARK SMILES IDX 13 14 16 15 18 16 15 17 20 18 19 19 14 20REMARK H PARENTUSER                              x       y       z     vdW  Elec       q    TypeUSER                           _______ _______ _______ _____ _____    ______ ____ROOTATOM      1  O   UNL     1      36.300  43.395  15.337 -0.34 +0.09    -0.267 OA ATOM      2  C   UNL     1      35.893  44.164  16.194 -0.17 -0.11    +0.274 A  ATOM      3  C   UNL     1      34.926  43.681  17.200 -0.29 -0.02    +0.060 A  ATOM      4  C   UNL     1      34.491  42.368  17.341 -0.41 -0.01    +0.015 A  ATOM      5  C   UNL     1      33.563  42.082  18.345 -0.41 -0.00    +0.001 A  ATOM      6  C   UNL     1      33.089  43.103  19.181 -0.40 -0.00    +0.002 A  ATOM      7  C   UNL     1      33.534  44.420  19.024 -0.41 -0.01    +0.021 A  ATOM      8  C   UNL     1      34.455  44.695  18.025 -0.30 -0.02    +0.058 A  ATOM      9  S   UNL     1      35.166  46.252  17.610 -0.56 +0.04    -0.049 S  ATOM     10  N   UNL     1      36.145  45.522  16.380 -0.20 +0.12    -0.209 N  ENDROOTBRANCH  10  11ATOM     11  C   UNL     1      37.020  46.335  15.611 -0.24 -0.11    +0.197 A  ATOM     12  N   UNL     1      38.173  46.765  16.203 -0.25 +0.09    -0.218 NA ATOM     13  C   UNL     1      36.773  46.687  14.297 -0.28 -0.12    +0.209 A  ATOM     14  C   UNL     1      39.022  47.568  15.510 -0.40 -0.04    +0.112 A  ATOM     15  C   UNL     1      37.660  47.502  13.629 -0.39 -0.06    +0.172 A  ATOM     16  O   UNL     1      35.778  46.273  13.469 -0.21 +0.27    -0.450 OA ATOM     17  C   UNL     1      38.807  47.978  14.212 -0.44 -0.03    +0.087 A  ATOM     18  O   UNL     1      37.289  47.748  12.341 -0.92 +0.07    -0.453 OA ATOM     19  C   UNL     1      36.053  47.012  12.270 -0.32 -0.25    +0.468 C  ATOM     20  Br  UNL     1      40.593  48.147  16.402 -1.04 +0.01    -0.029 Br ENDBRANCH  10  11TORSDOF 1TERENDMDL