REMARK SMILES O=CC=C(OCc1ccccc1)c1cccc(-c2ccccc2)c1
REMARK SMILES IDX 4 1 3 2 2 3 1 4 5 5 6 6 7 7 8 8 12 9 9 10 11 11 10 12 13 13
REMARK SMILES IDX 14 14 24 15 15 16 17 17 16 18 18 19 19 20 23 21 20 22 22 23
REMARK SMILES IDX 21 24
REMARK H PARENT
ROOT
ATOM      1  C   UNL     1      -1.058  -1.145  -0.633  1.00  0.00     0.130 C 
ENDROOT
BRANCH   1   2
ATOM      2  C   UNL     1      -1.285  -1.585  -1.880  1.00  0.00     0.090 C 
BRANCH   2   3
ATOM      3  C   UNL     1      -2.642  -1.718  -2.453  1.00  0.00     0.255 C 
ATOM      4  O   UNL     1      -3.583  -0.984  -2.180  1.00  0.00    -0.298 OA
ENDBRANCH   2   3
ENDBRANCH   1   2
BRANCH   1   5
ATOM      5  O   UNL     1      -2.079  -0.900   0.264  1.00  0.00    -0.488 OA
BRANCH   5   6
ATOM      6  C   UNL     1      -2.285   0.504   0.450  1.00  0.00     0.265 C 
BRANCH   6   7
ATOM      7  C   UNL     1      -3.423   0.690   1.421  1.00  0.00    -0.011 A 
ATOM      8  C   UNL     1      -3.187   1.111   2.737  1.00  0.00     0.007 A 
ATOM      9  C   UNL     1      -4.740   0.423   1.018  1.00  0.00     0.007 A 
ATOM     10  C   UNL     1      -4.250   1.275   3.627  1.00  0.00     0.000 A 
ATOM     11  C   UNL     1      -5.800   0.587   1.910  1.00  0.00     0.000 A 
ATOM     12  C   UNL     1      -5.555   1.015   3.213  1.00  0.00     0.000 A 
ENDBRANCH   6   7
ENDBRANCH   5   6
ENDBRANCH   1   5
BRANCH   1  13
ATOM     13  C   UNL     1       0.311  -1.085  -0.077  1.00  0.00     0.017 A 
ATOM     14  C   UNL     1       0.570  -1.599   1.200  1.00  0.00     0.012 A 
ATOM     15  C   UNL     1       1.365  -0.494  -0.794  1.00  0.00     0.020 A 
ATOM     16  C   UNL     1       1.853  -1.540   1.741  1.00  0.00     0.001 A 
ATOM     17  C   UNL     1       2.667  -0.425  -0.266  1.00  0.00    -0.018 A 
ATOM     18  C   UNL     1       2.892  -0.960   1.012  1.00  0.00     0.009 A 
BRANCH  17  19
ATOM     19  C   UNL     1       3.762   0.195  -1.031  1.00  0.00    -0.018 A 
ATOM     20  C   UNL     1       3.647   1.504  -1.528  1.00  0.00     0.009 A 
ATOM     21  C   UNL     1       4.952  -0.506  -1.287  1.00  0.00     0.009 A 
ATOM     22  C   UNL     1       4.685   2.092  -2.256  1.00  0.00     0.001 A 
ATOM     23  C   UNL     1       5.991   0.080  -2.016  1.00  0.00     0.001 A 
ATOM     24  C   UNL     1       5.856   1.379  -2.500  1.00  0.00     0.000 A 
ENDBRANCH  17  19
ENDBRANCH   1  13
TORSDOF 7
