MODEL        1USER    Run = 1USERUSER    Estimated Free Energy of Binding    =  -8.89 kcal/mol  [=(1)+(2)+(3)-(4)]USERUSER    (1) Final Intermolecular Energy     = -10.97 kcal/molUSER        vdW + Hbond + desolv Energy     = -10.81 kcal/molUSER        Electrostatic Energy            =  -0.16 kcal/molUSER        Moving Ligand-Fixed Receptor    = -10.97 kcal/molUSER        Moving Ligand-Moving Receptor   =  +0.00 kcal/molUSER    (2) Final Total Internal Energy     =  -1.38 kcal/molUSER    (3) Torsional Free Energy           =  +2.09 kcal/molUSER    (4) Unbound System's Energy         =  -1.38 kcal/molUSERUSERREMARK SMILES O=CC=C(OCc1ccccc1)c1cccc(-c2ccccc2)c1REMARK SMILES IDX 4 1 3 2 2 3 1 4 5 5 6 6 7 7 8 8 12 9 9 10 11 11 10 12 13 13REMARK SMILES IDX 14 14 24 15 15 16 17 17 16 18 18 19 19 20 23 21 20 22 22 23REMARK SMILES IDX 21 24REMARK H PARENTUSER                              x       y       z     vdW  Elec       q    TypeUSER                           _______ _______ _______ _____ _____    ______ ____ROOTATOM      1  C   UNL     1      37.022  47.010  14.850 -0.39 -0.08    +0.130 C  ENDROOTBRANCH   1   2ATOM      2  C   UNL     1      36.358  47.468  13.778 -0.51 -0.06    +0.090 C  BRANCH   2   3ATOM      3  C   UNL     1      36.539  46.912  12.420 -0.53 -0.11    +0.255 C  ATOM      4  O   UNL     1      37.306  47.368  11.582 -1.04 +0.06    -0.298 OA ENDBRANCH   2   3ENDBRANCH   1   2BRANCH   1   5ATOM      5  O   UNL     1      36.590  45.921  15.581 -0.05 +0.28    -0.488 OA BRANCH   5   6ATOM      6  C   UNL     1      35.634  46.306  16.575 -0.22 -0.24    +0.265 C  BRANCH   6   7ATOM      7  C   UNL     1      35.880  45.481  17.812 -0.34 +0.00    -0.011 A  ATOM      8  C   UNL     1      34.820  45.095  18.644 -0.40 -0.00    +0.007 A  ATOM      9  C   UNL     1      37.187  45.105  18.156 -0.35 -0.00    +0.007 A  ATOM     10  C   UNL     1      35.063  44.335  19.790 -0.38 -0.00    +0.000 A  ATOM     11  C   UNL     1      37.427  44.345  19.301 -0.36 -0.00    +0.000 A  ATOM     12  C   UNL     1      36.365  43.959  20.116 -0.41 -0.00    +0.000 A  ENDBRANCH   6   7ENDBRANCH   5   6ENDBRANCH   1   5BRANCH   1  13ATOM     13  C   UNL     1      38.367  47.520  15.196 -0.46 -0.01    +0.017 A  ATOM     14  C   UNL     1      39.019  48.410  14.333 -0.49 -0.00    +0.012 A  ATOM     15  C   UNL     1      39.025  47.109  16.367 -0.43 -0.01    +0.020 A  ATOM     16  C   UNL     1      40.291  48.892  14.641 -0.56 -0.00    +0.001 A  ATOM     17  C   UNL     1      40.308  47.583  16.696 -0.51 +0.00    -0.018 A  ATOM     18  C   UNL     1      40.927  48.483  15.814 -0.57 -0.00    +0.009 A  BRANCH  17  19ATOM     19  C   UNL     1      40.983  47.145  17.929 -0.51 +0.00    -0.018 A  ATOM     20  C   UNL     1      42.186  47.739  18.345 -0.52 -0.00    +0.009 A  ATOM     21  C   UNL     1      40.444  46.119  18.723 -0.46 -0.00    +0.009 A  ATOM     22  C   UNL     1      42.829  47.322  19.514 -0.51 +0.00    +0.001 A  ATOM     23  C   UNL     1      41.087  45.700  19.892 -0.41 +0.00    +0.001 A  ATOM     24  C   UNL     1      42.279  46.302  20.286 -0.38 +0.00    +0.000 A  ENDBRANCH  17  19ENDBRANCH   1  13TORSDOF 7TERENDMDL