MODEL        8USER    Run = 8USERUSER    Estimated Free Energy of Binding    = -10.66 kcal/mol  [=(1)+(2)+(3)-(4)]USERUSER    (1) Final Intermolecular Energy     = -13.34 kcal/molUSER        vdW + Hbond + desolv Energy     = -13.10 kcal/molUSER        Electrostatic Energy            =  -0.24 kcal/molUSER        Moving Ligand-Fixed Receptor    = -13.34 kcal/molUSER        Moving Ligand-Moving Receptor   =  +0.00 kcal/molUSER    (2) Final Total Internal Energy     =  -2.29 kcal/molUSER    (3) Torsional Free Energy           =  +2.68 kcal/molUSER    (4) Unbound System's Energy         =  -2.29 kcal/molUSERUSERREMARK SMILES COc1cccc(-c2nc(C=C3C=CC(NCCc4cccc(C#N)c4)=C3)ccc[nH][nH]2)c1CREMARK SMILES IDX 12 1 13 2 14 3 15 4 27 5 11 6 10 7 8 8 9 9 32 10 31 11 28 12REMARK SMILES IDX 30 13 29 14 7 17 3 18 4 19 33 20 5 21 6 22 34 23 2 24 1 25REMARK SMILES IDX 16 26 17 28 18 29 19 30 20 31 26 32 21 33 23 34 22 35 24 36REMARK SMILES IDX 25 37REMARK H PARENT 32 15 31 16 16 27USER                              x       y       z     vdW  Elec       q    TypeUSER                           _______ _______ _______ _____ _____    ______ ____ROOTATOM      1  C   UNL     1      36.775  43.864  20.676 -0.46 +0.00    -0.021 C  ATOM      2  C   UNL     1      36.009  42.669  20.954 -0.51 +0.00    +0.010 C  ATOM      3  C   UNL     1      35.206  42.464  19.896 -0.49 -0.00    +0.026 C  ATOM      4  C   UNL     1      35.436  43.498  18.896 -0.40 -0.01    +0.035 C  ATOM      5  C   UNL     1      36.375  44.338  19.364 -0.41 -0.00    +0.033 C  ENDROOTBRANCH   1   6ATOM      6  C   UNL     1      37.711  44.432  21.458 -0.40 +0.00    +0.036 C  BRANCH   6   7ATOM      7  C   UNL     1      39.176  44.379  21.245 -0.28 +0.00    +0.066 A  ATOM      8  C   UNL     1      40.544  45.368  19.514 -0.33 +0.00    +0.152 A  ATOM      9  N   UNL     1      39.434  45.284  20.265 -0.24 -0.00    -0.229 NA ATOM     10  N   UNL     1      41.807  44.961  19.874 -0.15 -0.05    -0.284 N  ATOM     11  N   UNL     1      42.210  44.960  21.185 -0.13 -0.07    -0.307 N  ATOM     12  C   UNL     1      39.778  43.452  22.031 -0.19 +0.00    +0.030 A  ATOM     13  C   UNL     1      42.154  43.755  21.848 -0.27 +0.01    +0.101 A  ATOM     14  C   UNL     1      41.056  43.117  22.258 -0.30 +0.00    +0.022 A  ATOM     15  H   UNL     1      42.516  45.237  19.198 +0.13 +0.06    +0.189 HD ATOM     16  H   UNL     1      41.445  45.516  21.625 +0.10 +0.02    +0.187 HD BRANCH   8  17ATOM     17  C   UNL     1      40.415  46.103  18.238 -0.46 -0.00    +0.025 A  ATOM     18  C   UNL     1      41.040  47.858  16.695 -0.40 -0.02    +0.122 A  ATOM     19  C   UNL     1      40.092  47.406  15.772 -0.48 -0.01    +0.047 A  ATOM     20  C   UNL     1      41.202  47.239  17.944 -0.53 -0.00    +0.002 A  ATOM     21  C   UNL     1      39.296  46.307  16.084 -0.43 -0.00    +0.005 A  ATOM     22  C   UNL     1      39.460  45.657  17.308 -0.38 -0.00    +0.012 A  ATOM     23  C   UNL     1      42.228  47.727  18.933 -0.41 +0.00    +0.049 C  BRANCH  18  24ATOM     24  O   UNL     1      41.781  48.978  16.399 -0.73 -0.08    -0.496 OA ATOM     25  C   UNL     1      41.058  49.832  15.506 -0.49 -0.07    +0.278 C  ENDBRANCH  18  24ENDBRANCH   8  17ENDBRANCH   6   7ENDBRANCH   1   6BRANCH   4  26ATOM     26  N   UNL     1      34.800  43.541  17.679 -0.05 +0.12    -0.385 N  ATOM     27  H   UNL     1      34.446  44.472  17.469 +0.12 -0.07    +0.160 HD BRANCH  26  28ATOM     28  C   UNL     1      35.199  42.791  16.492 -0.43 -0.05    +0.117 C  BRANCH  28  29ATOM     29  C   UNL     1      36.543  43.266  15.933 -0.43 -0.02    +0.056 C  BRANCH  29  30ATOM     30  C   UNL     1      36.531  44.727  15.526 -0.33 +0.02    -0.045 A  ATOM     31  C   UNL     1      36.217  45.720  16.466 -0.35 -0.00    +0.004 A  ATOM     32  C   UNL     1      36.807  45.105  14.202 -0.40 -0.01    +0.023 A  ATOM     33  C   UNL     1      36.183  47.068  16.095 -0.30 -0.00    +0.002 A  ATOM     34  C   UNL     1      36.784  46.455  13.831 -0.43 -0.03    +0.052 A  ATOM     35  C   UNL     1      36.470  47.436  14.781 -0.37 -0.02    +0.019 A  BRANCH  34  36ATOM     36  C   UNL     1      37.094  46.835  12.484 -0.62 -0.03    +0.099 C  ATOM     37  N   UNL     1      37.339  47.144  11.389 -0.85 +0.05    -0.192 NA ENDBRANCH  34  36ENDBRANCH  29  30ENDBRANCH  28  29ENDBRANCH  26  28ENDBRANCH   4  26TORSDOF 9TERENDMDL