MODEL        8USER    Run = 8USERUSER    Estimated Free Energy of Binding    = -10.07 kcal/mol  [=(1)+(2)+(3)-(4)]USERUSER    (1) Final Intermolecular Energy     = -11.56 kcal/molUSER        vdW + Hbond + desolv Energy     = -11.51 kcal/molUSER        Electrostatic Energy            =  -0.05 kcal/molUSER        Moving Ligand-Fixed Receptor    = -11.56 kcal/molUSER        Moving Ligand-Moving Receptor   =  +0.00 kcal/molUSER    (2) Final Total Internal Energy     =  -0.94 kcal/molUSER    (3) Torsional Free Energy           =  +1.49 kcal/molUSER    (4) Unbound System's Energy         =  -0.94 kcal/molUSERUSERREMARK SMILES Cc1c(O)cccc1-c1c[nH]c2ccc(-c3nnc(NC4CC4)o3)cc12REMARK SMILES IDX 9 1 10 2 11 3 12 4 13 5 14 6 15 7 25 8 26 9 8 11 2 12 3 13REMARK SMILES IDX 5 14 7 15 6 16 1 17 4 18 16 20 17 21 24 22 18 23 19 24 20 25REMARK SMILES IDX 21 27 22 28 23 29REMARK H PARENT 11 10 4 19 20 26USER                              x       y       z     vdW  Elec       q    TypeUSER                           _______ _______ _______ _____ _____    ______ ____ROOTATOM      1  C   UNL     1      35.272  45.754  15.570 -0.34 -0.01    +0.007 A  ATOM      2  C   UNL     1      34.287  45.677  14.606 -0.11 -0.08    +0.092 A  ATOM      3  N   UNL     1      34.658  46.480  13.561 -0.18 +0.30    -0.361 N  ATOM      4  C   UNL     1      35.876  47.069  13.820 -0.43 -0.03    +0.046 A  ATOM      5  C   UNL     1      36.635  47.950  13.043 -0.60 -0.01    +0.027 A  ATOM      6  C   UNL     1      37.856  48.391  13.569 -0.33 -0.01    +0.016 A  ATOM      7  C   UNL     1      38.314  47.972  14.827 -0.49 -0.02    +0.040 A  ATOM      8  C   UNL     1      37.524  47.085  15.582 -0.40 -0.01    +0.024 A  ATOM      9  C   UNL     1      36.289  46.628  15.077 -0.39 -0.01    +0.008 A  ATOM     10  H   UNL     1      34.121  46.622  12.718 -0.39 -0.16    +0.166 HD ENDROOTBRANCH   1  11ATOM     11  C   UNL     1      35.202  45.027  16.825 -0.31 +0.01    -0.010 A  ATOM     12  C   UNL     1      35.554  43.665  16.919 -0.35 +0.00    -0.001 A  ATOM     13  C   UNL     1      35.401  43.026  18.160 -0.28 -0.03    +0.119 A  ATOM     14  C   UNL     1      34.949  43.716  19.287 -0.36 -0.01    +0.046 A  ATOM     15  C   UNL     1      34.748  45.717  17.961 -0.42 -0.01    +0.009 A  ATOM     16  C   UNL     1      34.626  45.066  19.186 -0.34 -0.00    +0.004 A  ATOM     17  C   UNL     1      36.028  42.884  15.722 -0.47 -0.02    +0.049 C  BRANCH  13  18ATOM     18  O   UNL     1      35.700  41.695  18.261 -0.24 +0.12    -0.508 OA ATOM     19  H   UNL     1      35.241  41.214  17.554 -0.30 -0.16    +0.293 HD ENDBRANCH  13  18ENDBRANCH   1  11BRANCH   7  20ATOM     20  C   UNL     1      39.587  48.431  15.370 -0.34 -0.09    +0.249 A  ATOM     21  N   UNL     1      40.330  47.928  16.336 -0.46 +0.02    -0.106 NA ATOM     22  O   UNL     1      40.138  49.557  14.817 -0.13 +0.20    -0.403 OA ATOM     23  N   UNL     1      41.431  48.754  16.448 -1.04 -0.00    -0.090 NA ATOM     24  C   UNL     1      41.289  49.697  15.542 -0.35 -0.05    +0.315 A  BRANCH  24  25ATOM     25  N   UNL     1      42.107  50.734  15.270 -0.35 +0.04    -0.335 N  ATOM     26  H   UNL     1      42.546  51.140  16.090 -0.38 +0.00    +0.165 HD BRANCH  25  27ATOM     27  C   UNL     1      42.878  50.688  14.030 -0.55 -0.02    +0.084 C  ATOM     28  C   UNL     1      42.850  49.479  13.138 -0.56 -0.00    +0.027 C  ATOM     29  C   UNL     1      42.168  50.744  12.705 -0.60 -0.01    +0.027 C  ENDBRANCH  25  27ENDBRANCH  24  25ENDBRANCH   7  20TORSDOF 5TERENDMDL