REMARK SMILES CCOc1cc(F)ccc1C[C@H](N)C1=NC=Nc2cc(-c3ccc([N+](=O)[O-])cc3)[nH]c2[C@H]1C
REMARK SMILES IDX 14 1 12 3 11 4 10 5 4 6 5 7 6 8 9 9 8 10 7 11 3 12 2 13 1 14
REMARK SMILES IDX 13 15 15 18 16 19 17 20 18 21 19 22 31 23 20 24 30 25 32 27
REMARK SMILES IDX 33 28 21 30 22 31 29 32 23 33 28 34 24 35 25 36 26 37 27 38
REMARK H PARENT 13 16 13 17 30 26
REMARK Flexibility Score:  188.900
ROOT
ATOM      1  C   UNL     1      -0.398  -0.125  -1.120  1.00  0.00     0.046 CG0
ATOM      2  G   UNL     1       0.608  -1.279  -0.935  1.00  0.00     0.000 G0
ENDROOT
BRANCH   1   3
ATOM      3  C   UNL     1      -1.413   0.180   0.004  1.00  0.00     0.101 C 
BRANCH   3   4
ATOM      4  C   UNL     1      -2.708  -0.612  -0.280  1.00  0.00     0.064 C 
BRANCH   4   5
ATOM      5  C   UNL     1      -3.825  -0.470   0.742  1.00  0.00    -0.004 A 
ATOM      6  C   UNL     1      -5.167  -0.294   0.331  1.00  0.00     0.125 A 
ATOM      7  C   UNL     1      -6.175  -0.186   1.292  1.00  0.00     0.086 A 
ATOM      8  C   UNL     1      -5.859  -0.272   2.643  1.00  0.00     0.126 A 
ATOM      9  C   UNL     1      -3.539  -0.575   2.117  1.00  0.00     0.010 A 
ATOM     10  C   UNL     1      -4.554  -0.469   3.065  1.00  0.00     0.040 A 
ATOM     11  F   UNL     1      -6.838  -0.171   3.554  1.00  0.00    -0.207 F 
BRANCH   6  12
ATOM     12  O   UNL     1      -5.375  -0.246  -1.022  1.00  0.00    -0.493 OA
BRANCH  12  13
ATOM     13  C   UNL     1      -6.695  -0.073  -1.534  1.00  0.00     0.226 C 
ATOM     14  C   UNL     1      -7.060   1.399  -1.609  1.00  0.00     0.049 C 
ENDBRANCH  12  13
ENDBRANCH   6  12
ENDBRANCH   4   5
ENDBRANCH   3   4
BRANCH   3  15
ATOM     15  N   UNL     1      -1.654   1.640   0.039  1.00  0.00    -0.323 NA
ATOM     16  H   UNL     1      -2.030   1.902  -0.878  1.00  0.00     0.119 HD
ATOM     17  H   UNL     1      -0.752   2.116   0.071  1.00  0.00     0.119 HD
ENDBRANCH   3  15
ENDBRANCH   1   3
BRANCH   1  18
ATOM     18  N   UNL     1      -0.467   0.620  -2.190  1.00  0.00    -0.243 NA
BRANCH  18  19
ATOM     19  C   UNL     1       0.344   0.454  -3.284  1.00  0.00     0.222 C 
BRANCH  19  20
ATOM     20  N   UNL     1       1.622   0.249  -3.375  1.00  0.00    -0.235 NA
BRANCH  20  21
ATOM     21  C   UNL     1       2.346   0.081  -2.206  1.00  0.00     0.087 A 
ATOM     22  C   UNL     1       3.661   0.521  -2.001  1.00  0.00     0.057 A 
ATOM     23  C   UNL     1       1.944  -0.642  -1.116  1.00  0.00     0.050 A 
ATOM     24  C   UNL     1       4.051   0.089  -0.741  1.00  0.00     0.048 A 
ATOM     25  N   UNL     1       2.985  -0.625  -0.222  1.00  0.00    -0.356 N 
ATOM     26  H   UNL     1       3.001  -1.092   0.674  1.00  0.00     0.166 HD
BRANCH  23  27
ATOM     27  C   UNL     1       0.608  -1.279  -0.935  1.00  0.00     0.081 CG0
ATOM     28  C   UNL     1       0.496  -2.094   0.347  1.00  0.00     0.021 C 
ATOM     29  G   UNL     1      -0.398  -0.125  -1.120  1.00  0.00     0.000 G0
ENDBRANCH  23  27
BRANCH  24  30
ATOM     30  C   UNL     1       5.321   0.254  -0.034  1.00  0.00    -0.002 A 
ATOM     31  C   UNL     1       6.530   0.235  -0.746  1.00  0.00     0.017 A 
ATOM     32  C   UNL     1       5.357   0.438   1.356  1.00  0.00     0.017 A 
ATOM     33  C   UNL     1       7.755   0.385  -0.087  1.00  0.00     0.086 A 
ATOM     34  C   UNL     1       6.576   0.593   2.026  1.00  0.00     0.086 A 
ATOM     35  C   UNL     1       7.772   0.562   1.300  1.00  0.00     0.269 A 
BRANCH  35  36
ATOM     36  N   UNL     1       9.053   0.722   1.999  1.00  0.00     0.062 N 
ATOM     37  O   UNL     1       9.018   0.962   3.215  1.00  0.00    -0.258 OA
ATOM     38  O   UNL     1      10.093   0.606   1.335  1.00  0.00    -0.258 OA
ENDBRANCH  35  36
ENDBRANCH  24  30
ENDBRANCH  20  21
ENDBRANCH  19  20
ENDBRANCH  18  19
ENDBRANCH   1  18
TORSDOF 8
