REMARK SMILES CCCCC(=O)NC=C1C=C(c2nc3cnccc3n2CC)CC=C1O
REMARK SMILES IDX 5 1 6 2 7 3 4 5 3 6 2 7 1 8 8 9 9 10 10 11 25 12 11 13 24 14
REMARK SMILES IDX 23 15 26 16 12 18 13 19 20 20 14 21 19 22 15 23 18 24 16 25
REMARK SMILES IDX 17 26 21 27 22 28
REMARK H PARENT 7 4 26 17
ROOT
ATOM      1  C   UNL     1       3.452  -1.480   0.377  1.00  0.00     0.223 C 
ATOM      2  O   UNL     1       3.304  -1.710   1.573  1.00  0.00    -0.275 OA
ATOM      3  N   UNL     1       2.514  -0.845  -0.413  1.00  0.00    -0.332 N 
ATOM      4  H   UNL     1       2.700  -0.700  -1.405  1.00  0.00     0.169 HD
ENDROOT
BRANCH   1   5
ATOM      5  C   UNL     1       4.683  -1.894  -0.412  1.00  0.00     0.100 C 
BRANCH   5   6
ATOM      6  C   UNL     1       5.846  -2.348   0.469  1.00  0.00     0.010 C 
BRANCH   6   7
ATOM      7  C   UNL     1       6.530  -1.175   1.176  1.00  0.00    -0.003 C 
ATOM      8  C   UNL     1       7.688  -1.648   2.042  1.00  0.00     0.004 C 
ENDBRANCH   6   7
ENDBRANCH   5   6
ENDBRANCH   1   5
BRANCH   3   9
ATOM      9  C   UNL     1       1.307  -0.377   0.046  1.00  0.00     0.097 C 
BRANCH   9  10
ATOM     10  C   UNL     1       0.390   0.252  -0.721  1.00  0.00     0.032 C 
ATOM     11  C   UNL     1      -0.849   0.678  -0.059  1.00  0.00     0.021 C 
ATOM     12  C   UNL     1       0.556   0.530  -2.156  1.00  0.00     0.120 C 
ATOM     13  C   UNL     1      -1.829   1.319  -0.731  1.00  0.00    -0.000 C 
ATOM     14  C   UNL     1      -0.395   1.190  -2.833  1.00  0.00     0.025 C 
ATOM     15  C   UNL     1      -1.671   1.679  -2.196  1.00  0.00     0.070 C 
BRANCH  12  16
ATOM     16  O   UNL     1       1.716   0.097  -2.765  1.00  0.00    -0.508 OA
ATOM     17  H   UNL     1       1.686   0.386  -3.694  1.00  0.00     0.293 HD
ENDBRANCH  12  16
BRANCH  13  18
ATOM     18  C   UNL     1      -2.987   1.685   0.016  1.00  0.00     0.137 A 
ATOM     19  N   UNL     1      -3.281   2.861   0.531  1.00  0.00    -0.227 NA
ATOM     20  N   UNL     1      -4.015   0.785   0.233  1.00  0.00    -0.324 N 
ATOM     21  C   UNL     1      -4.513   2.723   1.122  1.00  0.00     0.107 A 
ATOM     22  C   UNL     1      -5.003   1.433   0.944  1.00  0.00     0.072 A 
ATOM     23  C   UNL     1      -5.290   3.650   1.821  1.00  0.00     0.141 A 
ATOM     24  C   UNL     1      -6.243   1.037   1.446  1.00  0.00     0.048 A 
ATOM     25  N   UNL     1      -6.504   3.293   2.320  1.00  0.00    -0.262 NA
ATOM     26  C   UNL     1      -6.939   2.027   2.127  1.00  0.00     0.113 A 
BRANCH  20  27
ATOM     27  C   UNL     1      -4.090  -0.594  -0.212  1.00  0.00     0.121 C 
ATOM     28  C   UNL     1      -3.693  -1.583   0.870  1.00  0.00     0.028 C 
ENDBRANCH  20  27
ENDBRANCH  13  18
ENDBRANCH   9  10
ENDBRANCH   3   9
TORSDOF 8
