REMARK SMILES O=C1Nc2ccccc2[C@H]1C=Cc1ncc(C(F)(F)F)cc1Cl
REMARK SMILES IDX 12 1 11 2 10 3 2 4 3 5 4 6 9 7 5 8 8 9 6 10 7 11 1 12 13 14
REMARK SMILES IDX 14 15 22 16 15 17 21 18 16 19 23 20 17 21 18 22 19 23 20 24
REMARK H PARENT 3 13
ROOT
ATOM      1  C   UNL     1       0.616   1.247   0.073  1.00  0.00     0.027 C 
ENDROOT
BRANCH   1   2
ATOM      2  C   UNL     1      -0.425   0.549  -0.415  1.00  0.00    -0.007 C 
BRANCH   2   3
ATOM      3  C   UNL     1      -1.829   1.077  -0.484  1.00  0.00     0.134 C 
ATOM      4  C   UNL     1      -2.330   1.133  -1.954  1.00  0.00     0.235 C 
ATOM      5  N   UNL     1      -3.478   0.349  -2.033  1.00  0.00    -0.325 N 
ATOM      6  C   UNL     1      -3.786  -0.222  -0.809  1.00  0.00     0.045 A 
ATOM      7  C   UNL     1      -2.846   0.161   0.148  1.00  0.00    -0.008 A 
ATOM      8  C   UNL     1      -4.845  -1.055  -0.517  1.00  0.00     0.026 A 
ATOM      9  C   UNL     1      -2.950  -0.286   1.454  1.00  0.00     0.007 A 
ATOM     10  C   UNL     1      -4.955  -1.513   0.797  1.00  0.00     0.002 A 
ATOM     11  C   UNL     1      -4.017  -1.132   1.774  1.00  0.00     0.000 A 
ATOM     12  O   UNL     1      -1.832   1.744  -2.886  1.00  0.00    -0.274 OA
ATOM     13  H   UNL     1      -3.992   0.223  -2.891  1.00  0.00     0.169 HD
ENDBRANCH   2   3
ENDBRANCH   1   2
BRANCH   1  14
ATOM     14  C   UNL     1       2.002   0.739   0.141  1.00  0.00     0.081 A 
ATOM     15  N   UNL     1       2.170  -0.553  -0.257  1.00  0.00    -0.255 NA
ATOM     16  C   UNL     1       3.079   1.512   0.586  1.00  0.00     0.067 A 
ATOM     17  C   UNL     1       3.415  -1.080  -0.220  1.00  0.00     0.124 A 
ATOM     18  C   UNL     1       4.354   0.938   0.614  1.00  0.00     0.037 A 
ATOM     19  C   UNL     1       4.534  -0.388   0.210  1.00  0.00     0.075 A 
ATOM     20  Cl  UNL     1       2.931   3.152   1.106  1.00  0.00    -0.082 Cl
BRANCH  19  21
ATOM     21  C   UNL     1       5.879  -1.045   0.196  1.00  0.00     0.417 C 
ATOM     22  F   UNL     1       6.742  -0.510   1.104  1.00  0.00    -0.166 F 
ATOM     23  F   UNL     1       6.493  -0.939  -1.012  1.00  0.00    -0.166 F 
ATOM     24  F   UNL     1       5.824  -2.376   0.475  1.00  0.00    -0.166 F 
ENDBRANCH  19  21
ENDBRANCH   1  14
TORSDOF 4
