MODEL        9USER    Run = 9USERUSER    Estimated Free Energy of Binding    =  -9.16 kcal/mol  [=(1)+(2)+(3)-(4)]USERUSER    (1) Final Intermolecular Energy     = -11.55 kcal/molUSER        vdW + Hbond + desolv Energy     = -11.26 kcal/molUSER        Electrostatic Energy            =  -0.29 kcal/molUSER        Moving Ligand-Fixed Receptor    = -11.55 kcal/molUSER        Moving Ligand-Moving Receptor   =  +0.00 kcal/molUSER    (2) Final Total Internal Energy     =  -1.34 kcal/molUSER    (3) Torsional Free Energy           =  +2.39 kcal/molUSER    (4) Unbound System's Energy         =  -1.34 kcal/molUSERUSERREMARK SMILES CCCCC(=O)NC=C1C=C(c2nc3cnccc3n2CC)CC=C1OREMARK SMILES IDX 5 1 6 2 7 3 4 5 3 6 2 7 1 8 8 9 9 10 10 11 25 12 11 13 24 14REMARK SMILES IDX 23 15 26 16 12 18 13 19 20 20 14 21 19 22 15 23 18 24 16 25REMARK SMILES IDX 17 26 21 27 22 28REMARK H PARENT 7 4 26 17USER                              x       y       z     vdW  Elec       q    TypeUSER                           _______ _______ _______ _____ _____    ______ ____ROOTATOM      1  C   UNL     1      40.904  49.121  16.004 -0.49 -0.04    +0.223 C  ATOM      2  O   UNL     1      41.410  48.514  16.942 -0.88 +0.01    -0.275 OA ATOM      3  N   UNL     1      39.623  48.900  15.536 -0.28 +0.15    -0.332 N  ATOM      4  H   UNL     1      39.274  49.434  14.741 -0.23 -0.12    +0.169 HD ENDROOTBRANCH   1   5ATOM      5  C   UNL     1      41.634  50.185  15.201 -0.63 -0.02    +0.100 C  BRANCH   5   6ATOM      6  C   UNL     1      41.539  49.978  13.690 -0.64 -0.00    +0.010 C  BRANCH   6   7ATOM      7  C   UNL     1      42.918  49.871  13.032 -0.74 +0.00    -0.003 C  ATOM      8  C   UNL     1      43.308  51.171  12.345 -0.65 -0.00    +0.004 C  ENDBRANCH   6   7ENDBRANCH   5   6ENDBRANCH   1   5BRANCH   3   9ATOM      9  C   UNL     1      38.752  47.986  16.075 -0.43 -0.05    +0.097 C  BRANCH   9  10ATOM     10  C   UNL     1      37.707  47.444  15.411 -0.49 -0.02    +0.032 C  ATOM     11  C   UNL     1      36.959  46.387  16.102 -0.42 -0.01    +0.021 C  ATOM     12  C   UNL     1      37.283  47.843  14.061 -0.51 -0.06    +0.120 C  ATOM     13  C   UNL     1      35.895  45.781  15.533 -0.42 +0.00    -0.000 C  ATOM     14  C   UNL     1      36.211  47.271  13.490 -0.61 -0.01    +0.025 C  ATOM     15  C   UNL     1      35.388  46.206  14.167 -0.45 -0.05    +0.070 C  BRANCH  12  16ATOM     16  O   UNL     1      38.016  48.819  13.418 -0.21 +0.15    -0.508 OA ATOM     17  H   UNL     1      37.753  49.678  13.792 -0.31 -0.21    +0.293 HD ENDBRANCH  12  16BRANCH  13  18ATOM     18  C   UNL     1      35.245  44.769  16.298 -0.23 -0.07    +0.137 A  ATOM     19  N   UNL     1      35.026  43.514  15.962 -0.24 +0.10    -0.227 NA ATOM     20  N   UNL     1      34.806  45.014  17.587 -0.11 +0.16    -0.324 N  ATOM     21  C   UNL     1      34.406  42.932  17.041 -0.31 -0.04    +0.107 A  ATOM     22  C   UNL     1      34.262  43.847  18.079 -0.27 -0.02    +0.072 A  ATOM     23  C   UNL     1      33.943  41.627  17.222 -0.16 -0.07    +0.141 A  ATOM     24  C   UNL     1      33.666  43.501  19.292 -0.38 -0.01    +0.048 A  ATOM     25  N   UNL     1      33.359  41.260  18.394 -0.22 +0.04    -0.262 NA ATOM     26  C   UNL     1      33.236  42.183  19.375 -0.26 +0.00    +0.113 A  BRANCH  20  27ATOM     27  C   UNL     1      34.905  46.256  18.332 -0.32 -0.07    +0.121 C  ATOM     28  C   UNL     1      33.585  47.004  18.403 -0.37 -0.03    +0.028 C  ENDBRANCH  20  27ENDBRANCH  13  18ENDBRANCH   9  10ENDBRANCH   3   9TORSDOF 8TERENDMDL