MODEL        9USER    Run = 9USERUSER    Estimated Free Energy of Binding    =  -6.89 kcal/mol  [=(1)+(2)+(3)-(4)]USERUSER    (1) Final Intermolecular Energy     = -10.17 kcal/molUSER        vdW + Hbond + desolv Energy     =  -9.96 kcal/molUSER        Electrostatic Energy            =  -0.36 kcal/molUSER        Moving Ligand-Fixed Receptor    = -10.32 kcal/molUSER        Moving Ligand-Moving Receptor   =  +0.15 kcal/molUSER    (2) Final Total Internal Energy     =  -2.31 kcal/molUSER    (3) Torsional Free Energy           =  +3.28 kcal/molUSER    (4) Unbound System's Energy         =  -2.31 kcal/molUSERUSERREMARK SMILES NCCC[C@@H]1COc2ccc(O)c(O)c2-c2cc(O)ccc21REMARK SMILES IDX 4 1 3 2 2 3 1 4 5 7 22 9 21 10 16 11 20 12 17 13 18 14 15 15REMARK SMILES IDX 13 16 8 17 11 18 9 19 10 20 14 21 7 23 6 24 12 26 19 28REMARK H PARENT 1 5 1 6 14 22 12 27 19 29REMARK Flexibility Score:   90.900USER                              x       y       z     vdW  Elec       q    TypeUSER                           _______ _______ _______ _____ _____    ______ ____ROOTATOM      1  C   UNL     1      36.211  44.634  19.171 -0.38 -0.00    +0.013 C  ENDROOTBRANCH   1   2ATOM      2  C   UNL     1      34.682  44.798  19.159 -0.44 -0.00    +0.016 C  BRANCH   2   3ATOM      3  C   UNL     1      34.132  45.755  18.108 -0.47 -0.05    +0.077 C  BRANCH   3   4ATOM      4  N   UNL     1      34.020  47.099  18.663 -0.88 +0.25    -0.330 NA ATOM      5  H   UNL     1      33.456  47.679  18.042 -0.46 -0.19    +0.118 HD ATOM      6  H   UNL     1      33.525  47.068  19.553 -0.52 -0.06    +0.118 HD ENDBRANCH   3   4ENDBRANCH   2   3ENDBRANCH   1   2BRANCH   1   7ATOM      7  C   UNL     1      36.942  45.069  17.875 -0.36 -0.02    +0.058 CG0ATOM      8  G   UNL     1      36.980  43.933  16.820 +0.00 +0.00    +0.000 G0 BRANCH   7   9ATOM      9  C   UNL     1      38.378  45.570  18.073 -0.37 +0.01    -0.033 A  ATOM     10  C   UNL     1      39.135  45.295  19.224 -0.40 -0.00    +0.008 A  ATOM     11  C   UNL     1      38.975  46.298  17.011 -0.42 +0.00    -0.003 A  ATOM     12  C   UNL     1      40.447  45.757  19.340 -0.41 +0.00    +0.046 A  ATOM     13  C   UNL     1      40.307  46.735  17.138 -0.46 -0.01    +0.055 A  ATOM     14  C   UNL     1      41.024  46.468  18.299 -0.43 -0.00    +0.116 A  BRANCH  11  15ATOM     15  C   UNL     1      38.225  46.531  15.758 -0.35 -0.03    +0.070 A  ATOM     16  C   UNL     1      38.080  47.795  15.167 -0.36 -0.09    +0.169 A  ATOM     17  C   UNL     1      37.599  45.446  15.105 -0.28 -0.05    +0.131 A  ATOM     18  C   UNL     1      37.403  47.946  13.953 -0.42 -0.08    +0.158 A  ATOM     19  C   UNL     1      36.934  45.600  13.884 -0.40 -0.02    +0.051 A  ATOM     20  C   UNL     1      36.836  46.861  13.304 -0.52 -0.02    +0.054 A  BRANCH  16  21ATOM     21  O   UNL     1      38.553  48.954  15.737 -0.14 +0.34    -0.504 OA ATOM     22  H   UNL     1      38.620  49.624  15.032 -0.27 -0.25    +0.293 HD ENDBRANCH  16  21BRANCH  17  23ATOM     23  O   UNL     1      37.702  44.170  15.596 +0.01 +0.14    -0.492 OA BRANCH  23  24ATOM     24  C   UNL     1      36.981  43.932  16.821 -0.21 -0.07    +0.238 CG0ATOM     25  G   UNL     1      36.944  45.069  17.876 +0.00 +0.00    +0.000 G0 ENDBRANCH  23  24ENDBRANCH  17  23BRANCH  18  26ATOM     26  O   UNL     1      37.285  49.187  13.391 -0.17 +0.20    -0.504 OA ATOM     27  H   UNL     1      37.393  49.807  14.141 -0.29 -0.24    +0.293 HD ENDBRANCH  18  26ENDBRANCH  11  15BRANCH  14  28ATOM     28  O   UNL     1      42.314  46.880  18.449 -0.22 -0.01    -0.508 OA ATOM     29  H   UNL     1      42.692  47.056  17.571 -0.35 -0.10    +0.293 HD ENDBRANCH  14  28ENDBRANCH   7   9ENDBRANCH   1   7TORSDOF 7TERENDMDL