MODEL        1USER    Run = 1USERUSER    Estimated Free Energy of Binding    =  -8.53 kcal/mol  [=(1)+(2)+(3)-(4)]USERUSER    (1) Final Intermolecular Energy     =  -9.72 kcal/molUSER        vdW + Hbond + desolv Energy     =  -9.61 kcal/molUSER        Electrostatic Energy            =  -0.11 kcal/molUSER        Moving Ligand-Fixed Receptor    =  -9.72 kcal/molUSER        Moving Ligand-Moving Receptor   =  +0.00 kcal/molUSER    (2) Final Total Internal Energy     =  -1.03 kcal/molUSER    (3) Torsional Free Energy           =  +1.19 kcal/molUSER    (4) Unbound System's Energy         =  -1.03 kcal/molUSERUSERREMARK SMILES O=C1Nc2ccccc2[C@H]1C=Cc1ncc(C(F)(F)F)cc1ClREMARK SMILES IDX 12 1 11 2 10 3 2 4 3 5 4 6 9 7 5 8 8 9 6 10 7 11 1 12 13 14REMARK SMILES IDX 14 15 22 16 15 17 21 18 16 19 23 20 17 21 18 22 19 23 20 24REMARK H PARENT 3 13USER                              x       y       z     vdW  Elec       q    TypeUSER                           _______ _______ _______ _____ _____    ______ ____ROOTATOM      1  C   UNL     1      38.869  48.468  14.366 -0.55 -0.01    +0.027 C  ENDROOTBRANCH   1   2ATOM      2  C   UNL     1      37.544  48.698  14.367 -0.58 +0.00    -0.007 C  BRANCH   2   3ATOM      3  C   UNL     1      36.518  47.691  13.933 -0.47 -0.09    +0.134 C  ATOM      4  C   UNL     1      36.989  46.931  12.662 -0.51 -0.08    +0.235 C  ATOM      5  N   UNL     1      37.015  45.575  12.973 -0.25 +0.12    -0.325 N  ATOM      6  C   UNL     1      36.634  45.350  14.286 -0.38 -0.02    +0.045 A  ATOM      7  C   UNL     1      36.335  46.560  14.912 -0.40 +0.01    -0.008 A  ATOM      8  C   UNL     1      36.548  44.137  14.936 -0.33 -0.01    +0.026 A  ATOM      9  C   UNL     1      35.925  46.586  16.234 -0.35 -0.01    +0.007 A  ATOM     10  C   UNL     1      36.138  44.155  16.271 -0.36 -0.00    +0.002 A  ATOM     11  C   UNL     1      35.829  45.367  16.914 -0.34 -0.00    +0.000 A  ATOM     12  O   UNL     1      37.285  47.408  11.578 -1.06 +0.06    -0.274 OA ATOM     13  H   UNL     1      37.293  44.870  12.308 +0.12 -0.05    +0.169 HD ENDBRANCH   2   3ENDBRANCH   1   2BRANCH   1  14ATOM     14  C   UNL     1      39.636  48.004  15.541 -0.47 -0.03    +0.081 A  ATOM     15  N   UNL     1      39.169  46.869  16.132 -0.25 +0.07    -0.255 NA ATOM     16  C   UNL     1      40.761  48.674  16.032 -0.54 -0.01    +0.067 A  ATOM     17  C   UNL     1      39.826  46.390  17.213 -0.38 -0.02    +0.124 A  ATOM     18  C   UNL     1      41.418  48.155  17.153 -0.46 -0.00    +0.037 A  ATOM     19  C   UNL     1      40.943  46.992  17.766 -0.46 -0.01    +0.075 A  ATOM     20  Cl  UNL     1      41.399  50.117  15.331 -0.94 +0.02    -0.082 Cl BRANCH  19  21ATOM     21  C   UNL     1      41.621  46.379  18.952 -0.25 +0.02    +0.417 C  ATOM     22  F   UNL     1      41.769  45.029  18.841 -0.11 -0.02    -0.166 F  ATOM     23  F   UNL     1      40.932  46.587  20.105 -0.10 -0.01    -0.166 F  ATOM     24  F   UNL     1      42.871  46.873  19.165 -0.21 -0.04    -0.166 F  ENDBRANCH  19  21ENDBRANCH   1  14TORSDOF 4TERENDMDL