REMARK SMILES O=c1c2ccccc2sn1-c1nc(Br)cc2c1OCO2
REMARK SMILES IDX 1 1 2 2 3 3 4 4 5 5 6 6 7 7 8 8 9 9 10 10 11 11 12 12 17 13
REMARK SMILES IDX 13 14 16 15 18 16 15 17 20 18 19 19 14 20
REMARK H PARENT
ROOT
ATOM      1  O   UNL     1       0.456  -1.176   1.307  1.00  0.00    -0.267 OA
ATOM      2  C   UNL     1       0.801  -0.402   0.428  1.00  0.00     0.274 A 
ATOM      3  C   UNL     1       2.230  -0.304   0.069  1.00  0.00     0.060 A 
ATOM      4  C   UNL     1       3.249  -1.103   0.576  1.00  0.00     0.015 A 
ATOM      5  C   UNL     1       4.553  -0.872   0.134  1.00  0.00     0.001 A 
ATOM      6  C   UNL     1       4.816   0.145  -0.795  1.00  0.00     0.002 A 
ATOM      7  C   UNL     1       3.780   0.943  -1.292  1.00  0.00     0.021 A 
ATOM      8  C   UNL     1       2.488   0.706  -0.849  1.00  0.00     0.058 A 
ATOM      9  S   UNL     1       1.016   1.561  -1.303  1.00  0.00    -0.049 S 
ATOM     10  N   UNL     1       0.054   0.512  -0.314  1.00  0.00    -0.209 N 
ENDROOT
BRANCH  10  11
ATOM     11  C   UNL     1      -1.351   0.709  -0.249  1.00  0.00     0.197 A 
ATOM     12  N   UNL     1      -1.847   1.906  -0.680  1.00  0.00    -0.218 NA
ATOM     13  C   UNL     1      -2.234  -0.255   0.204  1.00  0.00     0.209 A 
ATOM     14  C   UNL     1      -3.182   2.143  -0.606  1.00  0.00     0.112 A 
ATOM     15  C   UNL     1      -3.581   0.025   0.261  1.00  0.00     0.172 A 
ATOM     16  O   UNL     1      -1.992  -1.547   0.549  1.00  0.00    -0.450 OA
ATOM     17  C   UNL     1      -4.101   1.232  -0.131  1.00  0.00     0.087 A 
ATOM     18  O   UNL     1      -4.323  -1.025   0.713  1.00  0.00    -0.453 OA
ATOM     19  C   UNL     1      -3.292  -2.001   0.955  1.00  0.00     0.468 C 
ATOM     20  Br  UNL     1      -3.798   3.836  -1.201  1.00  0.00    -0.029 Br
ENDBRANCH  10  11
TORSDOF 1
