MODEL        6USER    Run = 6USERUSER    Estimated Free Energy of Binding    =  -8.61 kcal/mol  [=(1)+(2)+(3)-(4)]USERUSER    (1) Final Intermolecular Energy     = -10.70 kcal/molUSER        vdW + Hbond + desolv Energy     = -10.61 kcal/molUSER        Electrostatic Energy            =  -0.09 kcal/molUSER        Moving Ligand-Fixed Receptor    = -10.70 kcal/molUSER        Moving Ligand-Moving Receptor   =  +0.00 kcal/molUSER    (2) Final Total Internal Energy     =  -1.74 kcal/molUSER    (3) Torsional Free Energy           =  +2.09 kcal/molUSER    (4) Unbound System's Energy         =  -1.74 kcal/molUSERUSERREMARK SMILES C[C@@H]1CN[C@H]1C(=O)C=C(CO)Nc1cccc(Br)c1REMARK SMILES IDX 8 1 6 2 7 3 5 4 2 5 3 6 4 7 1 8 9 10 10 11 11 12 12 14 13 16REMARK SMILES IDX 14 17 19 18 15 19 17 20 16 21 18 22REMARK H PARENT 4 9 11 13 12 15USER                              x       y       z     vdW  Elec       q    TypeUSER                           _______ _______ _______ _____ _____    ______ ____ROOTATOM      1  C   UNL     1      39.843  47.734  14.555 -0.47 -0.02    +0.072 C  ENDROOTBRANCH   1   2ATOM      2  C   UNL     1      38.417  47.916  14.135 -0.44 -0.06    +0.174 C  ATOM      3  O   UNL     1      37.825  48.880  14.643 -0.40 +0.21    -0.293 OA BRANCH   2   4ATOM      4  C   UNL     1      37.772  47.002  13.052 -0.46 -0.03    +0.130 C  ATOM      5  C   UNL     1      36.470  46.236  13.442 -0.56 -0.01    +0.025 C  ATOM      6  C   UNL     1      36.021  46.572  12.007 -0.65 -0.04    +0.087 C  ATOM      7  N   UNL     1      36.925  47.748  12.046 -0.98 +0.08    -0.307 NA ATOM      8  C   UNL     1      36.609  44.768  13.804 -0.43 -0.00    +0.011 C  ATOM      9  H   UNL     1      36.473  48.572  12.449 +0.02 -0.04    +0.123 HD ENDBRANCH   2   4ENDBRANCH   1   2BRANCH   1  10ATOM     10  C   UNL     1      40.603  48.306  15.511 -0.61 -0.01    +0.045 C  BRANCH  10  11ATOM     11  C   UNL     1      40.929  49.786  15.531 -0.54 -0.06    +0.209 C  BRANCH  11  12ATOM     12  O   UNL     1      41.791  50.069  16.621 -0.84 -0.04    -0.390 OA ATOM     13  H   UNL     1      41.673  51.010  16.836 -0.45 -0.08    +0.211 HD ENDBRANCH  11  12ENDBRANCH  10  11BRANCH  10  14ATOM     14  N   UNL     1      41.043  47.510  16.575 -0.22 +0.04    -0.357 N  ATOM     15  H   UNL     1      41.974  47.728  16.927 -0.38 -0.02    +0.166 HD BRANCH  14  16ATOM     16  C   UNL     1      40.375  46.548  17.348 -0.46 -0.00    +0.039 A  ATOM     17  C   UNL     1      41.001  45.792  18.349 -0.47 -0.00    +0.026 A  ATOM     18  C   UNL     1      38.999  46.371  17.148 -0.40 -0.01    +0.041 A  ATOM     19  C   UNL     1      40.272  44.897  19.139 -0.43 -0.00    +0.003 A  ATOM     20  C   UNL     1      38.273  45.474  17.935 -0.38 -0.00    +0.020 A  ATOM     21  C   UNL     1      38.903  44.739  18.937 -0.38 -0.00    +0.016 A  ATOM     22  Br  UNL     1      36.415  45.261  17.652 -0.66 +0.02    -0.051 Br ENDBRANCH  14  16ENDBRANCH  10  14ENDBRANCH   1  10TORSDOF 7TERENDMDL