MODEL        8USER    Run = 8USERUSER    Estimated Free Energy of Binding    =  -9.19 kcal/mol  [=(1)+(2)+(3)-(4)]USERUSER    (1) Final Intermolecular Energy     = -10.98 kcal/molUSER        vdW + Hbond + desolv Energy     = -10.82 kcal/molUSER        Electrostatic Energy            =  -0.16 kcal/molUSER        Moving Ligand-Fixed Receptor    = -10.98 kcal/molUSER        Moving Ligand-Moving Receptor   =  +0.00 kcal/molUSER    (2) Final Total Internal Energy     =  -2.61 kcal/molUSER    (3) Torsional Free Energy           =  +1.79 kcal/molUSER    (4) Unbound System's Energy         =  -2.61 kcal/molUSERUSERREMARK SMILES NC(=O)c1c(NC(=O)c2nc(-c3ccccc3)cnc2N)cnc2cc(C(F)(F)F)ccc12REMARK SMILES IDX 6 1 7 2 8 3 5 5 4 6 33 7 22 8 32 9 24 10 23 11 31 12 25 13REMARK SMILES IDX 26 14 2 15 1 16 3 19 27 20 28 21 29 22 30 23 9 24 10 25REMARK SMILES IDX 20 26 11 27 19 28 18 29 21 30 12 33 13 34 17 35 14 36 16 37REMARK SMILES IDX 15 38REMARK H PARENT 6 4 1 17 1 18 21 31 21 32USER                              x       y       z     vdW  Elec       q    TypeUSER                           _______ _______ _______ _____ _____    ______ ____ROOTATOM      1  N   UNL     1      34.572  45.617  15.607 -0.13 +0.29    -0.318 N  ATOM      2  C   UNL     1      34.853  46.264  14.417 -0.20 -0.26    +0.278 C  ATOM      3  O   UNL     1      34.049  46.479  13.516 -0.28 +0.24    -0.267 OA ATOM      4  H   UNL     1      35.367  45.533  16.253 +0.12 -0.12    +0.170 HD ENDROOTBRANCH   1   5ATOM      5  C   UNL     1      33.352  45.018  16.007 -0.28 -0.05    +0.073 A  ATOM      6  C   UNL     1      33.336  43.742  16.599 -0.27 -0.03    +0.074 A  ATOM      7  C   UNL     1      32.115  43.086  16.923 -0.30 -0.01    +0.015 A  ATOM      8  C   UNL     1      32.117  45.621  15.843 -0.20 -0.10    +0.138 A  ATOM      9  C   UNL     1      31.997  41.762  17.420 -0.31 -0.00    +0.012 A  ATOM     10  C   UNL     1      30.935  43.818  16.698 -0.24 -0.02    +0.072 A  ATOM     11  N   UNL     1      30.935  45.054  16.191 -0.61 +0.07    -0.254 NA ATOM     12  C   UNL     1      30.753  41.203  17.718 -0.29 -0.00    +0.014 A  ATOM     13  C   UNL     1      29.708  43.247  17.005 -0.23 -0.01    +0.042 A  ATOM     14  C   UNL     1      29.591  41.949  17.525 -0.18 -0.01    +0.058 A  BRANCH   6  15ATOM     15  C   UNL     1      34.640  43.114  16.923 -0.27 -0.10    +0.251 C  ATOM     16  N   UNL     1      34.769  41.781  16.646 -0.03 +0.20    -0.366 N  ATOM     17  H   UNL     1      35.600  41.316  16.987 -0.37 -0.11    +0.159 HD ATOM     18  H   UNL     1      33.981  41.206  16.378 -0.41 -0.13    +0.159 HD ATOM     19  O   UNL     1      35.526  43.736  17.494 -0.18 +0.09    -0.269 OA ENDBRANCH   6  15BRANCH  14  20ATOM     20  C   UNL     1      28.237  41.356  17.821 +0.01 -0.03    +0.416 C  ATOM     21  F   UNL     1      28.279  40.317  18.698 -0.04 -0.00    -0.166 F  ATOM     22  F   UNL     1      27.620  40.875  16.705 -0.05 +0.01    -0.166 F  ATOM     23  F   UNL     1      27.380  42.268  18.356 -0.04 +0.02    -0.166 F  ENDBRANCH  14  20ENDBRANCH   1   5BRANCH   2  24ATOM     24  C   UNL     1      36.273  46.735  14.306 -0.31 -0.11    +0.171 A  ATOM     25  N   UNL     1      37.035  46.533  15.426 -0.21 +0.14    -0.237 NA ATOM     26  C   UNL     1      36.756  47.350  13.140 -0.48 -0.07    +0.155 A  ATOM     27  C   UNL     1      38.326  46.949  15.363 -0.36 -0.04    +0.090 A  ATOM     28  N   UNL     1      38.035  47.773  13.094 -0.77 +0.04    -0.235 NA ATOM     29  C   UNL     1      38.792  47.569  14.206 -0.37 -0.04    +0.142 A  BRANCH  26  30ATOM     30  N   UNL     1      36.007  47.540  11.970 -0.33 +0.21    -0.382 N  ATOM     31  H   UNL     1      35.017  47.528  12.209 -0.08 -0.13    +0.158 HD ATOM     32  H   UNL     1      36.161  48.490  11.629 -0.32 -0.09    +0.158 HD ENDBRANCH  26  30BRANCH  27  33ATOM     33  C   UNL     1      39.156  46.707  16.565 -0.44 -0.00    +0.002 A  ATOM     34  C   UNL     1      38.787  45.730  17.510 -0.40 -0.00    +0.010 A  ATOM     35  C   UNL     1      40.346  47.418  16.821 -0.52 -0.00    +0.010 A  ATOM     36  C   UNL     1      39.553  45.482  18.654 -0.43 -0.00    +0.001 A  ATOM     37  C   UNL     1      41.114  47.173  17.966 -0.53 -0.00    +0.001 A  ATOM     38  C   UNL     1      40.715  46.207  18.882 -0.47 -0.00    +0.000 A  ENDBRANCH  27  33ENDBRANCH   2  24TORSDOF 6TERENDMDL