REMARK SMILES Cn1ccnccc(-c2cccc(-c3ccc(O)cc3O)c2)cc1
REMARK SMILES IDX 9 1 10 2 11 3 12 4 13 5 22 6 8 7 2 8 3 9 24 10 4 11 23 12
REMARK SMILES IDX 5 13 6 14 7 15 1 16 14 17 15 18 20 19 16 20 19 21 17 22
REMARK SMILES IDX 21 23 18 25
REMARK H PARENT 21 24 18 26
ROOT
ATOM      1  C   UNL     1      -0.188   0.610   1.254  1.00  0.00    -0.018 A 
ATOM      2  C   UNL     1       0.108   1.469   2.320  1.00  0.00     0.009 A 
ATOM      3  C   UNL     1       1.408   1.936   2.502  1.00  0.00     0.001 A 
ATOM      4  C   UNL     1       2.422   1.542   1.625  1.00  0.00     0.009 A 
ATOM      5  C   UNL     1       2.161   0.675   0.550  1.00  0.00    -0.014 A 
ATOM      6  C   UNL     1       0.841   0.222   0.378  1.00  0.00     0.017 A 
ENDROOT
BRANCH   1   7
ATOM      7  C   UNL     1      -1.586   0.107   1.051  1.00  0.00    -0.015 A 
ATOM      8  N   UNL     1      -4.299  -0.310  -0.578  1.00  0.00    -0.356 N 
ATOM      9  C   UNL     1      -5.190  -0.463   0.464  1.00  0.00     0.105 A 
ATOM     10  C   UNL     1      -3.395   0.726  -0.478  1.00  0.00     0.086 A 
ATOM     11  C   UNL     1      -5.087  -1.144   1.610  1.00  0.00     0.129 A 
ATOM     12  C   UNL     1      -2.259   0.894   0.200  1.00  0.00     0.026 A 
ATOM     13  N   UNL     1      -4.189  -1.892   2.259  1.00  0.00    -0.263 NA
ATOM     14  C   UNL     1      -2.855  -1.775   2.161  1.00  0.00     0.111 A 
ATOM     15  C   UNL     1      -1.825  -1.017   1.744  1.00  0.00     0.029 A 
ATOM     16  C   UNL     1      -4.821  -0.622  -1.912  1.00  0.00     0.149 C 
ENDBRANCH   1   7
BRANCH   5  17
ATOM     17  C   UNL     1       3.239   0.221  -0.351  1.00  0.00     0.024 A 
ATOM     18  C   UNL     1       3.434  -1.161  -0.555  1.00  0.00     0.016 A 
ATOM     19  C   UNL     1       4.097   1.103  -1.035  1.00  0.00     0.127 A 
ATOM     20  C   UNL     1       4.437  -1.641  -1.402  1.00  0.00     0.047 A 
ATOM     21  C   UNL     1       5.104   0.631  -1.881  1.00  0.00     0.093 A 
ATOM     22  C   UNL     1       5.264  -0.738  -2.058  1.00  0.00     0.119 A 
BRANCH  19  23
ATOM     23  O   UNL     1       3.941   2.456  -0.883  1.00  0.00    -0.507 OA
ATOM     24  H   UNL     1       4.479   2.909  -1.551  1.00  0.00     0.293 HD
ENDBRANCH  19  23
BRANCH  22  25
ATOM     25  O   UNL     1       6.255  -1.162  -2.893  1.00  0.00    -0.508 OA
ATOM     26  H   UNL     1       6.219  -2.132  -2.938  1.00  0.00     0.293 HD
ENDBRANCH  22  25
ENDBRANCH   5  17
TORSDOF 4
