MODEL        10USER    Run = 10USERUSER    Estimated Free Energy of Binding    =  -8.04 kcal/mol  [=(1)+(2)+(3)-(4)]USERUSER    (1) Final Intermolecular Energy     = -10.43 kcal/molUSER        vdW + Hbond + desolv Energy     = -10.31 kcal/molUSER        Electrostatic Energy            =  -0.12 kcal/molUSER        Moving Ligand-Fixed Receptor    = -10.43 kcal/molUSER        Moving Ligand-Moving Receptor   =  +0.00 kcal/molUSER    (2) Final Total Internal Energy     =  -2.30 kcal/molUSER    (3) Torsional Free Energy           =  +2.39 kcal/molUSER    (4) Unbound System's Energy         =  -2.30 kcal/molUSERUSERREMARK SMILES N=C(N)C=C1C=C(CC(=O)Nc2ccccc2C=O)OC=C1OREMARK SMILES IDX 5 1 6 2 7 3 20 4 21 5 22 6 4 7 2 8 3 9 1 12 23 14 8 16 9 17REMARK SMILES IDX 11 18 10 19 12 21 13 22 17 23 14 24 16 25 15 26 18 27 19 28REMARK H PARENT 3 10 3 11 1 13 23 15 11 20USER                              x       y       z     vdW  Elec       q    TypeUSER                           _______ _______ _______ _____ _____    ______ ____ROOTATOM      1  C   UNL     1      39.981  48.496  15.057 -0.62 -0.01    +0.026 C  ATOM      2  C   UNL     1      38.671  48.105  14.514 -0.56 -0.02    +0.055 C  ATOM      3  C   UNL     1      37.825  47.356  15.247 -0.43 -0.06    +0.113 C  ATOM      4  O   UNL     1      38.131  46.945  16.543 -0.14 +0.21    -0.465 OA ATOM      5  C   UNL     1      39.330  47.356  17.089 -0.28 -0.07    +0.241 C  ATOM      6  C   UNL     1      40.247  48.093  16.444 -0.48 -0.04    +0.158 C  ENDROOTBRANCH   1   7ATOM      7  C   UNL     1      40.777  49.207  14.231 -0.52 -0.02    +0.058 C  BRANCH   7   8ATOM      8  C   UNL     1      41.970  50.057  14.504 -0.65 -0.02    +0.116 C  ATOM      9  N   UNL     1      42.851  50.461  13.556 -0.33 +0.11    -0.384 N  ATOM     10  H   UNL     1      43.709  50.792  13.984 -0.49 -0.07    +0.158 HD ATOM     11  H   UNL     1      43.020  49.749  12.849 +0.05 -0.05    +0.158 HD BRANCH   8  12ATOM     12  N   UNL     1      42.204  50.492  15.706 -0.48 -0.01    -0.285 NA ATOM     13  H   UNL     1      41.335  50.560  16.243 -0.16 -0.05    +0.189 HD ENDBRANCH   8  12ENDBRANCH   7   8ENDBRANCH   1   7BRANCH   6  14ATOM     14  O   UNL     1      41.402  48.521  17.056 -0.65 +0.01    -0.504 OA ATOM     15  H   UNL     1      42.135  48.392  16.428 -0.09 +0.05    +0.293 HD ENDBRANCH   6  14BRANCH   3  16ATOM     16  C   UNL     1      36.472  46.925  14.767 -0.34 -0.13    +0.175 C  BRANCH  16  17ATOM     17  C   UNL     1      36.108  45.587  15.391 -0.26 -0.14    +0.232 C  ATOM     18  N   UNL     1      35.617  45.710  16.678 -0.13 +0.22    -0.325 N  ATOM     19  O   UNL     1      36.258  44.541  14.765 -0.26 +0.11    -0.274 OA ATOM     20  H   UNL     1      35.599  46.655  17.072 +0.09 -0.17    +0.169 HD BRANCH  18  21ATOM     21  C   UNL     1      35.176  44.694  17.558 -0.28 -0.02    +0.051 A  ATOM     22  C   UNL     1      35.664  43.384  17.505 -0.33 -0.01    +0.027 A  ATOM     23  C   UNL     1      34.203  45.003  18.533 -0.39 -0.01    +0.038 A  ATOM     24  C   UNL     1      35.199  42.409  18.394 -0.39 -0.00    +0.002 A  ATOM     25  C   UNL     1      33.739  44.022  19.424 -0.42 -0.00    +0.013 A  ATOM     26  C   UNL     1      34.239  42.724  19.350 -0.42 -0.00    +0.001 A  BRANCH  23  27ATOM     27  C   UNL     1      33.621  46.359  18.670 -0.29 -0.17    +0.262 C  ATOM     28  O   UNL     1      34.307  47.376  18.649 -1.07 +0.22    -0.298 OA ENDBRANCH  23  27ENDBRANCH  18  21ENDBRANCH  16  17ENDBRANCH   3  16TORSDOF 8TERENDMDL