REMARK SMILES CSCn1c(N(C=O)CCCCCO)nc(Nc2ccccc2)cc1=O
REMARK SMILES IDX 9 1 6 2 5 3 4 4 25 5 15 6 24 7 16 8 26 9 3 10 2 11 1 12
REMARK SMILES IDX 17 13 18 15 19 16 23 17 20 18 22 19 21 20 7 21 8 22 10 23
REMARK SMILES IDX 11 24 12 25 13 26 14 27
REMARK H PARENT 17 14 14 28
ROOT
ATOM      1  C   UNL     1       2.476   0.478   1.437  1.00  0.00     0.128 C 
ENDROOT
BRANCH   1   2
ATOM      2  N   UNL     1       1.470   1.533   1.559  1.00  0.00    -0.285 N 
BRANCH   2   3
ATOM      3  C   UNL     1       0.223   1.284   1.036  1.00  0.00     0.217 A 
ATOM      4  N   UNL     1      -0.254   2.157   0.085  1.00  0.00    -0.268 N 
ATOM      5  C   UNL     1      -1.474   1.909  -0.501  1.00  0.00     0.257 A 
ATOM      6  N   UNL     1      -0.417   0.241   1.451  1.00  0.00    -0.196 NA
ATOM      7  C   UNL     1      -2.218   0.760   0.019  1.00  0.00     0.119 A 
ATOM      8  C   UNL     1      -1.657  -0.038   0.939  1.00  0.00     0.139 A 
ATOM      9  O   UNL     1      -1.964   2.571  -1.414  1.00  0.00    -0.269 OA
BRANCH   4  10
ATOM     10  C   UNL     1       0.535   3.256  -0.457  1.00  0.00     0.198 C 
BRANCH  10  11
ATOM     11  S   UNL     1       0.391   4.775   0.540  1.00  0.00    -0.143 SA
ATOM     12  C   UNL     1      -1.258   5.317   0.026  1.00  0.00     0.087 C 
ENDBRANCH  10  11
ENDBRANCH   4  10
BRANCH   8  13
ATOM     13  N   UNL     1      -2.339  -1.122   1.462  1.00  0.00    -0.340 N 
ATOM     14  H   UNL     1      -1.822  -1.494   2.256  1.00  0.00     0.168 HD
BRANCH  13  15
ATOM     15  C   UNL     1      -3.007  -2.156   0.768  1.00  0.00     0.040 A 
ATOM     16  C   UNL     1      -2.963  -2.324  -0.621  1.00  0.00     0.026 A 
ATOM     17  C   UNL     1      -3.789  -3.049   1.517  1.00  0.00     0.026 A 
ATOM     18  C   UNL     1      -3.671  -3.358  -1.242  1.00  0.00     0.002 A 
ATOM     19  C   UNL     1      -4.499  -4.082   0.899  1.00  0.00     0.002 A 
ATOM     20  C   UNL     1      -4.439  -4.236  -0.483  1.00  0.00     0.000 A 
ENDBRANCH  13  15
ENDBRANCH   8  13
ENDBRANCH   2   3
BRANCH   2  21
ATOM     21  C   UNL     1       1.456   2.176   2.787  1.00  0.00     0.347 C 
ATOM     22  O   UNL     1       2.259   2.021   3.701  1.00  0.00    -0.278 OA
ENDBRANCH   2  21
ENDBRANCH   1   2
BRANCH   1  23
ATOM     23  C   UNL     1       2.743   0.082  -0.019  1.00  0.00     0.022 C 
BRANCH  23  24
ATOM     24  C   UNL     1       3.801  -1.017  -0.116  1.00  0.00     0.004 C 
BRANCH  24  25
ATOM     25  C   UNL     1       4.264  -1.313  -1.548  1.00  0.00     0.028 C 
BRANCH  25  26
ATOM     26  C   UNL     1       3.173  -1.850  -2.468  1.00  0.00     0.156 C 
BRANCH  26  27
ATOM     27  O   UNL     1       2.306  -0.799  -2.872  1.00  0.00    -0.396 OA
ATOM     28  H   UNL     1       1.665  -1.185  -3.494  1.00  0.00     0.210 HD
ENDBRANCH  26  27
ENDBRANCH  25  26
ENDBRANCH  24  25
ENDBRANCH  23  24
ENDBRANCH   1  23
TORSDOF 12
