REMARK SMILES C[C@@H]1CN[C@H]1C(=O)C=C(CO)Nc1cccc(Br)c1
REMARK SMILES IDX 8 1 6 2 7 3 5 4 2 5 3 6 4 7 1 8 9 10 10 11 11 12 12 14 13 16
REMARK SMILES IDX 14 17 19 18 15 19 17 20 16 21 18 22
REMARK H PARENT 4 9 11 13 12 15
ROOT
ATOM      1  C   UNL     1       0.211   1.097  -1.133  1.00  0.00     0.072 C 
ENDROOT
BRANCH   1   2
ATOM      2  C   UNL     1       1.684   0.972  -1.370  1.00  0.00     0.174 C 
ATOM      3  O   UNL     1       2.112   1.514  -2.400  1.00  0.00    -0.293 OA
BRANCH   2   4
ATOM      4  C   UNL     1       2.614   0.288  -0.325  1.00  0.00     0.130 C 
ATOM      5  C   UNL     1       4.138   0.618  -0.396  1.00  0.00     0.025 C 
ATOM      6  C   UNL     1       4.057   0.612   1.143  1.00  0.00     0.087 C 
ATOM      7  N   UNL     1       2.621   0.966   1.026  1.00  0.00    -0.307 NA
ATOM      8  C   UNL     1       5.042  -0.411  -1.051  1.00  0.00     0.011 C 
ATOM      9  H   UNL     1       2.474   1.976   0.958  1.00  0.00     0.123 HD
ENDBRANCH   2   4
ENDBRANCH   1   2
BRANCH   1  10
ATOM     10  C   UNL     1      -0.661   0.412  -0.365  1.00  0.00     0.045 C 
BRANCH  10  11
ATOM     11  C   UNL     1      -0.252  -0.759   0.505  1.00  0.00     0.209 C 
BRANCH  11  12
ATOM     12  O   UNL     1       0.218  -1.819  -0.313  1.00  0.00    -0.390 OA
ATOM     13  H   UNL     1      -0.186  -2.636   0.027  1.00  0.00     0.211 HD
ENDBRANCH  11  12
ENDBRANCH  10  11
BRANCH  10  14
ATOM     14  N   UNL     1      -1.988   0.855  -0.309  1.00  0.00    -0.357 N 
ATOM     15  H   UNL     1      -2.153   1.788  -0.683  1.00  0.00     0.166 HD
BRANCH  14  16
ATOM     16  C   UNL     1      -3.172   0.188   0.043  1.00  0.00     0.039 A 
ATOM     17  C   UNL     1      -3.361  -1.190  -0.125  1.00  0.00     0.026 A 
ATOM     18  C   UNL     1      -4.200   0.929   0.644  1.00  0.00     0.041 A 
ATOM     19  C   UNL     1      -4.534  -1.816   0.309  1.00  0.00     0.003 A 
ATOM     20  C   UNL     1      -5.372   0.303   1.074  1.00  0.00     0.020 A 
ATOM     21  C   UNL     1      -5.542  -1.070   0.915  1.00  0.00     0.016 A 
ATOM     22  Br  UNL     1      -6.740   1.323   1.891  1.00  0.00    -0.051 Br
ENDBRANCH  14  16
ENDBRANCH  10  14
ENDBRANCH   1  10
TORSDOF 7
