MODEL        2USER    Run = 2USERUSER    Estimated Free Energy of Binding    =  -7.54 kcal/mol  [=(1)+(2)+(3)-(4)]USERUSER    (1) Final Intermolecular Energy     = -11.12 kcal/molUSER        vdW + Hbond + desolv Energy     = -10.86 kcal/molUSER        Electrostatic Energy            =  -0.26 kcal/molUSER        Moving Ligand-Fixed Receptor    = -11.12 kcal/molUSER        Moving Ligand-Moving Receptor   =  +0.00 kcal/molUSER    (2) Final Total Internal Energy     =  -1.61 kcal/molUSER    (3) Torsional Free Energy           =  +3.58 kcal/molUSER    (4) Unbound System's Energy         =  -1.61 kcal/molUSERUSERREMARK SMILES CSCn1c(N(C=O)CCCCCO)nc(Nc2ccccc2)cc1=OREMARK SMILES IDX 9 1 6 2 5 3 4 4 25 5 15 6 24 7 16 8 26 9 3 10 2 11 1 12REMARK SMILES IDX 17 13 18 15 19 16 23 17 20 18 22 19 21 20 7 21 8 22 10 23REMARK SMILES IDX 11 24 12 25 13 26 14 27REMARK H PARENT 17 14 14 28USER                              x       y       z     vdW  Elec       q    TypeUSER                           _______ _______ _______ _____ _____    ______ ____ROOTATOM      1  C   UNL     1      35.047  45.484  16.055 -0.30 -0.10    +0.128 C  ENDROOTBRANCH   1   2ATOM      2  N   UNL     1      35.117  45.676  17.503 -0.19 +0.18    -0.285 N  BRANCH   2   3ATOM      3  C   UNL     1      36.296  45.348  18.130 -0.16 -0.07    +0.217 A  ATOM      4  N   UNL     1      36.247  44.387  19.114 -0.20 +0.05    -0.268 N  ATOM      5  C   UNL     1      37.415  43.992  19.725 -0.18 -0.02    +0.257 A  ATOM      6  N   UNL     1      37.378  45.942  17.749 -0.23 +0.07    -0.196 NA ATOM      7  C   UNL     1      38.626  44.714  19.329 -0.30 -0.01    +0.119 A  ATOM      8  C   UNL     1      38.569  45.627  18.348 -0.30 -0.02    +0.139 A  ATOM      9  O   UNL     1      37.505  43.091  20.556 -0.21 +0.00    -0.269 OA BRANCH   4  10ATOM     10  C   UNL     1      35.038  43.642  19.442 -0.32 -0.03    +0.198 C  BRANCH  10  11ATOM     11  S   UNL     1      34.856  42.131  18.439 -0.49 +0.03    -0.143 SA ATOM     12  C   UNL     1      33.512  42.656  17.346 -0.36 -0.03    +0.087 C  ENDBRANCH  10  11ENDBRANCH   4  10BRANCH   8  13ATOM     13  N   UNL     1      39.691  46.337  17.962 -0.23 +0.05    -0.340 N  ATOM     14  H   UNL     1      40.127  46.752  18.783 +0.09 -0.01    +0.168 HD BRANCH  13  15ATOM     15  C   UNL     1      39.856  47.169  16.831 -0.46 -0.01    +0.040 A  ATOM     16  C   UNL     1      39.116  47.043  15.650 -0.44 -0.01    +0.026 A  ATOM     17  C   UNL     1      40.847  48.162  16.888 -0.51 -0.00    +0.026 A  ATOM     18  C   UNL     1      39.352  47.889  14.561 -0.50 -0.00    +0.002 A  ATOM     19  C   UNL     1      41.086  49.007  15.801 -0.61 -0.00    +0.002 A  ATOM     20  C   UNL     1      40.337  48.869  14.636 -0.57 -0.00    +0.000 A  ENDBRANCH  13  15ENDBRANCH   8  13ENDBRANCH   2   3BRANCH   2  21ATOM     21  C   UNL     1      34.538  46.851  17.957 -0.13 -0.36    +0.347 C  ATOM     22  O   UNL     1      33.913  47.001  19.001 -1.00 +0.17    -0.278 OA ENDBRANCH   2  21ENDBRANCH   1   2BRANCH   1  23ATOM     23  C   UNL     1      36.187  44.613  15.518 -0.40 -0.01    +0.022 C  BRANCH  23  24ATOM     24  C   UNL     1      36.701  45.127  14.174 -0.48 -0.00    +0.004 C  BRANCH  24  25ATOM     25  C   UNL     1      36.260  46.558  13.843 -0.53 -0.02    +0.028 C  BRANCH  25  26ATOM     26  C   UNL     1      36.158  46.861  12.352 -0.62 -0.08    +0.156 C  BRANCH  26  27ATOM     27  O   UNL     1      37.241  47.684  11.940 -0.97 +0.06    -0.396 OA ATOM     28  H   UNL     1      36.956  48.141  11.130 -0.23 -0.08    +0.210 HD ENDBRANCH  26  27ENDBRANCH  25  26ENDBRANCH  24  25ENDBRANCH  23  24ENDBRANCH   1  23TORSDOF 12TERENDMDL