REMARK SMILES N#Cc1c(-c2ccc(-c3cccc(F)c3F)cc2)ccnc1N
REMARK SMILES IDX 3 1 4 2 19 3 20 4 21 5 22 6 2 7 1 8 5 9 6 10 18 11 7 12
REMARK SMILES IDX 17 13 8 14 9 15 10 16 15 17 11 18 13 19 12 20 16 21 14 22
REMARK SMILES IDX 23 23
REMARK H PARENT 23 24 23 25
ROOT
ATOM      1  C   UNL     1      -3.501  -0.213   0.613  1.00  0.00     0.102 A 
ATOM      2  C   UNL     1      -2.592  -0.632  -0.380  1.00  0.00     0.005 A 
ATOM      3  C   UNL     1      -3.096  -1.331  -1.483  1.00  0.00     0.030 A 
ATOM      4  C   UNL     1      -4.453  -1.582  -1.548  1.00  0.00     0.114 A 
ATOM      5  N   UNL     1      -5.330  -1.188  -0.603  1.00  0.00    -0.238 NA
ATOM      6  C   UNL     1      -4.861  -0.512   0.463  1.00  0.00     0.141 A 
ENDROOT
BRANCH   1   7
ATOM      7  C   UNL     1      -3.055   0.517   1.762  1.00  0.00     0.104 C 
ATOM      8  N   UNL     1      -2.729   1.103   2.710  1.00  0.00    -0.192 NA
ENDBRANCH   1   7
BRANCH   2   9
ATOM      9  C   UNL     1      -1.150  -0.361  -0.304  1.00  0.00    -0.017 A 
ATOM     10  C   UNL     1      -0.559   0.607  -1.127  1.00  0.00     0.009 A 
ATOM     11  C   UNL     1      -0.328  -1.068   0.584  1.00  0.00     0.009 A 
ATOM     12  C   UNL     1       0.815   0.866  -1.058  1.00  0.00     0.009 A 
ATOM     13  C   UNL     1       1.045  -0.805   0.652  1.00  0.00     0.009 A 
ATOM     14  C   UNL     1       1.642   0.167  -0.166  1.00  0.00    -0.015 A 
BRANCH  14  15
ATOM     15  C   UNL     1       3.086   0.449  -0.083  1.00  0.00     0.021 A 
ATOM     16  C   UNL     1       3.698   0.713   1.159  1.00  0.00     0.012 A 
ATOM     17  C   UNL     1       3.903   0.469  -1.224  1.00  0.00     0.166 A 
ATOM     18  C   UNL     1       5.068   0.983   1.253  1.00  0.00     0.004 A 
ATOM     19  C   UNL     1       5.266   0.737  -1.127  1.00  0.00     0.159 A 
ATOM     20  C   UNL     1       5.856   0.994   0.104  1.00  0.00     0.042 A 
ATOM     21  F   UNL     1       3.379   0.219  -2.435  1.00  0.00    -0.203 F 
ATOM     22  F   UNL     1       6.028   0.750  -2.231  1.00  0.00    -0.204 F 
ENDBRANCH  14  15
ENDBRANCH   2   9
BRANCH   6  23
ATOM     23  N   UNL     1      -5.829  -0.129   1.402  1.00  0.00    -0.383 N 
ATOM     24  H   UNL     1      -5.628  -0.529   2.315  1.00  0.00     0.158 HD
ATOM     25  H   UNL     1      -5.855   0.882   1.503  1.00  0.00     0.158 HD
ENDBRANCH   6  23
TORSDOF 4
