REMARK SMILES NC(=O)c1c(NC(=O)c2nc(-c3ccccc3)cnc2N)cnc2cc(C(F)(F)F)ccc12
REMARK SMILES IDX 6 1 7 2 8 3 5 5 4 6 33 7 22 8 32 9 24 10 23 11 31 12 25 13
REMARK SMILES IDX 26 14 2 15 1 16 3 19 27 20 28 21 29 22 30 23 9 24 10 25
REMARK SMILES IDX 20 26 11 27 19 28 18 29 21 30 12 33 13 34 17 35 14 36 16 37
REMARK SMILES IDX 15 38
REMARK H PARENT 6 4 1 17 1 18 21 31 21 32
ROOT
ATOM      1  N   UNL     1      -0.029  -1.171  -0.617  1.00  0.00    -0.318 N 
ATOM      2  C   UNL     1      -0.670  -2.297  -1.102  1.00  0.00     0.278 C 
ATOM      3  O   UNL     1      -0.137  -3.207  -1.728  1.00  0.00    -0.267 OA
ATOM      4  H   UNL     1      -0.632  -0.515  -0.106  1.00  0.00     0.170 HD
ENDROOT
BRANCH   1   5
ATOM      5  C   UNL     1       1.327  -0.798  -0.791  1.00  0.00     0.073 A 
ATOM      6  C   UNL     1       1.855   0.325  -0.129  1.00  0.00     0.074 A 
ATOM      7  C   UNL     1       3.188   0.769  -0.361  1.00  0.00     0.015 A 
ATOM      8  C   UNL     1       2.208  -1.485  -1.608  1.00  0.00     0.138 A 
ATOM      9  C   UNL     1       3.771   1.947   0.175  1.00  0.00     0.012 A 
ATOM     10  C   UNL     1       3.969  -0.026  -1.220  1.00  0.00     0.072 A 
ATOM     11  N   UNL     1       3.501  -1.129  -1.812  1.00  0.00    -0.254 NA
ATOM     12  C   UNL     1       5.092   2.298  -0.103  1.00  0.00     0.014 A 
ATOM     13  C   UNL     1       5.283   0.338  -1.481  1.00  0.00     0.042 A 
ATOM     14  C   UNL     1       5.870   1.486  -0.928  1.00  0.00     0.058 A 
BRANCH   6  15
ATOM     15  C   UNL     1       0.993   1.012   0.863  1.00  0.00     0.251 C 
ATOM     16  N   UNL     1       1.505   1.170   2.121  1.00  0.00    -0.366 N 
ATOM     17  H   UNL     1       0.877   1.512   2.837  1.00  0.00     0.159 HD
ATOM     18  H   UNL     1       2.358   0.715   2.419  1.00  0.00     0.159 HD
ATOM     19  O   UNL     1      -0.155   1.340   0.595  1.00  0.00    -0.269 OA
ENDBRANCH   6  15
BRANCH  14  20
ATOM     20  C   UNL     1       7.293   1.859  -1.257  1.00  0.00     0.416 C 
ATOM     21  F   UNL     1       8.048   0.806  -1.672  1.00  0.00    -0.166 F 
ATOM     22  F   UNL     1       7.954   2.392  -0.191  1.00  0.00    -0.166 F 
ATOM     23  F   UNL     1       7.367   2.791  -2.246  1.00  0.00    -0.166 F 
ENDBRANCH  14  20
ENDBRANCH   1   5
BRANCH   2  24
ATOM     24  C   UNL     1      -2.132  -2.349  -0.769  1.00  0.00     0.171 A 
ATOM     25  N   UNL     1      -2.600  -1.273  -0.063  1.00  0.00    -0.237 NA
ATOM     26  C   UNL     1      -2.936  -3.436  -1.148  1.00  0.00     0.155 A 
ATOM     27  C   UNL     1      -3.919  -1.286   0.258  1.00  0.00     0.090 A 
ATOM     28  N   UNL     1      -4.241  -3.446  -0.811  1.00  0.00    -0.235 NA
ATOM     29  C   UNL     1      -4.705  -2.376  -0.112  1.00  0.00     0.142 A 
BRANCH  26  30
ATOM     30  N   UNL     1      -2.490  -4.534  -1.899  1.00  0.00    -0.382 N 
ATOM     31  H   UNL     1      -2.150  -4.199  -2.799  1.00  0.00     0.158 HD
ATOM     32  H   UNL     1      -1.657  -4.922  -1.455  1.00  0.00     0.158 HD
ENDBRANCH  26  30
BRANCH  27  33
ATOM     33  C   UNL     1      -4.429  -0.111   1.000  1.00  0.00     0.002 A 
ATOM     34  C   UNL     1      -3.546   0.747   1.684  1.00  0.00     0.010 A 
ATOM     35  C   UNL     1      -5.799   0.217   1.053  1.00  0.00     0.010 A 
ATOM     36  C   UNL     1      -4.002   1.864   2.393  1.00  0.00     0.001 A 
ATOM     37  C   UNL     1      -6.259   1.333   1.763  1.00  0.00     0.001 A 
ATOM     38  C   UNL     1      -5.360   2.154   2.434  1.00  0.00     0.000 A 
ENDBRANCH  27  33
ENDBRANCH   2  24
TORSDOF 6
