REMARK SMILES N=C(N)C=C1C=C(CC(=O)Nc2ccccc2C=O)OC=C1O
REMARK SMILES IDX 5 1 6 2 7 3 20 4 21 5 22 6 4 7 2 8 3 9 1 12 23 14 8 16 9 17
REMARK SMILES IDX 11 18 10 19 12 21 13 22 17 23 14 24 16 25 15 26 18 27 19 28
REMARK H PARENT 3 10 3 11 1 13 23 15 11 20
ROOT
ATOM      1  C   UNL     1      -3.136   0.026   0.007  1.00  0.00     0.026 C 
ATOM      2  C   UNL     1      -2.177  -1.089  -0.060  1.00  0.00     0.055 C 
ATOM      3  C   UNL     1      -1.058  -1.071   0.689  1.00  0.00     0.113 C 
ATOM      4  O   UNL     1      -0.771  -0.029   1.568  1.00  0.00    -0.465 OA
ATOM      5  C   UNL     1      -1.690   0.993   1.688  1.00  0.00     0.241 C 
ATOM      6  C   UNL     1      -2.829   1.078   0.984  1.00  0.00     0.158 C 
ENDROOT
BRANCH   1   7
ATOM      7  C   UNL     1      -4.204  -0.061  -0.814  1.00  0.00     0.058 C 
BRANCH   7   8
ATOM      8  C   UNL     1      -5.330   0.882  -1.067  1.00  0.00     0.116 C 
ATOM      9  N   UNL     1      -5.228   2.231  -0.979  1.00  0.00    -0.384 N 
ATOM     10  H   UNL     1      -6.147   2.655  -0.925  1.00  0.00     0.158 HD
ATOM     11  H   UNL     1      -4.617   2.530  -0.222  1.00  0.00     0.158 HD
BRANCH   8  12
ATOM     12  N   UNL     1      -6.493   0.432  -1.431  1.00  0.00    -0.285 NA
ATOM     13  H   UNL     1      -6.489  -0.591  -1.475  1.00  0.00     0.189 HD
ENDBRANCH   8  12
ENDBRANCH   7   8
ENDBRANCH   1   7
BRANCH   6  14
ATOM     14  O   UNL     1      -3.737   2.092   1.183  1.00  0.00    -0.504 OA
ATOM     15  H   UNL     1      -3.426   2.624   1.937  1.00  0.00     0.293 HD
ENDBRANCH   6  14
BRANCH   3  16
ATOM     16  C   UNL     1      -0.040  -2.171   0.682  1.00  0.00     0.175 C 
BRANCH  16  17
ATOM     17  C   UNL     1       1.112  -1.798  -0.239  1.00  0.00     0.232 C 
ATOM     18  N   UNL     1       2.093  -1.062   0.399  1.00  0.00    -0.325 N 
ATOM     19  O   UNL     1       1.110  -2.145  -1.417  1.00  0.00    -0.274 OA
ATOM     20  H   UNL     1       1.918  -0.817   1.377  1.00  0.00     0.169 HD
BRANCH  18  21
ATOM     21  C   UNL     1       3.301  -0.550  -0.131  1.00  0.00     0.051 A 
ATOM     22  C   UNL     1       3.688  -0.752  -1.460  1.00  0.00     0.027 A 
ATOM     23  C   UNL     1       4.159   0.195   0.706  1.00  0.00     0.038 A 
ATOM     24  C   UNL     1       4.892  -0.229  -1.944  1.00  0.00     0.002 A 
ATOM     25  C   UNL     1       5.367   0.718   0.218  1.00  0.00     0.013 A 
ATOM     26  C   UNL     1       5.731   0.503  -1.109  1.00  0.00     0.001 A 
BRANCH  23  27
ATOM     27  C   UNL     1       3.842   0.462   2.129  1.00  0.00     0.262 C 
ATOM     28  O   UNL     1       2.812   0.061   2.662  1.00  0.00    -0.298 OA
ENDBRANCH  23  27
ENDBRANCH  18  21
ENDBRANCH  16  17
ENDBRANCH   3  16
TORSDOF 8
