MODEL        1USER    Run = 1USERUSER    Estimated Free Energy of Binding    =  -8.31 kcal/mol  [=(1)+(2)+(3)-(4)]USERUSER    (1) Final Intermolecular Energy     =  -9.50 kcal/molUSER        vdW + Hbond + desolv Energy     =  -9.44 kcal/molUSER        Electrostatic Energy            =  -0.06 kcal/molUSER        Moving Ligand-Fixed Receptor    =  -9.50 kcal/molUSER        Moving Ligand-Moving Receptor   =  +0.00 kcal/molUSER    (2) Final Total Internal Energy     =  -0.55 kcal/molUSER    (3) Torsional Free Energy           =  +1.19 kcal/molUSER    (4) Unbound System's Energy         =  -0.55 kcal/molUSERUSERREMARK SMILES N#Cc1c(-c2ccc(-c3cccc(F)c3F)cc2)ccnc1NREMARK SMILES IDX 3 1 4 2 19 3 20 4 21 5 22 6 2 7 1 8 5 9 6 10 18 11 7 12REMARK SMILES IDX 17 13 8 14 9 15 10 16 15 17 11 18 13 19 12 20 16 21 14 22REMARK SMILES IDX 23 23REMARK H PARENT 23 24 23 25USER                              x       y       z     vdW  Elec       q    TypeUSER                           _______ _______ _______ _____ _____    ______ ____ROOTATOM      1  C   UNL     1      41.799  46.668  19.101 -0.43 +0.01    +0.102 A  ATOM      2  C   UNL     1      40.839  45.712  18.711 -0.47 +0.00    +0.005 A  ATOM      3  C   UNL     1      40.662  44.585  19.522 -0.38 +0.00    +0.030 A  ATOM      4  C   UNL     1      41.435  44.458  20.661 -0.28 +0.01    +0.114 A  ATOM      5  N   UNL     1      42.356  45.365  21.042 -0.16 -0.06    -0.238 NA ATOM      6  C   UNL     1      42.536  46.456  20.273 -0.29 +0.04    +0.141 A  ENDROOTBRANCH   1   7ATOM      7  C   UNL     1      42.023  47.850  18.323 -0.45 -0.00    +0.104 C  ATOM      8  N   UNL     1      42.167  48.805  17.678 -0.40 -0.03    -0.192 NA ENDBRANCH   1   7BRANCH   2   9ATOM      9  C   UNL     1      40.021  45.854  17.498 -0.44 +0.00    -0.017 A  ATOM     10  C   UNL     1      38.647  45.584  17.526 -0.39 -0.00    +0.009 A  ATOM     11  C   UNL     1      40.595  46.254  16.283 -0.39 -0.00    +0.009 A  ATOM     12  C   UNL     1      37.866  45.717  16.372 -0.36 -0.00    +0.009 A  ATOM     13  C   UNL     1      39.810  46.388  15.132 -0.43 -0.00    +0.009 A  ATOM     14  C   UNL     1      38.432  46.124  15.154 -0.39 +0.00    -0.015 A  BRANCH  14  15ATOM     15  C   UNL     1      37.608  46.277  13.943 -0.43 -0.01    +0.021 A  ATOM     16  C   UNL     1      37.318  45.168  13.123 -0.45 -0.00    +0.012 A  ATOM     17  C   UNL     1      37.084  47.521  13.556 -0.43 -0.08    +0.166 A  ATOM     18  C   UNL     1      36.537  45.299  11.969 -0.57 -0.00    +0.004 A  ATOM     19  C   UNL     1      36.307  47.648  12.408 -0.53 -0.07    +0.159 A  ATOM     20  C   UNL     1      36.028  46.546  11.610 -0.49 -0.02    +0.042 A  ATOM     21  F   UNL     1      37.321  48.614  14.300 -0.17 +0.13    -0.203 F  ATOM     22  F   UNL     1      35.816  48.847  12.059 -0.12 +0.10    -0.204 F  ENDBRANCH  14  15ENDBRANCH   2   9BRANCH   6  23ATOM     23  N   UNL     1      43.506  47.358  20.732 -0.16 -0.12    -0.383 N  ATOM     24  H   UNL     1      44.034  47.750  19.956 -0.46 +0.04    +0.158 HD ATOM     25  H   UNL     1      43.074  48.128  21.235 -0.38 -0.00    +0.158 HD ENDBRANCH   6  23TORSDOF 4TERENDMDL