MODEL        8USER    Run = 8USERUSER    Estimated Free Energy of Binding    =  -8.81 kcal/mol  [=(1)+(2)+(3)-(4)]USERUSER    (1) Final Intermolecular Energy     = -10.00 kcal/molUSER        vdW + Hbond + desolv Energy     =  -9.78 kcal/molUSER        Electrostatic Energy            =  -0.22 kcal/molUSER        Moving Ligand-Fixed Receptor    = -10.00 kcal/molUSER        Moving Ligand-Moving Receptor   =  +0.00 kcal/molUSER    (2) Final Total Internal Energy     =  -0.46 kcal/molUSER    (3) Torsional Free Energy           =  +1.19 kcal/molUSER    (4) Unbound System's Energy         =  -0.46 kcal/molUSERUSERREMARK SMILES Cn1ccnccc(-c2cccc(-c3ccc(O)cc3O)c2)cc1REMARK SMILES IDX 9 1 10 2 11 3 12 4 13 5 22 6 8 7 2 8 3 9 24 10 4 11 23 12REMARK SMILES IDX 5 13 6 14 7 15 1 16 14 17 15 18 20 19 16 20 19 21 17 22REMARK SMILES IDX 21 23 18 25REMARK H PARENT 21 24 18 26USER                              x       y       z     vdW  Elec       q    TypeUSER                           _______ _______ _______ _____ _____    ______ ____ROOTATOM      1  C   UNL     1      39.559  44.986  20.260 -0.36 -0.00    -0.018 A  ATOM      2  C   UNL     1      40.883  45.165  20.678 -0.35 +0.00    +0.009 A  ATOM      3  C   UNL     1      41.751  45.959  19.931 -0.41 +0.00    +0.001 A  ATOM      4  C   UNL     1      41.304  46.572  18.758 -0.50 +0.00    +0.009 A  ATOM      5  C   UNL     1      39.983  46.407  18.306 -0.44 +0.00    -0.014 A  ATOM      6  C   UNL     1      39.120  45.609  19.078 -0.39 -0.00    +0.017 A  ENDROOTBRANCH   1   7ATOM      7  C   UNL     1      38.619  44.135  21.061 -0.32 -0.00    -0.015 A  ATOM      8  N   UNL     1      37.358  42.969  23.751 -0.16 -0.03    -0.356 N  ATOM      9  C   UNL     1      36.881  41.758  23.294 -0.40 +0.01    +0.105 A  ATOM     10  C   UNL     1      38.635  43.320  23.369 -0.23 +0.01    +0.086 A  ATOM     11  C   UNL     1      36.241  41.440  22.164 -0.45 +0.00    +0.129 A  ATOM     12  C   UNL     1      39.157  43.813  22.245 -0.26 +0.00    +0.026 A  ATOM     13  N   UNL     1      35.822  42.036  21.043 -0.31 -0.01    -0.263 NA ATOM     14  C   UNL     1      36.386  43.111  20.469 -0.36 -0.00    +0.111 A  ATOM     15  C   UNL     1      37.460  43.919  20.420 -0.36 -0.00    +0.029 A  ATOM     16  C   UNL     1      36.928  43.353  25.099 -0.32 +0.00    +0.149 C  ENDBRANCH   1   7BRANCH   5  17ATOM     17  C   UNL     1      39.521  47.017  17.043 -0.45 -0.01    +0.024 A  ATOM     18  C   UNL     1      38.302  46.590  16.475 -0.39 -0.01    +0.016 A  ATOM     19  C   UNL     1      40.236  48.020  16.362 -0.44 -0.03    +0.127 A  ATOM     20  C   UNL     1      37.819  47.140  15.284 -0.40 -0.02    +0.047 A  ATOM     21  C   UNL     1      39.761  48.573  15.170 -0.48 -0.03    +0.093 A  ATOM     22  C   UNL     1      38.555  48.128  14.642 -0.44 -0.05    +0.119 A  BRANCH  19  23ATOM     23  O   UNL     1      41.419  48.481  16.879 -0.68 +0.01    -0.507 OA ATOM     24  H   UNL     1      42.087  47.782  16.798 -0.30 -0.04    +0.293 HD ENDBRANCH  19  23BRANCH  22  25ATOM     25  O   UNL     1      38.121  48.692  13.479 -0.30 +0.16    -0.508 OA ATOM     26  H   UNL     1      37.928  49.629  13.649 -0.29 -0.19    +0.293 HD ENDBRANCH  22  25ENDBRANCH   5  17TORSDOF 4TERENDMDL