REMARK SMILES C[C@H]1C(=Cc2cccn2C)C=Nc2[nH]cc(-c3cccc(C(=O)O)c3)c21
REMARK SMILES IDX 1 1 2 2 3 3 11 4 12 5 13 6 14 7 15 8 16 9 26 10 4 12 5 13
REMARK SMILES IDX 6 14 9 15 7 16 8 17 10 18 17 19 18 20 25 21 19 22 21 23
REMARK SMILES IDX 20 24 22 25 23 26 24 27
REMARK H PARENT 14 11 24 28
ROOT
ATOM      1  C   UNL     1      -0.185   2.204   0.312  1.00  0.00     0.018 C 
ATOM      2  C   UNL     1      -0.281   0.714  -0.030  1.00  0.00     0.052 C 
ATOM      3  C   UNL     1      -1.745   0.283  -0.113  1.00  0.00    -0.020 C 
ATOM      4  C   UNL     1      -2.308   0.094  -1.501  1.00  0.00     0.118 C 
ATOM      5  N   UNL     1      -1.640   0.019  -2.615  1.00  0.00    -0.239 NA
ATOM      6  C   UNL     1      -0.304   0.121  -2.453  1.00  0.00     0.134 A 
ATOM      7  N   UNL     1       0.574  -0.072  -3.480  1.00  0.00    -0.346 N 
ATOM      8  C   UNL     1       1.858   0.077  -3.016  1.00  0.00     0.093 A 
ATOM      9  C   UNL     1       1.800   0.374  -1.666  1.00  0.00     0.005 A 
ATOM     10  C   UNL     1       0.419   0.411  -1.317  1.00  0.00     0.011 A 
ATOM     11  H   UNL     1       0.297  -0.298  -4.424  1.00  0.00     0.167 HD
ENDROOT
BRANCH   3  12
ATOM     12  C   UNL     1      -2.482   0.049   0.989  1.00  0.00     0.032 C 
BRANCH  12  13
ATOM     13  C   UNL     1      -3.830  -0.375   0.957  1.00  0.00     0.041 A 
ATOM     14  C   UNL     1      -5.016   0.330   1.030  1.00  0.00     0.028 A 
ATOM     15  N   UNL     1      -4.150  -1.714   0.874  1.00  0.00    -0.351 N 
ATOM     16  C   UNL     1      -6.078  -0.602   0.964  1.00  0.00     0.020 A 
ATOM     17  C   UNL     1      -5.516  -1.855   0.866  1.00  0.00     0.086 A 
ATOM     18  C   UNL     1      -3.220  -2.822   0.801  1.00  0.00     0.149 C 
ENDBRANCH  12  13
ENDBRANCH   3  12
BRANCH   9  19
ATOM     19  C   UNL     1       2.982   0.589  -0.853  1.00  0.00    -0.016 A 
ATOM     20  C   UNL     1       3.960   1.510  -1.248  1.00  0.00     0.009 A 
ATOM     21  C   UNL     1       3.152  -0.120   0.342  1.00  0.00     0.024 A 
ATOM     22  C   UNL     1       5.092   1.725  -0.460  1.00  0.00     0.002 A 
ATOM     23  C   UNL     1       4.286   0.094   1.137  1.00  0.00     0.060 A 
ATOM     24  C   UNL     1       5.256   1.019   0.733  1.00  0.00     0.016 A 
BRANCH  23  25
ATOM     25  C   UNL     1       4.410  -0.677   2.397  1.00  0.00     0.335 C 
ATOM     26  O   UNL     1       3.585  -1.453   2.842  1.00  0.00    -0.246 OA
BRANCH  25  27
ATOM     27  O   UNL     1       5.564  -0.438   3.045  1.00  0.00    -0.478 OA
ATOM     28  H   UNL     1       5.509  -1.006   3.841  1.00  0.00     0.297 HD
ENDBRANCH  25  27
ENDBRANCH  23  25
ENDBRANCH   9  19
TORSDOF 5
