MODEL        2USER    Run = 2USERUSER    Estimated Free Energy of Binding    =  -9.34 kcal/mol  [=(1)+(2)+(3)-(4)]USERUSER    (1) Final Intermolecular Energy     = -11.13 kcal/molUSER        vdW + Hbond + desolv Energy     = -11.10 kcal/molUSER        Electrostatic Energy            =  -0.03 kcal/molUSER        Moving Ligand-Fixed Receptor    = -11.13 kcal/molUSER        Moving Ligand-Moving Receptor   =  +0.00 kcal/molUSER    (2) Final Total Internal Energy     =  -1.09 kcal/molUSER    (3) Torsional Free Energy           =  +1.79 kcal/molUSER    (4) Unbound System's Energy         =  -1.09 kcal/molUSERUSERREMARK SMILES Cc1cccc(-c2csc(NC(=O)c3ccc([C@@H](C)N)c(N)c3)n2)c1REMARK SMILES IDX 14 1 15 2 16 3 17 4 21 5 23 6 12 7 11 8 13 10 10 11 7 12REMARK SMILES IDX 8 13 24 14 9 15 6 16 2 17 3 18 25 19 4 20 5 21 1 22 22 23REMARK SMILES IDX 18 26 19 27 20 28REMARK H PARENT 11 9 22 24 22 25 20 29 20 30USER                              x       y       z     vdW  Elec       q    TypeUSER                           _______ _______ _______ _____ _____    ______ ____ROOTATOM      1  C   UNL     1      37.477  43.592  23.096 -0.33 +0.00    +0.042 A  ATOM      2  C   UNL     1      37.081  42.300  23.439 -0.43 +0.00    +0.014 A  ATOM      3  C   UNL     1      36.522  42.055  24.692 -0.40 -0.00    +0.008 A  ATOM      4  C   UNL     1      36.351  43.092  25.635 -0.37 +0.00    -0.009 A  ATOM      5  C   UNL     1      36.797  44.391  25.304 -0.29 +0.00    +0.037 A  ATOM      6  C   UNL     1      37.301  44.635  24.015 -0.27 +0.01    +0.039 A  ENDROOTBRANCH   1   7ATOM      7  C   UNL     1      38.041  43.826  21.737 -0.25 +0.01    +0.257 C  ATOM      8  N   UNL     1      39.020  44.791  21.684 -0.16 -0.01    -0.298 N  ATOM      9  H   UNL     1      39.377  45.222  22.521 +0.09 +0.01    +0.172 HD ATOM     10  O   UNL     1      37.628  43.135  20.814 -0.22 -0.00    -0.269 OA BRANCH   8  11ATOM     11  C   UNL     1      39.633  45.149  20.515 -0.25 +0.00    +0.190 A  ATOM     12  C   UNL     1      40.156  45.983  18.537 -0.40 -0.01    +0.084 A  ATOM     13  C   UNL     1      41.334  45.317  18.823 -0.35 +0.01    +0.097 A  ATOM     14  N   UNL     1      39.186  45.871  19.525 -0.27 +0.01    -0.220 NA ATOM     15  S   UNL     1      41.224  44.554  20.359 -0.45 -0.01    -0.105 S  BRANCH  12  16ATOM     16  C   UNL     1      39.890  46.741  17.314 -0.48 -0.00    +0.001 A  ATOM     17  C   UNL     1      40.400  48.533  15.727 -0.55 +0.01    -0.050 A  ATOM     18  C   UNL     1      39.301  48.153  14.949 -0.54 -0.00    +0.003 A  ATOM     19  C   UNL     1      40.678  47.832  16.912 -0.53 -0.00    +0.013 A  ATOM     20  C   UNL     1      38.507  47.076  15.336 -0.45 -0.00    +0.001 A  ATOM     21  C   UNL     1      38.801  46.377  16.508 -0.41 -0.00    +0.010 A  ATOM     22  C   UNL     1      41.233  49.718  15.334 -0.72 -0.01    +0.044 C  ENDBRANCH  12  16ENDBRANCH   8  11ENDBRANCH   1   7BRANCH   5  23ATOM     23  N   UNL     1      36.542  45.504  26.128 -0.03 +0.06    -0.398 N  ATOM     24  H   UNL     1      35.991  45.294  26.955 -0.33 -0.06    +0.156 HD ATOM     25  H   UNL     1      36.162  46.308  25.636 -0.51 -0.02    +0.156 HD ENDBRANCH   5  23BRANCH   4  26ATOM     26  C   UNL     1      35.680  42.726  26.953 -0.52 -0.02    +0.080 C  ATOM     27  C   UNL     1      35.679  41.220  27.219 -0.68 -0.01    +0.029 C  BRANCH  26  28ATOM     28  N   UNL     1      36.250  43.463  28.086 -0.17 +0.11    -0.324 NA ATOM     29  H   UNL     1      35.522  43.570  28.796 -0.44 -0.06    +0.119 HD ATOM     30  H   UNL     1      36.932  42.854  28.541 -0.40 -0.06    +0.119 HD ENDBRANCH  26  28ENDBRANCH   4  26TORSDOF 6TERENDMDL