MODEL        7USER    Run = 7USERUSER    Estimated Free Energy of Binding    =  -9.84 kcal/mol  [=(1)+(2)+(3)-(4)]USERUSER    (1) Final Intermolecular Energy     = -12.23 kcal/molUSER        vdW + Hbond + desolv Energy     = -11.96 kcal/molUSER        Electrostatic Energy            =  -0.27 kcal/molUSER        Moving Ligand-Fixed Receptor    = -12.23 kcal/molUSER        Moving Ligand-Moving Receptor   =  +0.00 kcal/molUSER    (2) Final Total Internal Energy     =  -3.37 kcal/molUSER    (3) Torsional Free Energy           =  +2.39 kcal/molUSER    (4) Unbound System's Energy         =  -3.37 kcal/molUSERUSERREMARK SMILES Nc1ncncc1-c1nc(-c2ccc(Oc3ccccc3)cc2)c2ncn(CCO)c2n1REMARK SMILES IDX 8 1 9 2 10 3 24 4 25 5 26 6 27 7 31 8 32 9 7 10 2 11 3 12REMARK SMILES IDX 4 13 6 14 5 15 1 16 11 19 12 20 23 21 13 22 22 23 14 24REMARK SMILES IDX 15 25 16 26 17 27 21 28 18 29 20 30 19 31 28 32 29 33 30 34REMARK H PARENT 1 17 1 18 30 35USER                              x       y       z     vdW  Elec       q    TypeUSER                           _______ _______ _______ _____ _____    ______ ____ROOTATOM      1  C   UNL     1      40.596  46.260  18.977 -0.34 -0.00    +0.167 A  ATOM      2  N   UNL     1      39.457  45.623  19.339 -0.27 +0.01    -0.225 NA ATOM      3  C   UNL     1      38.398  45.550  18.471 -0.31 -0.02    +0.102 A  ATOM      4  C   UNL     1      38.546  46.138  17.207 -0.31 -0.04    +0.134 A  ATOM      5  N   UNL     1      37.730  46.247  16.097 -0.21 +0.10    -0.233 NA ATOM      6  C   UNL     1      38.434  46.909  15.205 -0.28 -0.08    +0.202 A  ATOM      7  N   UNL     1      39.673  47.228  15.681 -0.24 +0.08    -0.313 N  ATOM      8  C   UNL     1      39.765  46.751  16.959 -0.36 -0.03    +0.164 A  ATOM      9  N   UNL     1      40.819  46.851  17.783 -0.36 +0.02    -0.208 NA ENDROOTBRANCH   1  10ATOM     10  C   UNL     1      41.680  46.286  19.966 -0.36 +0.01    +0.080 A  ATOM     11  C   UNL     1      42.890  46.971  19.829 -0.38 +0.04    +0.137 A  ATOM     12  N   UNL     1      43.856  46.954  20.766 -0.39 -0.13    -0.219 NA ATOM     13  C   UNL     1      43.628  46.229  21.867 -0.16 +0.10    +0.224 A  ATOM     14  C   UNL     1      41.575  45.582  21.160 -0.25 +0.02    +0.128 A  ATOM     15  N   UNL     1      42.520  45.530  22.123 -0.12 -0.05    -0.244 NA BRANCH  11  16ATOM     16  N   UNL     1      43.163  47.803  18.729 -0.27 -0.03    -0.383 N  ATOM     17  H   UNL     1      42.801  47.355  17.887 -0.44 -0.02    +0.158 HD ATOM     18  H   UNL     1      42.636  48.666  18.832 -0.15 -0.01    +0.158 HD ENDBRANCH  11  16ENDBRANCH   1  10BRANCH   3  19ATOM     19  C   UNL     1      37.188  44.844  18.928 -0.31 -0.00    +0.003 A  ATOM     20  C   UNL     1      37.218  43.820  19.895 -0.36 -0.00    +0.014 A  ATOM     21  C   UNL     1      35.925  45.175  18.394 -0.32 -0.00    +0.014 A  ATOM     22  C   UNL     1      36.052  43.163  20.308 -0.41 -0.00    +0.048 A  ATOM     23  C   UNL     1      34.757  44.523  18.801 -0.34 -0.01    +0.048 A  ATOM     24  C   UNL     1      34.824  43.504  19.745 -0.32 -0.01    +0.127 A  BRANCH  24  25ATOM     25  O   UNL     1      33.638  42.924  20.130 -0.63 -0.08    -0.457 OA BRANCH  25  26ATOM     26  C   UNL     1      32.752  42.576  19.136 -0.30 -0.00    +0.127 A  ATOM     27  C   UNL     1      32.830  41.273  18.645 -0.35 -0.00    +0.047 A  ATOM     28  C   UNL     1      31.757  43.443  18.673 -0.29 -0.00    +0.047 A  ATOM     29  C   UNL     1      31.936  40.845  17.662 -0.37 -0.00    +0.004 A  ATOM     30  C   UNL     1      30.867  43.014  17.690 -0.26 -0.00    +0.004 A  ATOM     31  C   UNL     1      30.959  41.717  17.182 -0.31 -0.00    +0.000 A  ENDBRANCH  25  26ENDBRANCH  24  25ENDBRANCH   3  19BRANCH   7  32ATOM     32  C   UNL     1      40.700  47.946  14.964 -0.46 -0.02    +0.153 C  BRANCH  32  33ATOM     33  C   UNL     1      41.075  49.259  15.639 -0.56 -0.03    +0.178 C  BRANCH  33  34ATOM     34  O   UNL     1      41.792  49.006  16.842 -0.84 -0.07    -0.395 OA ATOM     35  H   UNL     1      42.215  48.134  16.769 -0.34 +0.01    +0.210 HD ENDBRANCH  33  34ENDBRANCH  32  33ENDBRANCH   7  32TORSDOF 8TERENDMDL