REMARK SMILES Cc1cccc(-c2csc(NC(=O)c3ccc([C@@H](C)N)c(N)c3)n2)c1
REMARK SMILES IDX 14 1 15 2 16 3 17 4 21 5 23 6 12 7 11 8 13 10 10 11 7 12
REMARK SMILES IDX 8 13 24 14 9 15 6 16 2 17 3 18 25 19 4 20 5 21 1 22 22 23
REMARK SMILES IDX 18 26 19 27 20 28
REMARK H PARENT 11 9 22 24 22 25 20 29 20 30
ROOT
ATOM      1  C   UNL     1      -2.076  -0.430  -0.509  1.00  0.00     0.042 A 
ATOM      2  C   UNL     1      -2.607  -1.401  -1.357  1.00  0.00     0.014 A 
ATOM      3  C   UNL     1      -3.989  -1.510  -1.507  1.00  0.00     0.008 A 
ATOM      4  C   UNL     1      -4.873  -0.659  -0.809  1.00  0.00    -0.009 A 
ATOM      5  C   UNL     1      -4.335   0.292   0.087  1.00  0.00     0.037 A 
ATOM      6  C   UNL     1      -2.939   0.432   0.180  1.00  0.00     0.039 A 
ENDROOT
BRANCH   1   7
ATOM      7  C   UNL     1      -0.595  -0.318  -0.396  1.00  0.00     0.257 C 
ATOM      8  N   UNL     1      -0.143   0.041   0.853  1.00  0.00    -0.298 N 
ATOM      9  H   UNL     1      -0.773   0.121   1.635  1.00  0.00     0.172 HD
ATOM     10  O   UNL     1       0.081  -0.584  -1.382  1.00  0.00    -0.269 OA
BRANCH   8  11
ATOM     11  C   UNL     1       1.185   0.209   1.131  1.00  0.00     0.190 A 
ATOM     12  C   UNL     1       3.386   0.387   1.050  1.00  0.00     0.084 A 
ATOM     13  C   UNL     1       3.186   0.630   2.397  1.00  0.00     0.097 A 
ATOM     14  N   UNL     1       2.218   0.144   0.338  1.00  0.00    -0.220 NA
ATOM     15  S   UNL     1       1.509   0.565   2.768  1.00  0.00    -0.105 S 
BRANCH  12  16
ATOM     16  C   UNL     1       4.687   0.361   0.380  1.00  0.00     0.001 A 
ATOM     17  C   UNL     1       7.107   0.724   0.342  1.00  0.00    -0.050 A 
ATOM     18  C   UNL     1       7.148   0.288  -0.986  1.00  0.00     0.003 A 
ATOM     19  C   UNL     1       5.873   0.770   1.012  1.00  0.00     0.013 A 
ATOM     20  C   UNL     1       5.980  -0.117  -1.628  1.00  0.00     0.001 A 
ATOM     21  C   UNL     1       4.761  -0.081  -0.949  1.00  0.00     0.010 A 
ATOM     22  C   UNL     1       8.357   1.198   1.023  1.00  0.00     0.044 C 
ENDBRANCH  12  16
ENDBRANCH   8  11
ENDBRANCH   1   7
BRANCH   5  23
ATOM     23  N   UNL     1      -5.133   1.266   0.716  1.00  0.00    -0.398 N 
ATOM     24  H   UNL     1      -4.692   1.716   1.513  1.00  0.00     0.156 HD
ATOM     25  H   UNL     1      -6.068   0.949   0.953  1.00  0.00     0.156 HD
ENDBRANCH   5  23
BRANCH   4  26
ATOM     26  C   UNL     1      -6.361  -0.828  -1.087  1.00  0.00     0.080 C 
ATOM     27  C   UNL     1      -7.122  -1.421   0.099  1.00  0.00     0.029 C 
BRANCH  26  28
ATOM     28  N   UNL     1      -6.983   0.420  -1.544  1.00  0.00    -0.324 NA
ATOM     29  H   UNL     1      -6.636   1.183  -0.958  1.00  0.00     0.119 HD
ATOM     30  H   UNL     1      -6.600   0.639  -2.464  1.00  0.00     0.119 HD
ENDBRANCH  26  28
ENDBRANCH   4  26
TORSDOF 6
