MODEL        8USER    Run = 8USERUSER    Estimated Free Energy of Binding    =  -9.60 kcal/mol  [=(1)+(2)+(3)-(4)]USERUSER    (1) Final Intermolecular Energy     = -11.09 kcal/molUSER        vdW + Hbond + desolv Energy     = -10.95 kcal/molUSER        Electrostatic Energy            =  -0.15 kcal/molUSER        Moving Ligand-Fixed Receptor    = -11.09 kcal/molUSER        Moving Ligand-Moving Receptor   =  +0.00 kcal/molUSER    (2) Final Total Internal Energy     =  -0.96 kcal/molUSER    (3) Torsional Free Energy           =  +1.49 kcal/molUSER    (4) Unbound System's Energy         =  -0.96 kcal/molUSERUSERREMARK SMILES C[C@H]1C(=Cc2cccn2C)C=Nc2[nH]cc(-c3cccc(C(=O)O)c3)c21REMARK SMILES IDX 1 1 2 2 3 3 11 4 12 5 13 6 14 7 15 8 16 9 26 10 4 12 5 13REMARK SMILES IDX 6 14 9 15 7 16 8 17 10 18 17 19 18 20 25 21 19 22 21 23REMARK SMILES IDX 20 24 22 25 23 26 24 27REMARK H PARENT 14 11 24 28USER                              x       y       z     vdW  Elec       q    TypeUSER                           _______ _______ _______ _____ _____    ______ ____ROOTATOM      1  C   UNL     1      38.701  44.004  18.475 -0.21 -0.00    +0.018 C  ATOM      2  C   UNL     1      38.855  45.441  18.983 -0.42 -0.00    +0.052 C  ATOM      3  C   UNL     1      39.530  45.447  20.355 -0.41 -0.00    -0.020 C  ATOM      4  C   UNL     1      40.986  45.844  20.382 -0.35 +0.01    +0.118 C  ATOM      5  N   UNL     1      41.663  46.409  19.425 -0.30 -0.02    -0.239 NA ATOM      6  C   UNL     1      40.934  46.647  18.314 -0.41 -0.01    +0.134 A  ATOM      7  N   UNL     1      41.424  47.355  17.255 -0.19 +0.04    -0.346 N  ATOM      8  C   UNL     1      40.457  47.452  16.285 -0.44 -0.02    +0.093 A  ATOM      9  C   UNL     1      39.327  46.791  16.730 -0.45 -0.00    +0.005 A  ATOM     10  C   UNL     1      39.642  46.271  18.019 -0.44 -0.00    +0.011 A  ATOM     11  H   UNL     1      42.355  47.745  17.220 -0.47 -0.02    +0.167 HD ENDROOTBRANCH   3  12ATOM     12  C   UNL     1      38.855  45.150  21.482 -0.38 +0.00    +0.032 C  BRANCH  12  13ATOM     13  C   UNL     1      38.093  43.972  21.654 -0.33 +0.00    +0.041 A  ATOM     14  C   UNL     1      36.836  43.617  21.202 -0.40 +0.00    +0.028 A  ATOM     15  N   UNL     1      38.568  42.927  22.418 -0.11 -0.02    -0.351 N  ATOM     16  C   UNL     1      36.555  42.318  21.684 -0.49 +0.00    +0.020 A  ATOM     17  C   UNL     1      37.640  41.914  22.429 -0.39 +0.01    +0.086 A  ATOM     18  C   UNL     1      39.839  42.869  23.111 -0.23 +0.01    +0.149 C  ENDBRANCH  12  13ENDBRANCH   3  12BRANCH   9  19ATOM     19  C   UNL     1      38.106  46.702  15.953 -0.39 +0.01    -0.016 A  ATOM     20  C   UNL     1      36.925  46.224  16.534 -0.37 -0.00    +0.009 A  ATOM     21  C   UNL     1      38.095  47.103  14.612 -0.44 -0.01    +0.024 A  ATOM     22  C   UNL     1      35.747  46.149  15.788 -0.36 -0.00    +0.002 A  ATOM     23  C   UNL     1      36.914  47.032  13.860 -0.46 -0.03    +0.060 A  ATOM     24  C   UNL     1      35.739  46.554  14.453 -0.41 -0.01    +0.016 A  BRANCH  23  25ATOM     25  C   UNL     1      36.958  47.479  12.448 -0.39 -0.11    +0.335 C  ATOM     26  O   UNL     1      37.660  47.007  11.572 -0.93 +0.04    -0.246 OA BRANCH  25  27ATOM     27  O   UNL     1      36.121  48.501  12.196 -0.57 +0.22    -0.478 OA ATOM     28  H   UNL     1      36.197  48.634  11.229 -0.21 -0.22    +0.297 HD ENDBRANCH  25  27ENDBRANCH  23  25ENDBRANCH   9  19TORSDOF 5TERENDMDL