MODEL        2USER    Run = 2USERUSER    Estimated Free Energy of Binding    = -11.00 kcal/mol  [=(1)+(2)+(3)-(4)]USERUSER    (1) Final Intermolecular Energy     = -12.49 kcal/molUSER        vdW + Hbond + desolv Energy     = -12.22 kcal/molUSER        Electrostatic Energy            =  -0.27 kcal/molUSER        Moving Ligand-Fixed Receptor    = -12.49 kcal/molUSER        Moving Ligand-Moving Receptor   =  +0.00 kcal/molUSER    (2) Final Total Internal Energy     =  -0.91 kcal/molUSER    (3) Torsional Free Energy           =  +1.49 kcal/molUSER    (4) Unbound System's Energy         =  -0.91 kcal/molUSERUSERREMARK SMILES Cc1cc(-c2nnc3ccc(-c4cnn(CC(=O)N5CCN(C)CC5)c4)cn23)ccc1OREMARK SMILES IDX 5 1 6 2 7 3 8 4 9 5 10 6 11 7 27 8 28 9 4 10 2 11 3 12 31 13REMARK SMILES IDX 30 14 29 15 1 16 32 17 12 19 13 20 26 21 14 22 15 23 16 24REMARK SMILES IDX 17 25 19 26 20 27 25 28 21 29 24 30 22 31 18 32 23 33REMARK H PARENT 32 18USER                              x       y       z     vdW  Elec       q    TypeUSER                           _______ _______ _______ _____ _____    ______ ____ROOTATOM      1  C   UNL     1      37.801  46.031  15.658 -0.26 -0.07    +0.168 A  ATOM      2  N   UNL     1      37.269  45.783  14.472 -0.30 +0.05    -0.129 NA ATOM      3  N   UNL     1      36.319  44.800  14.610 -0.30 +0.06    -0.130 NA ATOM      4  C   UNL     1      36.303  44.435  15.870 -0.25 -0.06    +0.161 A  ATOM      5  C   UNL     1      35.543  43.474  16.580 -0.36 -0.02    +0.050 A  ATOM      6  C   UNL     1      35.775  43.282  17.894 -0.32 -0.00    +0.014 A  ATOM      7  C   UNL     1      36.804  44.029  18.637 -0.33 -0.00    +0.002 A  ATOM      8  C   UNL     1      37.502  44.954  17.938 -0.29 -0.02    +0.103 A  ATOM      9  N   UNL     1      37.243  45.163  16.582 -0.16 +0.10    -0.282 N  ENDROOTBRANCH   1  10ATOM     10  C   UNL     1      38.833  47.029  15.926 -0.43 -0.01    +0.020 A  ATOM     11  C   UNL     1      40.790  47.720  17.231 -0.53 +0.00    -0.009 A  ATOM     12  C   UNL     1      39.777  46.789  16.937 -0.46 -0.00    +0.019 A  ATOM     13  C   UNL     1      40.847  48.895  16.474 -0.41 -0.02    +0.118 A  ATOM     14  C   UNL     1      39.930  49.138  15.455 -0.50 -0.02    +0.047 A  ATOM     15  C   UNL     1      38.930  48.207  15.175 -0.52 -0.01    +0.016 A  ATOM     16  C   UNL     1      41.771  47.417  18.326 -0.57 -0.00    +0.048 C  BRANCH  13  17ATOM     17  O   UNL     1      41.793  49.860  16.672 -0.76 -0.08    -0.508 OA ATOM     18  H   UNL     1      41.365  50.730  16.698 -0.31 -0.08    +0.293 HD ENDBRANCH  13  17ENDBRANCH   1  10BRANCH   7  19ATOM     19  C   UNL     1      37.037  43.770  20.028 -0.37 -0.00    +0.021 A  ATOM     20  C   UNL     1      36.525  42.732  20.837 -0.36 +0.00    +0.143 A  ATOM     21  C   UNL     1      37.836  44.498  20.885 -0.28 +0.00    +0.118 A  ATOM     22  N   UNL     1      36.954  42.805  22.098 -0.32 -0.01    -0.180 NA ATOM     23  N   UNL     1      37.739  43.895  22.113 -0.22 -0.02    -0.263 N  BRANCH  23  24ATOM     24  C   UNL     1      38.419  44.313  23.327 -0.21 +0.02    +0.244 C  BRANCH  24  25ATOM     25  C   UNL     1      37.488  44.674  24.465 -0.22 +0.03    +0.244 C  ATOM     26  N   UNL     1      36.798  43.664  25.128 -0.15 -0.01    -0.339 N  ATOM     27  C   UNL     1      37.024  42.225  24.983 -0.36 -0.00    +0.135 C  ATOM     28  C   UNL     1      36.013  44.011  26.316 -0.34 -0.02    +0.135 C  ATOM     29  C   UNL     1      37.652  41.634  26.265 -0.34 -0.01    +0.105 C  ATOM     30  C   UNL     1      36.653  43.406  27.587 -0.39 -0.02    +0.105 C  ATOM     31  N   UNL     1      36.920  41.949  27.511 -0.23 +0.08    -0.303 NA ATOM     32  O   UNL     1      37.289  45.865  24.730 -0.74 -0.06    -0.273 OA ATOM     33  C   UNL     1      35.692  41.166  27.637 -0.62 -0.04    +0.105 C  ENDBRANCH  24  25ENDBRANCH  23  24ENDBRANCH   7  19TORSDOF 5TERENDMDL