MODEL        9USER    Run = 9USERUSER    Estimated Free Energy of Binding    = -10.18 kcal/mol  [=(1)+(2)+(3)-(4)]USERUSER    (1) Final Intermolecular Energy     = -11.67 kcal/molUSER        vdW + Hbond + desolv Energy     = -11.46 kcal/molUSER        Electrostatic Energy            =  -0.21 kcal/molUSER        Moving Ligand-Fixed Receptor    = -11.67 kcal/molUSER        Moving Ligand-Moving Receptor   =  +0.00 kcal/molUSER    (2) Final Total Internal Energy     =  -0.90 kcal/molUSER    (3) Torsional Free Energy           =  +1.49 kcal/molUSER    (4) Unbound System's Energy         =  -0.90 kcal/molUSERUSERREMARK SMILES CC(C)c1nnc2ccc(-c3ccc(Nc4cnc(N5CCOCC5)cn4)cc3F)cn12REMARK SMILES IDX 11 1 12 2 13 3 14 4 28 5 29 6 30 7 10 8 4 9 5 10 32 11 6 12REMARK SMILES IDX 31 13 7 14 8 15 9 16 2 17 1 18 3 19 15 20 16 22 17 23 27 24REMARK SMILES IDX 18 25 26 26 19 27 20 28 21 29 25 30 22 31 24 32 23 33REMARK H PARENT 15 21USER                              x       y       z     vdW  Elec       q    TypeUSER                           _______ _______ _______ _____ _____    ______ ____ROOTATOM      1  C   UNL     1      36.992  44.912  16.830 -0.33 -0.01    +0.019 A  ATOM      2  C   UNL     1      36.288  44.234  15.831 -0.37 -0.01    +0.014 A  ATOM      3  C   UNL     1      35.423  43.181  16.160 -0.42 -0.01    +0.027 A  ATOM      4  C   UNL     1      35.251  42.763  17.485 -0.36 -0.01    +0.043 A  ATOM      5  C   UNL     1      35.932  43.469  18.484 -0.28 -0.01    +0.066 A  ATOM      6  C   UNL     1      36.794  44.517  18.156 -0.25 -0.03    +0.133 A  ATOM      7  F   UNL     1      37.433  45.147  19.154 -0.08 +0.03    -0.206 F  ENDROOTBRANCH   1   8ATOM      8  C   UNL     1      37.893  46.024  16.474 -0.38 -0.00    +0.001 A  ATOM      9  C   UNL     1      41.038  47.744  17.468 -0.42 -0.02    +0.139 A  ATOM     10  N   UNL     1      41.490  48.768  16.765 -0.98 -0.00    -0.134 NA ATOM     11  N   UNL     1      39.863  47.290  16.893 -0.29 +0.07    -0.286 N  ATOM     12  N   UNL     1      40.626  49.008  15.727 -0.56 +0.03    -0.130 NA ATOM     13  C   UNL     1      38.994  46.249  17.222 -0.35 -0.02    +0.103 A  ATOM     14  C   UNL     1      39.657  48.126  15.805 -0.40 -0.05    +0.160 A  ATOM     15  C   UNL     1      38.504  47.905  15.007 -0.48 -0.02    +0.050 A  ATOM     16  C   UNL     1      37.662  46.903  15.323 -0.41 -0.01    +0.014 A  BRANCH   9  17ATOM     17  C   UNL     1      41.722  47.195  18.684 -0.54 -0.00    +0.052 C  ATOM     18  C   UNL     1      43.190  47.606  18.769 -0.47 +0.00    +0.016 C  ATOM     19  C   UNL     1      41.536  45.687  18.833 -0.48 +0.00    +0.016 C  ENDBRANCH   9  17ENDBRANCH   1   8BRANCH   4  20ATOM     20  N   UNL     1      34.340  41.751  17.858 -0.21 +0.11    -0.339 N  ATOM     21  H   UNL     1      34.752  40.825  17.802 -0.45 -0.09    +0.168 HD BRANCH  20  22ATOM     22  C   UNL     1      32.953  41.670  17.591 -0.27 -0.05    +0.149 A  ATOM     23  C   UNL     1      32.304  40.444  17.748 -0.27 -0.04    +0.160 A  ATOM     24  N   UNL     1      32.238  42.745  17.211 -0.16 +0.08    -0.234 NA ATOM     25  N   UNL     1      30.981  40.240  17.517 -0.23 +0.03    -0.234 NA ATOM     26  C   UNL     1      30.910  42.538  16.990 -0.19 -0.05    +0.160 A  ATOM     27  C   UNL     1      30.260  41.306  17.113 -0.22 -0.03    +0.147 A  BRANCH  27  28ATOM     28  N   UNL     1      28.898  41.156  16.882 -0.09 +0.04    -0.351 N  ATOM     29  C   UNL     1      28.288  39.908  17.368 -0.24 +0.03    +0.146 C  ATOM     30  C   UNL     1      28.307  41.710  15.653 -0.24 -0.07    +0.146 C  ATOM     31  C   UNL     1      26.775  39.946  17.105 -0.22 +0.04    +0.181 C  ATOM     32  C   UNL     1      27.474  40.644  14.918 -0.26 -0.06    +0.181 C  ATOM     33  O   UNL     1      26.427  40.080  15.717 -0.59 -0.06    -0.378 OA ENDBRANCH  27  28ENDBRANCH  20  22ENDBRANCH   4  20TORSDOF 5TERENDMDL