REMARK SMILES CC(C)c1nnc2ccc(-c3ccc(Nc4cnc(N5CCOCC5)cn4)cc3F)cn12
REMARK SMILES IDX 11 1 12 2 13 3 14 4 28 5 29 6 30 7 10 8 4 9 5 10 32 11 6 12
REMARK SMILES IDX 31 13 7 14 8 15 9 16 2 17 1 18 3 19 15 20 16 22 17 23 27 24
REMARK SMILES IDX 18 25 26 26 19 27 20 28 21 29 25 30 22 31 24 32 23 33
REMARK H PARENT 15 21
ROOT
ATOM      1  C   UNL     1      -2.391   1.344   0.028  1.00  0.00     0.019 A 
ATOM      2  C   UNL     1      -1.329   1.378   0.937  1.00  0.00     0.014 A 
ATOM      3  C   UNL     1      -0.003   1.329   0.484  1.00  0.00     0.027 A 
ATOM      4  C   UNL     1       0.300   1.224  -0.879  1.00  0.00     0.043 A 
ATOM      5  C   UNL     1      -0.767   1.226  -1.786  1.00  0.00     0.066 A 
ATOM      6  C   UNL     1      -2.087   1.274  -1.334  1.00  0.00     0.133 A 
ATOM      7  F   UNL     1      -3.070   1.256  -2.248  1.00  0.00    -0.206 F 
ENDROOT
BRANCH   1   8
ATOM      8  C   UNL     1      -3.782   1.405   0.515  1.00  0.00     0.001 A 
ATOM      9  C   UNL     1      -7.020  -0.426   0.516  1.00  0.00     0.139 A 
ATOM     10  N   UNL     1      -8.063   0.062   1.164  1.00  0.00    -0.134 NA
ATOM     11  N   UNL     1      -5.951   0.440   0.671  1.00  0.00    -0.286 N 
ATOM     12  N   UNL     1      -7.704   1.250   1.749  1.00  0.00    -0.130 NA
ATOM     13  C   UNL     1      -4.634   0.403   0.210  1.00  0.00     0.103 A 
ATOM     14  C   UNL     1      -6.445   1.474   1.454  1.00  0.00     0.160 A 
ATOM     15  C   UNL     1      -5.563   2.536   1.784  1.00  0.00     0.050 A 
ATOM     16  C   UNL     1      -4.293   2.506   1.339  1.00  0.00     0.014 A 
BRANCH   9  17
ATOM     17  C   UNL     1      -7.037  -1.715  -0.250  1.00  0.00     0.052 C 
ATOM     18  C   UNL     1      -6.103  -2.765   0.347  1.00  0.00     0.016 C 
ATOM     19  C   UNL     1      -6.799  -1.514  -1.744  1.00  0.00     0.016 C 
ENDBRANCH   9  17
ENDBRANCH   1   8
BRANCH   4  20
ATOM     20  N   UNL     1       1.622   1.238  -1.374  1.00  0.00    -0.339 N 
ATOM     21  H   UNL     1       1.666   0.985  -2.356  1.00  0.00     0.168 HD
BRANCH  20  22
ATOM     22  C   UNL     1       2.811   0.829  -0.726  1.00  0.00     0.149 A 
ATOM     23  C   UNL     1       4.041   1.146  -1.305  1.00  0.00     0.160 A 
ATOM     24  N   UNL     1       2.791   0.163   0.443  1.00  0.00    -0.234 NA
ATOM     25  N   UNL     1       5.248   0.804  -0.783  1.00  0.00    -0.234 NA
ATOM     26  C   UNL     1       4.003  -0.169   0.969  1.00  0.00     0.160 A 
ATOM     27  C   UNL     1       5.238   0.116   0.378  1.00  0.00     0.147 A 
BRANCH  27  28
ATOM     28  N   UNL     1       6.445  -0.241   0.965  1.00  0.00    -0.351 N 
ATOM     29  C   UNL     1       7.664   0.232   0.289  1.00  0.00     0.146 C 
ATOM     30  C   UNL     1       6.565  -1.543   1.641  1.00  0.00     0.146 C 
ATOM     31  C   UNL     1       8.894  -0.179   1.113  1.00  0.00     0.181 C 
ATOM     32  C   UNL     1       7.797  -2.313   1.132  1.00  0.00     0.181 C 
ATOM     33  O   UNL     1       9.029  -1.598   1.292  1.00  0.00    -0.378 OA
ENDBRANCH  27  28
ENDBRANCH  20  22
ENDBRANCH   4  20
TORSDOF 5
