REMARK SMILES CN1CCN(C(=O)Cn2nccc2-c2cnc3ccc(-c4ccc(Nc5cnc(N6CCOCC6)cn5)cc4)cn23)CC1
REMARK SMILES IDX 14 1 15 2 16 3 17 4 18 5 19 6 20 7 40 8 41 9 13 10 9 11
REMARK SMILES IDX 10 12 11 13 12 14 8 15 6 16 2 17 3 18 43 19 4 20 42 21 5 22
REMARK SMILES IDX 1 23 7 24 21 25 22 26 39 27 23 28 38 29 24 30 25 31 26 33
REMARK SMILES IDX 27 34 37 35 28 36 36 37 29 38 30 39 31 40 35 41 32 42 34 43
REMARK SMILES IDX 33 44
REMARK H PARENT 25 32
ROOT
ATOM      1  C   UNL     1      -3.355  -1.189   1.630  1.00  0.00     0.091 A 
ATOM      2  C   UNL     1      -3.939  -2.186   2.390  1.00  0.00     0.142 A 
ATOM      3  N   UNL     1      -3.007  -3.076   2.858  1.00  0.00    -0.236 NA
ATOM      4  C   UNL     1      -1.852  -2.631   2.414  1.00  0.00     0.137 A 
ATOM      5  C   UNL     1      -0.532  -3.116   2.612  1.00  0.00     0.048 A 
ATOM      6  C   UNL     1       0.504  -2.489   2.029  1.00  0.00     0.014 A 
ATOM      7  C   UNL     1       0.331  -1.309   1.170  1.00  0.00    -0.002 A 
ATOM      8  C   UNL     1      -0.929  -0.854   0.998  1.00  0.00     0.102 A 
ATOM      9  N   UNL     1      -2.002  -1.493   1.627  1.00  0.00    -0.298 N 
ENDROOT
BRANCH   1  10
ATOM     10  C   UNL     1      -3.947  -0.046   1.005  1.00  0.00     0.087 A 
ATOM     11  N   UNL     1      -4.993  -0.055   0.107  1.00  0.00    -0.254 N 
ATOM     12  N   UNL     1      -5.293   1.183  -0.360  1.00  0.00    -0.180 NA
ATOM     13  C   UNL     1      -4.487   1.991   0.328  1.00  0.00     0.136 A 
ATOM     14  C   UNL     1      -3.628   1.285   1.184  1.00  0.00     0.052 A 
BRANCH  11  15
ATOM     15  C   UNL     1      -5.700  -1.191  -0.450  1.00  0.00     0.245 C 
BRANCH  15  16
ATOM     16  C   UNL     1      -7.033  -1.387   0.240  1.00  0.00     0.244 C 
ATOM     17  N   UNL     1     -10.386   1.109  -0.535  1.00  0.00    -0.303 NA
ATOM     18  C   UNL     1      -9.071   1.336  -1.169  1.00  0.00     0.105 C 
ATOM     19  C   UNL     1     -10.636  -0.308  -0.227  1.00  0.00     0.105 C 
ATOM     20  C   UNL     1      -8.250   0.064  -1.466  1.00  0.00     0.135 C 
ATOM     21  C   UNL     1      -9.426  -0.981   0.449  1.00  0.00     0.135 C 
ATOM     22  N   UNL     1      -8.179  -0.829  -0.303  1.00  0.00    -0.339 N 
ATOM     23  C   UNL     1     -11.478   1.692  -1.305  1.00  0.00     0.105 C 
ATOM     24  O   UNL     1      -7.085  -2.053   1.281  1.00  0.00    -0.273 OA
ENDBRANCH  15  16
ENDBRANCH  11  15
ENDBRANCH   1  10
BRANCH   7  25
ATOM     25  C   UNL     1       1.469  -0.611   0.528  1.00  0.00    -0.017 A 
ATOM     26  C   UNL     1       1.573   0.786   0.551  1.00  0.00     0.011 A 
ATOM     27  C   UNL     1       2.491  -1.342  -0.092  1.00  0.00     0.011 A 
ATOM     28  C   UNL     1       2.677   1.431  -0.016  1.00  0.00     0.027 A 
ATOM     29  C   UNL     1       3.606  -0.695  -0.638  1.00  0.00     0.027 A 
ATOM     30  C   UNL     1       3.726   0.696  -0.573  1.00  0.00     0.040 A 
BRANCH  30  31
ATOM     31  N   UNL     1       4.813   1.385  -1.136  1.00  0.00    -0.339 N 
ATOM     32  H   UNL     1       4.637   1.719  -2.079  1.00  0.00     0.168 HD
BRANCH  31  33
ATOM     33  C   UNL     1       6.171   1.059  -1.037  1.00  0.00     0.149 A 
ATOM     34  C   UNL     1       6.730   0.491   0.108  1.00  0.00     0.160 A 
ATOM     35  N   UNL     1       6.959   1.392  -2.076  1.00  0.00    -0.234 NA
ATOM     36  N   UNL     1       8.059   0.250   0.267  1.00  0.00    -0.234 NA
ATOM     37  C   UNL     1       8.289   1.146  -1.911  1.00  0.00     0.160 A 
ATOM     38  C   UNL     1       8.869   0.612  -0.751  1.00  0.00     0.147 A 
BRANCH  38  39
ATOM     39  N   UNL     1      10.264   0.432  -0.643  1.00  0.00    -0.351 N 
ATOM     40  C   UNL     1      10.653  -0.234   0.625  1.00  0.00     0.146 C 
ATOM     41  C   UNL     1      11.023   1.687  -0.851  1.00  0.00     0.146 C 
ATOM     42  C   UNL     1      12.174  -0.440   0.661  1.00  0.00     0.181 C 
ATOM     43  C   UNL     1      12.533   1.411  -0.748  1.00  0.00     0.181 C 
ATOM     44  O   UNL     1      12.876   0.806   0.508  1.00  0.00    -0.378 OA
ENDBRANCH  38  39
ENDBRANCH  31  33
ENDBRANCH  30  31
ENDBRANCH   7  25
TORSDOF 7
