MODEL        2USER    Run = 2USERUSER    Estimated Free Energy of Binding    = -10.88 kcal/mol  [=(1)+(2)+(3)-(4)]USERUSER    (1) Final Intermolecular Energy     = -12.97 kcal/molUSER        vdW + Hbond + desolv Energy     = -12.72 kcal/molUSER        Electrostatic Energy            =  -0.25 kcal/molUSER        Moving Ligand-Fixed Receptor    = -12.97 kcal/molUSER        Moving Ligand-Moving Receptor   =  +0.00 kcal/molUSER    (2) Final Total Internal Energy     =  -1.67 kcal/molUSER    (3) Torsional Free Energy           =  +2.09 kcal/molUSER    (4) Unbound System's Energy         =  -1.67 kcal/molUSERUSERREMARK SMILES CN1CCN(C(=O)Cn2nccc2-c2cnc3ccc(-c4ccc(Nc5cnc(N6CCOCC6)cn5)cc4)cn23)CC1REMARK SMILES IDX 14 1 15 2 16 3 17 4 18 5 19 6 20 7 40 8 41 9 13 10 9 11REMARK SMILES IDX 10 12 11 13 12 14 8 15 6 16 2 17 3 18 43 19 4 20 42 21 5 22REMARK SMILES IDX 1 23 7 24 21 25 22 26 39 27 23 28 38 29 24 30 25 31 26 33REMARK SMILES IDX 27 34 37 35 28 36 36 37 29 38 30 39 31 40 35 41 32 42 34 43REMARK SMILES IDX 33 44REMARK H PARENT 25 32USER                              x       y       z     vdW  Elec       q    TypeUSER                           _______ _______ _______ _____ _____    ______ ____ROOTATOM      1  C   UNL     1      40.721  45.268  20.007 -0.34 +0.00    +0.091 A  ATOM      2  C   UNL     1      41.587  46.283  19.642 -0.34 +0.01    +0.142 A  ATOM      3  N   UNL     1      41.128  46.971  18.549 -0.34 +0.01    -0.236 NA ATOM      4  C   UNL     1      39.978  46.408  18.246 -0.35 -0.02    +0.137 A  ATOM      5  C   UNL     1      39.030  46.720  17.235 -0.39 -0.01    +0.048 A  ATOM      6  C   UNL     1      37.919  45.974  17.110 -0.37 -0.00    +0.014 A  ATOM      7  C   UNL     1      37.639  44.822  17.978 -0.36 +0.00    -0.002 A  ATOM      8  C   UNL     1      38.546  44.543  18.940 -0.30 -0.01    +0.102 A  ATOM      9  N   UNL     1      39.688  45.336  19.084 -0.23 +0.01    -0.298 N  ENDROOTBRANCH   1  10ATOM     10  C   UNL     1      40.788  44.355  21.107 -0.27 +0.01    +0.087 A  ATOM     11  N   UNL     1      39.764  44.044  21.976 -0.13 -0.01    -0.254 N  ATOM     12  N   UNL     1      40.151  43.190  22.957 -0.18 -0.01    -0.180 NA ATOM     13  C   UNL     1      41.410  42.886  22.642 -0.25 +0.00    +0.136 A  ATOM     14  C   UNL     1      41.859  43.582  21.509 -0.32 +0.00    +0.052 A  BRANCH  11  15ATOM     15  C   UNL     1      38.420  44.584  22.023 -0.25 +0.01    +0.245 C  BRANCH  15  16ATOM     16  C   UNL     1      38.068  45.030  23.426 -0.22 +0.03    +0.244 C  ATOM     17  N   UNL     1      35.954  42.535  26.143 -0.22 +0.04    -0.303 NA ATOM     18  C   UNL     1      36.249  42.118  24.757 -0.29 -0.00    +0.105 C  ATOM     19  C   UNL     1      36.963  43.454  26.692 -0.34 -0.01    +0.105 C  ATOM     20  C   UNL     1      37.579  42.643  24.176 -0.33 +0.01    +0.135 C  ATOM     21  C   UNL     1      37.328  44.579  25.703 -0.29 -0.00    +0.135 C  ATOM     22  N   UNL     1      37.739  44.087  24.387 -0.12 -0.02    -0.339 N  ATOM     23  C   UNL     1      35.729  41.396  27.025 -0.59 -0.04    +0.105 C  ATOM     24  O   UNL     1      38.085  46.235  23.702 -0.40 -0.05    -0.273 OA ENDBRANCH  15  16ENDBRANCH  11  15ENDBRANCH   1  10BRANCH   7  25ATOM     25  C   UNL     1      36.415  43.998  17.848 -0.31 +0.00    -0.017 A  ATOM     26  C   UNL     1      35.873  43.692  16.592 -0.37 -0.00    +0.011 A  ATOM     27  C   UNL     1      35.786  43.476  18.986 -0.36 -0.00    +0.011 A  ATOM     28  C   UNL     1      34.745  42.873  16.480 -0.41 -0.01    +0.027 A  ATOM     29  C   UNL     1      34.671  42.638  18.869 -0.39 -0.00    +0.027 A  ATOM     30  C   UNL     1      34.161  42.300  17.612 -0.38 -0.01    +0.040 A  BRANCH  30  31ATOM     31  N   UNL     1      33.026  41.488  17.453 -0.15 +0.14    -0.339 N  ATOM     32  H   UNL     1      33.156  40.736  16.783 -0.31 -0.14    +0.168 HD BRANCH  31  33ATOM     33  C   UNL     1      31.689  41.898  17.393 -0.22 -0.05    +0.149 A  ATOM     34  C   UNL     1      30.629  41.000  17.263 -0.23 -0.03    +0.160 A  ATOM     35  N   UNL     1      31.452  43.223  17.384 -0.15 +0.06    -0.234 NA ATOM     36  N   UNL     1      29.330  41.372  17.109 -0.13 +0.04    -0.234 NA ATOM     37  C   UNL     1      30.149  43.589  17.231 -0.13 -0.03    +0.160 A  ATOM     38  C   UNL     1      29.079  42.698  17.060 -0.14 -0.04    +0.147 A  BRANCH  38  39ATOM     39  N   UNL     1      27.762  43.162  16.861 -0.05 +0.09    -0.351 N  ATOM     40  C   UNL     1      27.673  44.164  15.769 -0.22 -0.07    +0.146 C  ATOM     41  C   UNL     1      27.133  43.660  18.106 -0.23 -0.01    +0.146 C  ATOM     42  C   UNL     1      26.212  44.593  15.574 -0.24 -0.03    +0.181 C  ATOM     43  C   UNL     1      25.694  44.120  17.820 -0.37 -0.01    +0.181 C  ATOM     44  O   UNL     1      25.652  45.119  16.790 -0.69 -0.08    -0.378 OA ENDBRANCH  38  39ENDBRANCH  31  33ENDBRANCH  30  31ENDBRANCH   7  25TORSDOF 7TERENDMDL