REMARK SMILES Cc1cc(-c2nnc3ccc(-c4cnn(CC(=O)N5CCN(C)CC5)c4)cn23)ccc1O
REMARK SMILES IDX 5 1 6 2 7 3 8 4 9 5 10 6 11 7 27 8 28 9 4 10 2 11 3 12 31 13
REMARK SMILES IDX 30 14 29 15 1 16 32 17 12 19 13 20 26 21 14 22 15 23 16 24
REMARK SMILES IDX 17 25 19 26 20 27 25 28 21 29 24 30 22 31 18 32 23 33
REMARK H PARENT 32 18
ROOT
ATOM      1  C   UNL     1      -4.107   0.474   2.033  1.00  0.00     0.168 A 
ATOM      2  N   UNL     1      -4.685   0.627   3.213  1.00  0.00    -0.129 NA
ATOM      3  N   UNL     1      -3.793   0.263   4.193  1.00  0.00    -0.130 NA
ATOM      4  C   UNL     1      -2.693  -0.139   3.601  1.00  0.00     0.161 A 
ATOM      5  C   UNL     1      -1.460  -0.626   4.099  1.00  0.00     0.050 A 
ATOM      6  C   UNL     1      -0.500  -1.012   3.235  1.00  0.00     0.014 A 
ATOM      7  C   UNL     1      -0.678  -0.958   1.774  1.00  0.00     0.002 A 
ATOM      8  C   UNL     1      -1.858  -0.471   1.326  1.00  0.00     0.103 A 
ATOM      9  N   UNL     1      -2.841  -0.054   2.226  1.00  0.00    -0.282 N 
ENDROOT
BRANCH   1  10
ATOM     10  C   UNL     1      -4.727   0.778   0.745  1.00  0.00     0.020 A 
ATOM     11  C   UNL     1      -6.659   0.573  -0.749  1.00  0.00    -0.009 A 
ATOM     12  C   UNL     1      -6.021   0.305   0.475  1.00  0.00     0.019 A 
ATOM     13  C   UNL     1      -5.976   1.345  -1.695  1.00  0.00     0.118 A 
ATOM     14  C   UNL     1      -4.700   1.838  -1.434  1.00  0.00     0.047 A 
ATOM     15  C   UNL     1      -4.078   1.563  -0.216  1.00  0.00     0.016 A 
ATOM     16  C   UNL     1      -8.041   0.039  -0.990  1.00  0.00     0.048 C 
BRANCH  13  17
ATOM     17  O   UNL     1      -6.506   1.669  -2.911  1.00  0.00    -0.508 OA
ATOM     18  H   UNL     1      -7.417   1.341  -2.964  1.00  0.00     0.293 HD
ENDBRANCH  13  17
ENDBRANCH   1  10
BRANCH   7  19
ATOM     19  C   UNL     1       0.360  -1.407   0.892  1.00  0.00     0.021 A 
ATOM     20  C   UNL     1       1.407  -2.321   1.144  1.00  0.00     0.143 A 
ATOM     21  C   UNL     1       0.552  -1.033  -0.422  1.00  0.00     0.118 A 
ATOM     22  N   UNL     1       2.198  -2.500   0.085  1.00  0.00    -0.180 NA
ATOM     23  N   UNL     1       1.672  -1.696  -0.855  1.00  0.00    -0.263 N 
BRANCH  23  24
ATOM     24  C   UNL     1       2.252  -1.616  -2.184  1.00  0.00     0.244 C 
BRANCH  24  25
ATOM     25  C   UNL     1       3.766  -1.575  -2.197  1.00  0.00     0.244 C 
ATOM     26  N   UNL     1       4.420  -0.417  -1.790  1.00  0.00    -0.339 N 
ATOM     27  C   UNL     1       3.803   0.740  -1.138  1.00  0.00     0.135 C 
ATOM     28  C   UNL     1       5.881  -0.439  -1.671  1.00  0.00     0.135 C 
ATOM     29  C   UNL     1       4.250   0.844   0.337  1.00  0.00     0.105 C 
ATOM     30  C   UNL     1       6.308  -0.327  -0.190  1.00  0.00     0.105 C 
ATOM     31  N   UNL     1       5.715   0.820   0.540  1.00  0.00    -0.303 NA
ATOM     32  O   UNL     1       4.393  -2.539  -2.650  1.00  0.00    -0.273 OA
ATOM     33  C   UNL     1       6.341   2.085   0.162  1.00  0.00     0.105 C 
ENDBRANCH  24  25
ENDBRANCH  23  24
ENDBRANCH   7  19
TORSDOF 5
