MODEL        8USER    Run = 8USERUSER    Estimated Free Energy of Binding    =  -9.08 kcal/mol  [=(1)+(2)+(3)-(4)]USERUSER    (1) Final Intermolecular Energy     = -12.06 kcal/molUSER        vdW + Hbond + desolv Energy     = -12.02 kcal/molUSER        Electrostatic Energy            =  -0.05 kcal/molUSER        Moving Ligand-Fixed Receptor    = -12.06 kcal/molUSER        Moving Ligand-Moving Receptor   =  +0.00 kcal/molUSER    (2) Final Total Internal Energy     =  -2.52 kcal/molUSER    (3) Torsional Free Energy           =  +2.98 kcal/molUSER    (4) Unbound System's Energy         =  -2.52 kcal/molUSERUSERREMARK SMILES C[C@H]1C[C@@H]1Nc1ccc(F)nc1-c1n[nH]cc1C(=O)N(CCN)Cc1ccc2c(c1)OCO2REMARK SMILES IDX 18 1 19 2 17 3 13 4 14 5 15 6 16 7 12 9 6 10 7 11 8 12 11 13REMARK SMILES IDX 9 14 10 15 5 16 4 18 2 19 3 20 1 21 20 22 21 23 22 24 23 25REMARK SMILES IDX 24 28 25 29 26 30 30 31 27 32 29 33 28 34 31 35 33 36 32 37REMARK H PARENT 15 8 5 17 23 26 23 27USER                              x       y       z     vdW  Elec       q    TypeUSER                           _______ _______ _______ _____ _____    ______ ____ROOTATOM      1  C   UNL     1      35.000  45.789  17.898 -0.29 -0.15    +0.258 C  ATOM      2  O   UNL     1      34.642  46.931  18.189 -0.69 +0.24    -0.269 OA ENDROOTBRANCH   1   3ATOM      3  C   UNL     1      34.551  44.684  18.714 -0.33 -0.03    +0.087 A  ATOM      4  C   UNL     1      33.446  43.824  18.475 -0.27 -0.03    +0.125 A  ATOM      5  N   UNL     1      33.352  42.889  19.438 -0.58 +0.00    -0.173 NA ATOM      6  N   UNL     1      34.389  43.140  20.250 -0.17 -0.02    -0.284 N  ATOM      7  C   UNL     1      35.151  44.195  19.854 -0.30 -0.02    +0.119 A  ATOM      8  H   UNL     1      34.518  42.540  21.059 +0.13 +0.06    +0.189 HD BRANCH   4   9ATOM      9  C   UNL     1      32.496  43.915  17.365 -0.22 -0.04    +0.118 A  ATOM     10  C   UNL     1      31.959  42.761  16.751 -0.27 -0.03    +0.063 A  ATOM     11  C   UNL     1      31.019  42.991  15.740 -0.33 -0.02    +0.033 A  ATOM     12  C   UNL     1      30.711  44.291  15.340 -0.31 -0.04    +0.062 A  ATOM     13  N   UNL     1      32.236  45.193  16.967 -0.46 +0.08    -0.216 NA ATOM     14  C   UNL     1      31.345  45.341  15.974 -0.18 -0.09    +0.213 A  ATOM     15  F   UNL     1      31.069  46.589  15.572 -0.17 +0.09    -0.185 F  BRANCH  10  16ATOM     16  N   UNL     1      32.251  41.447  17.200 -0.04 +0.16    -0.380 N  ATOM     17  H   UNL     1      33.160  41.118  16.870 -0.35 -0.11    +0.160 HD BRANCH  16  18ATOM     18  C   UNL     1      31.218  40.412  17.272 -0.32 -0.02    +0.082 C  ATOM     19  C   UNL     1      29.877  40.694  17.895 -0.31 -0.00    +0.010 C  ATOM     20  C   UNL     1      30.864  39.813  18.609 -0.40 +0.00    +0.030 C  ATOM     21  C   UNL     1      28.637  40.112  17.310 -0.33 +0.00    +0.010 C  ENDBRANCH  16  18ENDBRANCH  10  16ENDBRANCH   4   9ENDBRANCH   1   3BRANCH   1  22ATOM     22  N   UNL     1      35.861  45.508  16.840 -0.12 +0.19    -0.333 N  BRANCH  22  23ATOM     23  C   UNL     1      36.410  44.151  16.757 -0.31 -0.05    +0.135 C  BRANCH  23  24ATOM     24  C   UNL     1      35.698  43.223  15.748 -0.40 -0.04    +0.099 C  BRANCH  24  25ATOM     25  N   UNL     1      34.942  42.129  16.358 -0.19 +0.16    -0.329 NA ATOM     26  H   UNL     1      34.211  41.817  15.710 -0.47 -0.08    +0.118 HD ATOM     27  H   UNL     1      35.553  41.333  16.526 -0.42 -0.08    +0.118 HD ENDBRANCH  24  25ENDBRANCH  23  24ENDBRANCH  22  23BRANCH  22  28ATOM     28  C   UNL     1      36.244  46.466  15.796 -0.32 -0.12    +0.155 C  BRANCH  28  29ATOM     29  C   UNL     1      37.628  47.045  15.981 -0.39 +0.01    -0.025 A  ATOM     30  C   UNL     1      38.113  48.029  15.086 -0.51 -0.01    +0.009 A  ATOM     31  C   UNL     1      38.437  46.625  17.050 -0.35 -0.02    +0.056 A  ATOM     32  C   UNL     1      39.391  48.578  15.243 -0.50 -0.02    +0.051 A  ATOM     33  C   UNL     1      39.689  47.186  17.181 -0.33 -0.04    +0.166 A  ATOM     34  C   UNL     1      40.155  48.133  16.298 -0.40 -0.04    +0.165 A  ATOM     35  O   UNL     1      40.595  46.891  18.150 -0.22 +0.04    -0.454 OA ATOM     36  O   UNL     1      41.413  48.550  16.599 -0.74 +0.01    -0.454 OA ATOM     37  C   UNL     1      41.683  47.764  17.779 -0.13 -0.03    +0.468 C  ENDBRANCH  28  29ENDBRANCH  22  28ENDBRANCH   1  22TORSDOF 10TERENDMDL