MODEL        2USER    Run = 2USERUSER    Estimated Free Energy of Binding    =  -8.61 kcal/mol  [=(1)+(2)+(3)-(4)]USERUSER    (1) Final Intermolecular Energy     = -11.59 kcal/molUSER        vdW + Hbond + desolv Energy     = -11.58 kcal/molUSER        Electrostatic Energy            =  -0.02 kcal/molUSER        Moving Ligand-Fixed Receptor    = -11.59 kcal/molUSER        Moving Ligand-Moving Receptor   =  +0.00 kcal/molUSER    (2) Final Total Internal Energy     =  -3.99 kcal/molUSER    (3) Torsional Free Energy           =  +2.98 kcal/molUSER    (4) Unbound System's Energy         =  -3.99 kcal/molUSERUSERREMARK SMILES NCCN(Cc1ccc2c(c1)OCO2)C(=O)c1c[nH]nc1-c1nc(Cl)ccc1N[C@H]1C[C@@H]1FREMARK SMILES IDX 15 1 16 2 4 3 3 4 2 5 1 6 5 9 6 10 7 11 11 12 8 13 10 14REMARK SMILES IDX 9 15 12 16 14 17 13 18 17 19 18 20 21 21 19 22 20 23 22 25REMARK SMILES IDX 23 26 28 27 24 28 27 29 26 30 25 31 29 32 30 34 31 35 32 36REMARK SMILES IDX 33 37REMARK H PARENT 1 7 1 8 19 24 29 33USER                              x       y       z     vdW  Elec       q    TypeUSER                           _______ _______ _______ _____ _____    ______ ____ROOTATOM      1  C   UNL     1      40.694  45.278  18.948 -0.33 +0.00    +0.258 C  ATOM      2  O   UNL     1      40.498  44.449  18.064 -0.24 +0.00    -0.269 OA ENDROOTBRANCH   1   3ATOM      3  N   UNL     1      40.185  45.142  20.241 -0.17 -0.01    -0.333 N  BRANCH   3   4ATOM      4  C   UNL     1      38.790  45.393  20.625 -0.26 +0.00    +0.135 C  BRANCH   4   5ATOM      5  C   UNL     1      37.812  44.368  20.026 -0.36 -0.00    +0.099 C  BRANCH   5   6ATOM      6  N   UNL     1      37.965  44.258  18.573 -0.13 +0.04    -0.329 NA ATOM      7  H   UNL     1      38.593  43.483  18.359 +0.09 -0.01    +0.118 HD ATOM      8  H   UNL     1      38.434  45.096  18.229 +0.07 -0.02    +0.118 HD ENDBRANCH   5   6ENDBRANCH   4   5ENDBRANCH   3   4BRANCH   3   9ATOM      9  C   UNL     1      41.129  44.848  21.315 -0.27 +0.01    +0.155 C  BRANCH   9  10ATOM     10  C   UNL     1      41.107  45.910  22.393 -0.22 -0.00    -0.025 A  ATOM     11  C   UNL     1      40.098  45.903  23.384 -0.23 +0.00    +0.009 A  ATOM     12  C   UNL     1      42.099  46.905  22.421 -0.24 +0.01    +0.056 A  ATOM     13  C   UNL     1      40.072  46.874  24.392 -0.21 +0.00    +0.051 A  ATOM     14  C   UNL     1      42.047  47.848  23.426 -0.23 +0.03    +0.166 A  ATOM     15  C   UNL     1      41.061  47.833  24.383 -0.20 +0.02    +0.165 A  ATOM     16  O   UNL     1      42.923  48.872  23.601 -0.82 -0.14    -0.454 OA ATOM     17  O   UNL     1      41.192  48.846  25.280 -0.16 -0.07    -0.454 OA ATOM     18  C   UNL     1      42.368  49.508  24.771 -0.04 +0.12    +0.468 C  ENDBRANCH   9  10ENDBRANCH   3   9ENDBRANCH   1   3BRANCH   1  19ATOM     19  C   UNL     1      41.441  46.484  18.644 -0.45 +0.00    +0.087 A  ATOM     20  C   UNL     1      42.547  46.943  19.329 -0.43 +0.02    +0.119 A  ATOM     21  C   UNL     1      41.149  47.496  17.675 -0.42 -0.01    +0.125 A  ATOM     22  N   UNL     1      42.863  48.140  18.771 -0.33 -0.00    -0.284 N  ATOM     23  N   UNL     1      42.042  48.506  17.774 -0.56 -0.01    -0.173 NA ATOM     24  H   UNL     1      43.618  48.768  19.029 -0.50 -0.04    +0.189 HD BRANCH  21  25ATOM     25  C   UNL     1      40.043  47.499  16.690 -0.42 -0.03    +0.116 A  ATOM     26  N   UNL     1      38.889  46.940  17.145 -0.28 +0.07    -0.232 NA ATOM     27  C   UNL     1      40.173  48.057  15.396 -0.50 -0.01    +0.063 A  ATOM     28  C   UNL     1      37.831  46.955  16.317 -0.29 -0.07    +0.130 A  ATOM     29  C   UNL     1      39.034  48.033  14.578 -0.50 -0.01    +0.031 A  ATOM     30  C   UNL     1      37.843  47.484  15.043 -0.44 -0.02    +0.043 A  ATOM     31  Cl  UNL     1      36.421  46.221  16.960 -0.51 +0.04    -0.062 Cl BRANCH  27  32ATOM     32  N   UNL     1      41.409  48.545  14.898 -0.19 +0.02    -0.377 N  ATOM     33  H   UNL     1      42.154  48.376  15.592 +0.15 +0.02    +0.161 HD BRANCH  32  34ATOM     34  C   UNL     1      41.480  49.789  14.129 -0.62 -0.03    +0.116 C  ATOM     35  C   UNL     1      42.531  50.816  14.467 -0.60 -0.01    +0.067 C  ATOM     36  C   UNL     1      42.603  50.073  13.176 -0.58 -0.05    +0.191 C  ATOM     37  F   UNL     1      42.292  50.767  12.020 -0.17 +0.12    -0.245 F  ENDBRANCH  32  34ENDBRANCH  27  32ENDBRANCH  21  25ENDBRANCH   1  19TORSDOF 10TERENDMDL