REMARK SMILES NCCN(Cc1ccc2c(c1)OCO2)C(=O)c1c[nH]nc1-c1nc(Cl)ccc1N[C@H]1C[C@@H]1F
REMARK SMILES IDX 15 1 16 2 4 3 3 4 2 5 1 6 5 9 6 10 7 11 11 12 8 13 10 14
REMARK SMILES IDX 9 15 12 16 14 17 13 18 17 19 18 20 21 21 19 22 20 23 22 25
REMARK SMILES IDX 23 26 28 27 24 28 27 29 26 30 25 31 29 32 30 34 31 35 32 36
REMARK SMILES IDX 33 37
REMARK H PARENT 1 7 1 8 19 24 29 33
ROOT
ATOM      1  C   UNL     1      -0.688   0.724  -0.321  1.00  0.00     0.258 C 
ATOM      2  O   UNL     1      -0.738   1.603  -1.178  1.00  0.00    -0.269 OA
ENDROOT
BRANCH   1   3
ATOM      3  N   UNL     1      -1.550  -0.374  -0.311  1.00  0.00    -0.333 N 
BRANCH   3   4
ATOM      4  C   UNL     1      -1.508  -1.466   0.670  1.00  0.00     0.135 C 
BRANCH   4   5
ATOM      5  C   UNL     1      -0.584  -2.618   0.242  1.00  0.00     0.099 C 
BRANCH   5   6
ATOM      6  N   UNL     1      -0.611  -3.721   1.206  1.00  0.00    -0.329 NA
ATOM      7  H   UNL     1      -0.215  -3.404   2.091  1.00  0.00     0.118 HD
ATOM      8  H   UNL     1       0.010  -4.460   0.875  1.00  0.00     0.118 HD
ENDBRANCH   5   6
ENDBRANCH   4   5
ENDBRANCH   3   4
BRANCH   3   9
ATOM      9  C   UNL     1      -2.482  -0.515  -1.426  1.00  0.00     0.155 C 
BRANCH   9  10
ATOM     10  C   UNL     1      -3.893  -0.133  -1.035  1.00  0.00    -0.025 A 
ATOM     11  C   UNL     1      -4.881  -1.129  -0.857  1.00  0.00     0.009 A 
ATOM     12  C   UNL     1      -4.226   1.217  -0.835  1.00  0.00     0.056 A 
ATOM     13  C   UNL     1      -6.187  -0.790  -0.486  1.00  0.00     0.051 A 
ATOM     14  C   UNL     1      -5.521   1.521  -0.470  1.00  0.00     0.166 A 
ATOM     15  C   UNL     1      -6.474   0.545  -0.301  1.00  0.00     0.165 A 
ATOM     16  O   UNL     1      -6.009   2.768  -0.236  1.00  0.00    -0.454 OA
ATOM     17  O   UNL     1      -7.682   1.055   0.059  1.00  0.00    -0.454 OA
ATOM     18  C   UNL     1      -7.382   2.466   0.087  1.00  0.00     0.468 C 
ENDBRANCH   9  10
ENDBRANCH   3   9
ENDBRANCH   1   3
BRANCH   1  19
ATOM     19  C   UNL     1       0.266   0.840   0.766  1.00  0.00     0.087 A 
ATOM     20  C   UNL     1      -0.001   1.340   2.024  1.00  0.00     0.119 A 
ATOM     21  C   UNL     1       1.673   0.581   0.752  1.00  0.00     0.125 A 
ATOM     22  N   UNL     1       1.187   1.353   2.681  1.00  0.00    -0.284 N 
ATOM     23  N   UNL     1       2.217   0.905   1.946  1.00  0.00    -0.173 NA
ATOM     24  H   UNL     1       1.371   1.666   3.629  1.00  0.00     0.189 HD
BRANCH  21  25
ATOM     25  C   UNL     1       2.474   0.048  -0.374  1.00  0.00     0.116 A 
ATOM     26  N   UNL     1       1.733  -0.483  -1.384  1.00  0.00    -0.232 NA
ATOM     27  C   UNL     1       3.888   0.107  -0.402  1.00  0.00     0.063 A 
ATOM     28  C   UNL     1       2.397  -0.940  -2.459  1.00  0.00     0.130 A 
ATOM     29  C   UNL     1       4.520  -0.395  -1.549  1.00  0.00     0.031 A 
ATOM     30  C   UNL     1       3.769  -0.919  -2.597  1.00  0.00     0.043 A 
ATOM     31  Cl  UNL     1       1.393  -1.603  -3.680  1.00  0.00    -0.062 Cl
BRANCH  27  32
ATOM     32  N   UNL     1       4.652   0.570   0.700  1.00  0.00    -0.377 N 
ATOM     33  H   UNL     1       4.028   1.001   1.399  1.00  0.00     0.161 HD
BRANCH  32  34
ATOM     34  C   UNL     1       5.968   1.184   0.508  1.00  0.00     0.116 C 
ATOM     35  C   UNL     1       6.896   1.342   1.685  1.00  0.00     0.067 C 
ATOM     36  C   UNL     1       7.237   0.389   0.589  1.00  0.00     0.191 C 
ATOM     37  F   UNL     1       8.262   0.743  -0.270  1.00  0.00    -0.245 F 
ENDBRANCH  32  34
ENDBRANCH  27  32
ENDBRANCH  21  25
ENDBRANCH   1  19
TORSDOF 10
