MODEL        1USER    Run = 1USERUSER    Estimated Free Energy of Binding    =  -8.32 kcal/mol  [=(1)+(2)+(3)-(4)]USERUSER    (1) Final Intermolecular Energy     = -11.31 kcal/molUSER        vdW + Hbond + desolv Energy     = -11.16 kcal/molUSER        Electrostatic Energy            =  -0.15 kcal/molUSER        Moving Ligand-Fixed Receptor    = -11.31 kcal/molUSER        Moving Ligand-Moving Receptor   =  +0.00 kcal/molUSER    (2) Final Total Internal Energy     =  -4.04 kcal/molUSER    (3) Torsional Free Energy           =  +2.98 kcal/molUSER    (4) Unbound System's Energy         =  -4.04 kcal/molUSERUSERREMARK SMILES C[C@H]1C[C@@H]1Nc1ccc(Cl)nc1-c1n[nH]cc1C(=O)N(CCN)Cc1ccc2c(c1)OCO2REMARK SMILES IDX 18 1 19 2 17 3 13 4 14 5 15 6 16 7 12 9 6 10 7 11 8 12 11 13REMARK SMILES IDX 9 14 10 15 5 16 4 18 2 19 3 20 1 21 20 22 21 23 22 24 23 25REMARK SMILES IDX 24 28 25 29 26 30 30 31 27 32 29 33 28 34 31 35 33 36 32 37REMARK H PARENT 15 8 5 17 23 26 23 27USER                              x       y       z     vdW  Elec       q    TypeUSER                           _______ _______ _______ _____ _____    ______ ____ROOTATOM      1  C   UNL     1      38.860  45.104  21.995 -0.24 +0.01    +0.258 C  ATOM      2  O   UNL     1      38.438  46.244  22.184 -0.20 -0.04    -0.269 OA ENDROOTBRANCH   1   3ATOM      3  C   UNL     1      38.062  43.980  22.429 -0.30 +0.01    +0.087 A  ATOM      4  C   UNL     1      37.465  43.780  23.705 -0.26 +0.01    +0.125 A  ATOM      5  N   UNL     1      36.776  42.624  23.734 -0.31 -0.01    -0.173 NA ATOM      6  N   UNL     1      36.910  42.124  22.496 -0.31 -0.02    -0.284 N  ATOM      7  C   UNL     1      37.655  42.906  21.667 -0.29 +0.00    +0.119 A  ATOM      8  H   UNL     1      36.456  41.241  22.285 +0.11 +0.01    +0.189 HD BRANCH   4   9ATOM      9  C   UNL     1      37.578  44.666  24.865 -0.25 +0.01    +0.116 A  ATOM     10  C   UNL     1      37.551  44.164  26.187 -0.25 -0.00    +0.063 A  ATOM     11  C   UNL     1      37.706  45.116  27.203 -0.30 -0.00    +0.031 A  ATOM     12  C   UNL     1      37.809  46.473  26.899 -0.28 -0.00    +0.043 A  ATOM     13  N   UNL     1      37.643  45.988  24.544 -0.60 -0.05    -0.232 NA ATOM     14  C   UNL     1      37.766  46.844  25.570 -0.26 +0.01    +0.130 A  ATOM     15  Cl  UNL     1      37.855  48.495  25.116 -0.59 -0.01    -0.062 Cl BRANCH  10  16ATOM     16  N   UNL     1      37.496  42.778  26.480 -0.07 +0.04    -0.380 N  ATOM     17  H   UNL     1      37.840  42.200  25.711 +0.10 -0.01    +0.160 HD BRANCH  16  18ATOM     18  C   UNL     1      36.392  42.190  27.238 -0.49 -0.02    +0.082 C  ATOM     19  C   UNL     1      35.071  41.883  26.583 -0.58 -0.00    +0.010 C  ATOM     20  C   UNL     1      35.182  43.032  27.545 -0.62 -0.01    +0.030 C  ATOM     21  C   UNL     1      34.306  40.663  26.960 -0.59 -0.01    +0.010 C  ENDBRANCH  16  18ENDBRANCH  10  16ENDBRANCH   4   9ENDBRANCH   1   3BRANCH   1  22ATOM     22  N   UNL     1      40.101  44.836  21.418 -0.11 -0.02    -0.333 N  BRANCH  22  23ATOM     23  C   UNL     1      41.277  44.890  22.291 -0.21 +0.01    +0.135 C  BRANCH  23  24ATOM     24  C   UNL     1      41.042  45.572  23.659 -0.15 +0.01    +0.099 C  BRANCH  24  25ATOM     25  N   UNL     1      40.456  46.910  23.578 -0.10 -0.03    -0.329 NA ATOM     26  H   UNL     1      40.385  47.192  22.595 +0.06 +0.01    +0.118 HD ATOM     27  H   UNL     1      39.512  46.904  23.956 +0.05 +0.01    +0.118 HD ENDBRANCH  24  25ENDBRANCH  23  24ENDBRANCH  22  23BRANCH  22  28ATOM     28  C   UNL     1      40.313  44.518  20.001 -0.32 +0.00    +0.155 C  BRANCH  28  29ATOM     29  C   UNL     1      40.683  45.716  19.158 -0.44 -0.00    -0.025 A  ATOM     30  C   UNL     1      41.850  46.461  19.449 -0.46 +0.00    +0.009 A  ATOM     31  C   UNL     1      39.879  46.089  18.067 -0.42 -0.01    +0.056 A  ATOM     32  C   UNL     1      42.209  47.570  18.675 -0.48 +0.00    +0.051 A  ATOM     33  C   UNL     1      40.261  47.185  17.321 -0.37 -0.03    +0.166 A  ATOM     34  C   UNL     1      41.392  47.907  17.619 -0.37 -0.01    +0.165 A  ATOM     35  O   UNL     1      39.599  47.680  16.241 -0.19 +0.14    -0.454 OA ATOM     36  O   UNL     1      41.583  48.950  16.769 -0.82 -0.04    -0.454 OA ATOM     37  C   UNL     1      40.439  48.801  15.899 -0.25 -0.12    +0.468 C  ENDBRANCH  28  29ENDBRANCH  22  28ENDBRANCH   1  22TORSDOF 10TERENDMDL