REMARK SMILES C[C@H]1C[C@@H]1Nc1ccc(Cl)nc1-c1n[nH]cc1C(=O)N(CCC(F)(F)F)Cc1ccc2c(c1)OCO2
REMARK SMILES IDX 18 1 19 2 17 3 13 4 14 5 15 6 16 7 12 9 6 10 7 11 8 12 11 13
REMARK SMILES IDX 9 14 10 15 5 16 4 18 2 19 3 20 1 21 20 22 21 23 22 24 23 25
REMARK SMILES IDX 24 26 25 27 26 28 27 29 28 30 29 31 33 32 30 33 32 34 31 35
REMARK SMILES IDX 34 36 36 37 35 38
REMARK H PARENT 15 8 5 17
ROOT
ATOM      1  C   UNL     1       0.355  -0.428  -0.238  1.00  0.00     0.258 C 
ATOM      2  O   UNL     1      -0.014  -1.515  -0.677  1.00  0.00    -0.269 OA
ENDROOT
BRANCH   1   3
ATOM      3  C   UNL     1      -0.174   0.054   1.023  1.00  0.00     0.087 A 
ATOM      4  C   UNL     1      -1.541   0.356   1.299  1.00  0.00     0.125 A 
ATOM      5  N   UNL     1      -1.678   0.858   2.540  1.00  0.00    -0.173 NA
ATOM      6  N   UNL     1      -0.450   0.768   3.072  1.00  0.00    -0.284 N 
ATOM      7  C   UNL     1       0.488   0.291   2.210  1.00  0.00     0.119 A 
ATOM      8  H   UNL     1      -0.321   1.064   4.032  1.00  0.00     0.189 HD
BRANCH   4   9
ATOM      9  C   UNL     1      -2.630   0.291   0.319  1.00  0.00     0.116 A 
ATOM     10  C   UNL     1      -3.587  -0.743   0.277  1.00  0.00     0.063 A 
ATOM     11  C   UNL     1      -4.440  -0.747  -0.841  1.00  0.00     0.031 A 
ATOM     12  C   UNL     1      -4.340   0.232  -1.825  1.00  0.00     0.043 A 
ATOM     13  N   UNL     1      -2.504   1.250  -0.649  1.00  0.00    -0.232 NA
ATOM     14  C   UNL     1      -3.363   1.192  -1.678  1.00  0.00     0.130 A 
ATOM     15  Cl  UNL     1      -3.116   2.396  -2.877  1.00  0.00    -0.062 Cl
BRANCH  10  16
ATOM     16  N   UNL     1      -3.759  -1.788   1.222  1.00  0.00    -0.380 N 
ATOM     17  H   UNL     1      -4.468  -2.460   0.941  1.00  0.00     0.160 HD
BRANCH  16  18
ATOM     18  C   UNL     1      -3.680  -1.529   2.663  1.00  0.00     0.082 C 
ATOM     19  C   UNL     1      -4.755  -2.049   3.590  1.00  0.00     0.010 C 
ATOM     20  C   UNL     1      -4.629  -0.575   3.341  1.00  0.00     0.030 C 
ATOM     21  C   UNL     1      -4.389  -2.611   4.922  1.00  0.00     0.010 C 
ENDBRANCH  16  18
ENDBRANCH  10  16
ENDBRANCH   4   9
ENDBRANCH   1   3
BRANCH   1  22
ATOM     22  N   UNL     1       1.241   0.399  -0.937  1.00  0.00    -0.334 N 
BRANCH  22  23
ATOM     23  C   UNL     1       1.696   1.721  -0.488  1.00  0.00     0.129 C 
BRANCH  23  24
ATOM     24  C   UNL     1       0.689   2.828  -0.766  1.00  0.00     0.137 C 
BRANCH  24  25
ATOM     25  C   UNL     1       1.251   4.154  -0.320  1.00  0.00     0.390 C 
ATOM     26  F   UNL     1       0.376   5.157  -0.539  1.00  0.00    -0.171 F 
ATOM     27  F   UNL     1       1.546   4.143   0.997  1.00  0.00    -0.171 F 
ATOM     28  F   UNL     1       2.387   4.451  -0.992  1.00  0.00    -0.171 F 
ENDBRANCH  24  25
ENDBRANCH  23  24
ENDBRANCH  22  23
BRANCH  22  29
ATOM     29  C   UNL     1       1.619  -0.011  -2.289  1.00  0.00     0.155 C 
BRANCH  29  30
ATOM     30  C   UNL     1       3.053  -0.484  -2.368  1.00  0.00    -0.025 A 
ATOM     31  C   UNL     1       3.442  -1.679  -1.716  1.00  0.00     0.009 A 
ATOM     32  C   UNL     1       4.005   0.250  -3.095  1.00  0.00     0.056 A 
ATOM     33  C   UNL     1       4.762  -2.138  -1.779  1.00  0.00     0.051 A 
ATOM     34  C   UNL     1       5.298  -0.228  -3.139  1.00  0.00     0.166 A 
ATOM     35  C   UNL     1       5.667  -1.387  -2.497  1.00  0.00     0.165 A 
ATOM     36  O   UNL     1       6.336   0.353  -3.799  1.00  0.00    -0.454 OA
ATOM     37  O   UNL     1       6.983  -1.681  -2.671  1.00  0.00    -0.454 OA
ATOM     38  C   UNL     1       7.398  -0.577  -3.502  1.00  0.00     0.468 C 
ENDBRANCH  29  30
ENDBRANCH  22  29
ENDBRANCH   1  22
TORSDOF 10
