MODEL        2USER    Run = 2USERUSER    Estimated Free Energy of Binding    =  -9.72 kcal/mol  [=(1)+(2)+(3)-(4)]USERUSER    (1) Final Intermolecular Energy     = -12.70 kcal/molUSER        vdW + Hbond + desolv Energy     = -12.63 kcal/molUSER        Electrostatic Energy            =  -0.07 kcal/molUSER        Moving Ligand-Fixed Receptor    = -12.70 kcal/molUSER        Moving Ligand-Moving Receptor   =  +0.00 kcal/molUSER    (2) Final Total Internal Energy     =  -2.08 kcal/molUSER    (3) Torsional Free Energy           =  +2.98 kcal/molUSER    (4) Unbound System's Energy         =  -2.08 kcal/molUSERUSERREMARK SMILES C[C@H]1C[C@@H]1Nc1ccc(Cl)nc1-c1n[nH]cc1C(=O)N(CCC(F)(F)F)Cc1ccc2c(c1)OCO2REMARK SMILES IDX 18 1 19 2 17 3 13 4 14 5 15 6 16 7 12 9 6 10 7 11 8 12 11 13REMARK SMILES IDX 9 14 10 15 5 16 4 18 2 19 3 20 1 21 20 22 21 23 22 24 23 25REMARK SMILES IDX 24 26 25 27 26 28 27 29 28 30 29 31 33 32 30 33 32 34 31 35REMARK SMILES IDX 34 36 36 37 35 38REMARK H PARENT 15 8 5 17USER                              x       y       z     vdW  Elec       q    TypeUSER                           _______ _______ _______ _____ _____    ______ ____ROOTATOM      1  C   UNL     1      40.171  45.074  19.349 -0.31 -0.00    +0.258 C  ATOM      2  O   UNL     1      39.642  44.530  18.383 -0.27 +0.02    -0.269 OA ENDROOTBRANCH   1   3ATOM      3  C   UNL     1      41.078  46.187  19.139 -0.41 +0.00    +0.087 A  ATOM      4  C   UNL     1      40.984  47.160  18.100 -0.41 -0.01    +0.125 A  ATOM      5  N   UNL     1      42.030  48.006  18.143 -0.51 +0.00    -0.173 NA ATOM      6  N   UNL     1      42.702  47.647  19.247 -0.37 -0.02    -0.284 N  ATOM      7  C   UNL     1      42.175  46.566  19.883 -0.36 +0.02    +0.119 A  ATOM      8  H   UNL     1      43.525  48.180  19.501 -0.49 -0.01    +0.189 HD BRANCH   4   9ATOM      9  C   UNL     1      39.985  47.150  17.027 -0.41 -0.02    +0.116 A  ATOM     10  C   UNL     1      40.180  47.753  15.768 -0.49 -0.01    +0.063 A  ATOM     11  C   UNL     1      39.050  47.813  14.933 -0.49 -0.01    +0.031 A  ATOM     12  C   UNL     1      37.828  47.285  15.338 -0.41 -0.02    +0.043 A  ATOM     13  N   UNL     1      38.786  46.644  17.450 -0.27 +0.07    -0.232 NA ATOM     14  C   UNL     1      37.757  46.722  16.593 -0.27 -0.06    +0.130 A  ATOM     15  Cl  UNL     1      36.274  46.112  17.208 -0.50 +0.04    -0.062 Cl BRANCH  10  16ATOM     16  N   UNL     1      41.379  48.327  15.271 -0.13 +0.02    -0.380 N  ATOM     17  H   UNL     1      42.147  48.272  15.935 -0.05 +0.02    +0.160 HD BRANCH  16  18ATOM     18  C   UNL     1      41.356  49.535  14.441 -0.66 -0.02    +0.082 C  ATOM     19  C   UNL     1      42.614  50.009  13.750 -0.72 -0.00    +0.010 C  ATOM     20  C   UNL     1      42.038  50.804  14.885 -0.58 -0.01    +0.030 C  ATOM     21  C   UNL     1      42.550  50.546  12.360 -0.72 -0.00    +0.010 C  ENDBRANCH  16  18ENDBRANCH  10  16ENDBRANCH   4   9ENDBRANCH   1   3BRANCH   1  22ATOM     22  N   UNL     1      39.971  44.630  20.661 -0.14 -0.01    -0.334 N  BRANCH  22  23ATOM     23  C   UNL     1      40.833  43.675  21.370 -0.22 +0.01    +0.129 C  BRANCH  23  24ATOM     24  C   UNL     1      41.671  44.322  22.464 -0.21 +0.01    +0.137 C  BRANCH  24  25ATOM     25  C   UNL     1      43.083  43.799  22.403 -0.14 +0.06    +0.390 C  ATOM     26  F   UNL     1      43.234  42.908  21.402 -0.10 -0.02    -0.171 F  ATOM     27  F   UNL     1      43.968  44.799  22.203 -0.07 -0.08    -0.171 F  ATOM     28  F   UNL     1      43.422  43.177  23.556 -0.06 -0.00    -0.171 F  ENDBRANCH  24  25ENDBRANCH  23  24ENDBRANCH  22  23BRANCH  22  29ATOM     29  C   UNL     1      38.726  45.019  21.320 -0.30 +0.01    +0.155 C  BRANCH  29  30ATOM     30  C   UNL     1      37.569  44.120  20.946 -0.37 -0.00    -0.025 A  ATOM     31  C   UNL     1      37.252  43.001  21.754 -0.41 +0.00    +0.009 A  ATOM     32  C   UNL     1      36.798  44.391  19.804 -0.33 -0.00    +0.056 A  ATOM     33  C   UNL     1      36.184  42.157  21.429 -0.47 +0.00    +0.051 A  ATOM     34  C   UNL     1      35.752  43.542  19.510 -0.28 -0.02    +0.166 A  ATOM     35  C   UNL     1      35.455  42.454  20.298 -0.34 +0.00    +0.165 A  ATOM     36  O   UNL     1      34.905  43.663  18.452 -0.05 +0.11    -0.454 OA ATOM     37  O   UNL     1      34.386  41.753  19.835 -0.19 -0.03    -0.454 OA ATOM     38  C   UNL     1      34.040  42.529  18.669 -0.13 -0.08    +0.468 C  ENDBRANCH  29  30ENDBRANCH  22  29ENDBRANCH   1  22TORSDOF 10TERENDMDL