MODEL        7USER    Run = 7USERUSER    Estimated Free Energy of Binding    = -10.22 kcal/mol  [=(1)+(2)+(3)-(4)]USERUSER    (1) Final Intermolecular Energy     = -12.90 kcal/molUSER        vdW + Hbond + desolv Energy     = -12.64 kcal/molUSER        Electrostatic Energy            =  -0.26 kcal/molUSER        Moving Ligand-Fixed Receptor    = -12.90 kcal/molUSER        Moving Ligand-Moving Receptor   =  +0.00 kcal/molUSER    (2) Final Total Internal Energy     =  -1.73 kcal/molUSER    (3) Torsional Free Energy           =  +2.68 kcal/molUSER    (4) Unbound System's Energy         =  -1.73 kcal/molUSERUSERREMARK SMILES N#Cc1ccc(C2=C(Nc3ccc(OCCCN4CCNCC4)cc3)C(=O)NC2=O)c(F)c1REMARK SMILES IDX 10 1 11 2 12 3 13 4 24 5 25 6 9 7 8 9 7 10 29 11 26 12 28 13REMARK SMILES IDX 30 14 27 15 6 17 3 18 4 19 33 20 5 21 31 22 32 23 2 24 1 25REMARK SMILES IDX 14 26 15 27 16 28 17 29 18 30 19 31 23 32 20 33 22 34 21 35REMARK H PARENT 9 8 28 16 21 36USER                              x       y       z     vdW  Elec       q    TypeUSER                           _______ _______ _______ _____ _____    ______ ____ROOTATOM      1  C   UNL     1      38.897  44.918  18.280 -0.37 -0.00    +0.039 A  ATOM      2  C   UNL     1      38.267  44.519  19.460 -0.34 -0.00    +0.030 A  ATOM      3  C   UNL     1      36.902  44.197  19.484 -0.34 -0.01    +0.048 A  ATOM      4  C   UNL     1      36.146  44.259  18.317 -0.25 -0.03    +0.119 A  ATOM      5  C   UNL     1      36.763  44.668  17.136 -0.30 -0.02    +0.048 A  ATOM      6  C   UNL     1      38.123  44.994  17.115 -0.33 -0.01    +0.030 A  ENDROOTBRANCH   1   7ATOM      7  N   UNL     1      40.270  45.203  18.207 -0.19 +0.02    -0.350 N  ATOM      8  H   UNL     1      40.855  44.441  18.532 +0.10 +0.01    +0.167 HD BRANCH   7   9ATOM      9  C   UNL     1      40.915  46.426  18.160 -0.48 -0.01    +0.118 C  ATOM     10  C   UNL     1      40.744  47.408  17.254 -0.53 -0.01    +0.079 C  ATOM     11  C   UNL     1      41.704  48.492  17.541 -0.07 +0.01    +0.261 C  ATOM     12  C   UNL     1      42.032  46.889  19.052 -0.38 +0.02    +0.275 C  ATOM     13  N   UNL     1      42.444  48.094  18.593 -0.35 -0.00    -0.287 N  ATOM     14  O   UNL     1      41.790  49.551  16.949 -0.95 -0.05    -0.269 OA ATOM     15  O   UNL     1      42.511  46.323  20.020 -0.30 -0.07    -0.267 OA ATOM     16  H   UNL     1      43.174  48.641  19.018 -0.45 -0.02    +0.173 HD BRANCH  10  17ATOM     17  C   UNL     1      39.806  47.432  16.134 -0.49 -0.01    +0.025 A  ATOM     18  C   UNL     1      38.051  47.483  13.940 -0.47 -0.02    +0.055 A  ATOM     19  C   UNL     1      37.877  48.378  15.005 -0.52 -0.01    +0.020 A  ATOM     20  C   UNL     1      39.094  46.557  13.977 -0.20 -0.01    +0.059 A  ATOM     21  C   UNL     1      38.747  48.349  16.100 -0.31 -0.01    +0.013 A  ATOM     22  C   UNL     1      39.962  46.541  15.065 -0.34 -0.02    +0.132 A  ATOM     23  F   UNL     1      40.945  45.628  15.088 +0.01 -0.02    -0.206 F  BRANCH  18  24ATOM     24  C   UNL     1      37.157  47.516  12.821 -0.57 -0.03    +0.099 C  ATOM     25  N   UNL     1      36.437  47.535  11.911 -0.78 +0.09    -0.192 NA ENDBRANCH  18  24ENDBRANCH  10  17ENDBRANCH   7   9ENDBRANCH   1   7BRANCH   4  26ATOM     26  O   UNL     1      34.820  43.963  18.188 -0.01 +0.15    -0.494 OA BRANCH  26  27ATOM     27  C   UNL     1      34.435  42.621  17.894 -0.29 -0.07    +0.231 C  BRANCH  27  28ATOM     28  C   UNL     1      33.019  42.538  17.316 -0.37 -0.02    +0.057 C  BRANCH  28  29ATOM     29  C   UNL     1      32.457  43.933  17.001 -0.31 -0.03    +0.088 C  BRANCH  29  30ATOM     30  N   UNL     1      32.059  44.088  15.592 -0.16 +0.16    -0.301 NA ATOM     31  C   UNL     1      30.669  43.630  15.378 -0.32 -0.06    +0.100 C  ATOM     32  C   UNL     1      32.235  45.483  15.122 -0.39 -0.08    +0.100 C  ATOM     33  C   UNL     1      29.620  44.761  15.329 -0.31 -0.06    +0.096 C  ATOM     34  C   UNL     1      31.301  45.852  13.949 -0.55 -0.07    +0.096 C  ATOM     35  N   UNL     1      29.870  45.777  14.293 -0.22 +0.23    -0.314 NA ATOM     36  H   UNL     1      29.355  45.535  13.449 -0.49 -0.19    +0.122 HD ENDBRANCH  29  30ENDBRANCH  28  29ENDBRANCH  27  28ENDBRANCH  26  27ENDBRANCH   4  26TORSDOF 9TERENDMDL