REMARK SMILES O=C1Nc2ccccc2N(c2ccccc2)c2ccccc21
REMARK SMILES IDX 1 1 2 2 3 3 4 4 5 5 6 6 7 7 8 8 9 9 10 10 17 11 18 12 19 13
REMARK SMILES IDX 20 14 21 15 22 16 11 18 12 19 16 20 13 21 15 22 14 23
REMARK H PARENT 3 17
ROOT
ATOM      1  O   UNL     1      -2.798   1.450   2.418  1.00  0.00    -0.269 OA
ATOM      2  C   UNL     1      -2.250   0.899   1.460  1.00  0.00     0.257 C 
ATOM      3  N   UNL     1      -2.427  -0.444   1.316  1.00  0.00    -0.320 N 
ATOM      4  C   UNL     1      -1.886  -1.371   0.422  1.00  0.00     0.065 A 
ATOM      5  C   UNL     1      -2.567  -2.604   0.365  1.00  0.00     0.028 A 
ATOM      6  C   UNL     1      -2.110  -3.650  -0.432  1.00  0.00     0.002 A 
ATOM      7  C   UNL     1      -0.950  -3.485  -1.170  1.00  0.00     0.002 A 
ATOM      8  C   UNL     1      -0.256  -2.275  -1.100  1.00  0.00     0.029 A 
ATOM      9  C   UNL     1      -0.702  -1.191  -0.306  1.00  0.00     0.070 A 
ATOM     10  N   UNL     1       0.104  -0.008  -0.249  1.00  0.00    -0.308 N 
ATOM     11  C   UNL     1      -0.455   1.307  -0.299  1.00  0.00     0.059 A 
ATOM     12  C   UNL     1       0.149   2.264  -1.152  1.00  0.00     0.027 A 
ATOM     13  C   UNL     1      -0.323   3.574  -1.261  1.00  0.00     0.002 A 
ATOM     14  C   UNL     1      -1.414   3.972  -0.508  1.00  0.00     0.001 A 
ATOM     15  C   UNL     1      -2.020   3.056   0.348  1.00  0.00     0.016 A 
ATOM     16  C   UNL     1      -1.553   1.725   0.456  1.00  0.00     0.064 A 
ATOM     17  H   UNL     1      -3.118  -0.786   1.973  1.00  0.00     0.170 HD
ENDROOT
BRANCH  10  18
ATOM     18  C   UNL     1       1.509  -0.143   0.024  1.00  0.00     0.046 A 
ATOM     19  C   UNL     1       1.950  -0.189   1.356  1.00  0.00     0.026 A 
ATOM     20  C   UNL     1       2.456  -0.230  -1.008  1.00  0.00     0.026 A 
ATOM     21  C   UNL     1       3.308  -0.318   1.649  1.00  0.00     0.002 A 
ATOM     22  C   UNL     1       3.814  -0.359  -0.713  1.00  0.00     0.002 A 
ATOM     23  C   UNL     1       4.239  -0.403   0.615  1.00  0.00     0.000 A 
ENDBRANCH  10  18
TORSDOF 1
