MODEL        10USER    Run = 10USERUSER    Estimated Free Energy of Binding    =  -9.80 kcal/mol  [=(1)+(2)+(3)-(4)]USERUSER    (1) Final Intermolecular Energy     = -11.59 kcal/molUSER        vdW + Hbond + desolv Energy     = -11.39 kcal/molUSER        Electrostatic Energy            =  -0.20 kcal/molUSER        Moving Ligand-Fixed Receptor    = -11.59 kcal/molUSER        Moving Ligand-Moving Receptor   =  +0.00 kcal/molUSER    (2) Final Total Internal Energy     =  -1.48 kcal/molUSER    (3) Torsional Free Energy           =  +1.79 kcal/molUSER    (4) Unbound System's Energy         =  -1.48 kcal/molUSERUSERREMARK SMILES CNCc1c(-c2n[nH]c(-c3cncc(F)c3)n2)nnn1-c1nonc1NREMARK SMILES IDX 4 1 5 2 18 3 19 4 20 5 3 6 2 7 1 8 6 10 7 11 17 12 8 13 9 14REMARK SMILES IDX 10 16 11 17 16 18 12 19 14 20 13 21 15 22 21 23 22 24 25 25REMARK SMILES IDX 23 26 24 27 26 28REMARK H PARENT 2 9 8 15 26 29 26 30USER                              x       y       z     vdW  Elec       q    TypeUSER                           _______ _______ _______ _____ _____    ______ ____ROOTATOM      1  C   UNL     1      39.471  47.670  15.560 -0.44 -0.03    +0.092 A  ATOM      2  C   UNL     1      39.671  47.234  16.860 -0.36 -0.04    +0.157 A  ATOM      3  N   UNL     1      38.587  46.525  17.285 -0.33 +0.04    -0.126 NA ATOM      4  N   UNL     1      37.701  46.508  16.306 -0.34 +0.03    -0.060 NA ATOM      5  N   UNL     1      38.200  47.200  15.238 -0.28 +0.09    -0.190 N  ENDROOTBRANCH   1   6ATOM      6  C   UNL     1      40.367  48.456  14.679 -0.50 -0.03    +0.140 C  BRANCH   6   7ATOM      7  N   UNL     1      40.765  49.713  15.313 -0.42 +0.10    -0.314 NA ATOM      8  C   UNL     1      41.878  50.364  14.635 -0.66 -0.02    +0.101 C  ATOM      9  H   UNL     1      39.965  50.346  15.300 -0.35 -0.09    +0.122 HD ENDBRANCH   6   7ENDBRANCH   1   6BRANCH   2  10ATOM     10  C   UNL     1      40.813  47.442  17.757 -0.34 -0.02    +0.204 A  ATOM     11  N   UNL     1      41.696  48.442  17.647 -0.68 -0.00    -0.151 NA ATOM     12  N   UNL     1      41.084  46.568  18.781 -0.35 +0.00    -0.205 NA ATOM     13  N   UNL     1      42.523  48.191  18.671 -0.35 -0.00    -0.259 N  ATOM     14  C   UNL     1      42.163  47.062  19.357 -0.37 +0.01    +0.157 A  ATOM     15  H   UNL     1      43.296  48.825  18.836 -0.46 -0.02    +0.192 HD BRANCH  14  16ATOM     16  C   UNL     1      42.853  46.511  20.521 -0.31 +0.01    +0.040 A  ATOM     17  C   UNL     1      44.056  47.018  21.012 -0.22 +0.08    +0.123 A  ATOM     18  C   UNL     1      42.305  45.416  21.201 -0.25 +0.01    +0.054 A  ATOM     19  N   UNL     1      44.717  46.528  22.092 -0.55 -0.21    -0.261 NA ATOM     20  C   UNL     1      42.960  44.895  22.307 -0.16 +0.03    +0.142 A  ATOM     21  C   UNL     1      44.149  45.471  22.717 -0.13 +0.06    +0.150 A  ATOM     22  F   UNL     1      42.446  43.850  22.966 -0.04 -0.01    -0.205 F  ENDBRANCH  14  16ENDBRANCH   2  10BRANCH   5  23ATOM     23  C   UNL     1      37.438  47.330  14.047 -0.31 -0.11    +0.243 A  ATOM     24  N   UNL     1      37.975  47.790  12.917 -0.96 +0.00    -0.027 NA ATOM     25  C   UNL     1      36.079  47.012  13.850 -0.32 -0.14    +0.215 A  ATOM     26  O   UNL     1      36.930  47.747  11.998 -1.15 +0.06    -0.240 OA ATOM     27  N   UNL     1      35.766  47.260  12.579 -0.66 +0.02    -0.030 NA BRANCH  25  28ATOM     28  N   UNL     1      35.214  46.538  14.767 -0.10 +0.38    -0.378 N  ATOM     29  H   UNL     1      34.231  46.810  14.753 -0.10 -0.26    +0.158 HD ATOM     30  H   UNL     1      35.559  46.243  15.673 +0.11 -0.15    +0.158 HD ENDBRANCH  25  28ENDBRANCH   5  23TORSDOF 6TERENDMDL