MODEL        2USER    Run = 2USERUSER    Estimated Free Energy of Binding    =  -8.95 kcal/mol  [=(1)+(2)+(3)-(4)]USERUSER    (1) Final Intermolecular Energy     =  -9.25 kcal/molUSER        vdW + Hbond + desolv Energy     =  -9.28 kcal/molUSER        Electrostatic Energy            =  +0.04 kcal/molUSER        Moving Ligand-Fixed Receptor    =  -9.25 kcal/molUSER        Moving Ligand-Moving Receptor   =  +0.00 kcal/molUSER    (2) Final Total Internal Energy     =  -0.64 kcal/molUSER    (3) Torsional Free Energy           =  +0.30 kcal/molUSER    (4) Unbound System's Energy         =  -0.64 kcal/molUSERUSERREMARK SMILES O=C1Nc2ccccc2N(c2ccccc2)c2ccccc21REMARK SMILES IDX 1 1 2 2 3 3 4 4 5 5 6 6 7 7 8 8 9 9 10 10 17 11 18 12 19 13REMARK SMILES IDX 20 14 21 15 22 16 11 18 12 19 16 20 13 21 15 22 14 23REMARK H PARENT 3 17USER                              x       y       z     vdW  Elec       q    TypeUSER                           _______ _______ _______ _____ _____    ______ ____ROOTATOM      1  O   UNL     1      39.600  49.873  15.933 -0.33 +0.16    -0.269 OA ATOM      2  C   UNL     1      39.255  48.710  15.706 -0.37 -0.13    +0.257 C  ATOM      3  N   UNL     1      38.542  48.471  14.571 -0.28 +0.16    -0.320 N  ATOM      4  C   UNL     1      37.929  47.319  14.072 -0.45 -0.03    +0.065 A  ATOM      5  C   UNL     1      37.579  47.378  12.708 -0.50 -0.01    +0.028 A  ATOM      6  C   UNL     1      36.905  46.332  12.085 -0.65 -0.00    +0.002 A  ATOM      7  C   UNL     1      36.552  45.216  12.824 -0.49 -0.00    +0.002 A  ATOM      8  C   UNL     1      36.873  45.160  14.182 -0.40 -0.01    +0.029 A  ATOM      9  C   UNL     1      37.566  46.204  14.840 -0.35 -0.03    +0.070 A  ATOM     10  N   UNL     1      37.803  46.087  16.248 -0.16 +0.12    -0.308 N  ATOM     11  C   UNL     1      39.048  46.446  16.852 -0.39 -0.02    +0.059 A  ATOM     12  C   UNL     1      39.619  45.558  17.797 -0.41 -0.00    +0.027 A  ATOM     13  C   UNL     1      40.828  45.828  18.443 -0.48 -0.00    +0.002 A  ATOM     14  C   UNL     1      41.502  47.005  18.168 -0.51 -0.00    +0.001 A  ATOM     15  C   UNL     1      40.958  47.902  17.252 -0.51 -0.00    +0.016 A  ATOM     16  C   UNL     1      39.739  47.631  16.587 -0.44 -0.02    +0.064 A  ATOM     17  H   UNL     1      38.507  49.300  13.989 -0.37 -0.11    +0.170 HD ENDROOTBRANCH  10  18ATOM     18  C   UNL     1      36.701  45.745  17.107 -0.32 -0.02    +0.046 A  ATOM     19  C   UNL     1      35.582  46.590  17.160 -0.29 -0.02    +0.026 A  ATOM     20  C   UNL     1      36.714  44.585  17.896 -0.32 -0.01    +0.026 A  ATOM     21  C   UNL     1      34.500  46.282  17.986 -0.48 -0.00    +0.002 A  ATOM     22  C   UNL     1      35.631  44.279  18.721 -0.35 -0.00    +0.002 A  ATOM     23  C   UNL     1      34.525  45.127  18.766 -0.42 -0.00    +0.000 A  ENDBRANCH  10  18TORSDOF 1TERENDMDL