MODEL        2USER    Run = 2USERUSER    Estimated Free Energy of Binding    =  -8.43 kcal/mol  [=(1)+(2)+(3)-(4)]USERUSER    (1) Final Intermolecular Energy     = -10.22 kcal/molUSER        vdW + Hbond + desolv Energy     = -10.05 kcal/molUSER        Electrostatic Energy            =  -0.17 kcal/molUSER        Moving Ligand-Fixed Receptor    = -10.22 kcal/molUSER        Moving Ligand-Moving Receptor   =  +0.00 kcal/molUSER    (2) Final Total Internal Energy     =  -2.15 kcal/molUSER    (3) Torsional Free Energy           =  +1.79 kcal/molUSER    (4) Unbound System's Energy         =  -2.15 kcal/molUSERUSERREMARK SMILES N#Cc1ccc(C2=C(Nc3ccc(O)c(Cl)c3)C(=O)NC2=O)c(C(F)(F)F)c1REMARK SMILES IDX 7 1 8 2 18 3 19 4 20 5 21 6 22 7 6 9 3 10 4 11 28 12 5 13REMARK SMILES IDX 23 14 2 15 1 16 24 17 25 18 26 19 27 20 9 21 10 23 11 24REMARK SMILES IDX 17 25 12 26 15 27 13 28 16 29 14 30REMARK H PARENT 20 8 9 22 14 31USER                              x       y       z     vdW  Elec       q    TypeUSER                           _______ _______ _______ _____ _____    ______ ____ROOTATOM      1  C   UNL     1      35.825  45.206  17.942 -0.35 -0.03    +0.077 C  ATOM      2  C   UNL     1      36.699  44.742  18.850 -0.32 -0.02    +0.118 C  ATOM      3  C   UNL     1      35.906  44.390  20.061 -0.21 -0.03    +0.275 C  ATOM      4  O   UNL     1      36.375  43.906  21.077 -0.31 -0.01    -0.267 OA ATOM      5  N   UNL     1      34.623  44.717  19.821 -0.13 +0.07    -0.287 N  ATOM      6  C   UNL     1      34.489  45.225  18.580 -0.30 -0.11    +0.261 C  ATOM      7  O   UNL     1      33.463  45.633  18.071 -0.30 +0.16    -0.269 OA ATOM      8  H   UNL     1      33.868  44.595  20.475 -0.18 -0.04    +0.173 HD ENDROOTBRANCH   1   9ATOM      9  C   UNL     1      36.086  45.619  16.560 -0.35 -0.00    +0.002 A  ATOM     10  C   UNL     1      36.698  46.580  13.977 -0.43 -0.03    +0.053 A  ATOM     11  C   UNL     1      36.573  47.471  15.042 -0.37 -0.02    +0.020 A  ATOM     12  C   UNL     1      36.497  45.215  14.197 -0.39 -0.01    +0.033 A  ATOM     13  C   UNL     1      36.268  46.994  16.319 -0.30 -0.01    +0.011 A  ATOM     14  C   UNL     1      36.171  44.716  15.478 -0.32 -0.03    +0.065 A  BRANCH  10  15ATOM     15  C   UNL     1      37.021  47.064  12.666 -0.63 -0.03    +0.099 C  ATOM     16  N   UNL     1      37.279  47.457  11.605 -1.00 +0.04    -0.192 NA ENDBRANCH  10  15BRANCH  14  17ATOM     17  C   UNL     1      35.933  43.227  15.618 -0.15 -0.15    +0.417 C  ATOM     18  F   UNL     1      36.426  42.487  14.587 +0.14 +0.05    -0.166 F  ATOM     19  F   UNL     1      36.523  42.714  16.737 -0.03 +0.05    -0.166 F  ATOM     20  F   UNL     1      34.616  42.910  15.725 -0.14 +0.07    -0.166 F  ENDBRANCH  14  17ENDBRANCH   1   9BRANCH   2  21ATOM     21  N   UNL     1      38.051  44.489  18.835 -0.14 +0.04    -0.350 N  ATOM     22  H   UNL     1      38.324  43.836  19.578 +0.10 -0.01    +0.167 HD BRANCH  21  23ATOM     23  C   UNL     1      39.083  45.406  18.547 -0.39 -0.00    +0.040 A  ATOM     24  C   UNL     1      40.116  45.704  19.447 -0.40 -0.00    +0.030 A  ATOM     25  C   UNL     1      39.087  46.025  17.290 -0.39 -0.01    +0.050 A  ATOM     26  C   UNL     1      41.115  46.624  19.113 -0.41 +0.00    +0.050 A  ATOM     27  C   UNL     1      40.081  46.945  16.957 -0.43 -0.02    +0.084 A  ATOM     28  C   UNL     1      41.091  47.244  17.871 -0.42 -0.01    +0.134 A  ATOM     29  Cl  UNL     1      40.050  47.709  15.411 -0.74 +0.02    -0.080 Cl BRANCH  28  30ATOM     30  O   UNL     1      42.085  48.139  17.594 -0.41 -0.00    -0.506 OA ATOM     31  H   UNL     1      42.853  47.628  17.276 -0.35 -0.09    +0.293 HD ENDBRANCH  28  30ENDBRANCH  21  23ENDBRANCH   2  21TORSDOF 6TERENDMDL