REMARK SMILES CNCc1c(-c2n[nH]c(-c3cncc(F)c3)n2)nnn1-c1nonc1N
REMARK SMILES IDX 4 1 5 2 18 3 19 4 20 5 3 6 2 7 1 8 6 10 7 11 17 12 8 13 9 14
REMARK SMILES IDX 10 16 11 17 16 18 12 19 14 20 13 21 15 22 21 23 22 24 25 25
REMARK SMILES IDX 23 26 24 27 26 28
REMARK H PARENT 2 9 8 15 26 29 26 30
ROOT
ATOM      1  C   UNL     1      -1.501  -0.451   0.166  1.00  0.00     0.092 A 
ATOM      2  C   UNL     1      -0.637  -1.485  -0.156  1.00  0.00     0.157 A 
ATOM      3  N   UNL     1      -1.345  -2.625  -0.397  1.00  0.00    -0.126 NA
ATOM      4  N   UNL     1      -2.626  -2.354  -0.224  1.00  0.00    -0.060 NA
ATOM      5  N   UNL     1      -2.763  -1.040   0.125  1.00  0.00    -0.190 N 
ENDROOT
BRANCH   1   6
ATOM      6  C   UNL     1      -1.202   0.964   0.490  1.00  0.00     0.140 C 
BRANCH   6   7
ATOM      7  N   UNL     1      -0.859   1.723  -0.712  1.00  0.00    -0.314 NA
ATOM      8  C   UNL     1      -2.029   2.167  -1.458  1.00  0.00     0.101 C 
ATOM      9  H   UNL     1      -0.325   2.545  -0.430  1.00  0.00     0.122 HD
ENDBRANCH   6   7
ENDBRANCH   1   6
BRANCH   2  10
ATOM     10  C   UNL     1       0.827  -1.494  -0.248  1.00  0.00     0.204 A 
ATOM     11  N   UNL     1       1.551  -2.487  -0.780  1.00  0.00    -0.151 NA
ATOM     12  N   UNL     1       1.580  -0.465   0.262  1.00  0.00    -0.205 NA
ATOM     13  N   UNL     1       2.800  -2.030  -0.623  1.00  0.00    -0.259 N 
ATOM     14  C   UNL     1       2.827  -0.814   0.007  1.00  0.00     0.157 A 
ATOM     15  H   UNL     1       3.569  -2.593  -0.966  1.00  0.00     0.192 HD
BRANCH  14  16
ATOM     16  C   UNL     1       4.025  -0.044   0.331  1.00  0.00     0.040 A 
ATOM     17  C   UNL     1       5.321  -0.510   0.109  1.00  0.00     0.123 A 
ATOM     18  C   UNL     1       3.901   1.231   0.897  1.00  0.00     0.054 A 
ATOM     19  N   UNL     1       6.451   0.185   0.398  1.00  0.00    -0.261 NA
ATOM     20  C   UNL     1       5.040   1.962   1.203  1.00  0.00     0.142 A 
ATOM     21  C   UNL     1       6.281   1.412   0.942  1.00  0.00     0.150 A 
ATOM     22  F   UNL     1       4.934   3.182   1.743  1.00  0.00    -0.205 F 
ENDBRANCH  14  16
ENDBRANCH   2  10
BRANCH   5  23
ATOM     23  C   UNL     1      -4.050  -0.492   0.367  1.00  0.00     0.243 A 
ATOM     24  N   UNL     1      -4.218   0.793   0.680  1.00  0.00    -0.027 NA
ATOM     25  C   UNL     1      -5.295  -1.151   0.317  1.00  0.00     0.215 A 
ATOM     26  O   UNL     1      -5.597   0.936   0.816  1.00  0.00    -0.240 OA
ATOM     27  N   UNL     1      -6.254  -0.266   0.584  1.00  0.00    -0.030 NA
BRANCH  25  28
ATOM     28  N   UNL     1      -5.516  -2.452   0.049  1.00  0.00    -0.378 N 
ATOM     29  H   UNL     1      -4.776  -3.046  -0.324  1.00  0.00     0.158 HD
ATOM     30  H   UNL     1      -6.457  -2.765  -0.162  1.00  0.00     0.158 HD
ENDBRANCH  25  28
ENDBRANCH   5  23
TORSDOF 6
