REMARK SMILES N#Cc1ccc(C2=C(Nc3ccc(O)c(Cl)c3)C(=O)NC2=O)c(C(F)(F)F)c1
REMARK SMILES IDX 7 1 8 2 18 3 19 4 20 5 21 6 22 7 6 9 3 10 4 11 28 12 5 13
REMARK SMILES IDX 23 14 2 15 1 16 24 17 25 18 26 19 27 20 9 21 10 23 11 24
REMARK SMILES IDX 17 25 12 26 15 27 13 28 16 29 14 30
REMARK H PARENT 20 8 9 22 14 31
ROOT
ATOM      1  C   UNL     1      -0.809  -1.462  -1.300  1.00  0.00     0.077 C 
ATOM      2  C   UNL     1       0.492  -1.531  -1.627  1.00  0.00     0.118 C 
ATOM      3  C   UNL     1       0.636  -2.687  -2.556  1.00  0.00     0.275 C 
ATOM      4  O   UNL     1       1.683  -3.025  -3.080  1.00  0.00    -0.267 OA
ATOM      5  N   UNL     1      -0.572  -3.266  -2.680  1.00  0.00    -0.287 N 
ATOM      6  C   UNL     1      -1.491  -2.604  -1.950  1.00  0.00     0.261 C 
ATOM      7  O   UNL     1      -2.668  -2.888  -1.835  1.00  0.00    -0.269 OA
ATOM      8  H   UNL     1      -0.764  -4.078  -3.243  1.00  0.00     0.173 HD
ENDROOT
BRANCH   1   9
ATOM      9  C   UNL     1      -1.484  -0.460  -0.470  1.00  0.00     0.002 A 
ATOM     10  C   UNL     1      -2.737   1.348   1.299  1.00  0.00     0.053 A 
ATOM     11  C   UNL     1      -2.701  -0.012   1.601  1.00  0.00     0.020 A 
ATOM     12  C   UNL     1      -2.168   1.802   0.106  1.00  0.00     0.033 A 
ATOM     13  C   UNL     1      -2.082  -0.906   0.724  1.00  0.00     0.011 A 
ATOM     14  C   UNL     1      -1.552   0.910  -0.801  1.00  0.00     0.065 A 
BRANCH  10  15
ATOM     15  C   UNL     1      -3.363   2.271   2.201  1.00  0.00     0.099 C 
ATOM     16  N   UNL     1      -3.869   3.020   2.929  1.00  0.00    -0.192 NA
ENDBRANCH  10  15
BRANCH  14  17
ATOM     17  C   UNL     1      -0.995   1.483  -2.087  1.00  0.00     0.417 C 
ATOM     18  F   UNL     1      -0.984   0.605  -3.128  1.00  0.00    -0.166 F 
ATOM     19  F   UNL     1      -1.721   2.550  -2.532  1.00  0.00    -0.166 F 
ATOM     20  F   UNL     1       0.278   1.941  -1.955  1.00  0.00    -0.166 F 
ENDBRANCH  14  17
ENDBRANCH   1   9
BRANCH   2  21
ATOM     21  N   UNL     1       1.593  -0.756  -1.344  1.00  0.00    -0.350 N 
ATOM     22  H   UNL     1       2.422  -1.070  -1.859  1.00  0.00     0.167 HD
BRANCH  21  23
ATOM     23  C   UNL     1       1.940  -0.198  -0.096  1.00  0.00     0.040 A 
ATOM     24  C   UNL     1       1.511  -0.731   1.127  1.00  0.00     0.030 A 
ATOM     25  C   UNL     1       2.777   0.926  -0.083  1.00  0.00     0.050 A 
ATOM     26  C   UNL     1       1.881  -0.137   2.338  1.00  0.00     0.050 A 
ATOM     27  C   UNL     1       3.145   1.521   1.124  1.00  0.00     0.084 A 
ATOM     28  C   UNL     1       2.693   0.989   2.331  1.00  0.00     0.134 A 
ATOM     29  Cl  UNL     1       4.158   2.917   1.111  1.00  0.00    -0.080 Cl
BRANCH  28  30
ATOM     30  O   UNL     1       3.023   1.535   3.539  1.00  0.00    -0.506 OA
ATOM     31  H   UNL     1       3.591   2.308   3.362  1.00  0.00     0.293 HD
ENDBRANCH  28  30
ENDBRANCH  21  23
ENDBRANCH   2  21
TORSDOF 6
