REMARK SMILES N#Cc1ccc(C2=C(Nc3ccc(OCCCN4CCNCC4)cc3)C(=O)NC2=O)c(F)c1
REMARK SMILES IDX 10 1 11 2 12 3 13 4 24 5 25 6 9 7 8 9 7 10 29 11 26 12 28 13
REMARK SMILES IDX 30 14 27 15 6 17 3 18 4 19 33 20 5 21 31 22 32 23 2 24 1 25
REMARK SMILES IDX 14 26 15 27 16 28 17 29 18 30 19 31 23 32 20 33 22 34 21 35
REMARK H PARENT 9 8 28 16 21 36
ROOT
ATOM      1  C   UNL     1       1.832  -0.016  -0.869  1.00  0.00     0.039 A 
ATOM      2  C   UNL     1       0.999  -1.132  -0.772  1.00  0.00     0.030 A 
ATOM      3  C   UNL     1      -0.368  -1.050  -1.078  1.00  0.00     0.048 A 
ATOM      4  C   UNL     1      -0.921   0.156  -1.499  1.00  0.00     0.119 A 
ATOM      5  C   UNL     1      -0.100   1.279  -1.587  1.00  0.00     0.048 A 
ATOM      6  C   UNL     1       1.262   1.196  -1.277  1.00  0.00     0.030 A 
ENDROOT
BRANCH   1   7
ATOM      7  N   UNL     1       3.212  -0.071  -0.617  1.00  0.00    -0.350 N 
ATOM      8  H   UNL     1       3.602   0.819  -0.325  1.00  0.00     0.167 HD
BRANCH   7   9
ATOM      9  C   UNL     1       4.155  -0.976  -1.070  1.00  0.00     0.118 C 
ATOM     10  C   UNL     1       5.483  -0.959  -0.841  1.00  0.00     0.079 C 
ATOM     11  C   UNL     1       6.108  -2.065  -1.593  1.00  0.00     0.261 C 
ATOM     12  C   UNL     1       3.922  -2.124  -2.011  1.00  0.00     0.275 C 
ATOM     13  N   UNL     1       5.127  -2.680  -2.278  1.00  0.00    -0.287 N 
ATOM     14  O   UNL     1       7.286  -2.370  -1.574  1.00  0.00    -0.269 OA
ATOM     15  O   UNL     1       2.865  -2.520  -2.474  1.00  0.00    -0.267 OA
ATOM     16  H   UNL     1       5.260  -3.482  -2.871  1.00  0.00     0.173 HD
BRANCH  10  17
ATOM     17  C   UNL     1       6.233  -0.008  -0.025  1.00  0.00     0.025 A 
ATOM     18  C   UNL     1       7.729   1.800   1.521  1.00  0.00     0.055 A 
ATOM     19  C   UNL     1       6.797   0.951   2.132  1.00  0.00     0.020 A 
ATOM     20  C   UNL     1       7.906   1.753   0.137  1.00  0.00     0.059 A 
ATOM     21  C   UNL     1       6.047   0.055   1.363  1.00  0.00     0.013 A 
ATOM     22  C   UNL     1       7.164   0.852  -0.621  1.00  0.00     0.132 A 
ATOM     23  F   UNL     1       7.336   0.839  -1.951  1.00  0.00    -0.206 F 
BRANCH  18  24
ATOM     24  C   UNL     1       8.494   2.717   2.313  1.00  0.00     0.099 C 
ATOM     25  N   UNL     1       9.107   3.459   2.960  1.00  0.00    -0.192 NA
ENDBRANCH  18  24
ENDBRANCH  10  17
ENDBRANCH   7   9
ENDBRANCH   1   7
BRANCH   4  26
ATOM     26  O   UNL     1      -2.223   0.381  -1.841  1.00  0.00    -0.494 OA
BRANCH  26  27
ATOM     27  C   UNL     1      -3.122  -0.725  -1.910  1.00  0.00     0.231 C 
BRANCH  27  28
ATOM     28  C   UNL     1      -3.824  -0.985  -0.574  1.00  0.00     0.057 C 
BRANCH  28  29
ATOM     29  C   UNL     1      -4.510   0.283  -0.043  1.00  0.00     0.088 C 
BRANCH  29  30
ATOM     30  N   UNL     1      -5.250   0.055   1.210  1.00  0.00    -0.301 NA
ATOM     31  C   UNL     1      -5.676   1.335   1.817  1.00  0.00     0.100 C 
ATOM     32  C   UNL     1      -6.409  -0.847   1.007  1.00  0.00     0.100 C 
ATOM     33  C   UNL     1      -7.147   1.716   1.546  1.00  0.00     0.096 C 
ATOM     34  C   UNL     1      -7.534  -0.634   2.043  1.00  0.00     0.096 C 
ATOM     35  N   UNL     1      -8.127   0.714   1.997  1.00  0.00    -0.314 NA
ATOM     36  H   UNL     1      -8.447   0.950   2.934  1.00  0.00     0.122 HD
ENDBRANCH  29  30
ENDBRANCH  28  29
ENDBRANCH  27  28
ENDBRANCH  26  27
ENDBRANCH   4  26
TORSDOF 9
