
     RDKit          3D

 36 39  0  0  0  0  0  0  0  0999 V2000
   -2.6754   -1.5954    2.0847 C   0  0  0  0  0  0  0  0  0  0  0  0
   -2.9040   -1.0473    0.7262 C   0  0  0  0  0  0  0  0  0  0  0  0
   -2.3263    0.0047    0.1281 C   0  0  0  0  0  0  0  0  0  0  0  0
   -1.3540    0.8127    0.7074 O   0  0  0  0  0  0  0  0  0  0  0  0
   -0.6206    1.8232    0.1575 C   0  0  0  0  0  0  0  0  0  0  0  0
    0.6298    2.4464    1.2536 S   0  0  0  0  0  0  0  0  0  0  0  0
    2.0735    1.7511    0.4398 C   0  0  0  0  0  0  0  0  0  0  0  0
    2.7822    2.5999   -0.4115 C   0  0  0  0  0  0  0  0  0  0  0  0
    3.8904    2.0956   -1.0559 C   0  0  0  0  0  0  0  0  0  0  0  0
    4.3323    0.8299   -0.9073 N   0  0  0  0  0  0  0  0  0  0  0  0
    3.6526    0.0084   -0.0897 C   0  0  0  0  0  0  0  0  0  0  0  0
    4.1107   -1.2962    0.0510 C   0  0  0  0  0  0  0  0  0  0  0  0
    3.4678   -2.2224    0.8762 C   0  0  0  0  0  0  0  0  0  0  0  0
    2.3396   -1.8425    1.5874 C   0  0  0  0  0  0  0  0  0  0  0  0
    1.8617   -0.5371    1.4681 C   0  0  0  0  0  0  0  0  0  0  0  0
    2.5023    0.4109    0.6260 C   0  0  0  0  0  0  0  0  0  0  0  0
   -0.6787    2.4010   -0.9982 N   0  0  0  0  0  0  0  0  0  0  0  0
   -1.5401    2.1260   -2.0108 C   0  0  0  0  0  0  0  0  0  0  0  0
   -2.4855    1.1943   -2.1575 C   0  0  0  0  0  0  0  0  0  0  0  0
   -2.8342    0.1933   -1.2027 C   0  0  0  0  0  0  0  0  0  0  0  0
   -3.7604   -0.7588   -1.4250 C   0  0  0  0  0  0  0  0  0  0  0  0
   -3.8940   -1.6543   -0.2257 C   0  0  0  0  0  0  0  0  0  0  0  0
   -3.6128   -1.6197    2.6463 H   0  0  0  0  0  0  0  0  0  0  0  0
   -1.9604   -0.9935    2.6520 H   0  0  0  0  0  0  0  0  0  0  0  0
   -2.2811   -2.6135    2.0242 H   0  0  0  0  0  0  0  0  0  0  0  0
    2.4708    3.6254   -0.5814 H   0  0  0  0  0  0  0  0  0  0  0  0
    4.4757    2.7125   -1.7330 H   0  0  0  0  0  0  0  0  0  0  0  0
    4.9969   -1.6016   -0.5024 H   0  0  0  0  0  0  0  0  0  0  0  0
    3.8560   -3.2350    0.9587 H   0  0  0  0  0  0  0  0  0  0  0  0
    1.8315   -2.5534    2.2325 H   0  0  0  0  0  0  0  0  0  0  0  0
    0.9785   -0.2648    2.0438 H   0  0  0  0  0  0  0  0  0  0  0  0
   -1.4080    2.8056   -2.8542 H   0  0  0  0  0  0  0  0  0  0  0  0
   -3.0420    1.1853   -3.0911 H   0  0  0  0  0  0  0  0  0  0  0  0
   -4.3355   -0.8890   -2.3307 H   0  0  0  0  0  0  0  0  0  0  0  0
   -4.9097   -1.6174    0.1764 H   0  0  0  0  0  0  0  0  0  0  0  0
   -3.6298   -2.6843   -0.4760 H   0  0  0  0  0  0  0  0  0  0  0  0
  1  2  1  0
  2  3  2  0
  3  4  1  0
  4  5  1  0
  5  6  1  0
  6  7  1  0
  7  8  2  0
  8  9  1  0
  9 10  2  0
 10 11  1  0
 11 12  2  0
 12 13  1  0
 13 14  2  0
 14 15  1  0
 15 16  2  0
  5 17  2  0
 17 18  1  0
 18 19  2  0
 19 20  1  0
 20 21  2  0
 21 22  1  0
 22  2  1  0
 20  3  1  0
 16  7  1  0
 16 11  1  0
  1 23  1  0
  1 24  1  0
  1 25  1  0
  8 26  1  0
  9 27  1  0
 12 28  1  0
 13 29  1  0
 14 30  1  0
 15 31  1  0
 18 32  1  0
 19 33  1  0
 21 34  1  0
 22 35  1  0
 22 36  1  0
M  END
$$$$
