
     RDKit          3D

 60 61  0  0  0  0  0  0  0  0999 V2000
   -6.4152   -2.4721   -1.0655 C   0  0  0  0  0  0  0  0  0  0  0  0
   -6.3267   -0.9907   -1.3918 C   0  0  0  0  0  0  0  0  0  0  0  0
   -5.0337   -0.3973   -0.9452 C   0  0  0  0  0  3  0  0  0  0  0  0
   -4.9303    0.3431    0.3515 C   0  0  0  0  0  0  0  0  0  0  0  0
   -4.7361   -0.5874    1.5425 C   0  0  0  0  0  0  0  0  0  0  0  0
   -5.5384   -0.5950    2.4819 O   0  0  0  0  0  0  0  0  0  0  0  0
   -3.5927   -1.5478    1.5704 C   0  0  0  0  0  0  0  0  0  0  0  0
   -3.8620   -2.8246    2.0916 C   0  0  0  0  0  0  0  0  0  0  0  0
   -2.8615   -3.7905    2.1580 C   0  0  0  0  0  0  0  0  0  0  0  0
   -1.5767   -3.4815    1.7231 C   0  0  0  0  0  0  0  0  0  0  0  0
   -1.2919   -2.2077    1.2250 C   0  0  0  0  0  0  0  0  0  0  0  0
   -2.3006   -1.2392    1.1249 C   0  0  0  0  0  0  0  0  0  0  0  0
   -2.0271    0.0399    0.7209 O   0  0  0  0  0  0  0  0  0  0  0  0
   -1.1966    0.1722   -0.4486 C   0  0  0  0  0  0  0  0  0  0  0  0
   -0.0614    1.1491   -0.1237 C   0  0  1  0  0  0  0  0  0  0  0  0
    0.7199    0.6318    0.9755 O   0  0  0  0  0  0  0  0  0  0  0  0
    0.8345    1.4412   -1.3476 C   0  0  1  0  0  0  0  0  0  0  0  0
    1.7331    2.5054   -1.0025 O   0  0  0  0  0  0  0  0  0  0  0  0
    1.5966    0.2239   -1.9421 C   0  0  0  0  0  0  0  0  0  0  0  0
    2.2580   -0.6292   -0.9498 N   0  0  0  0  0  0  0  0  0  0  0  0
    3.6866   -0.8263   -1.1611 C   0  0  0  0  0  0  0  0  0  0  0  0
    4.5185    0.3963   -0.8510 C   0  0  0  0  0  0  0  0  0  0  0  0
    5.2435    1.0384   -1.8669 C   0  0  0  0  0  0  0  0  0  0  0  0
    5.9959    2.1712   -1.5722 C   0  0  0  0  0  0  0  0  0  0  0  0
    6.6954    2.7620   -2.5856 O   0  0  0  0  0  0  0  0  0  0  0  0
    6.0312    2.6896   -0.2792 C   0  0  0  0  0  0  0  0  0  0  0  0
    5.3053    2.0695    0.7417 C   0  0  0  0  0  0  0  0  0  0  0  0
    5.4016    2.6831    1.9678 O   0  0  0  0  0  0  0  0  0  0  0  0
    4.4774    2.2528    2.9684 C   0  0  0  0  0  0  0  0  0  0  0  0
    4.5675    0.9127    0.4578 C   0  0  0  0  0  0  0  0  0  0  0  0
   -7.3552   -2.8829   -1.4443 H   0  0  0  0  0  0  0  0  0  0  0  0
   -5.5902   -3.0325   -1.5265 H   0  0  0  0  0  0  0  0  0  0  0  0
   -6.3861   -2.6449    0.0152 H   0  0  0  0  0  0  0  0  0  0  0  0
   -7.1725   -0.4594   -0.9449 H   0  0  0  0  0  0  0  0  0  0  0  0
   -6.4131   -0.8557   -2.4749 H   0  0  0  0  0  0  0  0  0  0  0  0
   -4.1416   -0.5789   -1.5275 H   0  0  0  0  0  0  0  0  0  0  0  0
   -4.1293    1.0877    0.3142 H   0  0  0  0  0  0  0  0  0  0  0  0
   -5.8542    0.9138    0.5175 H   0  0  0  0  0  0  0  0  0  0  0  0
   -4.8634   -3.0666    2.4484 H   0  0  0  0  0  0  0  0  0  0  0  0
   -3.0846   -4.7762    2.5597 H   0  0  0  0  0  0  0  0  0  0  0  0
   -0.7883   -4.2249    1.7892 H   0  0  0  0  0  0  0  0  0  0  0  0
   -0.2628   -1.9829    0.9436 H   0  0  0  0  0  0  0  0  0  0  0  0
   -1.8252    0.5903   -1.2427 H   0  0  0  0  0  0  0  0  0  0  0  0
   -0.8165   -0.7857   -0.8083 H   0  0  0  0  0  0  0  0  0  0  0  0
   -0.4811    2.0945    0.2425 H   0  0  0  0  0  0  0  0  0  0  0  0
    0.0917    0.5492    1.7183 H   0  0  0  0  0  0  0  0  0  0  0  0
    0.1978    1.8463   -2.1453 H   0  0  0  0  0  0  0  0  0  0  0  0
    2.6427    2.1364   -0.9743 H   0  0  0  0  0  0  0  0  0  0  0  0
    0.8752   -0.4070   -2.4747 H   0  0  0  0  0  0  0  0  0  0  0  0
    2.3059    0.5867   -2.6952 H   0  0  0  0  0  0  0  0  0  0  0  0
    2.0835   -0.2600   -0.0091 H   0  0  0  0  0  0  0  0  0  0  0  0
    4.0240   -1.6402   -0.5046 H   0  0  0  0  0  0  0  0  0  0  0  0
    3.8734   -1.1792   -2.1842 H   0  0  0  0  0  0  0  0  0  0  0  0
    5.2278    0.6604   -2.8890 H   0  0  0  0  0  0  0  0  0  0  0  0
    7.1752    3.5230   -2.2146 H   0  0  0  0  0  0  0  0  0  0  0  0
    6.6096    3.5791   -0.0469 H   0  0  0  0  0  0  0  0  0  0  0  0
    4.7019    1.2362    3.3024 H   0  0  0  0  0  0  0  0  0  0  0  0
    4.5889    2.9141    3.8307 H   0  0  0  0  0  0  0  0  0  0  0  0
    3.4406    2.3311    2.6175 H   0  0  0  0  0  0  0  0  0  0  0  0
    4.0117    0.3984    1.2396 H   0  0  0  0  0  0  0  0  0  0  0  0
  1  2  1  0
  2  3  1  0
  3  4  1  0
  4  5  1  0
  5  6  2  0
  5  7  1  0
  7  8  2  0
  8  9  1  0
  9 10  2  0
 10 11  1  0
 11 12  2  0
 12 13  1  0
 13 14  1  0
 14 15  1  0
 15 16  1  0
 15 17  1  0
 17 18  1  0
 17 19  1  0
 19 20  1  0
 20 21  1  0
 21 22  1  0
 22 23  2  0
 23 24  1  0
 24 25  1  0
 24 26  2  0
 26 27  1  0
 27 28  1  0
 28 29  1  0
 27 30  2  0
 12  7  1  0
 30 22  1  0
  1 31  1  0
  1 32  1  0
  1 33  1  0
  2 34  1  0
  2 35  1  0
  3 36  1  0
  4 37  1  0
  4 38  1  0
  8 39  1  0
  9 40  1  0
 10 41  1  0
 11 42  1  0
 14 43  1  0
 14 44  1  0
 15 45  1  1
 16 46  1  0
 17 47  1  6
 18 48  1  0
 19 49  1  0
 19 50  1  0
 20 51  1  0
 21 52  1  0
 21 53  1  0
 23 54  1  0
 25 55  1  0
 26 56  1  0
 29 57  1  0
 29 58  1  0
 29 59  1  0
 30 60  1  0
M  RAD  1   3   2
M  END
$$$$
