
     RDKit          3D

 64 67  0  0  0  0  0  0  0  0999 V2000
    8.6325   -1.2874   -2.8583 C   0  0  0  0  0  0  0  0  0  0  0  0
    8.9321   -1.5313   -1.4875 O   0  0  0  0  0  0  0  0  0  0  0  0
    8.1440   -0.9003   -0.5640 C   0  0  0  0  0  0  0  0  0  0  0  0
    8.3825   -1.2750    0.7644 C   0  0  0  0  0  0  0  0  0  0  0  0
    7.6485   -0.7164    1.8153 C   0  0  0  0  0  0  0  0  0  0  0  0
    6.6618    0.2218    1.5353 C   0  0  0  0  0  0  0  0  0  0  0  0
    5.9299    0.7656    2.5527 O   0  0  0  0  0  0  0  0  0  0  0  0
    6.4157    0.5935    0.2125 C   0  0  0  0  0  0  0  0  0  0  0  0
    5.3734    1.5793   -0.1255 C   0  0  0  0  0  0  0  0  0  0  0  0
    5.7303    2.7073   -0.4668 O   0  0  0  0  0  0  0  0  0  0  0  0
    3.9319    1.1978   -0.1322 C   0  0  0  0  0  0  0  0  0  0  0  0
    3.4775   -0.0572    0.2861 C   0  0  0  0  0  0  0  0  0  0  0  0
    2.1190   -0.3774    0.1994 C   0  0  0  0  0  0  0  0  0  0  0  0
    1.1993    0.5464   -0.3137 C   0  0  0  0  0  0  0  0  0  0  0  0
   -0.2244    0.1252   -0.4469 C   0  0  0  0  0  0  0  0  0  0  0  0
   -0.5179   -1.0663   -0.4105 O   0  0  0  0  0  0  0  0  0  0  0  0
   -1.1658    1.1250   -0.6092 N   0  0  0  0  0  0  0  0  0  0  0  0
   -2.5911    0.8111   -0.7376 C   0  0  2  0  0  0  0  0  0  0  0  0
   -3.2655    1.8979   -1.5900 C   0  0  0  0  0  0  0  0  0  0  0  0
   -4.7973    1.9059   -1.5569 C   0  0  0  0  0  0  0  0  0  0  0  0
   -5.4294    2.2847   -0.2089 C   0  0  0  0  0  0  0  0  0  0  0  0
   -4.4631    2.8107    0.7451 N   0  0  0  0  0  0  0  0  0  0  0  0
   -3.6703    1.7716    1.4262 C   0  0  0  0  0  0  0  0  0  0  0  0
   -3.2497    0.4915    0.6404 C   0  0  0  0  0  0  0  0  0  0  0  0
   -4.3326   -0.4991    0.4823 N   0  0  0  0  0  0  0  0  0  0  0  0
   -4.9197   -1.1258    1.5621 C   0  0  0  0  0  0  0  0  0  0  0  0
   -4.7178   -0.8102    2.7270 O   0  0  0  0  0  0  0  0  0  0  0  0
   -5.8277   -2.2670    1.2530 C   0  0  0  0  0  0  0  0  0  0  0  0
   -6.0867   -3.1913    2.2673 C   0  0  0  0  0  0  0  0  0  0  0  0
   -6.9151   -4.2581    1.9808 C   0  0  0  0  0  0  0  0  0  0  0  0
   -7.4953   -4.4526    0.7774 N   0  0  0  0  0  0  0  0  0  0  0  0
   -7.2444   -3.5350   -0.1805 C   0  0  0  0  0  0  0  0  0  0  0  0
   -6.4277   -2.4320    0.0052 C   0  0  0  0  0  0  0  0  0  0  0  0
    1.6525    1.8025   -0.7327 C   0  0  0  0  0  0  0  0  0  0  0  0
    3.0092    2.1272   -0.6324 C   0  0  0  0  0  0  0  0  0  0  0  0
    7.1662    0.0525   -0.8402 C   0  0  0  0  0  0  0  0  0  0  0  0
    7.5987   -1.5639   -3.0937 H   0  0  0  0  0  0  0  0  0  0  0  0
    8.8350   -0.2445   -3.1249 H   0  0  0  0  0  0  0  0  0  0  0  0
    9.2924   -1.9169   -3.4637 H   0  0  0  0  0  0  0  0  0  0  0  0
    9.1510   -2.0126    0.9838 H   0  0  0  0  0  0  0  0  0  0  0  0
    7.8576   -1.0325    2.8328 H   0  0  0  0  0  0  0  0  0  0  0  0
    6.4051    0.6141    3.3930 H   0  0  0  0  0  0  0  0  0  0  0  0
    4.1568   -0.8071    0.6803 H   0  0  0  0  0  0  0  0  0  0  0  0
    1.7838   -1.3599    0.5241 H   0  0  0  0  0  0  0  0  0  0  0  0
   -0.9237    2.0760   -0.3633 H   0  0  0  0  0  0  0  0  0  0  0  0
   -2.6285   -0.1122   -1.3341 H   0  0  0  0  0  0  0  0  0  0  0  0
   -2.9423    1.7610   -2.6315 H   0  0  0  0  0  0  0  0  0  0  0  0
   -2.8881    2.8928   -1.3150 H   0  0  0  0  0  0  0  0  0  0  0  0
   -5.1366    2.6353   -2.3033 H   0  0  0  0  0  0  0  0  0  0  0  0
   -5.1813    0.9347   -1.8870 H   0  0  0  0  0  0  0  0  0  0  0  0
   -6.1685    3.0714   -0.4056 H   0  0  0  0  0  0  0  0  0  0  0  0
   -6.0122    1.4580    0.2131 H   0  0  0  0  0  0  0  0  0  0  0  0
   -4.9541    3.3512    1.4601 H   0  0  0  0  0  0  0  0  0  0  0  0
   -4.2030    1.4947    2.3412 H   0  0  0  0  0  0  0  0  0  0  0  0
   -2.7511    2.2688    1.7613 H   0  0  0  0  0  0  0  0  0  0  0  0
   -2.5070   -0.0267    1.2648 H   0  0  0  0  0  0  0  0  0  0  0  0
   -4.3253   -1.0196   -0.3847 H   0  0  0  0  0  0  0  0  0  0  0  0
   -5.6509   -3.0863    3.2559 H   0  0  0  0  0  0  0  0  0  0  0  0
   -7.1428   -5.0075    2.7346 H   0  0  0  0  0  0  0  0  0  0  0  0
   -7.7376   -3.7179   -1.1308 H   0  0  0  0  0  0  0  0  0  0  0  0
   -6.2942   -1.7226   -0.8023 H   0  0  0  0  0  0  0  0  0  0  0  0
    0.9818    2.5321   -1.1750 H   0  0  0  0  0  0  0  0  0  0  0  0
    3.3512    3.1060   -0.9680 H   0  0  0  0  0  0  0  0  0  0  0  0
    6.9690    0.3990   -1.8497 H   0  0  0  0  0  0  0  0  0  0  0  0
  1  2  1  0
  2  3  1  0
  3  4  2  0
  4  5  1  0
  5  6  2  0
  6  7  1  0
  6  8  1  0
  8  9  1  0
  9 10  2  0
  9 11  1  0
 11 12  2  0
 12 13  1  0
 13 14  2  0
 14 15  1  0
 15 16  2  0
 15 17  1  0
 17 18  1  0
 18 19  1  0
 19 20  1  0
 20 21  1  0
 21 22  1  0
 22 23  1  0
 23 24  1  0
 24 25  1  0
 25 26  1  0
 26 27  2  0
 26 28  1  0
 28 29  2  0
 29 30  1  0
 30 31  2  0
 31 32  1  0
 32 33  2  0
 14 34  1  0
 34 35  2  0
  8 36  2  0
 36  3  1  0
 35 11  1  0
 24 18  1  0
 33 28  1  0
  1 37  1  0
  1 38  1  0
  1 39  1  0
  4 40  1  0
  5 41  1  0
  7 42  1  0
 12 43  1  0
 13 44  1  0
 17 45  1  0
 18 46  1  6
 19 47  1  0
 19 48  1  0
 20 49  1  0
 20 50  1  0
 21 51  1  0
 21 52  1  0
 22 53  1  0
 23 54  1  0
 23 55  1  0
 24 56  1  0
 25 57  1  0
 29 58  1  0
 30 59  1  0
 32 60  1  0
 33 61  1  0
 34 62  1  0
 35 63  1  0
 36 64  1  0
M  END
$$$$
