REMARK SMILES NCC[C@H]1C(=O)Nc2ccc3ncnc(C4=CC[C@H](O)CC4)c3c21
REMARK SMILES IDX 4 1 5 2 6 3 7 4 8 5 9 6 10 7 11 8 12 9 13 10 14 11 15 12
REMARK SMILES IDX 23 13 24 14 3 16 2 17 1 18 16 21 17 22 22 23 18 24 21 25
REMARK SMILES IDX 19 26 20 27
REMARK H PARENT 7 15 1 19 1 20 20 28
ROOT
ATOM      1  C   UNL     1      -0.991   0.553   1.010  1.00  0.00     0.113 C 
ATOM      2  C   UNL     1      -2.019   0.641   2.153  1.00  0.00     0.232 C 
ATOM      3  O   UNL     1      -2.123   1.538   2.974  1.00  0.00    -0.274 OA
ATOM      4  N   UNL     1      -2.832  -0.474   2.064  1.00  0.00    -0.325 N 
ATOM      5  C   UNL     1      -2.441  -1.297   1.024  1.00  0.00     0.046 A 
ATOM      6  C   UNL     1      -3.059  -2.456   0.627  1.00  0.00     0.029 A 
ATOM      7  C   UNL     1      -2.502  -3.125  -0.462  1.00  0.00     0.031 A 
ATOM      8  C   UNL     1      -1.337  -2.692  -1.099  1.00  0.00     0.075 A 
ATOM      9  N   UNL     1      -0.903  -3.437  -2.119  1.00  0.00    -0.236 NA
ATOM     10  C   UNL     1       0.234  -3.062  -2.709  1.00  0.00     0.223 A 
ATOM     11  N   UNL     1       1.001  -2.036  -2.347  1.00  0.00    -0.236 NA
ATOM     12  C   UNL     1       0.557  -1.299  -1.304  1.00  0.00     0.077 A 
ATOM     13  C   UNL     1      -0.672  -1.534  -0.646  1.00  0.00     0.032 A 
ATOM     14  C   UNL     1      -1.298  -0.795   0.394  1.00  0.00    -0.000 A 
ATOM     15  H   UNL     1      -3.619  -0.627   2.676  1.00  0.00     0.169 HD
ENDROOT
BRANCH   1  16
ATOM     16  C   UNL     1      -1.133   1.786   0.101  1.00  0.00     0.033 C 
BRANCH  16  17
ATOM     17  C   UNL     1      -2.540   2.130  -0.404  1.00  0.00     0.079 C 
BRANCH  17  18
ATOM     18  N   UNL     1      -3.056   1.138  -1.337  1.00  0.00    -0.330 NA
ATOM     19  H   UNL     1      -2.450   1.080  -2.155  1.00  0.00     0.118 HD
ATOM     20  H   UNL     1      -3.967   1.438  -1.682  1.00  0.00     0.118 HD
ENDBRANCH  17  18
ENDBRANCH  16  17
ENDBRANCH   1  16
BRANCH  12  21
ATOM     21  C   UNL     1       1.576  -0.336  -0.848  1.00  0.00    -0.025 C 
ATOM     22  C   UNL     1       1.845   0.771  -1.565  1.00  0.00    -0.019 C 
ATOM     23  C   UNL     1       2.401  -0.757   0.346  1.00  0.00     0.040 C 
ATOM     24  C   UNL     1       2.913   1.752  -1.183  1.00  0.00     0.059 C 
ATOM     25  C   UNL     1       3.701   0.038   0.486  1.00  0.00     0.037 C 
ATOM     26  C   UNL     1       3.471   1.525   0.228  1.00  0.00     0.118 C 
BRANCH  26  27
ATOM     27  O   UNL     1       4.709   2.213   0.385  1.00  0.00    -0.393 OA
ATOM     28  H   UNL     1       4.540   3.160   0.237  1.00  0.00     0.210 HD
ENDBRANCH  26  27
ENDBRANCH  12  21
TORSDOF 5
