MODEL        2USER    Run = 2USERUSER    Estimated Free Energy of Binding    = -10.79 kcal/mol  [=(1)+(2)+(3)-(4)]USERUSER    (1) Final Intermolecular Energy     = -11.69 kcal/molUSER        vdW + Hbond + desolv Energy     = -11.48 kcal/molUSER        Electrostatic Energy            =  -0.21 kcal/molUSER        Moving Ligand-Fixed Receptor    = -11.69 kcal/molUSER        Moving Ligand-Moving Receptor   =  +0.00 kcal/molUSER    (2) Final Total Internal Energy     =  -0.57 kcal/molUSER    (3) Torsional Free Energy           =  +0.89 kcal/molUSER    (4) Unbound System's Energy         =  -0.57 kcal/molUSERUSERREMARK SMILES O[C@H]1CC=C(c2cnc3[nH]occ(-c4ccc5[nH]ncc5c4)ncc3c2)CC1REMARK SMILES IDX 6 1 7 2 8 3 9 4 10 5 11 6 12 7 13 8 23 9 24 10 25 11 26 12REMARK SMILES IDX 5 14 2 15 3 16 28 17 4 18 27 19 1 20 14 22 15 23 22 24 16 25REMARK SMILES IDX 21 26 17 27 20 28 18 29 19 30REMARK H PARENT 10 13 1 21 18 31USER                              x       y       z     vdW  Elec       q    TypeUSER                           _______ _______ _______ _____ _____    ______ ____ROOTATOM      1  C   UNL     1      40.015  47.417  16.393 -0.51 +0.00    -0.004 A  ATOM      2  C   UNL     1      40.809  48.496  16.765 -0.39 -0.02    +0.122 A  ATOM      3  N   UNL     1      41.748  48.475  17.742 -0.58 -0.00    -0.235 NA ATOM      4  C   UNL     1      41.928  47.306  18.419 -0.40 -0.00    +0.168 A  ATOM      5  N   UNL     1      42.902  47.367  19.417 -0.44 -0.03    -0.204 N  ATOM      6  O   UNL     1      43.066  46.417  20.413 -0.17 -0.16    -0.386 OA ATOM      7  C   UNL     1      41.933  46.367  21.197 -0.17 +0.04    +0.255 A  ATOM      8  C   UNL     1      40.936  45.477  21.002 -0.27 +0.01    +0.108 A  ATOM      9  N   UNL     1      40.705  44.531  20.054 -0.22 -0.01    -0.252 NA ATOM     10  C   UNL     1      41.294  44.753  18.856 -0.20 +0.01    +0.124 A  ATOM     11  C   UNL     1      41.188  46.157  18.108 -0.46 -0.00    +0.039 A  ATOM     12  C   UNL     1      40.218  46.233  17.097 -0.45 -0.00    +0.023 A  ATOM     13  H   UNL     1      43.135  48.317  19.659 -0.42 -0.03    +0.211 HD ENDROOTBRANCH   1  14ATOM     14  C   UNL     1      38.985  47.521  15.341 -0.53 +0.02    -0.043 C  ATOM     15  C   UNL     1      37.271  47.751  13.037 -0.52 -0.04    +0.118 C  ATOM     16  C   UNL     1      37.204  48.815  14.142 -0.54 -0.04    +0.059 C  ATOM     17  C   UNL     1      37.507  46.366  13.632 -0.51 -0.01    +0.037 C  ATOM     18  C   UNL     1      38.244  48.639  15.210 -0.57 +0.01    -0.020 C  ATOM     19  C   UNL     1      38.815  46.329  14.425 -0.46 -0.01    +0.038 C  BRANCH  15  20ATOM     20  O   UNL     1      36.050  47.738  12.299 -0.55 +0.21    -0.393 OA ATOM     21  H   UNL     1      36.135  48.406  11.598 -0.26 -0.12    +0.210 HD ENDBRANCH  15  20ENDBRANCH   1  14BRANCH   8  22ATOM     22  C   UNL     1      39.914  45.486  22.077 -0.30 +0.00    +0.004 A  ATOM     23  C   UNL     1      39.086  44.370  22.265 -0.28 +0.00    +0.013 A  ATOM     24  C   UNL     1      39.762  46.621  22.892 -0.19 +0.00    +0.022 A  ATOM     25  C   UNL     1      38.094  44.349  23.251 -0.30 +0.00    +0.029 A  ATOM     26  C   UNL     1      38.771  46.617  23.887 -0.32 +0.00    +0.020 A  ATOM     27  C   UNL     1      37.968  45.494  24.044 -0.22 +0.01    +0.065 A  ATOM     28  C   UNL     1      38.318  47.516  24.877 -0.28 +0.02    +0.143 A  ATOM     29  N   UNL     1      37.125  45.799  25.079 -0.12 -0.04    -0.278 N  ATOM     30  N   UNL     1      37.301  47.029  25.600 -0.72 -0.01    -0.183 NA ATOM     31  H   UNL     1      36.403  45.209  25.473 -0.10 -0.00    +0.190 HD ENDBRANCH   8  22TORSDOF 3TERENDMDL