MODEL        7USER    Run = 7USERUSER    Estimated Free Energy of Binding    = -10.03 kcal/mol  [=(1)+(2)+(3)-(4)]USERUSER    (1) Final Intermolecular Energy     = -11.82 kcal/molUSER        vdW + Hbond + desolv Energy     = -11.71 kcal/molUSER        Electrostatic Energy            =  -0.11 kcal/molUSER        Moving Ligand-Fixed Receptor    = -11.82 kcal/molUSER        Moving Ligand-Moving Receptor   =  +0.00 kcal/molUSER    (2) Final Total Internal Energy     =  -2.36 kcal/molUSER    (3) Torsional Free Energy           =  +1.79 kcal/molUSER    (4) Unbound System's Energy         =  -2.36 kcal/molUSERUSERREMARK SMILES CC(=O)N[C@H]1C[C@H]1S(=O)(=O)Nc1cc(-c2ccnc(C)c2)cc(-c2nccs2)c1REMARK SMILES IDX 8 1 9 2 10 3 7 4 5 5 6 6 4 7 2 8 1 9 3 10 11 12 12 14 13 15REMARK SMILES IDX 29 16 14 17 23 18 22 19 15 20 16 21 21 22 17 23 19 24 18 25REMARK SMILES IDX 20 26 24 27 25 28 28 29 26 30 27 31REMARK H PARENT 4 11 11 13USER                              x       y       z     vdW  Elec       q    TypeUSER                           _______ _______ _______ _____ _____    ______ ____ROOTATOM      1  S   UNL     1      37.218  46.764  13.708 -0.51 -0.10    +0.237 S  ATOM      2  O   UNL     1      35.896  46.257  13.390 -0.41 +0.12    -0.206 OA ATOM      3  O   UNL     1      38.023  47.385  12.679 -0.95 +0.03    -0.206 OA ENDROOTBRANCH   1   4ATOM      4  C   UNL     1      37.063  47.973  15.037 -0.41 -0.13    +0.154 C  ATOM      5  C   UNL     1      38.210  48.920  15.262 -0.42 -0.07    +0.103 C  ATOM      6  C   UNL     1      36.960  49.400  14.571 -0.29 -0.05    +0.050 C  BRANCH   5   7ATOM      7  N   UNL     1      39.451  48.903  14.548 -0.17 +0.16    -0.352 N  ATOM      8  C   UNL     1      40.652  49.256  15.127 -0.51 -0.06    +0.217 C  ATOM      9  C   UNL     1      41.813  49.249  14.170 -0.50 -0.01    +0.114 C  ATOM     10  O   UNL     1      40.782  49.567  16.307 -0.60 +0.06    -0.275 OA ATOM     11  H   UNL     1      39.417  48.766  13.536 +0.02 -0.05    +0.163 HD ENDBRANCH   5   7ENDBRANCH   1   4BRANCH   1  12ATOM     12  N   UNL     1      38.088  45.429  14.311 -0.20 +0.08    -0.283 N  ATOM     13  H   UNL     1      38.990  45.408  13.830 +0.12 -0.04    +0.180 HD BRANCH  12  14ATOM     14  C   UNL     1      38.205  45.362  15.733 -0.27 -0.01    +0.050 A  ATOM     15  C   UNL     1      37.245  44.695  16.490 -0.32 -0.01    +0.035 A  ATOM     16  C   UNL     1      39.336  45.895  16.346 -0.33 -0.01    +0.038 A  ATOM     17  C   UNL     1      37.396  44.560  17.878 -0.34 +0.00    -0.015 A  ATOM     18  C   UNL     1      39.524  45.786  17.731 -0.43 -0.00    +0.013 A  ATOM     19  C   UNL     1      38.544  45.113  18.481 -0.38 -0.00    +0.020 A  BRANCH  17  20ATOM     20  C   UNL     1      36.395  43.839  18.679 -0.32 +0.00    -0.015 A  ATOM     21  C   UNL     1      35.043  43.835  18.319 -0.31 -0.01    +0.029 A  ATOM     22  C   UNL     1      36.763  43.130  19.830 -0.31 -0.00    +0.032 A  ATOM     23  C   UNL     1      34.142  43.139  19.106 -0.31 -0.01    +0.112 A  ATOM     24  C   UNL     1      35.792  42.458  20.567 -0.45 +0.00    +0.038 A  ATOM     25  N   UNL     1      34.486  42.455  20.216 -0.44 -0.03    -0.262 NA ATOM     26  C   UNL     1      36.175  41.701  21.804 -0.56 +0.00    +0.067 C  ENDBRANCH  17  20BRANCH  18  27ATOM     27  C   UNL     1      40.752  46.354  18.321 -0.41 -0.01    +0.123 A  ATOM     28  N   UNL     1      41.444  47.333  17.763 -0.36 +0.02    -0.245 NA ATOM     29  S   UNL     1      41.386  45.807  19.831 -0.50 -0.01    -0.122 S  ATOM     30  C   UNL     1      42.532  47.661  18.547 -0.40 +0.00    +0.123 A  ATOM     31  C   UNL     1      42.666  46.936  19.709 -0.42 +0.02    +0.087 A  ENDBRANCH  18  27ENDBRANCH  12  14ENDBRANCH   1  12TORSDOF 6TERENDMDL