MODEL        2USER    Run = 2USERUSER    Estimated Free Energy of Binding    = -10.32 kcal/mol  [=(1)+(2)+(3)-(4)]USERUSER    (1) Final Intermolecular Energy     = -12.40 kcal/molUSER        vdW + Hbond + desolv Energy     = -11.85 kcal/molUSER        Electrostatic Energy            =  -0.55 kcal/molUSER        Moving Ligand-Fixed Receptor    = -12.40 kcal/molUSER        Moving Ligand-Moving Receptor   =  +0.00 kcal/molUSER    (2) Final Total Internal Energy     =  -0.81 kcal/molUSER    (3) Torsional Free Energy           =  +2.09 kcal/molUSER    (4) Unbound System's Energy         =  -0.81 kcal/molUSERUSERREMARK SMILES N[C@H]1C[C@@H]1S(=O)(=O)Nc1cc(-c2ccnc(O)c2)cc(-c2nccs2)c1REMARK SMILES IDX 8 1 5 3 6 4 7 5 4 6 2 7 3 8 1 9 9 12 10 13 26 14 11 15 20 16REMARK SMILES IDX 19 17 12 18 13 19 18 20 14 21 16 22 15 23 17 24 21 26 22 27REMARK SMILES IDX 25 28 23 29 24 30REMARK H PARENT 8 2 1 10 1 11 17 25USER                              x       y       z     vdW  Elec       q    TypeUSER                           _______ _______ _______ _____ _____    ______ ____ROOTATOM      1  N   UNL     1      38.338  44.359  17.608 -0.17 +0.05    -0.283 N  ATOM      2  H   UNL     1      38.072  44.299  16.623 +0.11 -0.04    +0.180 HD ENDROOTBRANCH   1   3ATOM      3  S   UNL     1      36.895  44.505  18.503 -0.35 -0.05    +0.237 S  ATOM      4  O   UNL     1      37.312  44.765  19.865 -0.30 +0.01    -0.206 OA ATOM      5  O   UNL     1      36.072  43.356  18.197 -0.24 +0.05    -0.206 OA BRANCH   3   6ATOM      6  C   UNL     1      36.007  45.956  17.885 -0.22 -0.07    +0.148 C  ATOM      7  C   UNL     1      34.557  46.003  18.279 -0.48 -0.04    +0.072 C  ATOM      8  C   UNL     1      34.943  45.655  16.866 -0.37 -0.03    +0.043 C  BRANCH   7   9ATOM      9  N   UNL     1      33.913  47.300  18.515 -0.87 +0.30    -0.326 NA ATOM     10  H   UNL     1      33.876  47.842  17.649 -0.48 -0.29    +0.119 HD ATOM     11  H   UNL     1      32.941  47.181  18.801 -0.46 -0.10    +0.119 HD ENDBRANCH   7   9ENDBRANCH   3   6ENDBRANCH   1   3BRANCH   1  12ATOM     12  C   UNL     1      39.333  45.354  17.867 -0.38 -0.01    +0.050 A  ATOM     13  C   UNL     1      40.120  45.285  19.016 -0.42 -0.00    +0.035 A  ATOM     14  C   UNL     1      39.545  46.353  16.917 -0.43 -0.01    +0.038 A  ATOM     15  C   UNL     1      41.125  46.236  19.247 -0.45 -0.00    -0.015 A  ATOM     16  C   UNL     1      40.543  47.317  17.107 -0.51 -0.00    +0.013 A  ATOM     17  C   UNL     1      41.315  47.243  18.283 -0.51 -0.00    +0.020 A  BRANCH  15  18ATOM     18  C   UNL     1      41.962  46.177  20.457 -0.37 -0.00    -0.011 A  ATOM     19  C   UNL     1      41.544  45.478  21.598 -0.27 +0.00    +0.029 A  ATOM     20  C   UNL     1      43.204  46.818  20.511 -0.31 +0.03    +0.077 A  ATOM     21  C   UNL     1      42.368  45.453  22.717 -0.14 +0.02    +0.116 A  ATOM     22  C   UNL     1      43.938  46.724  21.675 -0.20 +0.12    +0.211 A  ATOM     23  N   UNL     1      43.567  46.066  22.782 -0.11 -0.07    -0.222 NA BRANCH  22  24ATOM     24  O   UNL     1      45.148  47.325  21.775 -0.69 -0.45    -0.493 OA ATOM     25  H   UNL     1      44.880  48.253  21.649 -0.38 +0.08    +0.295 HD ENDBRANCH  22  24ENDBRANCH  15  18BRANCH  16  26ATOM     26  C   UNL     1      40.818  48.404  16.144 -0.47 -0.02    +0.123 A  ATOM     27  N   UNL     1      41.441  49.525  16.463 -1.00 -0.00    -0.245 NA ATOM     28  S   UNL     1      40.367  48.296  14.479 -0.52 +0.02    -0.122 S  ATOM     29  C   UNL     1      41.567  50.342  15.357 -0.53 -0.02    +0.123 A  ATOM     30  C   UNL     1      41.041  49.842  14.189 -0.34 -0.03    +0.087 A  ENDBRANCH  16  26ENDBRANCH   1  12TORSDOF 7TERENDMDL