MODEL        2USER    Run = 2USERUSER    Estimated Free Energy of Binding    =  -8.63 kcal/mol  [=(1)+(2)+(3)-(4)]USERUSER    (1) Final Intermolecular Energy     = -10.12 kcal/molUSER        vdW + Hbond + desolv Energy     = -10.02 kcal/molUSER        Electrostatic Energy            =  -0.10 kcal/molUSER        Moving Ligand-Fixed Receptor    = -10.12 kcal/molUSER        Moving Ligand-Moving Receptor   =  +0.00 kcal/molUSER    (2) Final Total Internal Energy     =  -1.10 kcal/molUSER    (3) Torsional Free Energy           =  +1.49 kcal/molUSER    (4) Unbound System's Energy         =  -1.10 kcal/molUSERUSERREMARK SMILES NCC[C@H]1C(=O)Nc2ccc3ncnc(C4=CC[C@H](O)CC4)c3c21REMARK SMILES IDX 4 1 5 2 6 3 7 4 8 5 9 6 10 7 11 8 12 9 13 10 14 11 15 12REMARK SMILES IDX 23 13 24 14 3 16 2 17 1 18 16 21 17 22 22 23 18 24 21 25REMARK SMILES IDX 19 26 20 27REMARK H PARENT 7 15 1 19 1 20 20 28USER                              x       y       z     vdW  Elec       q    TypeUSER                           _______ _______ _______ _____ _____    ______ ____ROOTATOM      1  C   UNL     1      39.314  47.689  15.676 -0.49 -0.04    +0.113 C  ATOM      2  C   UNL     1      40.752  48.238  15.629 -0.43 -0.04    +0.232 C  ATOM      3  O   UNL     1      41.222  48.983  14.784 -0.50 +0.04    -0.274 OA ATOM      4  N   UNL     1      41.413  47.758  16.744 -0.17 +0.03    -0.325 N  ATOM      5  C   UNL     1      40.595  46.935  17.496 -0.48 -0.01    +0.046 A  ATOM      6  C   UNL     1      40.918  46.334  18.687 -0.47 -0.00    +0.029 A  ATOM      7  C   UNL     1      39.931  45.553  19.286 -0.41 -0.00    +0.031 A  ATOM      8  C   UNL     1      38.686  45.326  18.695 -0.35 -0.01    +0.075 A  ATOM      9  N   UNL     1      37.840  44.543  19.370 -0.22 +0.02    -0.236 NA ATOM     10  C   UNL     1      36.663  44.280  18.798 -0.20 -0.04    +0.223 A  ATOM     11  N   UNL     1      36.269  44.691  17.594 -0.17 +0.08    -0.236 NA ATOM     12  C   UNL     1      37.142  45.471  16.917 -0.30 -0.03    +0.077 A  ATOM     13  C   UNL     1      38.383  45.896  17.442 -0.37 -0.01    +0.032 A  ATOM     14  C   UNL     1      39.348  46.777  16.883 -0.45 +0.00    -0.000 A  ATOM     15  H   UNL     1      42.363  48.014  16.969 -0.40 -0.00    +0.169 HD ENDROOTBRANCH   1  16ATOM     16  C   UNL     1      38.321  48.863  15.714 -0.35 -0.02    +0.033 C  BRANCH  16  17ATOM     17  C   UNL     1      37.217  48.887  14.649 -0.51 -0.07    +0.079 C  BRANCH  17  18ATOM     18  N   UNL     1      37.714  48.545  13.323 -0.49 +0.09    -0.330 NA ATOM     19  H   UNL     1      38.057  47.585  13.316 +0.07 -0.03    +0.118 HD ATOM     20  H   UNL     1      38.517  49.132  13.099 -0.18 -0.02    +0.118 HD ENDBRANCH  17  18ENDBRANCH  16  17ENDBRANCH   1  16BRANCH  12  21ATOM     21  C   UNL     1      36.708  45.684  15.524 -0.41 +0.01    -0.025 C  ATOM     22  C   UNL     1      35.489  46.187  15.253 -0.41 +0.02    -0.019 C  ATOM     23  C   UNL     1      37.627  45.146  14.452 -0.41 -0.01    +0.040 C  ATOM     24  C   UNL     1      34.971  46.367  13.857 -0.43 -0.05    +0.059 C  ATOM     25  C   UNL     1      36.936  44.987  13.096 -0.52 -0.01    +0.037 C  ATOM     26  C   UNL     1      36.050  46.190  12.781 -0.55 -0.06    +0.118 C  BRANCH  26  27ATOM     27  O   UNL     1      35.446  45.991  11.505 -0.18 +0.22    -0.393 OA ATOM     28  H   UNL     1      34.490  45.875  11.648 -0.26 -0.17    +0.210 HD ENDBRANCH  26  27ENDBRANCH  12  21TORSDOF 5TERENDMDL