MODEL        3USER    Run = 3USERUSER    Estimated Free Energy of Binding    =  -9.68 kcal/mol  [=(1)+(2)+(3)-(4)]USERUSER    (1) Final Intermolecular Energy     = -12.07 kcal/molUSER        vdW + Hbond + desolv Energy     = -11.83 kcal/molUSER        Electrostatic Energy            =  -0.24 kcal/molUSER        Moving Ligand-Fixed Receptor    = -12.07 kcal/molUSER        Moving Ligand-Moving Receptor   =  +0.00 kcal/molUSER    (2) Final Total Internal Energy     =  -1.88 kcal/molUSER    (3) Torsional Free Energy           =  +2.39 kcal/molUSER    (4) Unbound System's Energy         =  -1.88 kcal/molUSERUSERREMARK SMILES O=C(O)CCC[C@@H]1Cc2cc(-c3cccc(-c4ccncc4)c3F)ccc2C[C@@H]1OREMARK SMILES IDX 5 1 4 2 2 3 1 4 3 5 6 7 7 8 8 9 29 10 9 11 28 12 10 13 27 14REMARK SMILES IDX 11 15 26 16 25 17 30 18 12 20 13 21 23 22 14 23 16 24 15 25REMARK SMILES IDX 24 26 17 27 18 28 22 29 19 30 21 31 20 32REMARK H PARENT 3 6 30 19USER                              x       y       z     vdW  Elec       q    TypeUSER                           _______ _______ _______ _____ _____    ______ ____ROOTATOM      1  C   UNL     1      28.448  43.083  15.787 -0.27 -0.01    +0.012 C  ENDROOTBRANCH   1   2ATOM      2  C   UNL     1      27.688  41.972  16.509 -0.21 -0.03    +0.122 C  BRANCH   2   3ATOM      3  C   UNL     1      27.705  40.664  15.762 -0.20 -0.03    +0.303 C  ATOM      4  O   UNL     1      26.807  40.175  15.100 -0.71 -0.01    -0.252 OA BRANCH   3   5ATOM      5  O   UNL     1      28.898  40.045  15.861 -0.13 -0.05    -0.481 OA ATOM      6  H   UNL     1      29.518  40.764  16.106 +0.16 -0.05    +0.296 HD ENDBRANCH   3   5ENDBRANCH   2   3ENDBRANCH   1   2BRANCH   1   7ATOM      7  C   UNL     1      29.156  44.094  16.700 -0.28 -0.00    +0.007 C  BRANCH   7   8ATOM      8  C   UNL     1      30.658  43.845  16.954 -0.31 -0.01    +0.022 C  ATOM      9  C   UNL     1      31.477  44.611  15.895 -0.38 -0.02    +0.042 C  ATOM     10  C   UNL     1      31.048  42.358  16.932 -0.28 -0.04    +0.122 C  ATOM     11  C   UNL     1      32.958  44.324  15.958 -0.30 +0.02    -0.044 A  ATOM     12  C   UNL     1      32.540  42.175  17.251 -0.34 -0.03    +0.067 C  ATOM     13  C   UNL     1      33.852  45.215  15.338 -0.30 -0.01    +0.012 A  ATOM     14  C   UNL     1      33.452  43.160  16.562 -0.32 +0.02    -0.042 A  ATOM     15  C   UNL     1      35.239  44.989  15.332 -0.33 +0.01    -0.015 A  ATOM     16  C   UNL     1      34.834  42.928  16.568 -0.42 -0.00    +0.005 A  ATOM     17  C   UNL     1      35.712  43.829  15.962 -0.38 -0.00    +0.009 A  BRANCH  10  18ATOM     18  O   UNL     1      30.715  41.793  15.662 -0.20 +0.21    -0.392 OA ATOM     19  H   UNL     1      30.936  40.847  15.682 -0.47 -0.12    +0.210 HD ENDBRANCH  10  18BRANCH  15  20ATOM     20  C   UNL     1      36.162  45.944  14.691 -0.39 -0.01    +0.018 A  ATOM     21  C   UNL     1      35.954  46.358  13.364 -0.52 -0.01    +0.012 A  ATOM     22  C   UNL     1      37.276  46.473  15.372 -0.29 -0.07    +0.138 A  ATOM     23  C   UNL     1      36.821  47.260  12.748 -0.65 -0.00    +0.001 A  ATOM     24  C   UNL     1      38.169  47.384  14.774 -0.46 -0.01    +0.018 A  ATOM     25  C   UNL     1      37.917  47.767  13.447 -0.50 -0.00    +0.012 A  ATOM     26  F   UNL     1      37.506  46.082  16.638 -0.07 +0.09    -0.206 F  BRANCH  24  27ATOM     27  C   UNL     1      39.330  47.924  15.505 -0.51 +0.00    -0.012 A  ATOM     28  C   UNL     1      39.952  49.113  15.107 -0.45 -0.01    +0.029 A  ATOM     29  C   UNL     1      39.858  47.262  16.620 -0.48 -0.01    +0.029 A  ATOM     30  C   UNL     1      41.048  49.576  15.820 -0.55 -0.02    +0.111 A  ATOM     31  C   UNL     1      40.958  47.802  17.270 -0.43 -0.01    +0.111 A  ATOM     32  N   UNL     1      41.568  48.943  16.892 -0.84 -0.02    -0.265 NA ENDBRANCH  24  27ENDBRANCH  15  20ENDBRANCH   7   8ENDBRANCH   1   7TORSDOF 8TERENDMDL