REMARK SMILES O=C(O)CCC[C@@H]1Cc2cc(-c3cccc(-c4ccncc4)c3F)ccc2C[C@@H]1O
REMARK SMILES IDX 5 1 4 2 2 3 1 4 3 5 6 7 7 8 8 9 29 10 9 11 28 12 10 13 27 14
REMARK SMILES IDX 11 15 26 16 25 17 30 18 12 20 13 21 23 22 14 23 16 24 15 25
REMARK SMILES IDX 24 26 17 27 18 28 22 29 19 30 21 31 20 32
REMARK H PARENT 3 6 30 19
ROOT
ATOM      1  C   UNL     1      -6.126  -0.673  -0.633  1.00  0.00     0.012 C 
ENDROOT
BRANCH   1   2
ATOM      2  C   UNL     1      -6.594  -0.272   0.765  1.00  0.00     0.122 C 
BRANCH   2   3
ATOM      3  C   UNL     1      -6.809   1.211   0.912  1.00  0.00     0.303 C 
ATOM      4  O   UNL     1      -7.018   2.022   0.027  1.00  0.00    -0.252 OA
BRANCH   3   5
ATOM      5  O   UNL     1      -6.786   1.597   2.203  1.00  0.00    -0.481 OA
ATOM      6  H   UNL     1      -6.959   2.561   2.164  1.00  0.00     0.296 HD
ENDBRANCH   3   5
ENDBRANCH   2   3
ENDBRANCH   1   2
BRANCH   1   7
ATOM      7  C   UNL     1      -4.747  -0.136  -1.043  1.00  0.00     0.007 C 
BRANCH   7   8
ATOM      8  C   UNL     1      -3.574  -0.485  -0.102  1.00  0.00     0.022 C 
ATOM      9  C   UNL     1      -2.280   0.134  -0.667  1.00  0.00     0.042 C 
ATOM     10  C   UNL     1      -3.377  -1.996   0.102  1.00  0.00     0.122 C 
ATOM     11  C   UNL     1      -1.040  -0.265   0.097  1.00  0.00    -0.044 A 
ATOM     12  C   UNL     1      -2.237  -2.274   1.094  1.00  0.00     0.067 C 
ATOM     13  C   UNL     1       0.128   0.505  -0.049  1.00  0.00     0.012 A 
ATOM     14  C   UNL     1      -1.011  -1.418   0.893  1.00  0.00    -0.042 A 
ATOM     15  C   UNL     1       1.324   0.169   0.608  1.00  0.00    -0.015 A 
ATOM     16  C   UNL     1       0.174  -1.758   1.559  1.00  0.00     0.005 A 
ATOM     17  C   UNL     1       1.323  -0.976   1.417  1.00  0.00     0.009 A 
BRANCH  10  18
ATOM     18  O   UNL     1      -3.134  -2.623  -1.159  1.00  0.00    -0.392 OA
ATOM     19  H   UNL     1      -2.826  -3.530  -0.994  1.00  0.00     0.210 HD
ENDBRANCH  10  18
BRANCH  15  20
ATOM     20  C   UNL     1       2.534   0.998   0.456  1.00  0.00     0.018 A 
ATOM     21  C   UNL     1       2.477   2.388   0.655  1.00  0.00     0.012 A 
ATOM     22  C   UNL     1       3.780   0.439   0.111  1.00  0.00     0.138 A 
ATOM     23  C   UNL     1       3.615   3.182   0.514  1.00  0.00     0.001 A 
ATOM     24  C   UNL     1       4.945   1.217  -0.041  1.00  0.00     0.018 A 
ATOM     25  C   UNL     1       4.836   2.601   0.169  1.00  0.00     0.012 A 
ATOM     26  F   UNL     1       3.859  -0.887  -0.099  1.00  0.00    -0.206 F 
BRANCH  24  27
ATOM     27  C   UNL     1       6.239   0.612  -0.405  1.00  0.00    -0.012 A 
ATOM     28  C   UNL     1       6.750  -0.490   0.291  1.00  0.00     0.029 A 
ATOM     29  C   UNL     1       7.010   1.125  -1.456  1.00  0.00     0.029 A 
ATOM     30  C   UNL     1       7.977  -1.017  -0.082  1.00  0.00     0.111 A 
ATOM     31  C   UNL     1       8.226   0.530  -1.756  1.00  0.00     0.111 A 
ATOM     32  N   UNL     1       8.730  -0.528  -1.089  1.00  0.00    -0.265 NA
ENDBRANCH  24  27
ENDBRANCH  15  20
ENDBRANCH   7   8
ENDBRANCH   1   7
TORSDOF 8
