MODEL        5USER    Run = 5USERUSER    Estimated Free Energy of Binding    =  -9.36 kcal/mol  [=(1)+(2)+(3)-(4)]USERUSER    (1) Final Intermolecular Energy     = -11.15 kcal/molUSER        vdW + Hbond + desolv Energy     = -10.77 kcal/molUSER        Electrostatic Energy            =  -0.38 kcal/molUSER        Moving Ligand-Fixed Receptor    = -11.15 kcal/molUSER        Moving Ligand-Moving Receptor   =  +0.00 kcal/molUSER    (2) Final Total Internal Energy     =  -0.62 kcal/molUSER    (3) Torsional Free Energy           =  +1.79 kcal/molUSER    (4) Unbound System's Energy         =  -0.62 kcal/molUSERUSERREMARK SMILES COc1cc(F)cc(F)c1C(=O)c1ccc2c(nc(-c3ccnc(N)c3)n2C)c1C#NREMARK SMILES IDX 13 1 14 2 15 3 16 4 17 5 18 6 19 7 27 8 28 9 29 10 11 11REMARK SMILES IDX 12 12 10 13 3 14 4 15 5 16 8 17 7 18 6 19 9 20 2 21 1 22REMARK SMILES IDX 30 23 31 24 20 25 21 26 26 27 22 28 24 29 23 30 25 31REMARK H PARENT 25 32 25 33USER                              x       y       z     vdW  Elec       q    TypeUSER                           _______ _______ _______ _____ _____    ______ ____ROOTATOM      1  C   UNL     1      34.036  44.380  17.640 -0.28 -0.02    +0.043 A  ATOM      2  C   UNL     1      33.707  44.682  16.309 -0.31 -0.01    +0.016 A  ATOM      3  C   UNL     1      34.561  45.429  15.487 -0.31 -0.02    +0.029 A  ATOM      4  C   UNL     1      35.766  45.859  16.049 -0.31 -0.05    +0.070 A  ATOM      5  C   UNL     1      36.129  45.568  17.360 -0.27 -0.05    +0.108 A  ATOM      6  N   UNL     1      37.360  46.107  17.642 -0.21 +0.08    -0.227 NA ATOM      7  C   UNL     1      37.753  46.756  16.562 -0.26 -0.07    +0.141 A  ATOM      8  N   UNL     1      36.830  46.580  15.548 -0.15 +0.21    -0.327 N  ATOM      9  C   UNL     1      36.969  47.004  14.174 -0.42 -0.08    +0.152 C  ATOM     10  C   UNL     1      35.264  44.809  18.171 -0.28 -0.03    +0.091 A  ENDROOTBRANCH   1  11ATOM     11  C   UNL     1      33.040  43.575  18.397 -0.27 -0.04    +0.201 C  ATOM     12  O   UNL     1      33.123  43.523  19.623 -0.57 +0.01    -0.288 OA BRANCH  11  13ATOM     13  C   UNL     1      32.003  42.772  17.722 -0.24 -0.02    +0.100 A  ATOM     14  C   UNL     1      30.960  43.387  17.021 -0.20 -0.04    +0.135 A  ATOM     15  C   UNL     1      29.982  42.608  16.397 -0.24 -0.03    +0.086 A  ATOM     16  C   UNL     1      30.036  41.222  16.513 -0.28 -0.03    +0.129 A  ATOM     17  C   UNL     1      32.032  41.380  17.828 -0.27 -0.03    +0.141 A  ATOM     18  C   UNL     1      31.052  40.598  17.226 -0.29 -0.02    +0.079 A  ATOM     19  F   UNL     1      29.093  40.477  15.924 -0.13 +0.02    -0.207 F  ATOM     20  F   UNL     1      33.007  40.769  18.517 -0.09 +0.02    -0.206 F  BRANCH  14  21ATOM     21  O   UNL     1      30.949  44.745  16.842 -0.49 +0.07    -0.496 OA ATOM     22  C   UNL     1      30.429  45.085  15.556 -0.25 -0.12    +0.278 C  ENDBRANCH  14  21ENDBRANCH  11  13ENDBRANCH   1  11BRANCH  10  23ATOM     23  C   UNL     1      35.733  44.508  19.483 -0.35 -0.02    +0.102 C  ATOM     24  N   UNL     1      36.136  44.314  20.555 -0.28 +0.01    -0.192 NA ENDBRANCH  10  23BRANCH   7  25ATOM     25  C   UNL     1      39.011  47.500  16.470 -0.43 -0.01    +0.023 A  ATOM     26  C   UNL     1      39.156  48.616  15.648 -0.49 -0.02    +0.032 A  ATOM     27  C   UNL     1      40.091  47.113  17.268 -0.45 -0.01    +0.058 A  ATOM     28  C   UNL     1      40.381  49.259  15.637 -0.52 -0.04    +0.114 A  ATOM     29  C   UNL     1      41.285  47.817  17.190 -0.36 -0.01    +0.124 A  ATOM     30  N   UNL     1      41.439  48.873  16.378 -0.93 -0.00    -0.240 NA BRANCH  29  31ATOM     31  N   UNL     1      42.371  47.448  17.990 -0.08 +0.03    -0.384 N  ATOM     32  H   UNL     1      43.219  47.881  17.641 -0.39 -0.01    +0.158 HD ATOM     33  H   UNL     1      42.493  46.441  17.943 -0.39 -0.01    +0.158 HD ENDBRANCH  29  31ENDBRANCH   7  25TORSDOF 6TERENDMDL