MODEL        7USER    Run = 7USERUSER    Estimated Free Energy of Binding    = -11.14 kcal/mol  [=(1)+(2)+(3)-(4)]USERUSER    (1) Final Intermolecular Energy     = -13.23 kcal/molUSER        vdW + Hbond + desolv Energy     = -13.10 kcal/molUSER        Electrostatic Energy            =  -0.13 kcal/molUSER        Moving Ligand-Fixed Receptor    = -13.23 kcal/molUSER        Moving Ligand-Moving Receptor   =  +0.00 kcal/molUSER    (2) Final Total Internal Energy     =  -1.91 kcal/molUSER    (3) Torsional Free Energy           =  +2.09 kcal/molUSER    (4) Unbound System's Energy         =  -1.91 kcal/molUSERUSERREMARK SMILES Cc1ccc(-c2nc(-c3ccc([C@@H]4C[C@H]4NC(=O)[C@H](C)N4CCN(C)CC4)cc3F)cnc2O)cc1CREMARK SMILES IDX 13 1 14 2 15 3 12 4 9 5 10 6 29 7 11 8 28 9 30 10 8 11 6 12REMARK SMILES IDX 7 13 33 14 32 15 31 16 5 17 2 18 3 19 36 20 4 21 35 22 1 23REMARK SMILES IDX 37 24 34 25 16 27 17 28 18 30 19 31 20 32 21 33 22 34 27 35REMARK SMILES IDX 23 36 26 37 24 38 25 39REMARK H PARENT 34 26 16 29USER                              x       y       z     vdW  Elec       q    TypeUSER                           _______ _______ _______ _____ _____    ______ ____ROOTATOM      1  C   UNL     1      39.513  44.988  19.036 -0.44 -0.00    +0.044 C  ATOM      2  C   UNL     1      40.912  44.493  18.734 -0.42 +0.00    +0.036 C  ATOM      3  C   UNL     1      40.580  45.946  18.550 -0.47 -0.00    +0.090 C  ENDROOTBRANCH   1   4ATOM      4  C   UNL     1      39.047  44.953  20.470 -0.34 -0.00    -0.040 A  ATOM      5  C   UNL     1      38.105  44.811  23.197 -0.30 +0.00    +0.038 A  ATOM      6  C   UNL     1      39.059  45.764  22.778 -0.32 +0.00    +0.014 A  ATOM      7  C   UNL     1      37.632  43.953  22.193 -0.29 +0.01    +0.132 A  ATOM      8  C   UNL     1      39.513  45.837  21.449 -0.25 +0.00    +0.005 A  ATOM      9  C   UNL     1      38.085  44.018  20.872 -0.33 +0.00    +0.044 A  ATOM     10  F   UNL     1      36.712  43.013  22.457 -0.11 -0.02    -0.206 F  BRANCH   5  11ATOM     11  C   UNL     1      37.666  44.744  24.613 -0.26 +0.01    +0.092 A  ATOM     12  C   UNL     1      36.915  45.933  26.494 -0.22 -0.02    +0.133 A  ATOM     13  N   UNL     1      37.309  45.931  25.184 -0.74 -0.03    -0.240 NA ATOM     14  C   UNL     1      36.904  44.736  27.208 -0.24 -0.04    +0.238 A  ATOM     15  N   UNL     1      37.244  43.546  26.686 -0.17 +0.02    -0.218 NA ATOM     16  C   UNL     1      37.618  43.581  25.382 -0.21 -0.00    +0.144 A  BRANCH  12  17ATOM     17  C   UNL     1      36.559  47.254  27.054 -0.23 -0.00    +0.006 A  ATOM     18  C   UNL     1      35.816  49.775  28.159 -0.24 -0.00    -0.048 A  ATOM     19  C   UNL     1      35.854  48.625  28.954 -0.30 -0.00    +0.004 A  ATOM     20  C   UNL     1      36.181  49.679  26.804 -0.34 -0.00    -0.048 A  ATOM     21  C   UNL     1      36.219  47.389  28.410 -0.32 -0.00    +0.011 A  ATOM     22  C   UNL     1      36.548  48.427  26.274 -0.43 -0.00    +0.014 A  ATOM     23  C   UNL     1      35.409  51.086  28.774 -0.18 +0.01    +0.044 C  ATOM     24  C   UNL     1      36.164  50.881  25.898 -0.43 +0.00    +0.044 C  ENDBRANCH  12  17BRANCH  14  25ATOM     25  O   UNL     1      36.594  44.639  28.523 -0.16 +0.11    -0.492 OA ATOM     26  H   UNL     1      36.423  43.681  28.582 -0.17 -0.12    +0.295 HD ENDBRANCH  14  25ENDBRANCH   5  11ENDBRANCH   1   4BRANCH   3  27ATOM     27  N   UNL     1      40.507  46.491  17.230 -0.22 +0.04    -0.351 N  ATOM     28  C   UNL     1      41.021  47.740  16.913 -0.38 -0.03    +0.237 C  ATOM     29  H   UNL     1      39.749  46.197  16.616 +0.11 -0.03    +0.163 HD ATOM     30  O   UNL     1      41.769  48.379  17.648 -0.72 -0.00    -0.273 OA BRANCH  28  31ATOM     31  C   UNL     1      40.574  48.206  15.503 -0.52 -0.03    +0.143 C  ATOM     32  C   UNL     1      40.837  49.699  15.304 -0.69 -0.01    +0.035 C  BRANCH  31  33ATOM     33  N   UNL     1      39.172  47.772  15.267 -0.26 +0.10    -0.290 NA ATOM     34  C   UNL     1      38.231  48.867  14.966 -0.44 -0.07    +0.101 C  ATOM     35  C   UNL     1      39.058  46.663  14.299 -0.41 -0.02    +0.101 C  ATOM     36  C   UNL     1      36.817  48.329  14.649 -0.39 -0.09    +0.099 C  ATOM     37  C   UNL     1      38.095  46.921  13.114 -0.36 -0.02    +0.099 C  ATOM     38  N   UNL     1      36.754  47.373  13.527 -0.33 +0.15    -0.304 NA ATOM     39  C   UNL     1      36.031  47.922  12.382 -0.56 -0.05    +0.105 C  ENDBRANCH  31  33ENDBRANCH  28  31ENDBRANCH   3  27TORSDOF 7TERENDMDL