REMARK SMILES COc1cc(F)cc(F)c1C(=O)c1ccc2c(nc(-c3ccnc(N)c3)n2C)c1C#N
REMARK SMILES IDX 13 1 14 2 15 3 16 4 17 5 18 6 19 7 27 8 28 9 29 10 11 11
REMARK SMILES IDX 12 12 10 13 3 14 4 15 5 16 8 17 7 18 6 19 9 20 2 21 1 22
REMARK SMILES IDX 30 23 31 24 20 25 21 26 26 27 22 28 24 29 23 30 25 31
REMARK H PARENT 25 32 25 33
ROOT
ATOM      1  C   UNL     1      -1.518   0.234  -1.163  1.00  0.00     0.043 A 
ATOM      2  C   UNL     1      -0.940   0.616  -2.385  1.00  0.00     0.016 A 
ATOM      3  C   UNL     1       0.448   0.685  -2.557  1.00  0.00     0.029 A 
ATOM      4  C   UNL     1       1.241   0.349  -1.456  1.00  0.00     0.070 A 
ATOM      5  C   UNL     1       0.702  -0.045  -0.235  1.00  0.00     0.108 A 
ATOM      6  N   UNL     1       1.707  -0.320   0.660  1.00  0.00    -0.227 NA
ATOM      7  C   UNL     1       2.849  -0.070   0.046  1.00  0.00     0.141 A 
ATOM      8  N   UNL     1       2.606   0.287  -1.267  1.00  0.00    -0.327 N 
ATOM      9  C   UNL     1       3.595   0.492  -2.300  1.00  0.00     0.152 C 
ATOM     10  C   UNL     1      -0.695  -0.118  -0.081  1.00  0.00     0.091 A 
ENDROOT
BRANCH   1  11
ATOM     11  C   UNL     1      -3.005   0.198  -1.122  1.00  0.00     0.201 C 
ATOM     12  O   UNL     1      -3.622  -0.116  -2.138  1.00  0.00    -0.288 OA
BRANCH  11  13
ATOM     13  C   UNL     1      -3.768   0.602   0.074  1.00  0.00     0.100 A 
ATOM     14  C   UNL     1      -4.780  -0.214   0.592  1.00  0.00     0.135 A 
ATOM     15  C   UNL     1      -5.497   0.192   1.720  1.00  0.00     0.086 A 
ATOM     16  C   UNL     1      -5.221   1.428   2.296  1.00  0.00     0.129 A 
ATOM     17  C   UNL     1      -3.514   1.840   0.668  1.00  0.00     0.141 A 
ATOM     18  C   UNL     1      -4.236   2.260   1.779  1.00  0.00     0.079 A 
ATOM     19  F   UNL     1      -5.916   1.822   3.370  1.00  0.00    -0.207 F 
ATOM     20  F   UNL     1      -2.567   2.651   0.173  1.00  0.00    -0.206 F 
BRANCH  14  21
ATOM     21  O   UNL     1      -4.999  -1.462   0.072  1.00  0.00    -0.496 OA
ATOM     22  C   UNL     1      -6.215  -1.495  -0.677  1.00  0.00     0.278 C 
ENDBRANCH  14  21
ENDBRANCH  11  13
ENDBRANCH   1  11
BRANCH  10  23
ATOM     23  C   UNL     1      -1.166  -0.582   1.182  1.00  0.00     0.102 C 
ATOM     24  N   UNL     1      -1.599  -0.936   2.200  1.00  0.00    -0.192 NA
ENDBRANCH  10  23
BRANCH   7  25
ATOM     25  C   UNL     1       4.162  -0.210   0.678  1.00  0.00     0.023 A 
ATOM     26  C   UNL     1       5.155   0.759   0.552  1.00  0.00     0.032 A 
ATOM     27  C   UNL     1       4.417  -1.328   1.478  1.00  0.00     0.058 A 
ATOM     28  C   UNL     1       6.360   0.542   1.195  1.00  0.00     0.114 A 
ATOM     29  C   UNL     1       5.658  -1.464   2.085  1.00  0.00     0.124 A 
ATOM     30  N   UNL     1       6.628  -0.549   1.941  1.00  0.00    -0.240 NA
BRANCH  29  31
ATOM     31  N   UNL     1       5.925  -2.572   2.896  1.00  0.00    -0.384 N 
ATOM     32  H   UNL     1       5.780  -3.427   2.370  1.00  0.00     0.158 HD
ATOM     33  H   UNL     1       5.279  -2.575   3.680  1.00  0.00     0.158 HD
ENDBRANCH  29  31
ENDBRANCH   7  25
TORSDOF 6
