MODEL        2USER    Run = 2USERUSER    Estimated Free Energy of Binding    = -10.00 kcal/mol  [=(1)+(2)+(3)-(4)]USERUSER    (1) Final Intermolecular Energy     = -13.29 kcal/molUSER        vdW + Hbond + desolv Energy     = -13.12 kcal/molUSER        Electrostatic Energy            =  -0.16 kcal/molUSER        Moving Ligand-Fixed Receptor    = -13.29 kcal/molUSER        Moving Ligand-Moving Receptor   =  +0.00 kcal/molUSER    (2) Final Total Internal Energy     =  -1.69 kcal/molUSER    (3) Torsional Free Energy           =  +3.28 kcal/molUSER    (4) Unbound System's Energy         =  -1.69 kcal/molUSERUSERREMARK SMILES Cc1c(CCC[C@H]2C[C@H](c3cncnc3N)C2)cccc1OCCN1CCN(S(C)(=O)=O)CC1REMARK SMILES IDX 1 1 2 2 3 3 18 4 19 5 20 6 21 7 4 8 5 9 6 10 7 11 17 12 8 13REMARK SMILES IDX 9 14 10 15 11 16 15 17 12 18 14 19 13 20 16 21 22 24 23 25REMARK SMILES IDX 24 26 25 27 26 28 34 29 27 30 33 31 28 32 29 33 30 34 31 35REMARK SMILES IDX 32 36REMARK H PARENT 16 22 16 23USER                              x       y       z     vdW  Elec       q    TypeUSER                           _______ _______ _______ _____ _____    ______ ____ROOTATOM      1  C   UNL     1      38.738  45.499  22.657 -0.35 +0.00    +0.049 C  ATOM      2  C   UNL     1      37.969  44.199  22.680 -0.34 -0.00    -0.006 A  ATOM      3  C   UNL     1      37.412  43.677  21.486 -0.37 -0.00    -0.041 A  ATOM      4  C   UNL     1      36.717  42.456  21.531 -0.48 +0.00    +0.004 A  ATOM      5  C   UNL     1      36.560  41.767  22.729 -0.53 +0.00    +0.004 A  ATOM      6  C   UNL     1      37.101  42.282  23.904 -0.39 +0.00    +0.047 A  ATOM      7  C   UNL     1      37.813  43.485  23.891 -0.25 +0.01    +0.122 A  ENDROOTBRANCH   3   8ATOM      8  C   UNL     1      37.527  44.376  20.145 -0.41 -0.00    +0.036 C  BRANCH   8   9ATOM      9  C   UNL     1      38.969  44.511  19.632 -0.41 -0.00    +0.005 C  BRANCH   9  10ATOM     10  C   UNL     1      39.225  45.832  18.902 -0.46 -0.00    +0.004 C  BRANCH  10  11ATOM     11  C   UNL     1      39.323  45.706  17.378 -0.46 +0.00    -0.010 C  ATOM     12  C   UNL     1      39.282  46.981  16.500 -0.51 -0.00    +0.012 C  ATOM     13  C   UNL     1      38.117  45.170  16.570 -0.38 -0.00    +0.012 C  ATOM     14  C   UNL     1      37.832  46.616  16.081 -0.43 -0.01    +0.025 C  BRANCH  14  15ATOM     15  C   UNL     1      37.393  46.830  14.572 -0.42 -0.01    +0.016 A  ATOM     16  C   UNL     1      37.209  45.772  13.685 -0.37 -0.05    +0.120 A  ATOM     17  C   UNL     1      37.139  48.071  13.980 -0.45 -0.07    +0.130 A  ATOM     18  N   UNL     1      36.835  45.878  12.396 -0.38 +0.09    -0.244 NA ATOM     19  N   UNL     1      36.766  48.233  12.701 -0.92 +0.07    -0.220 NA ATOM     20  C   UNL     1      36.631  47.124  11.968 -0.48 -0.09    +0.224 A  BRANCH  17  21ATOM     21  N   UNL     1      37.271  49.255  14.723 -0.22 +0.34    -0.383 N  ATOM     22  H   UNL     1      37.651  49.989  14.135 -0.47 -0.15    +0.158 HD ATOM     23  H   UNL     1      36.361  49.549  15.061 -0.10 -0.25    +0.158 HD ENDBRANCH  17  21ENDBRANCH  14  15ENDBRANCH  10  11ENDBRANCH   9  10ENDBRANCH   8   9ENDBRANCH   3   8BRANCH   7  24ATOM     24  O   UNL     1      38.368  44.061  25.006 -0.01 -0.01    -0.492 OA BRANCH  24  25ATOM     25  C   UNL     1      37.516  44.683  25.972 -0.21 -0.01    +0.245 C  BRANCH  25  26ATOM     26  C   UNL     1      37.035  46.050  25.469 -0.19 +0.01    +0.126 C  BRANCH  26  27ATOM     27  N   UNL     1      37.733  47.257  25.913 -0.27 -0.00    -0.297 NA ATOM     28  C   UNL     1      38.941  47.048  26.722 -0.22 -0.00    +0.101 C  ATOM     29  C   UNL     1      37.920  48.306  24.901 -0.40 +0.01    +0.101 C  ATOM     30  C   UNL     1      40.278  46.985  25.956 -0.15 +0.01    +0.117 C  ATOM     31  C   UNL     1      39.239  48.253  24.103 -0.35 +0.02    +0.117 C  ATOM     32  N   UNL     1      40.400  48.131  25.020 -0.18 -0.02    -0.200 NA BRANCH  32  33ATOM     33  S   UNL     1      41.929  48.465  24.389 -0.38 +0.04    +0.211 S  ATOM     34  C   UNL     1      42.248  47.052  23.349 -0.18 +0.02    +0.176 C  ATOM     35  O   UNL     1      42.878  48.428  25.481 -0.18 -0.02    -0.213 OA ATOM     36  O   UNL     1      41.815  49.625  23.532 -0.82 -0.08    -0.213 OA ENDBRANCH  32  33ENDBRANCH  26  27ENDBRANCH  25  26ENDBRANCH  24  25ENDBRANCH   7  24TORSDOF 11TERENDMDL