REMARK SMILES Cc1c(CCC[C@H]2C[C@H](c3cncnc3N)C2)cccc1OCCN1CCN(S(C)(=O)=O)CC1
REMARK SMILES IDX 1 1 2 2 3 3 18 4 19 5 20 6 21 7 4 8 5 9 6 10 7 11 17 12 8 13
REMARK SMILES IDX 9 14 10 15 11 16 15 17 12 18 14 19 13 20 16 21 22 24 23 25
REMARK SMILES IDX 24 26 25 27 26 28 34 29 27 30 33 31 28 32 29 33 30 34 31 35
REMARK SMILES IDX 32 36
REMARK H PARENT 16 22 16 23
ROOT
ATOM      1  C   UNL     1       0.158   2.170  -1.831  1.00  0.00     0.049 C 
ATOM      2  C   UNL     1       0.258   0.724  -1.407  1.00  0.00    -0.006 A 
ATOM      3  C   UNL     1      -0.788  -0.184  -1.709  1.00  0.00    -0.041 A 
ATOM      4  C   UNL     1      -0.662  -1.528  -1.320  1.00  0.00     0.004 A 
ATOM      5  C   UNL     1       0.464  -1.971  -0.634  1.00  0.00     0.004 A 
ATOM      6  C   UNL     1       1.490  -1.079  -0.331  1.00  0.00     0.047 A 
ATOM      7  C   UNL     1       1.404   0.261  -0.719  1.00  0.00     0.122 A 
ENDROOT
BRANCH   3   8
ATOM      8  C   UNL     1      -2.053   0.225  -2.439  1.00  0.00     0.036 C 
BRANCH   8   9
ATOM      9  C   UNL     1      -3.313   0.215  -1.560  1.00  0.00     0.005 C 
BRANCH   9  10
ATOM     10  C   UNL     1      -3.302   1.302  -0.483  1.00  0.00     0.004 C 
BRANCH  10  11
ATOM     11  C   UNL     1      -4.565   1.350   0.384  1.00  0.00    -0.010 C 
ATOM     12  C   UNL     1      -5.053   0.066   1.098  1.00  0.00     0.012 C 
ATOM     13  C   UNL     1      -5.956   1.448  -0.286  1.00  0.00     0.012 C 
ATOM     14  C   UNL     1      -6.201  -0.046   0.058  1.00  0.00     0.025 C 
BRANCH  14  15
ATOM     15  C   UNL     1      -7.644  -0.481   0.552  1.00  0.00     0.016 A 
ATOM     16  C   UNL     1      -8.278   0.117   1.639  1.00  0.00     0.120 A 
ATOM     17  C   UNL     1      -8.425  -1.481  -0.036  1.00  0.00     0.130 A 
ATOM     18  N   UNL     1      -9.499  -0.197   2.111  1.00  0.00    -0.244 NA
ATOM     19  N   UNL     1      -9.646  -1.834   0.395  1.00  0.00    -0.220 NA
ATOM     20  C   UNL     1     -10.126  -1.172   1.452  1.00  0.00     0.224 A 
BRANCH  17  21
ATOM     21  N   UNL     1      -7.949  -2.194  -1.148  1.00  0.00    -0.383 N 
ATOM     22  H   UNL     1      -7.755  -1.552  -1.909  1.00  0.00     0.158 HD
ATOM     23  H   UNL     1      -7.090  -2.675  -0.903  1.00  0.00     0.158 HD
ENDBRANCH  17  21
ENDBRANCH  14  15
ENDBRANCH  10  11
ENDBRANCH   9  10
ENDBRANCH   8   9
ENDBRANCH   3   8
BRANCH   7  24
ATOM     24  O   UNL     1       2.366   1.201  -0.451  1.00  0.00    -0.492 OA
BRANCH  24  25
ATOM     25  C   UNL     1       3.664   0.775  -0.027  1.00  0.00     0.245 C 
BRANCH  25  26
ATOM     26  C   UNL     1       3.755   0.761   1.505  1.00  0.00     0.126 C 
BRANCH  26  27
ATOM     27  N   UNL     1       5.015   0.373   2.139  1.00  0.00    -0.297 NA
ATOM     28  C   UNL     1       5.406  -1.036   1.998  1.00  0.00     0.101 C 
ATOM     29  C   UNL     1       6.149   1.285   1.937  1.00  0.00     0.101 C 
ATOM     30  C   UNL     1       6.315  -1.379   0.800  1.00  0.00     0.117 C 
ATOM     31  C   UNL     1       7.061   0.979   0.731  1.00  0.00     0.117 C 
ATOM     32  N   UNL     1       7.470  -0.448   0.734  1.00  0.00    -0.200 NA
BRANCH  32  33
ATOM     33  S   UNL     1       8.772  -0.888  -0.245  1.00  0.00     0.211 S 
ATOM     34  C   UNL     1       8.109  -0.714  -1.891  1.00  0.00     0.176 C 
ATOM     35  O   UNL     1       9.039  -2.293  -0.026  1.00  0.00    -0.213 OA
ATOM     36  O   UNL     1       9.809   0.108  -0.082  1.00  0.00    -0.213 OA
ENDBRANCH  32  33
ENDBRANCH  26  27
ENDBRANCH  25  26
ENDBRANCH  24  25
ENDBRANCH   7  24
TORSDOF 11
