MODEL        1USER    Run = 1USERUSER    Estimated Free Energy of Binding    =  -8.82 kcal/mol  [=(1)+(2)+(3)-(4)]USERUSER    (1) Final Intermolecular Energy     = -10.01 kcal/molUSER        vdW + Hbond + desolv Energy     =  -9.94 kcal/molUSER        Electrostatic Energy            =  -0.08 kcal/molUSER        Moving Ligand-Fixed Receptor    = -10.01 kcal/molUSER        Moving Ligand-Moving Receptor   =  +0.00 kcal/molUSER    (2) Final Total Internal Energy     =  -1.10 kcal/molUSER    (3) Torsional Free Energy           =  +1.19 kcal/molUSER    (4) Unbound System's Energy         =  -1.10 kcal/molUSERUSERREMARK SMILES Oc1ccc(Nc2nc3ccccc3nc2N2CCNCC2)c(F)c1REMARK SMILES IDX 6 1 5 3 2 4 3 5 25 6 4 7 23 8 24 9 1 10 7 12 8 13 16 14 9 15REMARK SMILES IDX 15 16 10 17 14 18 11 19 13 20 12 21 17 22 18 23 22 24 19 25REMARK SMILES IDX 21 26 20 27REMARK H PARENT 6 2 1 11 20 28USER                              x       y       z     vdW  Elec       q    TypeUSER                           _______ _______ _______ _____ _____    ______ ____ROOTATOM      1  N   UNL     1      36.582  44.323  16.814 -0.12 +0.11    -0.335 N  ATOM      2  H   UNL     1      36.289  44.253  15.845 +0.11 -0.07    +0.168 HD ENDROOTBRANCH   1   3ATOM      3  C   UNL     1      35.544  44.247  17.762 -0.26 -0.03    +0.076 A  ATOM      4  C   UNL     1      33.479  44.014  19.650 -0.34 -0.01    +0.118 A  ATOM      5  C   UNL     1      34.269  42.908  19.354 -0.38 -0.00    +0.048 A  ATOM      6  C   UNL     1      33.707  45.234  19.030 -0.31 -0.03    +0.087 A  ATOM      7  C   UNL     1      35.300  43.029  18.415 -0.34 -0.01    +0.033 A  ATOM      8  C   UNL     1      34.734  45.345  18.096 -0.29 -0.07    +0.150 A  ATOM      9  F   UNL     1      34.970  46.555  17.564 -0.13 +0.20    -0.205 F  BRANCH   4  10ATOM     10  O   UNL     1      32.465  43.940  20.559 -0.60 -0.04    -0.508 OA ATOM     11  H   UNL     1      32.426  44.774  21.055 -0.32 -0.04    +0.293 HD ENDBRANCH   4  10ENDBRANCH   1   3BRANCH   1  12ATOM     12  C   UNL     1      37.708  45.194  16.854 -0.24 -0.05    +0.174 A  ATOM     13  N   UNL     1      38.586  45.128  17.879 -0.24 +0.04    -0.225 NA ATOM     14  C   UNL     1      37.865  46.147  15.804 -0.26 -0.07    +0.172 A  ATOM     15  C   UNL     1      39.613  45.992  17.866 -0.38 -0.01    +0.091 A  ATOM     16  N   UNL     1      38.891  47.029  15.815 -0.26 +0.08    -0.225 NA ATOM     17  C   UNL     1      40.549  45.951  18.892 -0.44 -0.00    +0.031 A  ATOM     18  C   UNL     1      39.765  46.946  16.834 -0.42 -0.02    +0.091 A  ATOM     19  C   UNL     1      41.631  46.830  18.925 -0.50 +0.00    +0.002 A  ATOM     20  C   UNL     1      40.846  47.818  16.877 -0.51 -0.00    +0.031 A  ATOM     21  C   UNL     1      41.781  47.769  17.913 -0.49 -0.00    +0.002 A  BRANCH  14  22ATOM     22  N   UNL     1      36.919  46.182  14.732 -0.13 +0.18    -0.351 N  ATOM     23  C   UNL     1      37.591  45.685  13.497 -0.40 -0.04    +0.133 C  ATOM     24  C   UNL     1      36.289  47.514  14.567 -0.28 -0.11    +0.133 C  ATOM     25  C   UNL     1      36.921  46.258  12.228 -0.62 -0.04    +0.102 C  ATOM     26  C   UNL     1      36.973  48.355  13.469 -0.55 -0.05    +0.102 C  ATOM     27  N   UNL     1      36.958  47.730  12.128 -0.97 +0.08    -0.313 NA ATOM     28  H   UNL     1      36.134  48.041  11.616 -0.26 -0.07    +0.122 HD ENDBRANCH  14  22ENDBRANCH   1  12TORSDOF 4TERENDMDL