REMARK SMILES Oc1ccc(Nc2nc3ccccc3nc2N2CCNCC2)c(F)c1
REMARK SMILES IDX 6 1 5 3 2 4 3 5 25 6 4 7 23 8 24 9 1 10 7 12 8 13 16 14 9 15
REMARK SMILES IDX 15 16 10 17 14 18 11 19 13 20 12 21 17 22 18 23 22 24 19 25
REMARK SMILES IDX 21 26 20 27
REMARK H PARENT 6 2 1 11 20 28
ROOT
ATOM      1  N   UNL     1       1.395  -0.276   0.576  1.00  0.00    -0.335 N 
ATOM      2  H   UNL     1       1.264  -0.848   1.404  1.00  0.00     0.168 HD
ENDROOT
BRANCH   1   3
ATOM      3  C   UNL     1       2.694   0.238   0.401  1.00  0.00     0.076 A 
ATOM      4  C   UNL     1       5.298   1.252   0.131  1.00  0.00     0.118 A 
ATOM      5  C   UNL     1       4.940   0.575   1.292  1.00  0.00     0.048 A 
ATOM      6  C   UNL     1       4.386   1.422  -0.900  1.00  0.00     0.087 A 
ATOM      7  C   UNL     1       3.642   0.067   1.422  1.00  0.00     0.033 A 
ATOM      8  C   UNL     1       3.096   0.915  -0.762  1.00  0.00     0.150 A 
ATOM      9  F   UNL     1       2.259   1.040  -1.804  1.00  0.00    -0.205 F 
BRANCH   4  10
ATOM     10  O   UNL     1       6.552   1.761  -0.036  1.00  0.00    -0.508 OA
ATOM     11  H   UNL     1       7.072   1.586   0.766  1.00  0.00     0.293 HD
ENDBRANCH   4  10
ENDBRANCH   1   3
BRANCH   1  12
ATOM     12  C   UNL     1       0.170   0.409   0.337  1.00  0.00     0.174 A 
ATOM     13  N   UNL     1       0.176   1.710  -0.030  1.00  0.00    -0.225 NA
ATOM     14  C   UNL     1      -1.052  -0.303   0.521  1.00  0.00     0.172 A 
ATOM     15  C   UNL     1      -1.014   2.301  -0.220  1.00  0.00     0.091 A 
ATOM     16  N   UNL     1      -2.246   0.311   0.352  1.00  0.00    -0.225 NA
ATOM     17  C   UNL     1      -1.056   3.633  -0.612  1.00  0.00     0.031 A 
ATOM     18  C   UNL     1      -2.227   1.602  -0.026  1.00  0.00     0.091 A 
ATOM     19  C   UNL     1      -2.268   4.293  -0.817  1.00  0.00     0.002 A 
ATOM     20  C   UNL     1      -3.429   2.269  -0.231  1.00  0.00     0.031 A 
ATOM     21  C   UNL     1      -3.461   3.608  -0.625  1.00  0.00     0.002 A 
BRANCH  14  22
ATOM     22  N   UNL     1      -1.018  -1.680   0.903  1.00  0.00    -0.351 N 
ATOM     23  C   UNL     1      -0.664  -2.492  -0.297  1.00  0.00     0.133 C 
ATOM     24  C   UNL     1      -2.269  -2.122   1.567  1.00  0.00     0.133 C 
ATOM     25  C   UNL     1      -1.206  -3.934  -0.176  1.00  0.00     0.102 C 
ATOM     26  C   UNL     1      -3.236  -2.823   0.590  1.00  0.00     0.102 C 
ATOM     27  N   UNL     1      -2.675  -4.027  -0.060  1.00  0.00    -0.313 NA
ATOM     28  H   UNL     1      -2.904  -4.852   0.492  1.00  0.00     0.122 HD
ENDBRANCH  14  22
ENDBRANCH   1  12
TORSDOF 4
