MODEL        1USER    Run = 1USERUSER    Estimated Free Energy of Binding    =  -8.57 kcal/mol  [=(1)+(2)+(3)-(4)]USERUSER    (1) Final Intermolecular Energy     = -13.05 kcal/molUSER        vdW + Hbond + desolv Energy     = -13.25 kcal/molUSER        Electrostatic Energy            =  -0.09 kcal/molUSER        Moving Ligand-Fixed Receptor    = -13.34 kcal/molUSER        Moving Ligand-Moving Receptor   =  +0.30 kcal/molUSER    (2) Final Total Internal Energy     =  -2.95 kcal/molUSER    (3) Torsional Free Energy           =  +4.47 kcal/molUSER    (4) Unbound System's Energy         =  -2.95 kcal/molUSERUSERREMARK SMILES COc1ccc(O)c(C(=O)c2ccc(C(=O)N[C@@H]3CCCN(C4CC4)C[C@H]3NC(=O)c3ccnc(Cl)c3)cc2)c1FREMARK SMILES IDX 15 1 16 2 17 3 14 5 11 6 12 7 39 8 13 9 38 10 9 11 10 12REMARK SMILES IDX 8 13 3 14 4 15 40 16 5 17 6 18 41 19 2 20 1 21 7 22 18 24REMARK SMILES IDX 19 25 27 27 26 28 22 29 21 30 20 31 23 33 24 34 25 35 28 36REMARK SMILES IDX 29 37 30 39 31 40 32 41 37 42 33 43 35 44 34 45 36 46REMARK H PARENT 17 4 7 23 28 38REMARK Flexibility Score:   88.900USER                              x       y       z     vdW  Elec       q    TypeUSER                           _______ _______ _______ _____ _____    ______ ____ROOTATOM      1  C   UNL     1      36.317  43.161  20.473 -0.32 -0.00    +0.251 C  ATOM      2  O   UNL     1      36.250  42.129  19.817 -0.30 +0.02    -0.269 OA ATOM      3  N   UNL     1      36.142  44.421  19.933 -0.17 +0.03    -0.347 N  ATOM      4  H   UNL     1      35.959  45.182  20.570 +0.08 -0.01    +0.164 HD ENDROOTBRANCH   1   5ATOM      5  C   UNL     1      36.568  43.098  21.942 -0.35 +0.00    +0.039 A  ATOM      6  C   UNL     1      37.002  42.888  24.704 -0.37 +0.00    +0.023 A  ATOM      7  C   UNL     1      36.558  41.777  23.979 -0.41 -0.00    +0.013 A  ATOM      8  C   UNL     1      37.273  44.093  24.043 -0.32 +0.00    +0.013 A  ATOM      9  C   UNL     1      36.336  41.884  22.604 -0.47 +0.00    +0.014 A  ATOM     10  C   UNL     1      37.056  44.197  22.665 -0.26 +0.00    +0.014 A  BRANCH   6  11ATOM     11  C   UNL     1      37.248  42.733  26.154 -0.27 -0.02    +0.199 C  ATOM     12  O   UNL     1      36.308  42.900  26.934 -0.25 +0.05    -0.288 OA BRANCH  11  13ATOM     13  C   UNL     1      38.560  42.339  26.713 -0.24 -0.01    +0.104 A  ATOM     14  C   UNL     1      40.998  42.460  26.752 -0.12 -0.01    +0.155 A  ATOM     15  C   UNL     1      41.023  41.575  27.832 -0.18 -0.01    +0.053 A  ATOM     16  C   UNL     1      39.762  42.837  26.203 -0.12 -0.00    +0.179 A  ATOM     17  C   UNL     1      39.825  41.086  28.363 -0.23 +0.00    +0.051 A  ATOM     18  C   UNL     1      38.605  41.476  27.815 -0.33 -0.01    +0.130 A  ATOM     19  F   UNL     1      39.753  43.715  25.187 -0.01 -0.00    -0.202 F  BRANCH  14  20ATOM     20  O   UNL     1      42.099  43.011  26.153 -0.03 +0.03    -0.494 OA ATOM     21  C   UNL     1      42.391  42.601  24.823 -0.08 -0.02    +0.278 C  ENDBRANCH  14  20BRANCH  18  22ATOM     22  O   UNL     1      37.482  40.972  28.414 -0.19 +0.13    -0.507 OA ATOM     23  H   UNL     1      36.896  41.730  28.643 -0.35 -0.16    +0.293 HD ENDBRANCH  18  22ENDBRANCH  11  13ENDBRANCH   6  11ENDBRANCH   1   5BRANCH   3  24ATOM     24  C   UNL     1      35.754  44.601  18.526 -0.33 -0.03    +0.106 C  BRANCH  24  25ATOM     25  C   UNL     1      34.480  43.792  18.217 -0.36 -0.01    +0.028 CG0ATOM     26  G   UNL     1      33.573  44.393  17.143 +0.00 +0.00    +0.000 G0 ENDBRANCH  24  25BRANCH  24  27ATOM     27  C   UNL     1      36.956  44.366  17.570 -0.31 -0.03    +0.118 C  BRANCH  27  28ATOM     28  C   UNL     1      36.547  43.910  16.147 -0.37 -0.04    +0.111 C  BRANCH  28  29ATOM     29  N   UNL     1      35.526  44.800  15.570 -0.14 +0.16    -0.298 NA BRANCH  29  30ATOM     30  C   UNL     1      34.145  44.357  15.728 -0.30 -0.05    +0.085 C  BRANCH  30  31ATOM     31  C   UNL     1      33.570  44.396  17.147 -0.36 -0.01    +0.018 CG0ATOM     32  G   UNL     1      34.480  43.792  18.216 +0.00 +0.00    +0.000 G0 ENDBRANCH  30  31ENDBRANCH  29  30BRANCH  29  33ATOM     33  C   UNL     1      35.915  45.345  14.255 -0.38 -0.03    +0.056 C  ATOM     34  C   UNL     1      37.324  45.707  13.878 -0.49 -0.01    +0.021 C  ATOM     35  C   UNL     1      36.305  46.790  14.097 -0.52 -0.01    +0.021 C  ENDBRANCH  29  33ENDBRANCH  28  29ENDBRANCH  27  28BRANCH  27  36ATOM     36  N   UNL     1      37.812  45.563  17.490 -0.15 +0.10    -0.346 N  ATOM     37  C   UNL     1      39.118  45.520  17.930 -0.31 -0.04    +0.251 C  ATOM     38  H   UNL     1      37.543  46.245  16.799 +0.11 -0.07    +0.164 HD ATOM     39  O   UNL     1      39.577  44.607  18.608 -0.27 +0.02    -0.269 OA BRANCH  37  40ATOM     40  C   UNL     1      39.997  46.654  17.543 -0.45 -0.01    +0.044 A  ATOM     41  C   UNL     1      41.029  47.012  18.417 -0.47 -0.00    +0.034 A  ATOM     42  C   UNL     1      39.856  47.329  16.331 -0.46 -0.01    +0.054 A  ATOM     43  C   UNL     1      41.868  48.046  18.050 -0.31 -0.00    +0.113 A  ATOM     44  C   UNL     1      40.750  48.347  16.067 -0.47 -0.02    +0.129 A  ATOM     45  N   UNL     1      41.746  48.727  16.892 -0.78 -0.03    -0.245 NA ATOM     46  Cl  UNL     1      40.665  49.229  14.599 -0.83 +0.02    -0.062 Cl ENDBRANCH  37  40ENDBRANCH  27  36ENDBRANCH  24  27ENDBRANCH   3  24TORSDOF 9TERENDMDL