
     RDKit          3D

 56 60  0  0  0  0  0  0  0  0999 V2000
   -9.7863    1.5156    2.0907 N   0  0  0  0  0  0  0  0  0  0  0  0
   -9.1972    1.0963    0.9173 C   0  0  0  0  0  0  0  0  0  0  0  0
   -9.9868    0.9414   -0.1463 N   0  0  0  0  0  0  0  0  0  0  0  0
   -9.3915    0.5184   -1.2730 C   0  0  0  0  0  0  0  0  0  0  0  0
   -8.0488    0.2419   -1.3634 C   0  0  0  0  0  0  0  0  0  0  0  0
   -7.3115    0.4179   -0.2082 C   0  0  0  0  0  0  0  0  0  0  0  0
   -5.8574    0.1601   -0.1354 C   0  0  0  0  0  0  0  0  0  0  0  0
   -4.9994    0.3900   -1.2261 C   0  0  0  0  0  0  0  0  0  0  0  0
   -3.6204    0.1427   -1.1426 C   0  0  0  0  0  0  0  0  0  0  0  0
   -3.0599   -0.3416    0.0432 C   0  0  0  0  0  0  0  0  0  0  0  0
   -1.5960   -0.6229    0.1923 C   0  0  0  0  0  0  0  0  0  0  0  0
   -1.2081   -1.1495    1.2350 O   0  0  0  0  0  0  0  0  0  0  0  0
   -0.6720   -0.2419   -0.9720 C   0  0  0  0  0  0  0  0  0  0  0  0
    0.7687   -0.4370   -0.7271 N   0  0  0  0  0  0  0  0  0  0  0  0
    1.3032    0.3680    0.3664 C   0  0  0  0  0  0  0  0  0  0  0  0
    2.8327    0.4093    0.2897 C   0  0  0  0  0  0  0  0  0  0  0  0
    3.4475   -0.9355   -0.1328 C   0  0  0  0  0  0  0  0  0  0  0  0
    4.6784   -1.1979    0.6046 N   0  0  0  0  0  0  0  0  0  0  0  0
    5.8065   -0.5654    0.2453 C   0  0  0  0  0  0  0  0  0  0  0  0
    6.1027    0.0619   -0.8720 N   0  0  0  0  0  0  0  0  0  0  0  0
    7.3808    0.5100   -0.6625 C   0  0  0  0  0  0  0  0  0  0  0  0
    8.2494    1.2427   -1.4815 C   0  0  0  0  0  0  0  0  0  0  0  0
    9.5212    1.5602   -0.9794 C   0  0  0  0  0  0  0  0  0  0  0  0
    9.9147    1.1579    0.3040 C   0  0  0  0  0  0  0  0  0  0  0  0
    9.0569    0.4253    1.1340 C   0  0  0  0  0  0  0  0  0  0  0  0
    7.8086    0.1323    0.5988 C   0  0  0  0  0  0  0  0  0  0  0  0
    6.7937   -0.5600    1.1902 O   0  0  0  0  0  0  0  0  0  0  0  0
    2.4661   -2.0818    0.1099 C   0  0  0  0  0  0  0  0  0  0  0  0
    1.1607   -1.8493   -0.6570 C   0  0  0  0  0  0  0  0  0  0  0  0
   -3.8985   -0.5721    1.1390 C   0  0  0  0  0  0  0  0  0  0  0  0
   -5.2728   -0.3204    1.0494 C   0  0  0  0  0  0  0  0  0  0  0  0
   -7.8892    0.8319    0.9423 N   0  0  0  0  0  0  0  0  0  0  0  0
  -10.7693    1.2841    2.0816 H   0  0  0  0  0  0  0  0  0  0  0  0
   -9.2392    1.2054    2.8807 H   0  0  0  0  0  0  0  0  0  0  0  0
  -10.0491    0.4018   -2.1294 H   0  0  0  0  0  0  0  0  0  0  0  0
   -7.6173   -0.1106   -2.2897 H   0  0  0  0  0  0  0  0  0  0  0  0
   -5.3909    0.7895   -2.1600 H   0  0  0  0  0  0  0  0  0  0  0  0
   -3.0164    0.3437   -2.0227 H   0  0  0  0  0  0  0  0  0  0  0  0
   -0.8342    0.8157   -1.2110 H   0  0  0  0  0  0  0  0  0  0  0  0
   -0.9593   -0.8307   -1.8511 H   0  0  0  0  0  0  0  0  0  0  0  0
    0.9983   -0.0213    1.3447 H   0  0  0  0  0  0  0  0  0  0  0  0
    0.9342    1.3993    0.3077 H   0  0  0  0  0  0  0  0  0  0  0  0
    3.1437    1.1747   -0.4337 H   0  0  0  0  0  0  0  0  0  0  0  0
    3.2190    0.7381    1.2629 H   0  0  0  0  0  0  0  0  0  0  0  0
    3.6608   -0.9085   -1.2108 H   0  0  0  0  0  0  0  0  0  0  0  0
    4.5731   -1.3844    1.5948 H   0  0  0  0  0  0  0  0  0  0  0  0
    7.9406    1.5513   -2.4738 H   0  0  0  0  0  0  0  0  0  0  0  0
   10.2119    2.1281   -1.5996 H   0  0  0  0  0  0  0  0  0  0  0  0
   10.9083    1.4194    0.6641 H   0  0  0  0  0  0  0  0  0  0  0  0
    9.3420    0.1047    2.1277 H   0  0  0  0  0  0  0  0  0  0  0  0
    2.9071   -3.0386   -0.1955 H   0  0  0  0  0  0  0  0  0  0  0  0
    2.2526   -2.1691    1.1840 H   0  0  0  0  0  0  0  0  0  0  0  0
    0.3888   -2.4792   -0.2008 H   0  0  0  0  0  0  0  0  0  0  0  0
    1.2852   -2.2106   -1.6852 H   0  0  0  0  0  0  0  0  0  0  0  0
   -3.4909   -0.9456    2.0773 H   0  0  0  0  0  0  0  0  0  0  0  0
   -5.8947   -0.5057    1.9249 H   0  0  0  0  0  0  0  0  0  0  0  0
  1  2  1  0
  2  3  2  0
  3  4  1  0
  4  5  2  0
  5  6  1  0
  6  7  1  0
  7  8  2  0
  8  9  1  0
  9 10  2  0
 10 11  1  0
 11 12  2  0
 11 13  1  0
 13 14  1  0
 14 15  1  0
 15 16  1  0
 16 17  1  0
 17 18  1  0
 18 19  1  0
 19 20  2  0
 20 21  1  0
 21 22  2  0
 22 23  1  0
 23 24  2  0
 24 25  1  0
 25 26  2  0
 26 27  1  0
 17 28  1  0
 28 29  1  0
 10 30  1  0
 30 31  2  0
  6 32  2  0
 32  2  1  0
 31  7  1  0
 29 14  1  0
 27 19  1  0
 26 21  1  0
  1 33  1  0
  1 34  1  0
  4 35  1  0
  5 36  1  0
  8 37  1  0
  9 38  1  0
 13 39  1  0
 13 40  1  0
 15 41  1  0
 15 42  1  0
 16 43  1  0
 16 44  1  0
 17 45  1  0
 18 46  1  0
 22 47  1  0
 23 48  1  0
 24 49  1  0
 25 50  1  0
 28 51  1  0
 28 52  1  0
 29 53  1  0
 29 54  1  0
 30 55  1  0
 31 56  1  0
M  END
$$$$
