
     RDKit          3D

 64 67  0  0  0  0  0  0  0  0999 V2000
   -4.2176    1.9816    2.5318 C   0  0  0  0  0  0  0  0  0  0  0  0
   -4.3040    1.1000    1.2816 C   0  0  0  0  0  0  0  0  0  0  0  0
   -5.7632    0.8209    0.9104 C   0  0  0  0  0  0  0  0  0  0  0  0
   -3.5248    1.7045    0.1157 C   0  0  0  0  0  0  0  0  0  0  0  0
   -3.9319    2.9561   -0.3913 C   0  0  0  0  0  0  0  0  0  0  0  0
   -3.2141    3.6001   -1.3964 C   0  0  0  0  0  0  0  0  0  0  0  0
   -2.0664    3.0132   -1.9073 C   0  0  0  0  0  0  0  0  0  0  0  0
   -1.6467    1.7736   -1.4254 C   0  0  0  0  0  0  0  0  0  0  0  0
   -2.3689    1.0861   -0.4305 C   0  0  0  0  0  0  0  0  0  0  0  0
   -1.9684   -0.2050    0.0158 N   0  0  0  0  0  0  0  0  0  0  0  0
   -0.6577   -0.5587    0.4158 C   0  0  0  0  0  0  0  0  0  0  0  0
    0.4133   -0.0265   -0.2053 N   0  0  0  0  0  0  0  0  0  0  0  0
    1.6379   -0.3624    0.2173 C   0  0  0  0  0  0  0  0  0  0  0  0
    2.6883    0.1919   -0.4920 N   0  0  0  0  0  0  0  0  0  0  0  0
    3.9269    0.4336    0.2496 C   0  0  1  0  0  0  0  0  0  0  0  0
    4.8390   -0.8112    0.1953 C   0  0  0  0  0  0  0  0  0  0  0  0
    5.8459   -0.7371   -0.9501 C   0  0  0  0  0  0  0  0  0  0  0  0
    6.7770    0.4805   -0.8275 C   0  0  2  0  0  0  0  0  0  0  0  0
    8.0185    0.1423   -0.1342 N   0  0  0  0  0  0  0  0  0  0  0  0
    6.1153    1.6601   -0.0977 C   0  0  0  0  0  0  0  0  0  0  0  0
    4.6126    1.6826   -0.3454 C   0  0  0  0  0  0  0  0  0  0  0  0
    1.8562   -1.1979    1.2361 N   0  0  0  0  0  0  0  0  0  0  0  0
    0.7778   -1.7023    1.8609 C   0  0  0  0  0  0  0  0  0  0  0  0
   -0.5213   -1.4453    1.4819 C   0  0  0  0  0  0  0  0  0  0  0  0
   -1.5881   -2.0054    2.1990 N   0  0  0  0  0  0  0  0  0  0  0  0
   -2.6175   -2.3900    1.6051 N   0  0  0  0  0  0  0  0  0  0  0  0
   -2.6870   -2.6320    0.1411 N   0  0  0  0  0  0  0  0  0  0  0  0
   -1.6422   -3.6675   -0.2957 C   0  0  0  0  0  0  0  0  0  0  0  0
   -4.0564   -3.2987   -0.0847 C   0  0  0  0  0  0  0  0  0  0  0  0
   -2.6922   -1.2917   -0.6584 C   0  0  0  0  0  0  0  0  0  0  0  0
   -2.2308   -1.5715   -2.3958 S   0  0  0  0  0  0  0  0  0  0  0  0
   -4.7079    2.9499    2.3875 H   0  0  0  0  0  0  0  0  0  0  0  0
   -4.7013    1.4897    3.3825 H   0  0  0  0  0  0  0  0  0  0  0  0
   -3.1738    2.1718    2.8050 H   0  0  0  0  0  0  0  0  0  0  0  0
   -3.8643    0.1374    1.5588 H   0  0  0  0  0  0  0  0  0  0  0  0
   -6.3212    1.7415    0.7100 H   0  0  0  0  0  0  0  0  0  0  0  0
   -6.2726    0.2975    1.7269 H   0  0  0  0  0  0  0  0  0  0  0  0
   -5.8280    0.1904    0.0171 H   0  0  0  0  0  0  0  0  0  0  0  0
   -4.8083    3.4607    0.0133 H   0  0  0  0  0  0  0  0  0  0  0  0
   -3.5402    4.5710   -1.7633 H   0  0  0  0  0  0  0  0  0  0  0  0
   -1.4917    3.5225   -2.6777 H   0  0  0  0  0  0  0  0  0  0  0  0
   -0.7437    1.3480   -1.8580 H   0  0  0  0  0  0  0  0  0  0  0  0
    2.3079    1.0022   -0.9711 H   0  0  0  0  0  0  0  0  0  0  0  0
    3.7022    0.6545    1.3024 H   0  0  0  0  0  0  0  0  0  0  0  0
    4.2557   -1.7344    0.1038 H   0  0  0  0  0  0  0  0  0  0  0  0
    5.3896   -0.8882    1.1417 H   0  0  0  0  0  0  0  0  0  0  0  0
    5.2982   -0.6734   -1.8997 H   0  0  0  0  0  0  0  0  0  0  0  0
    6.4231   -1.6684   -1.0023 H   0  0  0  0  0  0  0  0  0  0  0  0
    7.0475    0.8011   -1.8410 H   0  0  0  0  0  0  0  0  0  0  0  0
    8.5123   -0.5887   -0.6461 H   0  0  0  0  0  0  0  0  0  0  0  0
    7.8193   -0.2464    0.7865 H   0  0  0  0  0  0  0  0  0  0  0  0
    6.5678    2.6008   -0.4346 H   0  0  0  0  0  0  0  0  0  0  0  0
    6.2890    1.6051    0.9855 H   0  0  0  0  0  0  0  0  0  0  0  0
    4.4295    1.7559   -1.4257 H   0  0  0  0  0  0  0  0  0  0  0  0
    4.1716    2.5830    0.0995 H   0  0  0  0  0  0  0  0  0  0  0  0
    1.0021   -2.3492    2.7051 H   0  0  0  0  0  0  0  0  0  0  0  0
   -1.5821   -4.4327    0.4852 H   0  0  0  0  0  0  0  0  0  0  0  0
   -1.9644   -4.1387   -1.2296 H   0  0  0  0  0  0  0  0  0  0  0  0
   -0.6699   -3.1931   -0.4334 H   0  0  0  0  0  0  0  0  0  0  0  0
   -4.1997   -3.4756   -1.1542 H   0  0  0  0  0  0  0  0  0  0  0  0
   -4.0671   -4.2459    0.4642 H   0  0  0  0  0  0  0  0  0  0  0  0
   -4.8339   -2.6353    0.3079 H   0  0  0  0  0  0  0  0  0  0  0  0
   -3.7497   -1.0072   -0.6944 H   0  0  0  0  0  0  0  0  0  0  0  0
   -2.5056   -0.3296   -2.8207 H   0  0  0  0  0  0  0  0  0  0  0  0
  1  2  1  0
  2  3  1  0
  2  4  1  0
  4  5  2  0
  5  6  1  0
  6  7  2  0
  7  8  1  0
  8  9  2  0
  9 10  1  0
 10 11  1  0
 11 12  2  0
 12 13  1  0
 13 14  1  0
 14 15  1  0
 15 16  1  0
 16 17  1  0
 17 18  1  0
 18 19  1  0
 18 20  1  0
 20 21  1  0
 13 22  2  0
 22 23  1  0
 23 24  2  0
 24 25  1  0
 25 26  2  0
 26 27  1  0
 27 28  1  0
 27 29  1  0
 27 30  1  0
 30 31  1  0
  9  4  1  0
 30 10  1  0
 24 11  1  0
 21 15  1  0
  1 32  1  0
  1 33  1  0
  1 34  1  0
  2 35  1  0
  3 36  1  0
  3 37  1  0
  3 38  1  0
  5 39  1  0
  6 40  1  0
  7 41  1  0
  8 42  1  0
 14 43  1  0
 15 44  1  1
 16 45  1  0
 16 46  1  0
 17 47  1  0
 17 48  1  0
 18 49  1  6
 19 50  1  0
 19 51  1  0
 20 52  1  0
 20 53  1  0
 21 54  1  0
 21 55  1  0
 23 56  1  0
 28 57  1  0
 28 58  1  0
 28 59  1  0
 29 60  1  0
 29 61  1  0
 29 62  1  0
 30 63  1  0
 31 64  1  0
M  CHG  1  27   1
M  END
$$$$
