
     RDKit          3D

 43 45  0  0  0  0  0  0  0  0999 V2000
    2.1435   -1.9618    0.7302 C   0  0  0  0  0  0  0  0  0  0  0  0
    1.9117   -0.6903    0.6882 N   0  0  0  0  0  0  0  0  0  0  0  0
    1.6251   -0.1588   -0.5898 C   0  0  0  0  0  0  0  0  0  0  0  0
    2.6446    0.4827   -1.3191 C   0  0  0  0  0  0  0  0  0  0  0  0
    4.0233    0.5793   -0.7909 C   0  0  0  0  0  0  0  0  0  0  0  0
    4.9986    0.0775   -1.4874 N   0  0  0  0  0  0  0  0  0  0  0  0
    6.3096    0.1950   -1.0019 N   0  0  0  0  0  0  0  0  0  0  0  0
    6.4806    0.4129    0.2637 C   0  0  0  0  0  0  0  0  0  0  0  0
    5.3642    0.6178    1.2353 C   0  0  0  0  0  0  0  0  0  0  0  0
    4.2489    1.3200    0.5008 C   0  0  0  0  0  0  0  0  0  0  0  0
    2.4083    1.0345   -2.5852 C   0  0  0  0  0  0  0  0  0  0  0  0
    1.1281    1.0029   -3.1281 C   0  0  0  0  0  0  0  0  0  0  0  0
    0.0941    0.4037   -2.4100 C   0  0  0  0  0  0  0  0  0  0  0  0
   -1.1654    0.4063   -2.9475 O   0  0  0  0  0  0  0  0  0  0  0  0
    0.3294   -0.1874   -1.1529 C   0  0  0  0  0  0  0  0  0  0  0  0
   -0.7797   -0.8824   -0.4360 C   0  0  0  0  0  0  0  0  0  0  0  0
   -0.6028   -2.0305   -0.0437 O   0  0  0  0  0  0  0  0  0  0  0  0
   -1.9385   -0.1372   -0.3141 N   0  0  0  0  0  0  0  0  0  0  0  0
   -3.1314   -0.4969    0.3439 C   0  0  0  0  0  0  0  0  0  0  0  0
   -3.2860   -1.6627    1.0933 C   0  0  0  0  0  0  0  0  0  0  0  0
   -4.5001   -1.9395    1.7276 C   0  0  0  0  0  0  0  0  0  0  0  0
   -5.5708   -1.0539    1.6168 C   0  0  0  0  0  0  0  0  0  0  0  0
   -5.4400    0.1147    0.8616 C   0  0  0  0  0  0  0  0  0  0  0  0
   -6.5757    1.0897    0.7667 C   0  0  0  0  0  0  0  0  0  0  0  0
   -4.2123    0.3907    0.2408 C   0  0  0  0  0  0  0  0  0  0  0  0
    2.1308   -2.6164   -0.1595 H   0  0  0  0  0  0  0  0  0  0  0  0
    2.3652   -2.4431    1.6956 H   0  0  0  0  0  0  0  0  0  0  0  0
    7.5071    0.4197    0.6638 H   0  0  0  0  0  0  0  0  0  0  0  0
    5.7229    1.2238    2.0724 H   0  0  0  0  0  0  0  0  0  0  0  0
    5.0582   -0.3604    1.6203 H   0  0  0  0  0  0  0  0  0  0  0  0
    4.5480    2.3429    0.2396 H   0  0  0  0  0  0  0  0  0  0  0  0
    3.3498    1.3896    1.1165 H   0  0  0  0  0  0  0  0  0  0  0  0
    3.2238    1.4966   -3.1394 H   0  0  0  0  0  0  0  0  0  0  0  0
    0.9565    1.4529   -4.1021 H   0  0  0  0  0  0  0  0  0  0  0  0
   -1.1121    0.6162   -3.8967 H   0  0  0  0  0  0  0  0  0  0  0  0
   -1.9592    0.7331   -0.8322 H   0  0  0  0  0  0  0  0  0  0  0  0
   -2.4755   -2.3745    1.2109 H   0  0  0  0  0  0  0  0  0  0  0  0
   -4.6048   -2.8495    2.3129 H   0  0  0  0  0  0  0  0  0  0  0  0
   -6.5054   -1.2826    2.1235 H   0  0  0  0  0  0  0  0  0  0  0  0
   -7.5399    0.5760    0.8413 H   0  0  0  0  0  0  0  0  0  0  0  0
   -6.5045    1.8266    1.5725 H   0  0  0  0  0  0  0  0  0  0  0  0
   -6.5610    1.6132   -0.1951 H   0  0  0  0  0  0  0  0  0  0  0  0
   -4.1070    1.3096   -0.3310 H   0  0  0  0  0  0  0  0  0  0  0  0
  1  2  2  0
  2  3  1  0
  3  4  2  0
  4  5  1  0
  5  6  2  0
  6  7  1  0
  7  8  2  0
  8  9  1  0
  9 10  1  0
  4 11  1  0
 11 12  2  0
 12 13  1  0
 13 14  1  0
 13 15  2  0
 15 16  1  0
 16 17  2  0
 16 18  1  0
 18 19  1  0
 19 20  2  0
 20 21  1  0
 21 22  2  0
 22 23  1  0
 23 24  1  0
 23 25  2  0
 15  3  1  0
 25 19  1  0
 10  5  1  0
  1 26  1  0
  1 27  1  0
  8 28  1  0
  9 29  1  0
  9 30  1  0
 10 31  1  0
 10 32  1  0
 11 33  1  0
 12 34  1  0
 14 35  1  0
 18 36  1  0
 20 37  1  0
 21 38  1  0
 22 39  1  0
 24 40  1  0
 24 41  1  0
 24 42  1  0
 25 43  1  0
M  END
$$$$
