
     RDKit          3D

 38 41  0  0  0  0  0  0  0  0999 V2000
    2.4926    1.8177   -0.5584 O   0  0  0  0  0  0  0  0  0  0  0  0
    3.3903    1.0019   -0.6961 C   0  0  0  0  0  0  0  0  0  0  0  0
    3.3108   -0.3608   -0.6149 N   0  0  0  0  0  0  0  0  0  0  0  0
    2.1948   -1.1511   -0.3478 C   0  0  0  0  0  0  0  0  0  0  0  0
    0.9145   -0.6577   -0.1442 C   0  0  0  0  0  0  0  0  0  0  0  0
   -0.1400   -1.5459    0.1295 C   0  0  0  0  0  0  0  0  0  0  0  0
   -1.5081   -1.0432    0.3493 C   0  0  0  0  0  0  0  0  0  0  0  0
   -2.3558   -1.5700    1.3164 C   0  0  0  0  0  0  0  0  0  0  0  0
   -3.6283   -1.0273    1.4423 C   0  0  0  0  0  0  0  0  0  0  0  0
   -4.4901   -1.5201    2.3883 O   0  0  0  0  0  0  0  0  0  0  0  0
   -4.0478    0.0249    0.6151 C   0  0  0  0  0  0  0  0  0  0  0  0
   -5.3284    0.6147    0.6958 C   0  0  0  0  0  0  0  0  0  0  0  0
   -5.6847    1.6616   -0.1513 C   0  0  0  0  0  0  0  0  0  0  0  0
   -4.7667    2.1281   -1.0834 C   0  0  0  0  0  0  0  0  0  0  0  0
   -3.4993    1.5434   -1.1626 C   0  0  0  0  0  0  0  0  0  0  0  0
   -3.1203    0.4978   -0.3306 C   0  0  0  0  0  0  0  0  0  0  0  0
   -1.8871   -0.0228   -0.4578 N   0  0  0  0  0  0  0  0  0  0  0  0
    0.1591   -2.9120    0.1680 C   0  0  0  0  0  0  0  0  0  0  0  0
    1.4630   -3.3173   -0.0535 C   0  0  0  0  0  0  0  0  0  0  0  0
    2.4807   -2.4695   -0.3027 N   0  0  0  0  0  0  0  0  0  0  0  0
    4.7639    1.4824   -1.0165 C   0  0  0  0  0  0  0  0  0  0  0  0
    5.9520    1.0935   -0.1660 C   0  0  0  0  0  0  0  0  0  0  0  0
    5.4275    2.4975   -0.1141 C   0  0  0  0  0  0  0  0  0  0  0  0
    4.1492   -0.9073   -0.7490 H   0  0  0  0  0  0  0  0  0  0  0  0
    0.7049    0.4062   -0.1932 H   0  0  0  0  0  0  0  0  0  0  0  0
   -2.0230   -2.3719    1.9635 H   0  0  0  0  0  0  0  0  0  0  0  0
   -4.0396   -2.2015    2.9132 H   0  0  0  0  0  0  0  0  0  0  0  0
   -6.0486    0.2525    1.4266 H   0  0  0  0  0  0  0  0  0  0  0  0
   -6.6722    2.1097   -0.0808 H   0  0  0  0  0  0  0  0  0  0  0  0
   -5.0287    2.9456   -1.7498 H   0  0  0  0  0  0  0  0  0  0  0  0
   -2.7846    1.9152   -1.8936 H   0  0  0  0  0  0  0  0  0  0  0  0
   -0.6083   -3.6587    0.3421 H   0  0  0  0  0  0  0  0  0  0  0  0
    1.7308   -4.3702   -0.0400 H   0  0  0  0  0  0  0  0  0  0  0  0
    4.9308    1.6194   -2.0805 H   0  0  0  0  0  0  0  0  0  0  0  0
    6.8992    0.9249   -0.6654 H   0  0  0  0  0  0  0  0  0  0  0  0
    5.7948    0.4728    0.7093 H   0  0  0  0  0  0  0  0  0  0  0  0
    4.8933    2.8149    0.7753 H   0  0  0  0  0  0  0  0  0  0  0  0
    6.0096    3.2827   -0.5824 H   0  0  0  0  0  0  0  0  0  0  0  0
  1  2  2  0
  2  3  1  0
  3  4  1  0
  4  5  2  0
  5  6  1  0
  6  7  1  0
  7  8  2  0
  8  9  1  0
  9 10  1  0
  9 11  2  0
 11 12  1  0
 12 13  2  0
 13 14  1  0
 14 15  2  0
 15 16  1  0
 16 17  2  0
  6 18  2  0
 18 19  1  0
 19 20  2  0
  2 21  1  0
 21 22  1  0
 22 23  1  0
 20  4  1  0
 23 21  1  0
 17  7  1  0
 16 11  1  0
  3 24  1  0
  5 25  1  0
  8 26  1  0
 10 27  1  0
 12 28  1  0
 13 29  1  0
 14 30  1  0
 15 31  1  0
 18 32  1  0
 19 33  1  0
 21 34  1  0
 22 35  1  0
 22 36  1  0
 23 37  1  0
 23 38  1  0
M  END
$$$$
