
     RDKit          3D

 54 59  0  0  0  0  0  0  0  0999 V2000
   -7.7207   -1.2725   -1.8127 F   0  0  0  0  0  0  0  0  0  0  0  0
   -7.8181   -0.4001   -0.7976 C   0  0  0  0  0  0  0  0  0  0  0  0
   -9.0363   -0.3243   -0.1188 C   0  0  0  0  0  0  0  0  0  0  0  0
   -9.1795    0.5434    0.9624 C   0  0  0  0  0  0  0  0  0  0  0  0
   -8.0989    1.3286    1.3596 C   0  0  0  0  0  0  0  0  0  0  0  0
   -6.8861    1.2435    0.6731 C   0  0  0  0  0  0  0  0  0  0  0  0
   -5.8738    2.0209    1.0878 F   0  0  0  0  0  0  0  0  0  0  0  0
   -6.7258    0.3823   -0.4148 C   0  0  0  0  0  0  0  0  0  0  0  0
   -5.4609    0.3040   -1.1269 C   0  0  0  0  0  0  0  0  0  0  0  0
   -5.4009    0.5015   -2.4545 N   0  0  0  0  0  0  0  0  0  0  0  0
   -4.1019    0.3454   -2.7520 N   0  0  0  0  0  0  0  0  0  0  0  0
   -3.3057    0.0680   -1.6771 C   0  0  0  0  0  0  0  0  0  0  0  0
   -1.9249   -0.1566   -1.5733 C   0  0  0  0  0  0  0  0  0  0  0  0
   -1.3645   -0.4371   -0.3120 C   0  0  0  0  0  0  0  0  0  0  0  0
    0.0004   -0.6711   -0.1708 N   0  0  0  0  0  0  0  0  0  0  0  0
    0.5293   -1.3796    0.9972 C   0  0  0  0  0  0  0  0  0  0  0  0
    1.8499   -2.0583    0.6507 C   0  0  0  0  0  0  0  0  0  0  0  0
    2.9015   -1.0604    0.1487 C   0  0  0  0  0  0  0  0  0  0  0  0
    3.8184   -0.7311    1.2398 N   0  0  0  0  0  0  0  0  0  0  0  0
    5.0562   -0.2614    0.9550 C   0  0  0  0  0  0  0  0  0  0  0  0
    5.6402   -0.3339   -0.2166 N   0  0  0  0  0  0  0  0  0  0  0  0
    6.8977    0.2416   -0.1653 C   0  0  0  0  0  0  0  0  0  0  0  0
    7.8078    0.3378   -1.2379 C   0  0  0  0  0  0  0  0  0  0  0  0
    9.0503    0.9503   -1.0438 C   0  0  0  0  0  0  0  0  0  0  0  0
    9.3944    1.4659    0.2018 C   0  0  0  0  0  0  0  0  0  0  0  0
    8.5094    1.3830    1.2815 C   0  0  0  0  0  0  0  0  0  0  0  0
    7.2646    0.7654    1.0742 C   0  0  0  0  0  0  0  0  0  0  0  0
    5.9772    0.5117    2.1851 S   0  0  0  0  0  0  0  0  0  0  0  0
    2.2767    0.2196   -0.4140 C   0  0  0  0  0  0  0  0  0  0  0  0
    0.9543   -0.0725   -1.1105 C   0  0  0  0  0  0  0  0  0  0  0  0
   -2.2393   -0.4807    0.7875 C   0  0  0  0  0  0  0  0  0  0  0  0
   -3.6230   -0.2529    0.6739 C   0  0  0  0  0  0  0  0  0  0  0  0
   -4.1647    0.0303   -0.5898 C   0  0  0  0  0  0  0  0  0  0  0  0
   -9.8641   -0.9487   -0.4424 H   0  0  0  0  0  0  0  0  0  0  0  0
  -10.1269    0.6066    1.4916 H   0  0  0  0  0  0  0  0  0  0  0  0
   -8.1899    2.0126    2.1984 H   0  0  0  0  0  0  0  0  0  0  0  0
   -3.8184    0.4432   -3.7196 H   0  0  0  0  0  0  0  0  0  0  0  0
   -1.3113   -0.1391   -2.4673 H   0  0  0  0  0  0  0  0  0  0  0  0
    0.6655   -0.6799    1.8307 H   0  0  0  0  0  0  0  0  0  0  0  0
   -0.1639   -2.1641    1.3247 H   0  0  0  0  0  0  0  0  0  0  0  0
    1.6590   -2.7912   -0.1454 H   0  0  0  0  0  0  0  0  0  0  0  0
    2.2176   -2.6282    1.5125 H   0  0  0  0  0  0  0  0  0  0  0  0
    3.4567   -1.5714   -0.6499 H   0  0  0  0  0  0  0  0  0  0  0  0
    3.3890   -0.3785    2.0881 H   0  0  0  0  0  0  0  0  0  0  0  0
    7.5349   -0.0668   -2.2073 H   0  0  0  0  0  0  0  0  0  0  0  0
    9.7496    1.0215   -1.8736 H   0  0  0  0  0  0  0  0  0  0  0  0
   10.3644    1.9393    0.3398 H   0  0  0  0  0  0  0  0  0  0  0  0
    8.7789    1.7848    2.2533 H   0  0  0  0  0  0  0  0  0  0  0  0
    2.1064    0.9494    0.3895 H   0  0  0  0  0  0  0  0  0  0  0  0
    2.9713    0.6950   -1.1170 H   0  0  0  0  0  0  0  0  0  0  0  0
    1.1112   -0.7513   -1.9574 H   0  0  0  0  0  0  0  0  0  0  0  0
    0.5759    0.8780   -1.5063 H   0  0  0  0  0  0  0  0  0  0  0  0
   -1.8560   -0.6722    1.7864 H   0  0  0  0  0  0  0  0  0  0  0  0
   -4.2534   -0.2898    1.5570 H   0  0  0  0  0  0  0  0  0  0  0  0
  1  2  1  0
  2  3  2  0
  3  4  1  0
  4  5  2  0
  5  6  1  0
  6  7  1  0
  6  8  2  0
  8  9  1  0
  9 10  2  0
 10 11  1  0
 11 12  1  0
 12 13  2  0
 13 14  1  0
 14 15  1  0
 15 16  1  0
 16 17  1  0
 17 18  1  0
 18 19  1  0
 19 20  1  0
 20 21  2  0
 21 22  1  0
 22 23  2  0
 23 24  1  0
 24 25  2  0
 25 26  1  0
 26 27  2  0
 27 28  1  0
 18 29  1  0
 29 30  1  0
 14 31  2  0
 31 32  1  0
 32 33  2  0
  8  2  1  0
 33  9  1  0
 33 12  1  0
 30 15  1  0
 28 20  1  0
 27 22  1  0
  3 34  1  0
  4 35  1  0
  5 36  1  0
 11 37  1  0
 13 38  1  0
 16 39  1  0
 16 40  1  0
 17 41  1  0
 17 42  1  0
 18 43  1  0
 19 44  1  0
 23 45  1  0
 24 46  1  0
 25 47  1  0
 26 48  1  0
 29 49  1  0
 29 50  1  0
 30 51  1  0
 30 52  1  0
 31 53  1  0
 32 54  1  0
M  END
$$$$
