MODEL        6USER    Run = 6USERUSER    Estimated Free Energy of Binding    =  -9.77 kcal/mol  [=(1)+(2)+(3)-(4)]USERUSER    (1) Final Intermolecular Energy     = -13.65 kcal/molUSER        vdW + Hbond + desolv Energy     = -13.24 kcal/molUSER        Electrostatic Energy            =  -0.41 kcal/molUSER        Moving Ligand-Fixed Receptor    = -13.65 kcal/molUSER        Moving Ligand-Moving Receptor   =  +0.00 kcal/molUSER    (2) Final Total Internal Energy     =  -5.22 kcal/molUSER    (3) Torsional Free Energy           =  +3.88 kcal/molUSER    (4) Unbound System's Energy         =  -5.22 kcal/molUSERUSERREMARK SMILES COc1ccc(O)c(C(=O)c2ccc(C(=O)N[C@@H]3CCN(C[C@H](O)CO)C[C@@H]3NC(=O)c3ccncc3)cc2)c1FREMARK SMILES IDX 18 1 19 2 20 3 21 4 27 5 28 6 17 7 15 8 16 9 14 11 11 12REMARK SMILES IDX 12 13 39 14 13 15 38 16 9 17 10 18 8 19 3 20 4 21 40 22 5 23REMARK SMILES IDX 6 24 41 25 2 26 1 27 7 28 29 30 30 31 31 33 32 34 33 35REMARK SMILES IDX 37 36 34 37 36 38 35 39 22 40 23 41 24 42 25 44 26 45REMARK H PARENT 17 10 7 29 29 32 24 43 26 46USER                              x       y       z     vdW  Elec       q    TypeUSER                           _______ _______ _______ _____ _____    ______ ____ROOTATOM      1  C   UNL     1      34.693  44.345  18.431 -0.33 -0.03    +0.107 C  ATOM      2  C   UNL     1      34.514  43.031  17.660 -0.39 -0.01    +0.042 C  ATOM      3  C   UNL     1      33.025  42.721  17.485 -0.34 -0.03    +0.087 C  ATOM      4  N   UNL     1      32.254  43.774  16.804 -0.12 +0.11    -0.298 NA ATOM      5  C   UNL     1      32.468  45.071  17.498 -0.12 -0.04    +0.111 C  ATOM      6  C   UNL     1      33.946  45.505  17.709 -0.38 -0.08    +0.118 C  ENDROOTBRANCH   1   7ATOM      7  N   UNL     1      36.098  44.625  18.698 -0.13 +0.08    -0.347 N  ATOM      8  C   UNL     1      36.672  44.386  19.925 -0.24 -0.02    +0.251 C  ATOM      9  O   UNL     1      36.058  43.898  20.870 -0.31 -0.00    -0.269 OA ATOM     10  H   UNL     1      36.584  45.226  18.033 +0.10 -0.05    +0.164 HD BRANCH   8  11ATOM     11  C   UNL     1      38.090  44.813  20.092 -0.30 -0.00    +0.039 A  ATOM     12  C   UNL     1      40.791  45.571  20.300 -0.37 +0.00    +0.023 A  ATOM     13  C   UNL     1      40.218  45.348  19.043 -0.44 -0.00    +0.013 A  ATOM     14  C   UNL     1      39.998  45.442  21.449 -0.31 +0.00    +0.013 A  ATOM     15  C   UNL     1      38.874  44.973  18.942 -0.39 -0.00    +0.014 A  ATOM     16  C   UNL     1      38.654  45.067  21.347 -0.33 +0.00    +0.014 A  BRANCH  12  17ATOM     17  C   UNL     1      42.223  45.949  20.469 -0.25 +0.05    +0.199 C  ATOM     18  O   UNL     1      42.810  46.590  19.604 -0.32 -0.08    -0.288 OA BRANCH  17  19ATOM     19  C   UNL     1      42.954  45.590  21.693 -0.20 +0.03    +0.104 A  ATOM     20  C   UNL     1      43.660  43.871  23.257 -0.14 +0.02    +0.155 A  ATOM     21  C   UNL     1      44.250  44.860  24.053 -0.06 +0.01    +0.053 A  ATOM     22  C   UNL     1      43.003  44.253  22.083 -0.17 +0.04    +0.179 A  ATOM     23  C   UNL     1      44.201  46.205  23.668 -0.11 +0.01    +0.051 A  ATOM     24  C   UNL     1      43.559  46.567  22.485 -0.20 +0.04    +0.130 A  ATOM     25  F   UNL     1      42.424  43.313  21.317 -0.12 -0.02    -0.202 F  BRANCH  20  26ATOM     26  O   UNL     1      43.663  42.530  23.526 -0.10 +0.01    -0.494 OA ATOM     27  C   UNL     1      44.749  41.759  23.027 -0.22 -0.02    +0.278 C  ENDBRANCH  20  26BRANCH  24  28ATOM     28  O   UNL     1      43.550  47.871  22.086 -0.17 -0.10    -0.507 OA ATOM     29  H   UNL     1      43.612  47.926  21.120 -0.33 +0.02    +0.293 HD ENDBRANCH  24  28ENDBRANCH  17  19ENDBRANCH  12  17ENDBRANCH   8  11ENDBRANCH   1   7BRANCH   6  30ATOM     30  N   UNL     1      34.555  45.936  16.436 -0.07 +0.37    -0.346 N  ATOM     31  C   UNL     1      35.802  46.509  16.336 -0.23 -0.24    +0.251 C  ATOM     32  H   UNL     1      33.918  46.117  15.674 -0.12 -0.24    +0.164 HD ATOM     33  O   UNL     1      36.551  46.663  17.295 -0.20 +0.17    -0.269 OA BRANCH  31  34ATOM     34  C   UNL     1      36.214  46.966  14.982 -0.34 -0.04    +0.042 A  ATOM     35  C   UNL     1      37.010  48.097  14.792 -0.46 -0.03    +0.034 A  ATOM     36  C   UNL     1      35.748  46.258  13.876 -0.44 -0.02    +0.034 A  ATOM     37  C   UNL     1      37.328  48.454  13.494 -0.39 -0.05    +0.112 A  ATOM     38  C   UNL     1      36.122  46.695  12.619 -0.55 -0.06    +0.112 A  ATOM     39  N   UNL     1      36.908  47.774  12.406 -1.01 +0.08    -0.265 NA ENDBRANCH  31  34ENDBRANCH   6  30BRANCH   4  40ATOM     40  C   UNL     1      32.517  43.866  15.354 -0.24 -0.06    +0.118 C  BRANCH  40  41ATOM     41  C   UNL     1      31.803  45.022  14.620 -0.29 -0.10    +0.154 C  BRANCH  41  42ATOM     42  O   UNL     1      32.678  46.150  14.471 -0.22 +0.40    -0.389 OA ATOM     43  H   UNL     1      32.167  46.934  14.748 -0.41 -0.30    +0.211 HD ENDBRANCH  41  42BRANCH  41  44ATOM     44  C   UNL     1      30.608  45.511  15.454 -0.35 -0.08    +0.189 C  BRANCH  44  45ATOM     45  O   UNL     1      30.734  46.912  15.707 -0.72 +0.10    -0.394 OA ATOM     46  H   UNL     1      31.645  47.015  16.048 -0.40 -0.25    +0.210 HD ENDBRANCH  44  45ENDBRANCH  41  44ENDBRANCH  40  41ENDBRANCH   4  40TORSDOF 13TERENDMDL