MODEL        6USER    Run = 6USERUSER    Estimated Free Energy of Binding    = -12.48 kcal/mol  [=(1)+(2)+(3)-(4)]USERUSER    (1) Final Intermolecular Energy     = -14.27 kcal/molUSER        vdW + Hbond + desolv Energy     = -14.12 kcal/molUSER        Electrostatic Energy            =  -0.15 kcal/molUSER        Moving Ligand-Fixed Receptor    = -14.27 kcal/molUSER        Moving Ligand-Moving Receptor   =  +0.00 kcal/molUSER    (2) Final Total Internal Energy     =  -2.09 kcal/molUSER    (3) Torsional Free Energy           =  +1.79 kcal/molUSER    (4) Unbound System's Energy         =  -2.09 kcal/molUSERUSERREMARK SMILES Oc1nc2ccccc2n1C1CCN(Cc2ccc(-c3nc4ccccc4nc3-c3ccncc3)cc2)CC1REMARK SMILES IDX 11 1 12 2 13 3 14 4 38 5 39 6 10 7 2 8 3 9 4 10 9 11 5 12REMARK SMILES IDX 8 13 6 14 7 15 1 16 15 18 16 19 17 20 37 21 18 22 36 23REMARK SMILES IDX 19 24 20 25 21 26 29 27 22 28 28 29 23 30 27 31 24 32 26 33REMARK SMILES IDX 25 34 30 35 31 36 35 37 32 38 34 39 33 40REMARK H PARENT 1 17USER                              x       y       z     vdW  Elec       q    TypeUSER                           _______ _______ _______ _____ _____    ______ ____ROOTATOM      1  C   UNL     1      39.321  48.001  14.856 -0.52 -0.03    +0.095 C  ATOM      2  C   UNL     1      38.064  48.871  15.008 -0.51 -0.03    +0.041 C  ATOM      3  C   UNL     1      36.899  48.349  14.170 -0.52 -0.06    +0.087 C  ATOM      4  N   UNL     1      36.630  46.964  14.525 -0.20 +0.20    -0.299 NA ATOM      5  C   UNL     1      37.746  46.040  14.330 -0.42 -0.03    +0.087 C  ATOM      6  C   UNL     1      39.085  46.719  14.048 -0.36 -0.01    +0.041 C  ENDROOTBRANCH   1   7ATOM      7  N   UNL     1      40.045  47.754  16.099 -0.29 +0.07    -0.291 N  ATOM      8  C   UNL     1      41.161  48.449  16.487 -0.26 -0.03    +0.295 A  ATOM      9  N   UNL     1      41.669  48.033  17.614 -0.58 +0.01    -0.195 NA ATOM     10  C   UNL     1      40.848  47.003  17.994 -0.45 -0.01    +0.092 A  ATOM     11  C   UNL     1      39.818  46.800  17.069 -0.43 -0.01    +0.072 A  ATOM     12  C   UNL     1      40.931  46.189  19.133 -0.44 +0.00    +0.031 A  ATOM     13  C   UNL     1      38.853  45.800  17.251 -0.39 -0.01    +0.029 A  ATOM     14  C   UNL     1      39.976  45.185  19.322 -0.42 -0.00    +0.002 A  ATOM     15  C   UNL     1      38.953  44.998  18.394 -0.40 -0.00    +0.002 A  BRANCH   8  16ATOM     16  O   UNL     1      41.706  49.437  15.808 -0.78 -0.03    -0.480 OA ATOM     17  H   UNL     1      40.935  50.017  15.667 +0.22 -0.09    +0.296 HD ENDBRANCH   8  16ENDBRANCH   1   7BRANCH   4  18ATOM     18  C   UNL     1      35.325  46.449  14.098 -0.40 -0.10    +0.120 C  BRANCH  18  19ATOM     19  C   UNL     1      34.694  45.396  14.986 -0.29 +0.03    -0.034 A  ATOM     20  C   UNL     1      35.477  44.402  15.588 -0.33 -0.00    +0.006 A  ATOM     21  C   UNL     1      33.314  45.390  15.224 -0.29 -0.01    +0.006 A  ATOM     22  C   UNL     1      34.894  43.432  16.410 -0.38 -0.00    +0.011 A  ATOM     23  C   UNL     1      32.734  44.422  16.051 -0.33 -0.01    +0.011 A  ATOM     24  C   UNL     1      33.510  43.415  16.647 -0.34 -0.00    +0.002 A  BRANCH  24  25ATOM     25  C   UNL     1      32.914  42.379  17.512 -0.29 -0.03    +0.097 A  ATOM     26  N   UNL     1      31.801  41.797  16.984 -0.14 +0.10    -0.244 NA ATOM     27  C   UNL     1      33.420  41.977  18.759 -0.33 -0.01    +0.097 A  ATOM     28  C   UNL     1      31.225  40.803  17.683 -0.30 -0.02    +0.089 A  ATOM     29  N   UNL     1      32.840  40.958  19.455 -0.39 -0.04    -0.244 NA ATOM     30  C   UNL     1      30.094  40.176  17.177 -0.34 -0.00    +0.030 A  ATOM     31  C   UNL     1      31.751  40.378  18.922 -0.33 +0.00    +0.089 A  ATOM     32  C   UNL     1      29.468  39.137  17.869 -0.33 +0.00    +0.002 A  ATOM     33  C   UNL     1      31.121  39.342  19.603 -0.38 +0.00    +0.030 A  ATOM     34  C   UNL     1      29.985  38.717  19.087 -0.38 +0.00    +0.002 A  BRANCH  27  35ATOM     35  C   UNL     1      34.567  42.587  19.452 -0.42 -0.00    +0.005 A  ATOM     36  C   UNL     1      35.503  41.783  20.116 -0.19 -0.00    +0.030 A  ATOM     37  C   UNL     1      34.754  43.975  19.507 -0.38 -0.00    +0.030 A  ATOM     38  C   UNL     1      36.573  42.380  20.760 -0.38 -0.00    +0.111 A  ATOM     39  C   UNL     1      35.858  44.480  20.175 -0.19 -0.01    +0.111 A  ATOM     40  N   UNL     1      36.776  43.713  20.796 -0.24 +0.00    -0.265 NA ENDBRANCH  27  35ENDBRANCH  24  25ENDBRANCH  18  19ENDBRANCH   4  18TORSDOF 6TERENDMDL