REMARK SMILES COc1ccc(O)c(C(=O)c2ccc(C(=O)N[C@@H]3CCN(C[C@H](O)CO)C[C@@H]3NC(=O)c3ccncc3)cc2)c1F
REMARK SMILES IDX 18 1 19 2 20 3 21 4 27 5 28 6 17 7 15 8 16 9 14 11 11 12
REMARK SMILES IDX 12 13 39 14 13 15 38 16 9 17 10 18 8 19 3 20 4 21 40 22 5 23
REMARK SMILES IDX 6 24 41 25 2 26 1 27 7 28 29 30 30 31 31 33 32 34 33 35
REMARK SMILES IDX 37 36 34 37 36 38 35 39 22 40 23 41 24 42 25 44 26 45
REMARK H PARENT 17 10 7 29 29 32 24 43 26 46
ROOT
ATOM      1  C   UNL     1      -1.793   1.934   0.293  1.00  0.00     0.107 C 
ATOM      2  C   UNL     1      -2.590   1.763   1.592  1.00  0.00     0.042 C 
ATOM      3  C   UNL     1      -3.754   2.756   1.632  1.00  0.00     0.087 C 
ATOM      4  N   UNL     1      -4.683   2.660   0.494  1.00  0.00    -0.298 NA
ATOM      5  C   UNL     1      -3.920   2.757  -0.778  1.00  0.00     0.111 C 
ATOM      6  C   UNL     1      -2.726   1.774  -0.943  1.00  0.00     0.118 C 
ENDROOT
BRANCH   1   7
ATOM      7  N   UNL     1      -0.621   1.068   0.263  1.00  0.00    -0.347 N 
ATOM      8  C   UNL     1       0.507   1.335   1.003  1.00  0.00     0.251 C 
ATOM      9  O   UNL     1       0.601   2.299   1.759  1.00  0.00    -0.269 OA
ATOM     10  H   UNL     1      -0.563   0.395  -0.502  1.00  0.00     0.164 HD
BRANCH   8  11
ATOM     11  C   UNL     1       1.669   0.425   0.800  1.00  0.00     0.039 A 
ATOM     12  C   UNL     1       3.934  -1.196   0.403  1.00  0.00     0.023 A 
ATOM     13  C   UNL     1       4.081   0.119   0.858  1.00  0.00     0.013 A 
ATOM     14  C   UNL     1       2.647  -1.704   0.178  1.00  0.00     0.013 A 
ATOM     15  C   UNL     1       2.954   0.923   1.056  1.00  0.00     0.014 A 
ATOM     16  C   UNL     1       1.519  -0.900   0.376  1.00  0.00     0.014 A 
BRANCH  12  17
ATOM     17  C   UNL     1       5.100  -2.089   0.152  1.00  0.00     0.199 C 
ATOM     18  O   UNL     1       4.943  -3.292  -0.032  1.00  0.00    -0.288 OA
BRANCH  17  19
ATOM     19  C   UNL     1       6.463  -1.542   0.085  1.00  0.00     0.104 A 
ATOM     20  C   UNL     1       8.119  -0.248  -1.133  1.00  0.00     0.155 A 
ATOM     21  C   UNL     1       9.061  -0.550  -0.142  1.00  0.00     0.053 A 
ATOM     22  C   UNL     1       6.824  -0.762  -1.012  1.00  0.00     0.179 A 
ATOM     23  C   UNL     1       8.704  -1.336   0.961  1.00  0.00     0.051 A 
ATOM     24  C   UNL     1       7.404  -1.825   1.076  1.00  0.00     0.130 A 
ATOM     25  F   UNL     1       5.915  -0.487  -1.963  1.00  0.00    -0.202 F 
BRANCH  20  26
ATOM     26  O   UNL     1       8.352   0.522  -2.239  1.00  0.00    -0.494 OA
ATOM     27  C   UNL     1       9.664   1.041  -2.418  1.00  0.00     0.278 C 
ENDBRANCH  20  26
BRANCH  24  28
ATOM     28  O   UNL     1       7.044  -2.552   2.172  1.00  0.00    -0.507 OA
ATOM     29  H   UNL     1       7.821  -2.732   2.724  1.00  0.00     0.293 HD
ENDBRANCH  24  28
ENDBRANCH  17  19
ENDBRANCH  12  17
ENDBRANCH   8  11
ENDBRANCH   1   7
BRANCH   6  30
ATOM     30  N   UNL     1      -3.206   0.399  -1.183  1.00  0.00    -0.346 N 
ATOM     31  C   UNL     1      -2.410  -0.622  -1.650  1.00  0.00     0.251 C 
ATOM     32  H   UNL     1      -4.200   0.290  -1.322  1.00  0.00     0.164 HD
ATOM     33  O   UNL     1      -1.207  -0.497  -1.857  1.00  0.00    -0.269 OA
BRANCH  31  34
ATOM     34  C   UNL     1      -3.087  -1.918  -1.921  1.00  0.00     0.042 A 
ATOM     35  C   UNL     1      -4.244  -2.305  -1.243  1.00  0.00     0.034 A 
ATOM     36  C   UNL     1      -2.513  -2.780  -2.854  1.00  0.00     0.034 A 
ATOM     37  C   UNL     1      -4.793  -3.537  -1.552  1.00  0.00     0.112 A 
ATOM     38  C   UNL     1      -3.139  -3.989  -3.092  1.00  0.00     0.112 A 
ATOM     39  N   UNL     1      -4.270  -4.382  -2.465  1.00  0.00    -0.265 NA
ENDBRANCH  31  34
ENDBRANCH   6  30
BRANCH   4  40
ATOM     40  C   UNL     1      -5.555   1.469   0.533  1.00  0.00     0.118 C 
BRANCH  40  41
ATOM     41  C   UNL     1      -6.743   1.546   1.518  1.00  0.00     0.154 C 
BRANCH  41  42
ATOM     42  O   UNL     1      -6.309   1.293   2.862  1.00  0.00    -0.389 OA
ATOM     43  H   UNL     1      -6.163   2.166   3.273  1.00  0.00     0.211 HD
ENDBRANCH  41  42
BRANCH  41  44
ATOM     44  C   UNL     1      -7.770   0.453   1.183  1.00  0.00     0.189 C 
BRANCH  44  45
ATOM     45  O   UNL     1      -7.156  -0.835   1.278  1.00  0.00    -0.394 OA
ATOM     46  H   UNL     1      -6.740  -0.839   2.164  1.00  0.00     0.210 HD
ENDBRANCH  44  45
ENDBRANCH  41  44
ENDBRANCH  40  41
ENDBRANCH   4  40
TORSDOF 13
