MODEL        8USER    Run = 8USERUSER    Estimated Free Energy of Binding    = -11.27 kcal/mol  [=(1)+(2)+(3)-(4)]USERUSER    (1) Final Intermolecular Energy     = -12.76 kcal/molUSER        vdW + Hbond + desolv Energy     = -12.74 kcal/molUSER        Electrostatic Energy            =  -0.02 kcal/molUSER        Moving Ligand-Fixed Receptor    = -12.76 kcal/molUSER        Moving Ligand-Moving Receptor   =  +0.00 kcal/molUSER    (2) Final Total Internal Energy     =  -1.07 kcal/molUSER    (3) Torsional Free Energy           =  +1.49 kcal/molUSER    (4) Unbound System's Energy         =  -1.07 kcal/molUSERUSERREMARK SMILES Nc1ncc(C2CCCC2)nc1-c1ccc(-c2cccc(N3CCOCC3)c2)cc1REMARK SMILES IDX 2 1 3 2 4 3 5 4 11 5 12 6 1 7 13 10 14 11 30 12 15 13 29 14REMARK SMILES IDX 16 15 17 16 18 17 28 18 19 19 21 20 20 21 22 22 23 23 27 24REMARK SMILES IDX 24 25 26 26 25 27 6 28 7 29 10 30 8 31 9 32REMARK H PARENT 1 8 1 9USER                              x       y       z     vdW  Elec       q    TypeUSER                           _______ _______ _______ _____ _____    ______ ____ROOTATOM      1  C   UNL     1      41.002  47.649  17.227 -0.40 -0.02    +0.150 A  ATOM      2  N   UNL     1      41.420  48.475  16.246 -0.77 +0.01    -0.236 NA ATOM      3  C   UNL     1      40.593  48.603  15.183 -0.48 -0.03    +0.137 A  ATOM      4  C   UNL     1      39.381  47.934  15.076 -0.48 -0.02    +0.063 A  ATOM      5  N   UNL     1      38.962  47.100  16.057 -0.25 +0.09    -0.247 NA ATOM      6  C   UNL     1      39.766  46.973  17.153 -0.40 -0.02    +0.113 A  ENDROOTBRANCH   1   7ATOM      7  N   UNL     1      41.889  47.537  18.301 -0.29 +0.01    -0.382 N  ATOM      8  H   UNL     1      42.777  47.146  18.004 -0.42 -0.01    +0.158 HD ATOM      9  H   UNL     1      41.991  48.468  18.697 +0.05 -0.00    +0.158 HD ENDBRANCH   1   7BRANCH   6  10ATOM     10  C   UNL     1      39.239  46.071  18.199 -0.42 -0.00    +0.004 A  ATOM     11  C   UNL     1      37.961  45.503  18.070 -0.37 -0.00    +0.011 A  ATOM     12  C   UNL     1      39.965  45.767  19.360 -0.41 -0.00    +0.011 A  ATOM     13  C   UNL     1      37.439  44.649  19.050 -0.35 -0.00    +0.009 A  ATOM     14  C   UNL     1      39.443  44.913  20.343 -0.36 +0.00    +0.009 A  ATOM     15  C   UNL     1      38.173  44.339  20.202 -0.35 +0.00    -0.018 A  BRANCH  15  16ATOM     16  C   UNL     1      37.622  43.449  21.237 -0.36 -0.00    -0.016 A  ATOM     17  C   UNL     1      36.932  42.280  20.888 -0.42 +0.00    +0.009 A  ATOM     18  C   UNL     1      37.777  43.750  22.606 -0.34 +0.00    +0.034 A  ATOM     19  C   UNL     1      36.419  41.440  21.872 -0.57 +0.00    +0.003 A  ATOM     20  C   UNL     1      37.270  42.922  23.620 -0.36 +0.00    +0.037 A  ATOM     21  C   UNL     1      36.590  41.761  23.220 -0.47 +0.00    +0.026 A  BRANCH  20  22ATOM     22  N   UNL     1      37.410  43.192  24.988 -0.11 -0.00    -0.367 N  ATOM     23  C   UNL     1      37.085  42.149  25.985 -0.35 -0.02    +0.145 C  ATOM     24  C   UNL     1      36.924  44.545  25.360 -0.30 +0.00    +0.145 C  ATOM     25  C   UNL     1      35.753  42.463  26.680 -0.43 -0.03    +0.181 C  ATOM     26  C   UNL     1      36.719  44.652  26.880 -0.31 -0.03    +0.181 C  ATOM     27  O   UNL     1      35.756  43.714  27.390 -0.25 +0.09    -0.378 OA ENDBRANCH  20  22ENDBRANCH  15  16ENDBRANCH   6  10BRANCH   4  28ATOM     28  C   UNL     1      38.516  48.097  13.857 -0.53 -0.01    +0.040 C  ATOM     29  C   UNL     1      37.188  48.810  14.121 -0.58 -0.01    +0.010 C  ATOM     30  C   UNL     1      38.066  46.765  13.252 -0.45 -0.00    +0.010 C  ATOM     31  C   UNL     1      36.379  48.499  12.870 -0.46 -0.00    +0.001 C  ATOM     32  C   UNL     1      36.805  47.093  12.451 -0.75 -0.00    +0.001 C  ENDBRANCH   4  28TORSDOF 5TERENDMDL