REMARK SMILES Nc1ncc(C2CCCC2)nc1-c1ccc(-c2cccc(N3CCOCC3)c2)cc1
REMARK SMILES IDX 2 1 3 2 4 3 5 4 11 5 12 6 1 7 13 10 14 11 30 12 15 13 29 14
REMARK SMILES IDX 16 15 17 16 18 17 28 18 19 19 21 20 20 21 22 22 23 23 27 24
REMARK SMILES IDX 24 25 26 26 25 27 6 28 7 29 10 30 8 31 9 32
REMARK H PARENT 1 8 1 9
ROOT
ATOM      1  C   UNL     1       3.336   1.400  -2.740  1.00  0.00     0.150 A 
ATOM      2  N   UNL     1       4.619   1.249  -3.130  1.00  0.00    -0.236 NA
ATOM      3  C   UNL     1       5.434   0.608  -2.261  1.00  0.00     0.137 A 
ATOM      4  C   UNL     1       5.007   0.125  -1.031  1.00  0.00     0.063 A 
ATOM      5  N   UNL     1       3.721   0.280  -0.636  1.00  0.00    -0.247 NA
ATOM      6  C   UNL     1       2.871   0.901  -1.505  1.00  0.00     0.113 A 
ENDROOT
BRANCH   1   7
ATOM      7  N   UNL     1       2.531   2.075  -3.661  1.00  0.00    -0.382 N 
ATOM      8  H   UNL     1       2.041   2.848  -3.222  1.00  0.00     0.158 HD
ATOM      9  H   UNL     1       3.139   2.382  -4.415  1.00  0.00     0.158 HD
ENDBRANCH   1   7
BRANCH   6  10
ATOM     10  C   UNL     1       1.478   1.013  -1.026  1.00  0.00     0.004 A 
ATOM     11  C   UNL     1       1.210   1.359   0.309  1.00  0.00     0.011 A 
ATOM     12  C   UNL     1       0.377   0.758  -1.858  1.00  0.00     0.011 A 
ATOM     13  C   UNL     1      -0.102   1.467   0.787  1.00  0.00     0.009 A 
ATOM     14  C   UNL     1      -0.937   0.865  -1.381  1.00  0.00     0.009 A 
ATOM     15  C   UNL     1      -1.198   1.223  -0.051  1.00  0.00    -0.018 A 
BRANCH  15  16
ATOM     16  C   UNL     1      -2.577   1.327   0.452  1.00  0.00    -0.016 A 
ATOM     17  C   UNL     1      -3.038   2.509   1.047  1.00  0.00     0.009 A 
ATOM     18  C   UNL     1      -3.469   0.240   0.344  1.00  0.00     0.034 A 
ATOM     19  C   UNL     1      -4.346   2.602   1.515  1.00  0.00     0.003 A 
ATOM     20  C   UNL     1      -4.793   0.306   0.808  1.00  0.00     0.037 A 
ATOM     21  C   UNL     1      -5.209   1.512   1.393  1.00  0.00     0.026 A 
BRANCH  20  22
ATOM     22  N   UNL     1      -5.704  -0.755   0.713  1.00  0.00    -0.367 N 
ATOM     23  C   UNL     1      -5.212  -2.142   0.569  1.00  0.00     0.145 C 
ATOM     24  C   UNL     1      -6.865  -0.440  -0.158  1.00  0.00     0.145 C 
ATOM     25  C   UNL     1      -5.414  -2.640  -0.869  1.00  0.00     0.181 C 
ATOM     26  C   UNL     1      -7.611  -1.724  -0.557  1.00  0.00     0.181 C 
ATOM     27  O   UNL     1      -6.791  -2.654  -1.284  1.00  0.00    -0.378 OA
ENDBRANCH  20  22
ENDBRANCH  15  16
ENDBRANCH   6  10
BRANCH   4  28
ATOM     28  C   UNL     1       5.966  -0.557  -0.096  1.00  0.00     0.040 C 
ATOM     29  C   UNL     1       5.455  -1.884   0.468  1.00  0.00     0.010 C 
ATOM     30  C   UNL     1       6.259   0.254   1.169  1.00  0.00     0.010 C 
ATOM     31  C   UNL     1       6.400  -2.147   1.632  1.00  0.00     0.001 C 
ATOM     32  C   UNL     1       6.735  -0.769   2.201  1.00  0.00     0.001 C 
ENDBRANCH   4  28
TORSDOF 5
