MODEL        8USER    Run = 8USERUSER    Estimated Free Energy of Binding    = -10.58 kcal/mol  [=(1)+(2)+(3)-(4)]USERUSER    (1) Final Intermolecular Energy     = -12.97 kcal/molUSER        vdW + Hbond + desolv Energy     = -12.94 kcal/molUSER        Electrostatic Energy            =  -0.03 kcal/molUSER        Moving Ligand-Fixed Receptor    = -12.97 kcal/molUSER        Moving Ligand-Moving Receptor   =  +0.00 kcal/molUSER    (2) Final Total Internal Energy     =  -1.43 kcal/molUSER    (3) Torsional Free Energy           =  +2.39 kcal/molUSER    (4) Unbound System's Energy         =  -1.43 kcal/molUSERUSERREMARK SMILES COc1ccc(O)c(C(=O)c2ccc(CN3CCC(n4c(O)nc5ccccc54)CC3)cc2)c1FREMARK SMILES IDX 11 1 12 2 13 3 14 4 32 5 33 6 9 7 10 8 8 9 3 10 4 11 34 12REMARK SMILES IDX 5 13 6 14 35 15 2 16 1 17 7 18 15 20 16 21 17 22 31 23 18 24REMARK SMILES IDX 30 25 19 26 20 27 21 28 29 29 23 30 28 31 24 32 27 33 25 34REMARK SMILES IDX 26 35 22 36REMARK H PARENT 7 19 22 37USER                              x       y       z     vdW  Elec       q    TypeUSER                           _______ _______ _______ _____ _____    ______ ____ROOTATOM      1  C   UNL     1      38.072  43.399  24.445 -0.27 +0.00    +0.023 A  ATOM      2  C   UNL     1      37.289  43.427  23.287 -0.36 +0.00    +0.012 A  ATOM      3  C   UNL     1      37.725  44.137  22.166 -0.37 +0.00    +0.006 A  ATOM      4  C   UNL     1      38.954  44.812  22.183 -0.30 -0.00    -0.034 A  ATOM      5  C   UNL     1      39.740  44.763  23.344 -0.21 +0.00    +0.006 A  ATOM      6  C   UNL     1      39.309  44.052  24.465 -0.18 +0.00    +0.012 A  ENDROOTBRANCH   1   7ATOM      7  C   UNL     1      37.657  42.637  25.645 -0.25 -0.01    +0.199 C  ATOM      8  O   UNL     1      38.121  41.509  25.827 -0.21 +0.01    -0.288 OA BRANCH   7   9ATOM      9  C   UNL     1      36.663  43.140  26.618 -0.32 -0.01    +0.104 A  ATOM     10  C   UNL     1      35.798  44.882  28.090 -0.35 -0.04    +0.155 A  ATOM     11  C   UNL     1      34.740  44.046  28.452 -0.59 -0.01    +0.053 A  ATOM     12  C   UNL     1      36.755  44.417  27.175 -0.28 -0.03    +0.179 A  ATOM     13  C   UNL     1      34.655  42.755  27.924 -0.49 -0.01    +0.051 A  ATOM     14  C   UNL     1      35.618  42.303  27.026 -0.44 -0.03    +0.130 A  ATOM     15  F   UNL     1      37.786  45.217  26.864 -0.06 +0.02    -0.202 F  BRANCH  10  16ATOM     16  O   UNL     1      35.997  46.155  28.552 -0.18 +0.12    -0.494 OA ATOM     17  C   UNL     1      34.871  46.836  29.095 -0.28 -0.06    +0.278 C  ENDBRANCH  10  16BRANCH  14  18ATOM     18  O   UNL     1      35.480  41.015  26.582 -0.24 +0.21    -0.507 OA ATOM     19  H   UNL     1      36.381  40.628  26.496 -0.26 -0.14    +0.293 HD ENDBRANCH  14  18ENDBRANCH   7   9ENDBRANCH   1   7BRANCH   4  20ATOM     20  C   UNL     1      39.415  45.600  20.973 -0.28 +0.00    +0.120 C  BRANCH  20  21ATOM     21  N   UNL     1      40.235  44.810  20.037 -0.19 -0.01    -0.299 NA ATOM     22  C   UNL     1      39.464  44.230  18.929 -0.30 -0.00    +0.087 C  ATOM     23  C   UNL     1      41.383  45.579  19.539 -0.42 +0.01    +0.087 C  ATOM     24  C   UNL     1      39.005  45.251  17.888 -0.43 -0.01    +0.041 C  ATOM     25  C   UNL     1      41.008  46.667  18.532 -0.54 -0.00    +0.041 C  ATOM     26  C   UNL     1      40.191  46.077  17.377 -0.45 -0.01    +0.095 C  BRANCH  26  27ATOM     27  N   UNL     1      39.795  47.086  16.406 -0.26 +0.07    -0.291 N  ATOM     28  C   UNL     1      40.419  48.278  16.166 -0.31 -0.07    +0.295 A  ATOM     29  C   UNL     1      38.721  47.015  15.541 -0.39 -0.03    +0.072 A  ATOM     30  N   UNL     1      39.847  48.982  15.228 -0.39 +0.08    -0.195 NA ATOM     31  C   UNL     1      37.725  46.058  15.314 -0.36 -0.01    +0.029 A  ATOM     32  C   UNL     1      38.786  48.211  14.823 -0.45 -0.04    +0.092 A  ATOM     33  C   UNL     1      36.777  46.340  14.323 -0.43 -0.00    +0.002 A  ATOM     34  C   UNL     1      37.826  48.475  13.834 -0.48 -0.01    +0.031 A  ATOM     35  C   UNL     1      36.824  47.528  13.592 -0.57 -0.00    +0.002 A  BRANCH  28  36ATOM     36  O   UNL     1      41.494  48.710  16.794 -0.75 -0.01    -0.480 OA ATOM     37  H   UNL     1      42.162  48.074  16.479 -0.30 +0.00    +0.296 HD ENDBRANCH  28  36ENDBRANCH  26  27ENDBRANCH  20  21ENDBRANCH   4  20TORSDOF 8TERENDMDL