MODEL        1USER    Run = 1USERUSER    Estimated Free Energy of Binding    =  -8.00 kcal/mol  [=(1)+(2)+(3)-(4)]USERUSER    (1) Final Intermolecular Energy     =  -9.78 kcal/molUSER        vdW + Hbond + desolv Energy     =  -9.14 kcal/molUSER        Electrostatic Energy            =  -0.65 kcal/molUSER        Moving Ligand-Fixed Receptor    =  -9.78 kcal/molUSER        Moving Ligand-Moving Receptor   =  +0.00 kcal/molUSER    (2) Final Total Internal Energy     =  -0.97 kcal/molUSER    (3) Torsional Free Energy           =  +1.79 kcal/molUSER    (4) Unbound System's Energy         =  -0.97 kcal/molUSERUSERREMARK SMILES O=C(O)c1cc(F)ccc1Cc1ccc(CN2CCOCC2)[nH]c1=OREMARK SMILES IDX 4 1 5 2 6 3 7 4 8 5 9 6 10 7 2 8 1 9 3 10 11 12 12 13 13 14REMARK SMILES IDX 24 15 14 16 23 17 15 18 25 19 16 21 17 22 18 23 22 24 19 25REMARK SMILES IDX 21 26 20 27REMARK H PARENT 3 11 23 20USER                              x       y       z     vdW  Elec       q    TypeUSER                           _______ _______ _______ _____ _____    ______ ____ROOTATOM      1  C   UNL     1      36.018  46.240  16.976 -0.32 -0.05    +0.066 A  ATOM      2  C   UNL     1      36.351  47.266  16.081 -0.21 -0.06    +0.055 A  ATOM      3  C   UNL     1      37.625  47.315  15.533 -0.34 -0.07    +0.124 A  ATOM      4  F   UNL     1      37.935  48.293  14.673 -0.14 +0.12    -0.207 F  ATOM      5  C   UNL     1      38.583  46.370  15.867 -0.38 -0.01    +0.039 A  ATOM      6  C   UNL     1      38.266  45.356  16.772 -0.35 -0.00    +0.008 A  ATOM      7  C   UNL     1      36.981  45.274  17.346 -0.33 +0.01    -0.029 A  ENDROOTBRANCH   1   8ATOM      8  C   UNL     1      34.644  46.288  17.522 -0.20 -0.32    +0.336 C  ATOM      9  O   UNL     1      33.788  45.439  17.353 -0.25 +0.17    -0.246 OA BRANCH   8  10ATOM     10  O   UNL     1      34.449  47.346  18.321 -0.83 +0.47    -0.478 OA ATOM     11  H   UNL     1      33.969  47.993  17.764 -0.30 -0.69    +0.297 HD ENDBRANCH   8  10ENDBRANCH   1   8BRANCH   7  12ATOM     12  C   UNL     1      36.717  44.178  18.365 -0.33 -0.02    +0.077 C  BRANCH  12  13ATOM     13  C   UNL     1      35.490  43.333  18.135 -0.32 -0.01    +0.022 A  ATOM     14  C   UNL     1      34.979  42.936  16.955 -0.40 -0.00    +0.011 A  ATOM     15  C   UNL     1      34.776  42.905  19.382 -0.24 -0.02    +0.251 A  ATOM     16  C   UNL     1      33.794  42.113  16.877 -0.30 -0.01    +0.023 A  ATOM     17  N   UNL     1      33.660  42.122  19.213 -0.19 +0.01    -0.325 N  ATOM     18  C   UNL     1      33.151  41.732  17.993 -0.39 -0.01    +0.032 A  ATOM     19  O   UNL     1      35.159  43.235  20.500 -0.38 -0.01    -0.269 OA ATOM     20  H   UNL     1      33.198  41.843  20.068 +0.10 +0.05    +0.170 HD BRANCH  18  21ATOM     21  C   UNL     1      31.917  40.853  17.980 -0.36 -0.03    +0.138 C  BRANCH  21  22ATOM     22  N   UNL     1      32.030  39.658  18.830 -0.49 -0.02    -0.293 NA ATOM     23  C   UNL     1      32.668  38.520  18.135 -0.22 -0.00    +0.113 C  ATOM     24  C   UNL     1      30.722  39.257  19.392 -0.35 +0.01    +0.113 C  ATOM     25  C   UNL     1      32.288  37.173  18.770 -0.47 +0.04    +0.175 C  ATOM     26  C   UNL     1      30.074  38.073  18.657 -0.34 +0.06    +0.175 C  ATOM     27  O   UNL     1      30.886  36.893  18.661 -0.80 -0.26    -0.379 OA ENDBRANCH  21  22ENDBRANCH  18  21ENDBRANCH  12  13ENDBRANCH   7  12TORSDOF 6TERENDMDL