REMARK SMILES O=C(O)c1cc(F)ccc1Cc1ccc(CN2CCOCC2)[nH]c1=O
REMARK SMILES IDX 4 1 5 2 6 3 7 4 8 5 9 6 10 7 2 8 1 9 3 10 11 12 12 13 13 14
REMARK SMILES IDX 24 15 14 16 23 17 15 18 25 19 16 21 17 22 18 23 22 24 19 25
REMARK SMILES IDX 21 26 20 27
REMARK H PARENT 3 11 23 20
ROOT
ATOM      1  C   UNL     1      -4.525  -0.071  -0.128  1.00  0.00     0.066 A 
ATOM      2  C   UNL     1      -5.621  -0.857   0.255  1.00  0.00     0.055 A 
ATOM      3  C   UNL     1      -6.001  -0.905   1.589  1.00  0.00     0.124 A 
ATOM      4  F   UNL     1      -7.053  -1.651   1.948  1.00  0.00    -0.207 F 
ATOM      5  C   UNL     1      -5.304  -0.196   2.556  1.00  0.00     0.039 A 
ATOM      6  C   UNL     1      -4.200   0.573   2.187  1.00  0.00     0.008 A 
ATOM      7  C   UNL     1      -3.788   0.647   0.841  1.00  0.00    -0.029 A 
ENDROOT
BRANCH   1   8
ATOM      8  C   UNL     1      -4.186  -0.104  -1.567  1.00  0.00     0.336 C 
ATOM      9  O   UNL     1      -4.212  -1.094  -2.275  1.00  0.00    -0.246 OA
BRANCH   8  10
ATOM     10  O   UNL     1      -3.923   1.115  -2.058  1.00  0.00    -0.478 OA
ATOM     11  H   UNL     1      -3.755   0.968  -3.012  1.00  0.00     0.297 HD
ENDBRANCH   8  10
ENDBRANCH   1   8
BRANCH   7  12
ATOM     12  C   UNL     1      -2.546   1.459   0.513  1.00  0.00     0.077 C 
BRANCH  12  13
ATOM     13  C   UNL     1      -1.315   0.675   0.135  1.00  0.00     0.022 A 
ATOM     14  C   UNL     1      -1.122  -0.652   0.251  1.00  0.00     0.011 A 
ATOM     15  C   UNL     1      -0.193   1.494  -0.428  1.00  0.00     0.251 A 
ATOM     16  C   UNL     1       0.111  -1.281  -0.162  1.00  0.00     0.023 A 
ATOM     17  N   UNL     1       0.941   0.812  -0.797  1.00  0.00    -0.325 N 
ATOM     18  C   UNL     1       1.118  -0.548  -0.663  1.00  0.00     0.032 A 
ATOM     19  O   UNL     1      -0.273   2.712  -0.554  1.00  0.00    -0.269 OA
ATOM     20  H   UNL     1       1.682   1.385  -1.178  1.00  0.00     0.170 HD
BRANCH  18  21
ATOM     21  C   UNL     1       2.427  -1.149  -1.134  1.00  0.00     0.138 C 
BRANCH  21  22
ATOM     22  N   UNL     1       3.468  -1.194  -0.097  1.00  0.00    -0.293 NA
ATOM     23  C   UNL     1       3.891   0.151   0.348  1.00  0.00     0.113 C 
ATOM     24  C   UNL     1       4.638  -1.992  -0.524  1.00  0.00     0.113 C 
ATOM     25  C   UNL     1       5.298   0.135   0.966  1.00  0.00     0.175 C 
ATOM     26  C   UNL     1       5.827  -1.138  -0.990  1.00  0.00     0.175 C 
ATOM     27  O   UNL     1       6.307  -0.240   0.018  1.00  0.00    -0.379 OA
ENDBRANCH  21  22
ENDBRANCH  18  21
ENDBRANCH  12  13
ENDBRANCH   7  12
TORSDOF 6
