MODEL        1USER    Run = 1USERUSER    Estimated Free Energy of Binding    =  -7.75 kcal/mol  [=(1)+(2)+(3)-(4)]USERUSER    (1) Final Intermolecular Energy     = -10.14 kcal/molUSER        vdW + Hbond + desolv Energy     =  -9.86 kcal/molUSER        Electrostatic Energy            =  -0.28 kcal/molUSER        Moving Ligand-Fixed Receptor    = -10.14 kcal/molUSER        Moving Ligand-Moving Receptor   =  +0.00 kcal/molUSER    (2) Final Total Internal Energy     =  -1.16 kcal/molUSER    (3) Torsional Free Energy           =  +2.39 kcal/molUSER    (4) Unbound System's Energy         =  -1.16 kcal/molUSERUSERREMARK SMILES COc1coc(CCCN2CCOCC2)cc2c(OO)c(OC)c1-2REMARK SMILES IDX 3 1 4 2 5 3 6 4 16 5 17 6 18 7 21 8 24 9 2 10 1 11 22 12REMARK SMILES IDX 23 13 7 14 8 15 9 16 10 17 11 18 15 19 12 20 14 21 13 22REMARK SMILES IDX 19 23 20 24REMARK H PARENT 20 25USER                              x       y       z     vdW  Elec       q    TypeUSER                           _______ _______ _______ _____ _____    ______ ____ROOTATOM      1  C   UNL     1      38.096  47.239  14.038 -0.36 -0.06    +0.165 A  ATOM      2  C   UNL     1      37.312  46.286  14.574 -0.23 -0.11    +0.242 A  ATOM      3  O   UNL     1      37.299  45.622  15.768 -0.07 +0.20    -0.465 OA ATOM      4  C   UNL     1      38.159  45.708  16.837 -0.31 -0.03    +0.104 A  ATOM      5  C   UNL     1      39.220  46.513  17.006 -0.40 -0.01    +0.055 A  ATOM      6  C   UNL     1      39.770  47.539  16.034 -0.48 -0.01    +0.043 A  ATOM      7  C   UNL     1      40.762  48.439  15.937 -0.40 -0.04    +0.215 A  ATOM      8  C   UNL     1      40.292  48.773  14.599 -0.40 -0.05    +0.177 A  ATOM      9  C   UNL     1      39.305  47.863  14.748 -0.46 -0.02    +0.077 A  ENDROOTBRANCH   1  10ATOM     10  O   UNL     1      37.914  47.780  12.779 -0.69 +0.05    -0.493 OA ATOM     11  C   UNL     1      36.820  47.334  11.989 -0.47 -0.10    +0.278 C  ENDBRANCH   1  10BRANCH   8  12ATOM     12  O   UNL     1      40.785  49.635  13.792 -0.17 +0.16    -0.492 OA ATOM     13  C   UNL     1      42.195  49.624  13.687 -0.42 -0.04    +0.278 C  ENDBRANCH   8  12BRANCH   4  14ATOM     14  C   UNL     1      37.767  44.750  17.943 -0.37 -0.02    +0.077 C  BRANCH  14  15ATOM     15  C   UNL     1      36.245  44.607  18.059 -0.37 -0.01    +0.024 C  BRANCH  15  16ATOM     16  C   UNL     1      35.777  43.263  17.482 -0.35 -0.03    +0.085 C  BRANCH  16  17ATOM     17  N   UNL     1      35.055  42.438  18.461 -0.20 +0.06    -0.299 NA ATOM     18  C   UNL     1      33.788  41.899  17.917 -0.40 -0.03    +0.113 C  ATOM     19  C   UNL     1      34.809  43.172  19.722 -0.40 -0.01    +0.113 C  ATOM     20  C   UNL     1      32.776  41.573  19.027 -0.32 -0.00    +0.175 C  ATOM     21  C   UNL     1      33.386  43.742  19.829 -0.35 -0.01    +0.175 C  ATOM     22  O   UNL     1      32.366  42.737  19.757 -0.54 -0.03    -0.379 OA ENDBRANCH  16  17ENDBRANCH  15  16ENDBRANCH  14  15ENDBRANCH   4  14BRANCH   7  23ATOM     23  O   UNL     1      41.753  48.915  16.593 -0.88 -0.05    -0.336 OA BRANCH  23  24ATOM     24  O   UNL     1      41.721  50.359  16.423 -0.99 +0.01    -0.203 OA ATOM     25  H   UNL     1      40.951  50.370  15.829 +0.15 -0.09    +0.270 HD ENDBRANCH  23  24ENDBRANCH   7  23TORSDOF 8TERENDMDL