REMARK SMILES CC1(C)C(=O)N([C@H]2CCc3c(O)cccc32)c2nc(Nc3ccccc3)ncc21
REMARK SMILES IDX 1 1 2 2 3 3 4 4 5 5 6 6 17 7 18 8 19 9 27 10 28 11 29 12
REMARK SMILES IDX 7 13 8 14 16 15 9 16 15 17 10 18 14 19 11 20 13 21 12 22
REMARK SMILES IDX 20 24 21 26 22 27 26 28 23 29 25 30 24 31
REMARK H PARENT 12 23 20 25
ROOT
ATOM      1  C   UNL     1      -0.836  -4.444   1.716  1.00  0.00     0.027 C 
ATOM      2  C   UNL     1      -1.200  -3.388   0.675  1.00  0.00     0.074 C 
ATOM      3  C   UNL     1      -2.079  -3.968  -0.433  1.00  0.00     0.027 C 
ATOM      4  C   UNL     1      -1.930  -2.214   1.355  1.00  0.00     0.239 C 
ATOM      5  O   UNL     1      -3.011  -2.290   1.922  1.00  0.00    -0.273 OA
ATOM      6  N   UNL     1      -1.139  -1.071   1.197  1.00  0.00    -0.288 N 
ATOM      7  C   UNL     1       0.014  -1.364   0.458  1.00  0.00     0.145 A 
ATOM      8  N   UNL     1       0.990  -0.522   0.122  1.00  0.00    -0.195 NA
ATOM      9  C   UNL     1       1.992  -1.042  -0.608  1.00  0.00     0.229 A 
ATOM     10  N   UNL     1       2.044  -2.334  -1.002  1.00  0.00    -0.221 NA
ATOM     11  C   UNL     1       1.052  -3.153  -0.615  1.00  0.00     0.123 A 
ATOM     12  C   UNL     1       0.009  -2.700   0.131  1.00  0.00     0.029 A 
ENDROOT
BRANCH   6  13
ATOM     13  C   UNL     1      -1.619   0.238   1.581  1.00  0.00     0.123 C 
ATOM     14  C   UNL     1      -0.585   1.337   1.895  1.00  0.00     0.035 C 
ATOM     15  C   UNL     1      -2.445   0.898   0.504  1.00  0.00    -0.018 A 
ATOM     16  C   UNL     1      -0.487   2.257   0.666  1.00  0.00     0.042 C 
ATOM     17  C   UNL     1      -3.683   0.503   0.013  1.00  0.00     0.006 A 
ATOM     18  C   UNL     1      -1.812   2.043   0.009  1.00  0.00    -0.001 A 
ATOM     19  C   UNL     1      -4.277   1.266  -0.996  1.00  0.00     0.004 A 
ATOM     20  C   UNL     1      -2.396   2.793  -0.994  1.00  0.00     0.119 A 
ATOM     21  C   UNL     1      -3.636   2.407  -1.501  1.00  0.00     0.046 A 
BRANCH  20  22
ATOM     22  O   UNL     1      -1.747   3.893  -1.462  1.00  0.00    -0.508 OA
ATOM     23  H   UNL     1      -2.267   4.273  -2.188  1.00  0.00     0.293 HD
ENDBRANCH  20  22
ENDBRANCH   6  13
BRANCH   9  24
ATOM     24  N   UNL     1       3.060  -0.268  -1.054  1.00  0.00    -0.324 N 
ATOM     25  H   UNL     1       3.650  -0.836  -1.645  1.00  0.00     0.170 HD
BRANCH  24  26
ATOM     26  C   UNL     1       3.611   0.946  -0.631  1.00  0.00     0.041 A 
ATOM     27  C   UNL     1       3.219   1.611   0.534  1.00  0.00     0.026 A 
ATOM     28  C   UNL     1       4.559   1.575  -1.452  1.00  0.00     0.026 A 
ATOM     29  C   UNL     1       3.769   2.848   0.884  1.00  0.00     0.002 A 
ATOM     30  C   UNL     1       5.114   2.812  -1.109  1.00  0.00     0.002 A 
ATOM     31  C   UNL     1       4.718   3.448   0.063  1.00  0.00     0.000 A 
ENDBRANCH  24  26
ENDBRANCH   9  24
TORSDOF 4
