REMARK SMILES CNS(=O)(=O)C=CC(F)=C(CCl)c1csc(-c2cnc(N)c(OC)c2)n1
REMARK SMILES IDX 8 1 9 2 7 3 6 4 3 5 4 6 5 7 2 8 1 9 10 11 11 12 12 13 13 14
REMARK SMILES IDX 14 15 26 16 15 17 16 18 17 19 18 20 25 21 19 22 22 23 20 24
REMARK SMILES IDX 23 25 24 26 21 27
REMARK H PARENT 2 10 21 28 21 29
ROOT
ATOM      1  C   UNL     1       2.571   0.322   1.141  1.00  0.00     0.130 C 
ATOM      2  F   UNL     1       2.433  -0.993   1.427  1.00  0.00    -0.207 F 
ENDROOT
BRANCH   1   3
ATOM      3  C   UNL     1       3.927   0.837   1.183  1.00  0.00     0.053 C 
BRANCH   3   4
ATOM      4  C   UNL     1       5.086   0.158   1.208  1.00  0.00     0.125 C 
BRANCH   4   5
ATOM      5  S   UNL     1       5.192  -1.567   1.135  1.00  0.00     0.233 S 
ATOM      6  O   UNL     1       4.829  -2.105   2.429  1.00  0.00    -0.208 OA
ATOM      7  O   UNL     1       4.581  -2.039  -0.088  1.00  0.00    -0.208 OA
BRANCH   5   8
ATOM      8  N   UNL     1       6.837  -1.896   1.001  1.00  0.00    -0.215 NA
ATOM      9  C   UNL     1       7.559  -1.483  -0.194  1.00  0.00     0.120 C 
ATOM     10  H   UNL     1       7.329  -1.911   1.893  1.00  0.00     0.140 HD
ENDBRANCH   5   8
ENDBRANCH   4   5
ENDBRANCH   3   4
ENDBRANCH   1   3
BRANCH   1  11
ATOM     11  C   UNL     1       1.452   1.037   0.895  1.00  0.00     0.029 C 
BRANCH  11  12
ATOM     12  C   UNL     1       1.456   2.498   0.518  1.00  0.00     0.150 C 
ATOM     13  Cl  UNL     1       1.414   3.512   1.986  1.00  0.00    -0.121 Cl
ENDBRANCH  11  12
BRANCH  11  14
ATOM     14  C   UNL     1       0.133   0.465   0.927  1.00  0.00     0.082 A 
ATOM     15  C   UNL     1      -0.308  -0.507   1.800  1.00  0.00     0.095 A 
ATOM     16  N   UNL     1      -0.812   0.906   0.021  1.00  0.00    -0.236 NA
ATOM     17  S   UNL     1      -1.944  -0.884   1.471  1.00  0.00    -0.122 S 
ATOM     18  C   UNL     1      -1.958   0.268   0.187  1.00  0.00     0.125 A 
BRANCH  18  19
ATOM     19  C   UNL     1      -3.155   0.518  -0.632  1.00  0.00     0.033 A 
ATOM     20  C   UNL     1      -3.139   1.558  -1.559  1.00  0.00     0.125 A 
ATOM     21  C   UNL     1      -4.340  -0.228  -0.556  1.00  0.00     0.063 A 
ATOM     22  N   UNL     1      -4.170   1.894  -2.371  1.00  0.00    -0.235 NA
ATOM     23  C   UNL     1      -5.426   0.088  -1.379  1.00  0.00     0.161 A 
ATOM     24  C   UNL     1      -5.293   1.164  -2.274  1.00  0.00     0.166 A 
BRANCH  23  25
ATOM     25  O   UNL     1      -6.632  -0.567  -1.395  1.00  0.00    -0.493 OA
ATOM     26  C   UNL     1      -6.787  -1.666  -0.505  1.00  0.00     0.278 C 
ENDBRANCH  23  25
BRANCH  24  27
ATOM     27  N   UNL     1      -6.364   1.513  -3.120  1.00  0.00    -0.381 N 
ATOM     28  H   UNL     1      -6.602   0.686  -3.663  1.00  0.00     0.158 HD
ATOM     29  H   UNL     1      -7.171   1.694  -2.527  1.00  0.00     0.158 HD
ENDBRANCH  24  27
ENDBRANCH  18  19
ENDBRANCH  11  14
ENDBRANCH   1  11
TORSDOF 10
