REMARK SMILES OCCN1CC[C@@H]2c3cc(O)c(O)cc3Oc3cc(O)cc(O)c3[C@@H]21
REMARK SMILES IDX 3 1 2 2 1 3 4 5 5 6 25 7 6 8 24 9 7 10 22 11 17 12 8 13
REMARK SMILES IDX 21 14 16 15 18 16 9 17 15 18 19 19 10 20 14 21 12 22 23 23
REMARK SMILES IDX 20 25 11 27 13 29
REMARK H PARENT 1 4 23 24 20 26 11 28 13 30
ROOT
ATOM      1  C   UNL     1       3.167   0.988  -1.158  1.00  0.00     0.113 C 
ENDROOT
BRANCH   1   2
ATOM      2  C   UNL     1       4.621   1.014  -0.662  1.00  0.00     0.171 C 
BRANCH   2   3
ATOM      3  O   UNL     1       5.477   1.544  -1.669  1.00  0.00    -0.395 OA
ATOM      4  H   UNL     1       5.245   2.480  -1.792  1.00  0.00     0.210 HD
ENDBRANCH   2   3
ENDBRANCH   1   2
BRANCH   1   5
ATOM      5  N   UNL     1       2.214   0.446  -0.173  1.00  0.00    -0.293 NA
ATOM      6  C   UNL     1       2.107   1.277   1.037  1.00  0.00     0.086 C 
ATOM      7  C   UNL     1       0.840   0.296  -0.753  1.00  0.00     0.102 C 
ATOM      8  C   UNL     1       0.653   1.179   1.457  1.00  0.00     0.026 C 
ATOM      9  C   UNL     1       0.390  -1.159  -0.795  1.00  0.00     0.055 A 
ATOM     10  C   UNL     1      -0.064   1.221   0.109  1.00  0.00     0.046 C 
ATOM     11  C   UNL     1       1.131  -2.265  -0.352  1.00  0.00     0.127 A 
ATOM     12  C   UNL     1      -0.864  -1.432  -1.363  1.00  0.00     0.139 A 
ATOM     13  C   UNL     1      -1.566   1.031   0.157  1.00  0.00     0.004 A 
ATOM     14  C   UNL     1       0.651  -3.570  -0.479  1.00  0.00     0.092 A 
ATOM     15  O   UNL     1      -1.648  -0.396  -1.819  1.00  0.00    -0.456 OA
ATOM     16  C   UNL     1      -1.352  -2.733  -1.522  1.00  0.00     0.093 A 
ATOM     17  C   UNL     1      -2.317   1.712   1.135  1.00  0.00     0.058 A 
ATOM     18  C   UNL     1      -2.278   0.285  -0.800  1.00  0.00     0.134 A 
ATOM     19  C   UNL     1      -0.585  -3.796  -1.069  1.00  0.00     0.123 A 
ATOM     20  C   UNL     1      -3.705   1.629   1.147  1.00  0.00     0.157 A 
ATOM     21  C   UNL     1      -3.679   0.221  -0.800  1.00  0.00     0.097 A 
ATOM     22  C   UNL     1      -4.385   0.891   0.186  1.00  0.00     0.161 A 
BRANCH  11  23
ATOM     23  O   UNL     1       2.364  -2.142   0.226  1.00  0.00    -0.507 OA
ATOM     24  H   UNL     1       2.570  -1.183   0.211  1.00  0.00     0.293 HD
ENDBRANCH  11  23
BRANCH  19  25
ATOM     25  O   UNL     1      -1.012  -5.085  -1.187  1.00  0.00    -0.508 OA
ATOM     26  H   UNL     1      -1.880  -5.091  -1.621  1.00  0.00     0.293 HD
ENDBRANCH  19  25
BRANCH  20  27
ATOM     27  O   UNL     1      -4.401   2.300   2.110  1.00  0.00    -0.504 OA
ATOM     28  H   UNL     1      -5.339   2.098   1.923  1.00  0.00     0.293 HD
ENDBRANCH  20  27
BRANCH  22  29
ATOM     29  O   UNL     1      -5.750   0.863   0.251  1.00  0.00    -0.504 OA
ATOM     30  H   UNL     1      -6.079   0.313  -0.480  1.00  0.00     0.293 HD
ENDBRANCH  22  29
ENDBRANCH   1   5
TORSDOF 7
