MODEL        4USER    Run = 4USERUSER    Estimated Free Energy of Binding    = -10.16 kcal/mol  [=(1)+(2)+(3)-(4)]USERUSER    (1) Final Intermolecular Energy     = -11.35 kcal/molUSER        vdW + Hbond + desolv Energy     = -11.19 kcal/molUSER        Electrostatic Energy            =  -0.16 kcal/molUSER        Moving Ligand-Fixed Receptor    = -11.35 kcal/molUSER        Moving Ligand-Moving Receptor   =  +0.00 kcal/molUSER    (2) Final Total Internal Energy     =  -0.68 kcal/molUSER    (3) Torsional Free Energy           =  +1.19 kcal/molUSER    (4) Unbound System's Energy         =  -0.68 kcal/molUSERUSERREMARK SMILES Cc1cc(I)ccc1/C=C1\SC(Nc2cccc(Br)c2)=N[C@H]1NREMARK SMILES IDX 10 1 11 2 12 3 13 4 21 5 22 6 9 8 8 9 2 10 3 11 4 12 7 13REMARK SMILES IDX 6 14 1 15 5 16 23 17 14 20 15 21 20 22 16 23 18 24 17 25REMARK SMILES IDX 19 26REMARK H PARENT 13 7 23 18 23 19USER                              x       y       z     vdW  Elec       q    TypeUSER                           _______ _______ _______ _____ _____    ______ ____ROOTATOM      1  C   UNL     1      33.993  45.192  17.256 -0.38 -0.02    +0.032 C  ATOM      2  S   UNL     1      35.031  44.774  15.937 -0.45 +0.03    -0.053 SA ATOM      3  C   UNL     1      36.213  45.969  16.469 -0.30 -0.11    +0.167 C  ATOM      4  N   UNL     1      37.284  46.078  15.630 -0.13 +0.16    -0.335 N  ATOM      5  N   UNL     1      35.943  46.614  17.553 -0.14 +0.17    -0.238 NA ATOM      6  C   UNL     1      34.696  46.161  18.172 -0.36 -0.14    +0.210 C  ATOM      7  H   UNL     1      37.250  45.463  14.827 +0.12 -0.07    +0.169 HD ENDROOTBRANCH   1   8ATOM      8  C   UNL     1      32.729  44.762  17.412 -0.35 -0.01    +0.023 C  BRANCH   8   9ATOM      9  C   UNL     1      32.312  43.381  17.690 -0.30 +0.01    -0.022 A  ATOM     10  C   UNL     1      31.403  42.706  16.852 -0.28 +0.02    -0.043 A  ATOM     11  C   UNL     1      31.042  41.385  17.163 -0.30 -0.01    +0.018 A  ATOM     12  C   UNL     1      31.572  40.752  18.289 -0.37 -0.00    +0.013 A  ATOM     13  C   UNL     1      32.835  42.733  18.819 -0.37 -0.00    +0.009 A  ATOM     14  C   UNL     1      32.467  41.421  19.118 -0.36 +0.00    +0.015 A  ATOM     15  C   UNL     1      30.824  43.361  15.628 -0.36 -0.02    +0.045 C  ATOM     16  I   UNL     1      31.023  38.795  18.729 -1.20 -0.01    -0.044 I  ENDBRANCH   8   9ENDBRANCH   1   8BRANCH   6  17ATOM     17  N   UNL     1      33.913  47.339  18.485 -0.90 +0.29    -0.305 NA ATOM     18  H   UNL     1      32.975  47.007  18.702 -0.43 -0.10    +0.121 HD ATOM     19  H   UNL     1      33.799  47.838  17.606 -0.48 -0.31    +0.121 HD ENDBRANCH   6  17BRANCH   4  20ATOM     20  C   UNL     1      38.416  46.904  15.712 -0.39 -0.02    +0.041 A  ATOM     21  C   UNL     1      38.707  47.922  14.796 -0.50 -0.01    +0.026 A  ATOM     22  C   UNL     1      39.317  46.700  16.770 -0.42 -0.01    +0.041 A  ATOM     23  C   UNL     1      39.856  48.712  14.928 -0.55 -0.00    +0.003 A  ATOM     24  C   UNL     1      40.463  47.490  16.901 -0.51 -0.00    +0.020 A  ATOM     25  C   UNL     1      40.737  48.496  15.984 -0.58 -0.00    +0.016 A  ATOM     26  Br  UNL     1      41.651  47.184  18.341 -0.89 +0.00    -0.051 Br ENDBRANCH   4  20TORSDOF 4TERENDMDL