MODEL        4USER    Run = 4USERUSER    Estimated Free Energy of Binding    =  -8.49 kcal/mol  [=(1)+(2)+(3)-(4)]USERUSER    (1) Final Intermolecular Energy     = -12.07 kcal/molUSER        vdW + Hbond + desolv Energy     = -12.05 kcal/molUSER        Electrostatic Energy            =  -0.02 kcal/molUSER        Moving Ligand-Fixed Receptor    = -12.07 kcal/molUSER        Moving Ligand-Moving Receptor   =  +0.00 kcal/molUSER    (2) Final Total Internal Energy     =  -3.59 kcal/molUSER    (3) Torsional Free Energy           =  +3.58 kcal/molUSER    (4) Unbound System's Energy         =  -3.59 kcal/molUSERUSERREMARK SMILES CCN(CC)CCNC(=O)[C@H](C)NC(=O)c1ccc(N)c(-c2ccccc2C(=O)O)c1CREMARK SMILES IDX 11 1 12 2 9 3 8 4 10 6 7 7 6 8 3 9 2 10 1 11 4 12 5 13 13 14REMARK SMILES IDX 14 15 15 17 16 18 17 19 31 20 18 21 21 22 19 23 32 24 22 25REMARK SMILES IDX 23 26 27 27 24 28 26 29 25 30 28 31 29 32 30 33 20 35REMARK H PARENT 8 5 13 16 30 34 20 36 20 37USER                              x       y       z     vdW  Elec       q    TypeUSER                           _______ _______ _______ _____ _____    ______ ____ROOTATOM      1  C   UNL     1      37.169  43.845  22.110 -0.33 +0.01    +0.168 C  ATOM      2  C   UNL     1      37.439  42.398  22.498 -0.48 +0.00    +0.041 C  ENDROOTBRANCH   1   3ATOM      3  C   UNL     1      37.556  44.771  23.280 -0.17 +0.03    +0.242 C  ATOM      4  N   UNL     1      37.124  44.337  24.518 -0.15 -0.04    -0.353 N  ATOM      5  H   UNL     1      36.365  43.667  24.543 +0.09 +0.02    +0.163 HD ATOM      6  O   UNL     1      38.254  45.772  23.121 -0.28 -0.04    -0.273 OA BRANCH   4   7ATOM      7  C   UNL     1      37.371  45.118  25.720 -0.30 -0.00    +0.131 C  BRANCH   7   8ATOM      8  C   UNL     1      36.669  44.524  26.959 -0.37 -0.02    +0.105 C  BRANCH   8   9ATOM      9  N   UNL     1      35.823  43.361  26.662 -0.23 +0.05    -0.302 NA BRANCH   9  10ATOM     10  C   UNL     1      34.705  43.206  27.599 -0.61 -0.02    +0.081 C  ATOM     11  C   UNL     1      34.340  44.419  28.447 -0.67 -0.00    +0.021 C  ENDBRANCH   9  10BRANCH   9  12ATOM     12  C   UNL     1      36.520  42.115  26.331 -0.45 -0.01    +0.081 C  ATOM     13  C   UNL     1      36.707  41.090  27.449 -0.60 -0.01    +0.021 C  ENDBRANCH   9  12ENDBRANCH   8   9ENDBRANCH   7   8ENDBRANCH   4   7ENDBRANCH   1   3BRANCH   1  14ATOM     14  N   UNL     1      37.960  44.225  20.947 -0.16 -0.00    -0.341 N  ATOM     15  C   UNL     1      37.377  44.234  19.696 -0.25 -0.02    +0.252 C  ATOM     16  H   UNL     1      38.654  44.946  21.116 +0.09 +0.00    +0.164 HD ATOM     17  O   UNL     1      36.291  43.726  19.447 -0.24 +0.03    -0.269 OA BRANCH  15  18ATOM     18  C   UNL     1      38.163  44.925  18.636 -0.35 -0.01    +0.043 A  ATOM     19  C   UNL     1      39.494  45.249  18.923 -0.41 -0.00    +0.016 A  ATOM     20  C   UNL     1      37.599  45.234  17.379 -0.34 +0.01    -0.028 A  ATOM     21  C   UNL     1      40.289  45.854  17.955 -0.45 -0.00    +0.027 A  ATOM     22  C   UNL     1      38.425  45.821  16.378 -0.37 -0.00    +0.009 A  ATOM     23  C   UNL     1      39.792  46.092  16.669 -0.38 -0.01    +0.040 A  ATOM     24  C   UNL     1      36.146  44.921  17.107 -0.35 -0.02    +0.046 C  BRANCH  22  25ATOM     25  C   UNL     1      37.876  46.163  15.045 -0.39 +0.00    -0.001 A  ATOM     26  C   UNL     1      37.436  45.116  14.210 -0.38 -0.00    +0.010 A  ATOM     27  C   UNL     1      37.803  47.479  14.543 -0.44 -0.03    +0.067 A  ATOM     28  C   UNL     1      36.956  45.364  12.923 -0.52 -0.00    +0.001 A  ATOM     29  C   UNL     1      37.339  47.721  13.240 -0.55 -0.01    +0.016 A  ATOM     30  C   UNL     1      36.913  46.666  12.434 -0.65 -0.00    +0.001 A  BRANCH  27  31ATOM     31  C   UNL     1      38.226  48.669  15.312 -0.29 -0.23    +0.336 C  ATOM     32  O   UNL     1      39.324  48.830  15.812 -0.39 +0.12    -0.246 OA BRANCH  31  33ATOM     33  O   UNL     1      37.293  49.636  15.325 -0.33 +0.52    -0.478 OA ATOM     34  H   UNL     1      37.629  50.298  14.686 -0.33 -0.35    +0.297 HD ENDBRANCH  31  33ENDBRANCH  27  31ENDBRANCH  22  25BRANCH  23  35ATOM     35  N   UNL     1      40.623  46.783  15.759 -0.16 +0.03    -0.398 N  ATOM     36  H   UNL     1      40.160  47.039  14.897 +0.11 -0.02    +0.156 HD ATOM     37  H   UNL     1      41.093  47.579  16.184 +0.06 -0.02    +0.156 HD ENDBRANCH  23  35ENDBRANCH  15  18ENDBRANCH   1  14TORSDOF 12TERENDMDL