MODEL        8USER    Run = 8USERUSER    Estimated Free Energy of Binding    =  -7.64 kcal/mol  [=(1)+(2)+(3)-(4)]USERUSER    (1) Final Intermolecular Energy     =  -9.13 kcal/molUSER        vdW + Hbond + desolv Energy     =  -8.95 kcal/molUSER        Electrostatic Energy            =  -0.18 kcal/molUSER        Moving Ligand-Fixed Receptor    =  -9.13 kcal/molUSER        Moving Ligand-Moving Receptor   =  +0.00 kcal/molUSER    (2) Final Total Internal Energy     =  -0.95 kcal/molUSER    (3) Torsional Free Energy           =  +1.49 kcal/molUSER    (4) Unbound System's Energy         =  -0.95 kcal/molUSERUSERREMARK SMILES Cc1nc(N2CCN(Cc3ccncc3)CC2)cc(C(F)(F)F)c1C#NREMARK SMILES IDX 1 1 2 2 3 3 4 4 18 5 19 6 24 7 25 8 26 9 5 10 6 11 17 12REMARK SMILES IDX 7 13 16 14 8 15 9 16 10 17 11 18 15 19 12 20 14 21 13 22REMARK SMILES IDX 20 23 21 24 22 25 23 26REMARK H PARENTUSER                              x       y       z     vdW  Elec       q    TypeUSER                           _______ _______ _______ _____ _____    ______ ____ROOTATOM      1  C   UNL     1      41.232  48.115  16.999 -0.51 -0.01    +0.068 C  ATOM      2  C   UNL     1      40.601  47.016  17.807 -0.47 -0.01    +0.058 A  ATOM      3  N   UNL     1      39.392  46.583  17.362 -0.29 +0.05    -0.235 NA ATOM      4  C   UNL     1      38.740  45.595  18.009 -0.32 -0.02    +0.129 A  ATOM      5  C   UNL     1      39.296  45.034  19.152 -0.36 -0.00    +0.061 A  ATOM      6  C   UNL     1      40.546  45.468  19.630 -0.37 +0.00    +0.079 A  ATOM      7  C   UNL     1      41.215  46.481  18.937 -0.42 +0.00    +0.086 A  ENDROOTBRANCH   7   8ATOM      8  C   UNL     1      42.492  46.969  19.371 -0.50 +0.02    +0.102 C  ATOM      9  N   UNL     1      43.526  47.362  19.717 -0.37 -0.06    -0.192 NA ENDBRANCH   7   8BRANCH   4  10ATOM     10  N   UNL     1      37.500  45.194  17.540 -0.14 +0.10    -0.354 N  ATOM     11  C   UNL     1      36.489  46.247  17.368 -0.26 -0.07    +0.133 C  ATOM     12  C   UNL     1      37.392  44.040  16.630 -0.27 -0.04    +0.133 C  ATOM     13  C   UNL     1      35.132  45.627  16.968 -0.33 -0.08    +0.106 C  ATOM     14  C   UNL     1      36.518  44.372  15.397 -0.37 -0.04    +0.106 C  ATOM     15  N   UNL     1      35.144  44.821  15.725 -0.14 +0.17    -0.296 NA BRANCH  15  16ATOM     16  C   UNL     1      34.535  45.556  14.606 -0.16 -0.09    +0.120 C  BRANCH  16  17ATOM     17  C   UNL     1      35.541  46.312  13.769 -0.45 +0.02    -0.031 A  ATOM     18  C   UNL     1      35.805  45.927  12.450 -0.47 -0.01    +0.025 A  ATOM     19  C   UNL     1      36.222  47.418  14.285 -0.38 -0.02    +0.025 A  ATOM     20  C   UNL     1      36.732  46.651  11.717 -0.56 -0.04    +0.111 A  ATOM     21  C   UNL     1      37.130  48.079  13.471 -0.49 -0.05    +0.111 A  ATOM     22  N   UNL     1      37.401  47.719  12.199 -0.95 +0.03    -0.265 NA ENDBRANCH  16  17ENDBRANCH  15  16ENDBRANCH   4  10BRANCH   6  23ATOM     23  C   UNL     1      41.133  44.850  20.869 -0.14 +0.04    +0.417 C  ATOM     24  F   UNL     1      40.228  44.106  21.559 -0.07 -0.01    -0.166 F  ATOM     25  F   UNL     1      42.179  44.016  20.613 -0.10 -0.03    -0.166 F  ATOM     26  F   UNL     1      41.609  45.781  21.737 -0.07 -0.02    -0.166 F  ENDBRANCH   6  23TORSDOF 5TERENDMDL