MODEL        6USER    Run = 6USERUSER    Estimated Free Energy of Binding    =  -8.24 kcal/mol  [=(1)+(2)+(3)-(4)]USERUSER    (1) Final Intermolecular Energy     =  -9.73 kcal/molUSER        vdW + Hbond + desolv Energy     =  -9.58 kcal/molUSER        Electrostatic Energy            =  -0.15 kcal/molUSER        Moving Ligand-Fixed Receptor    =  -9.73 kcal/molUSER        Moving Ligand-Moving Receptor   =  +0.00 kcal/molUSER    (2) Final Total Internal Energy     =  -2.40 kcal/molUSER    (3) Torsional Free Energy           =  +1.49 kcal/molUSER    (4) Unbound System's Energy         =  -2.40 kcal/molUSERUSERREMARK SMILES COc1cc(Cl)ccc1NC(=O)CC1=NN=C(C2CC2)[S@H]1CREMARK SMILES IDX 10 1 11 2 12 3 9 5 3 6 4 7 5 8 8 9 7 10 6 11 2 12 1 13 13 14REMARK SMILES IDX 14 15 15 16 21 17 16 18 17 19 22 20 18 22 19 23 20 24REMARK H PARENT 10 4 21 21USER                              x       y       z     vdW  Elec       q    TypeUSER                           _______ _______ _______ _____ _____    ______ ____ROOTATOM      1  N   UNL     1      40.868  47.671  16.699 -0.28 +0.05    -0.323 N  ATOM      2  C   UNL     1      41.137  48.940  16.222 -0.42 -0.02    +0.231 C  ATOM      3  O   UNL     1      41.779  49.811  16.805 -0.97 -0.05    -0.274 OA ATOM      4  H   UNL     1      40.408  47.013  16.067 +0.13 -0.02    +0.170 HD ENDROOTBRANCH   1   5ATOM      5  C   UNL     1      41.257  47.093  17.927 -0.45 -0.01    +0.083 A  ATOM      6  C   UNL     1      40.578  45.918  18.320 -0.38 -0.01    +0.143 A  ATOM      7  C   UNL     1      40.907  45.291  19.525 -0.38 +0.00    +0.069 A  ATOM      8  C   UNL     1      41.910  45.830  20.331 -0.33 +0.01    +0.044 A  ATOM      9  C   UNL     1      42.255  47.620  18.749 -0.48 +0.00    +0.031 A  ATOM     10  C   UNL     1      42.582  46.987  19.950 -0.45 +0.00    +0.023 A  ATOM     11  Cl  UNL     1      42.316  45.057  21.815 -0.36 -0.02    -0.084 Cl BRANCH   6  12ATOM     12  O   UNL     1      39.604  45.485  17.450 -0.10 +0.06    -0.495 OA ATOM     13  C   UNL     1      38.265  45.879  17.723 -0.26 -0.07    +0.278 C  ENDBRANCH   6  12ENDBRANCH   1   5BRANCH   2  14ATOM     14  C   UNL     1      40.509  49.228  14.871 -0.50 -0.05    +0.164 C  BRANCH  14  15ATOM     15  C   UNL     1      39.577  48.126  14.510 -0.49 -0.03    +0.091 C  ATOM     16  N   UNL     1      39.936  46.859  14.421 -0.31 +0.02    -0.149 NA ATOM     17  S   UNL     1      37.958  48.345  14.150 -0.61 +0.08    -0.173 S  ATOM     18  N   UNL     1      38.895  46.047  13.980 -0.26 +0.03    -0.149 NA ATOM     19  C   UNL     1      37.791  46.733  13.773 -0.47 -0.03    +0.084 C  ATOM     20  C   UNL     1      37.179  48.526  15.688 -0.19 -0.08    +0.073 C  ATOM     21  H   UNL     1      37.776  49.143  13.075 -0.13 -0.01    +0.094 HD BRANCH  19  22ATOM     22  C   UNL     1      36.496  46.085  13.200 -0.57 -0.02    +0.045 C  ATOM     23  C   UNL     1      35.900  46.624  11.926 -0.69 -0.01    +0.011 C  ATOM     24  C   UNL     1      36.573  45.283  11.926 -0.63 -0.00    +0.011 C  ENDBRANCH  19  22ENDBRANCH  14  15ENDBRANCH   2  14TORSDOF 5TERENDMDL