MODEL        4USER    Run = 4USERUSER    Estimated Free Energy of Binding    =  -7.07 kcal/mol  [=(1)+(2)+(3)-(4)]USERUSER    (1) Final Intermolecular Energy     =  -9.15 kcal/molUSER        vdW + Hbond + desolv Energy     =  -8.85 kcal/molUSER        Electrostatic Energy            =  -0.30 kcal/molUSER        Moving Ligand-Fixed Receptor    =  -9.15 kcal/molUSER        Moving Ligand-Moving Receptor   =  +0.00 kcal/molUSER    (2) Final Total Internal Energy     =  -4.07 kcal/molUSER    (3) Torsional Free Energy           =  +2.09 kcal/molUSER    (4) Unbound System's Energy         =  -4.07 kcal/molUSERUSERREMARK SMILES OCCN1CC[C@@H]2c3cc(O)c(O)cc3Oc3cc(O)cc(O)c3[C@@H]21REMARK SMILES IDX 3 1 2 2 1 3 4 5 5 6 25 7 6 8 24 9 7 10 22 11 17 12 8 13REMARK SMILES IDX 21 14 16 15 18 16 9 17 15 18 19 19 10 20 14 21 12 22 23 23REMARK SMILES IDX 20 25 11 27 13 29REMARK H PARENT 1 4 23 24 20 26 11 28 13 30USER                              x       y       z     vdW  Elec       q    TypeUSER                           _______ _______ _______ _____ _____    ______ ____ROOTATOM      1  C   UNL     1      37.228  45.495  12.866 -0.45 -0.04    +0.113 C  ENDROOTBRANCH   1   2ATOM      2  C   UNL     1      36.920  46.342  11.622 -0.55 -0.06    +0.171 C  BRANCH   2   3ATOM      3  O   UNL     1      36.942  47.728  11.949 -0.99 +0.10    -0.395 OA ATOM      4  H   UNL     1      36.497  47.836  12.807 +0.16 -0.09    +0.210 HD ENDBRANCH   2   3ENDBRANCH   1   2BRANCH   1   5ATOM      5  N   UNL     1      37.079  46.230  14.135 -0.19 +0.13    -0.293 NA ATOM      6  C   UNL     1      35.763  46.026  14.763 -0.39 -0.06    +0.086 C  ATOM      7  C   UNL     1      38.131  45.841  15.129 -0.37 -0.03    +0.102 C  ATOM      8  C   UNL     1      36.034  46.024  16.256 -0.40 -0.02    +0.026 C  ATOM      9  C   UNL     1      39.042  47.008  15.487 -0.42 -0.02    +0.055 A  ATOM     10  C   UNL     1      37.347  45.248  16.333 -0.38 -0.02    +0.046 C  ATOM     11  C   UNL     1      38.949  48.313  14.981 -0.43 -0.06    +0.127 A  ATOM     12  C   UNL     1      40.099  46.755  16.375 -0.38 -0.02    +0.139 A  ATOM     13  C   UNL     1      37.973  45.151  17.709 -0.37 -0.00    +0.004 A  ATOM     14  C   UNL     1      39.865  49.306  15.333 -0.34 -0.04    +0.092 A  ATOM     15  O   UNL     1      40.252  45.497  16.914 -0.06 +0.04    -0.456 OA ATOM     16  C   UNL     1      41.042  47.728  16.722 -0.41 -0.01    +0.093 A  ATOM     17  C   UNL     1      37.159  44.852  18.819 -0.29 -0.01    +0.058 A  ATOM     18  C   UNL     1      39.360  45.239  17.931 -0.32 -0.02    +0.134 A  ATOM     19  C   UNL     1      40.910  49.005  16.197 -0.47 -0.02    +0.123 A  ATOM     20  C   UNL     1      37.718  44.667  20.079 -0.21 -0.01    +0.157 A  ATOM     21  C   UNL     1      39.924  45.030  19.198 -0.36 -0.00    +0.097 A  ATOM     22  C   UNL     1      39.091  44.753  20.270 -0.27 -0.00    +0.161 A  BRANCH  11  23ATOM     23  O   UNL     1      37.965  48.698  14.113 -0.25 +0.27    -0.507 OA ATOM     24  H   UNL     1      37.352  47.935  14.050 +0.23 -0.15    +0.293 HD ENDBRANCH  11  23BRANCH  19  25ATOM     25  O   UNL     1      41.791  49.998  16.505 -0.78 -0.06    -0.508 OA ATOM     26  H   UNL     1      41.318  50.845  16.526 -0.31 -0.10    +0.293 HD ENDBRANCH  19  25BRANCH  20  27ATOM     27  O   UNL     1      36.899  44.381  21.132 -0.14 -0.01    -0.504 OA ATOM     28  H   UNL     1      37.423  44.615  21.923 +0.17 +0.02    +0.293 HD ENDBRANCH  20  27BRANCH  22  29ATOM     29  O   UNL     1      39.573  44.548  21.533 -0.04 -0.02    -0.504 OA ATOM     30  H   UNL     1      38.882  44.107  22.055 +0.17 +0.01    +0.293 HD ENDBRANCH  22  29ENDBRANCH   1   5TORSDOF 7TERENDMDL