REMARK SMILES COc1cc(Cl)ccc1NC(=O)CC1=NN=C(C2CC2)[S@H]1C
REMARK SMILES IDX 10 1 11 2 12 3 9 5 3 6 4 7 5 8 8 9 7 10 6 11 2 12 1 13 13 14
REMARK SMILES IDX 14 15 15 16 21 17 16 18 17 19 22 20 18 22 19 23 20 24
REMARK H PARENT 10 4 21 21
ROOT
ATOM      1  N   UNL     1      -1.695  -0.967  -0.668  1.00  0.00    -0.323 N 
ATOM      2  C   UNL     1      -0.859  -1.625  -1.549  1.00  0.00     0.231 C 
ATOM      3  O   UNL     1      -1.004  -1.697  -2.768  1.00  0.00    -0.274 OA
ATOM      4  H   UNL     1      -1.401  -0.902   0.308  1.00  0.00     0.170 HD
ENDROOT
BRANCH   1   5
ATOM      5  C   UNL     1      -2.874  -0.243  -0.949  1.00  0.00     0.083 A 
ATOM      6  C   UNL     1      -3.489   0.418   0.138  1.00  0.00     0.143 A 
ATOM      7  C   UNL     1      -4.661   1.152  -0.064  1.00  0.00     0.069 A 
ATOM      8  C   UNL     1      -5.214   1.230  -1.342  1.00  0.00     0.044 A 
ATOM      9  C   UNL     1      -3.445  -0.157  -2.221  1.00  0.00     0.031 A 
ATOM     10  C   UNL     1      -4.614   0.581  -2.417  1.00  0.00     0.023 A 
ATOM     11  Cl  UNL     1      -6.658   2.135  -1.591  1.00  0.00    -0.084 Cl
BRANCH   6  12
ATOM     12  O   UNL     1      -2.859   0.263   1.351  1.00  0.00    -0.495 OA
ATOM     13  C   UNL     1      -3.330   1.054   2.435  1.00  0.00     0.278 C 
ENDBRANCH   6  12
ENDBRANCH   1   5
BRANCH   2  14
ATOM     14  C   UNL     1       0.296  -2.341  -0.873  1.00  0.00     0.164 C 
BRANCH  14  15
ATOM     15  C   UNL     1       1.167  -1.347  -0.192  1.00  0.00     0.091 C 
ATOM     16  N   UNL     1       0.954  -0.897   1.031  1.00  0.00    -0.149 NA
ATOM     17  S   UNL     1       2.520  -0.650  -0.888  1.00  0.00    -0.173 S 
ATOM     18  N   UNL     1       1.864   0.091   1.394  1.00  0.00    -0.149 NA
ATOM     19  C   UNL     1       2.736   0.332   0.438  1.00  0.00     0.084 C 
ATOM     20  C   UNL     1       3.760  -1.854  -0.757  1.00  0.00     0.073 C 
ATOM     21  H   UNL     1       2.218   0.054  -2.001  1.00  0.00     0.094 HD
BRANCH  19  22
ATOM     22  C   UNL     1       3.816   1.447   0.550  1.00  0.00     0.045 C 
ATOM     23  C   UNL     1       4.376   1.802   1.903  1.00  0.00     0.011 C 
ATOM     24  C   UNL     1       5.231   1.071   0.910  1.00  0.00     0.011 C 
ENDBRANCH  19  22
ENDBRANCH  14  15
ENDBRANCH   2  14
TORSDOF 5
