REMARK SMILES COc1coc(CCCN2CCOCC2)cc2c(OO)c(OC)c1-2
REMARK SMILES IDX 3 1 4 2 5 3 6 4 16 5 17 6 18 7 21 8 24 9 2 10 1 11 22 12
REMARK SMILES IDX 23 13 7 14 8 15 9 16 10 17 11 18 15 19 12 20 14 21 13 22
REMARK SMILES IDX 19 23 20 24
REMARK H PARENT 20 25
ROOT
ATOM      1  C   UNL     1      -3.322   1.095  -0.471  1.00  0.00     0.165 A 
ATOM      2  C   UNL     1      -2.092   1.221  -1.002  1.00  0.00     0.242 A 
ATOM      3  O   UNL     1      -0.983   0.423  -1.037  1.00  0.00    -0.465 OA
ATOM      4  C   UNL     1      -0.764  -0.812  -0.476  1.00  0.00     0.104 A 
ATOM      5  C   UNL     1      -1.611  -1.587   0.220  1.00  0.00     0.055 A 
ATOM      6  C   UNL     1      -3.049  -1.285   0.596  1.00  0.00     0.043 A 
ATOM      7  C   UNL     1      -4.083  -1.840   1.250  1.00  0.00     0.215 A 
ATOM      8  C   UNL     1      -4.867  -0.645   0.970  1.00  0.00     0.177 A 
ATOM      9  C   UNL     1      -3.803  -0.133   0.313  1.00  0.00     0.077 A 
ENDROOT
BRANCH   1  10
ATOM     10  O   UNL     1      -4.312   2.055  -0.565  1.00  0.00    -0.493 OA
ATOM     11  C   UNL     1      -4.033   3.268  -1.251  1.00  0.00     0.278 C 
ENDBRANCH   1  10
BRANCH   8  12
ATOM     12  O   UNL     1      -6.077  -0.408   1.312  1.00  0.00    -0.492 OA
ATOM     13  C   UNL     1      -6.576   0.857   0.922  1.00  0.00     0.278 C 
ENDBRANCH   8  12
BRANCH   4  14
ATOM     14  C   UNL     1       0.641  -1.306  -0.753  1.00  0.00     0.077 C 
BRANCH  14  15
ATOM     15  C   UNL     1       1.684  -0.551   0.078  1.00  0.00     0.024 C 
BRANCH  15  16
ATOM     16  C   UNL     1       3.101  -1.049  -0.241  1.00  0.00     0.085 C 
BRANCH  16  17
ATOM     17  N   UNL     1       4.130  -0.437   0.612  1.00  0.00    -0.299 NA
ATOM     18  C   UNL     1       4.205   1.031   0.438  1.00  0.00     0.113 C 
ATOM     19  C   UNL     1       5.458  -1.054   0.398  1.00  0.00     0.113 C 
ATOM     20  C   UNL     1       5.586   1.588   0.819  1.00  0.00     0.175 C 
ATOM     21  C   UNL     1       6.374  -0.230  -0.521  1.00  0.00     0.175 C 
ATOM     22  O   UNL     1       6.632   1.091  -0.027  1.00  0.00    -0.379 OA
ENDBRANCH  16  17
ENDBRANCH  15  16
ENDBRANCH  14  15
ENDBRANCH   4  14
BRANCH   7  23
ATOM     23  O   UNL     1      -4.413  -2.898   1.890  1.00  0.00    -0.336 OA
BRANCH  23  24
ATOM     24  O   UNL     1      -3.331  -3.855   1.716  1.00  0.00    -0.203 OA
ATOM     25  H   UNL     1      -3.821  -4.448   1.120  1.00  0.00     0.270 HD
ENDBRANCH  23  24
ENDBRANCH   7  23
TORSDOF 8
