REMARK SMILES Cc1cc(I)ccc1/C=C1\SC(Nc2cccc(Br)c2)=N[C@H]1N
REMARK SMILES IDX 10 1 11 2 12 3 13 4 21 5 22 6 9 8 8 9 2 10 3 11 4 12 7 13
REMARK SMILES IDX 6 14 1 15 5 16 23 17 14 20 15 21 20 22 16 23 18 24 17 25
REMARK SMILES IDX 19 26
REMARK H PARENT 13 7 23 18 23 19
ROOT
ATOM      1  C   UNL     1      -1.055   0.213   1.053  1.00  0.00     0.032 C 
ATOM      2  S   UNL     1      -0.217  -0.881   0.007  1.00  0.00    -0.053 SA
ATOM      3  C   UNL     1       1.326  -0.165   0.471  1.00  0.00     0.167 C 
ATOM      4  N   UNL     1       2.388  -0.692  -0.205  1.00  0.00    -0.335 N 
ATOM      5  N   UNL     1       1.292   0.769   1.359  1.00  0.00    -0.238 NA
ATOM      6  C   UNL     1      -0.062   1.009   1.861  1.00  0.00     0.210 C 
ATOM      7  H   UNL     1       2.144  -1.413  -0.872  1.00  0.00     0.169 HD
ENDROOT
BRANCH   1   8
ATOM      8  C   UNL     1      -2.389   0.371   1.099  1.00  0.00     0.023 C 
BRANCH   8   9
ATOM      9  C   UNL     1      -3.376  -0.365   0.298  1.00  0.00    -0.022 A 
ATOM     10  C   UNL     1      -3.968   0.207  -0.845  1.00  0.00    -0.043 A 
ATOM     11  C   UNL     1      -4.904  -0.544  -1.576  1.00  0.00     0.018 A 
ATOM     12  C   UNL     1      -5.246  -1.836  -1.172  1.00  0.00     0.013 A 
ATOM     13  C   UNL     1      -3.732  -1.663   0.693  1.00  0.00     0.009 A 
ATOM     14  C   UNL     1      -4.664  -2.398  -0.040  1.00  0.00     0.015 A 
ATOM     15  C   UNL     1      -3.610   1.593  -1.308  1.00  0.00     0.045 C 
ATOM     16  I   UNL     1      -6.633  -2.928  -2.270  1.00  0.00    -0.044 I 
ENDBRANCH   8   9
ENDBRANCH   1   8
BRANCH   6  17
ATOM     17  N   UNL     1      -0.293   2.438   1.824  1.00  0.00    -0.305 NA
ATOM     18  H   UNL     1      -0.096   2.733   0.869  1.00  0.00     0.121 HD
ATOM     19  H   UNL     1       0.459   2.855   2.369  1.00  0.00     0.121 HD
ENDBRANCH   6  17
BRANCH   4  20
ATOM     20  C   UNL     1       3.756  -0.390  -0.115  1.00  0.00     0.041 A 
ATOM     21  C   UNL     1       4.290   0.559   0.765  1.00  0.00     0.026 A 
ATOM     22  C   UNL     1       4.649  -1.073  -0.958  1.00  0.00     0.041 A 
ATOM     23  C   UNL     1       5.665   0.820   0.807  1.00  0.00     0.003 A 
ATOM     24  C   UNL     1       6.021  -0.812  -0.915  1.00  0.00     0.020 A 
ATOM     25  C   UNL     1       6.534   0.133  -0.035  1.00  0.00     0.016 A 
ATOM     26  Br  UNL     1       7.190  -1.754  -2.066  1.00  0.00    -0.051 Br
ENDBRANCH   4  20
TORSDOF 4
