REMARK SMILES CN(C)CCn1cnc2c(-c3ccc(Oc4ccccc4)cc3)nc(-c3cncnc3N)nc21
REMARK SMILES IDX 6 1 7 2 8 3 9 4 10 5 24 6 25 7 33 8 34 9 5 10 4 11 2 12 1 13
REMARK SMILES IDX 3 14 26 15 27 16 31 17 28 18 30 19 29 20 32 21 11 24 12 25
REMARK SMILES IDX 23 26 13 27 22 28 14 29 15 30 16 31 17 32 21 33 18 34 20 35
REMARK SMILES IDX 19 36
REMARK H PARENT 32 22 32 23
ROOT
ATOM      1  N   UNL     1      -2.621  -1.257  -1.004  1.00  0.00    -0.314 N 
ATOM      2  C   UNL     1      -1.625  -2.188  -0.907  1.00  0.00     0.202 A 
ATOM      3  N   UNL     1      -0.449  -1.624  -0.728  1.00  0.00    -0.233 NA
ATOM      4  C   UNL     1      -0.697  -0.266  -0.686  1.00  0.00     0.134 A 
ATOM      5  C   UNL     1       0.113   0.864  -0.507  1.00  0.00     0.102 A 
ATOM      6  N   UNL     1      -0.488   2.097  -0.506  1.00  0.00    -0.225 NA
ATOM      7  C   UNL     1      -1.828   2.198  -0.692  1.00  0.00     0.167 A 
ATOM      8  N   UNL     1      -2.676   1.164  -0.876  1.00  0.00    -0.208 NA
ATOM      9  C   UNL     1      -2.051  -0.022  -0.858  1.00  0.00     0.164 A 
ENDROOT
BRANCH   1  10
ATOM     10  C   UNL     1      -4.023  -1.526  -1.244  1.00  0.00     0.141 C 
BRANCH  10  11
ATOM     11  C   UNL     1      -4.835  -1.666   0.052  1.00  0.00     0.105 C 
BRANCH  11  12
ATOM     12  N   UNL     1      -4.485  -2.856   0.854  1.00  0.00    -0.308 NA
ATOM     13  C   UNL     1      -5.004  -4.091   0.259  1.00  0.00     0.105 C 
ATOM     14  C   UNL     1      -5.004  -2.715   2.218  1.00  0.00     0.105 C 
ENDBRANCH  11  12
ENDBRANCH  10  11
ENDBRANCH   1  10
BRANCH   7  15
ATOM     15  C   UNL     1      -2.417   3.545  -0.714  1.00  0.00     0.080 A 
ATOM     16  C   UNL     1      -3.737   3.741  -1.105  1.00  0.00     0.128 A 
ATOM     17  C   UNL     1      -1.757   4.729  -0.378  1.00  0.00     0.137 A 
ATOM     18  N   UNL     1      -4.368   4.934  -1.169  1.00  0.00    -0.244 NA
ATOM     19  N   UNL     1      -2.349   5.939  -0.419  1.00  0.00    -0.219 NA
ATOM     20  C   UNL     1      -3.624   5.985  -0.818  1.00  0.00     0.224 A 
BRANCH  17  21
ATOM     21  N   UNL     1      -0.432   4.747   0.093  1.00  0.00    -0.383 N 
ATOM     22  H   UNL     1       0.139   4.193  -0.547  1.00  0.00     0.158 HD
ATOM     23  H   UNL     1      -0.398   4.246   0.977  1.00  0.00     0.158 HD
ENDBRANCH  17  21
ENDBRANCH   7  15
BRANCH   5  24
ATOM     24  C   UNL     1       1.570   0.807  -0.313  1.00  0.00     0.003 A 
ATOM     25  C   UNL     1       2.243   1.832   0.382  1.00  0.00     0.014 A 
ATOM     26  C   UNL     1       2.359  -0.243  -0.820  1.00  0.00     0.014 A 
ATOM     27  C   UNL     1       3.628   1.805   0.573  1.00  0.00     0.048 A 
ATOM     28  C   UNL     1       3.747  -0.277  -0.632  1.00  0.00     0.048 A 
ATOM     29  C   UNL     1       4.376   0.739   0.083  1.00  0.00     0.127 A 
BRANCH  29  30
ATOM     30  O   UNL     1       5.737   0.788   0.276  1.00  0.00    -0.457 OA
BRANCH  30  31
ATOM     31  C   UNL     1       6.361  -0.368   0.688  1.00  0.00     0.127 A 
ATOM     32  C   UNL     1       7.554  -0.705   0.048  1.00  0.00     0.047 A 
ATOM     33  C   UNL     1       5.887  -1.147   1.746  1.00  0.00     0.047 A 
ATOM     34  C   UNL     1       8.256  -1.846   0.439  1.00  0.00     0.004 A 
ATOM     35  C   UNL     1       6.590  -2.288   2.136  1.00  0.00     0.004 A 
ATOM     36  C   UNL     1       7.771  -2.639   1.480  1.00  0.00     0.000 A 
ENDBRANCH  30  31
ENDBRANCH  29  30
ENDBRANCH   5  24
TORSDOF 8
