MODEL        10USER    Run = 10USERUSER    Estimated Free Energy of Binding    = -11.54 kcal/mol  [=(1)+(2)+(3)-(4)]USERUSER    (1) Final Intermolecular Energy     = -14.52 kcal/molUSER        vdW + Hbond + desolv Energy     = -13.95 kcal/molUSER        Electrostatic Energy            =  -0.57 kcal/molUSER        Moving Ligand-Fixed Receptor    = -14.52 kcal/molUSER        Moving Ligand-Moving Receptor   =  +0.00 kcal/molUSER    (2) Final Total Internal Energy     =  -2.66 kcal/molUSER    (3) Torsional Free Energy           =  +2.98 kcal/molUSER    (4) Unbound System's Energy         =  -2.66 kcal/molUSERUSERREMARK SMILES CC[C@H](O)[C@@H](NC(=O)c1ccccc1F)c1ccc(C(=O)Nc2nc(-c3ccccc3)cs2)cc1NREMARK SMILES IDX 16 1 17 2 18 3 19 4 34 5 35 6 5 7 3 8 2 9 1 10 4 11 6 13REMARK SMILES IDX 7 14 8 16 9 17 10 18 14 19 11 20 13 21 12 22 15 23 36 24REMARK SMILES IDX 20 27 22 28 21 29 23 31 24 32 33 33 25 34 32 35 26 36 27 37REMARK SMILES IDX 31 38 28 39 30 40 29 41REMARK H PARENT 4 12 6 15 36 25 36 26 22 30USER                              x       y       z     vdW  Elec       q    TypeUSER                           _______ _______ _______ _____ _____    ______ ____ROOTATOM      1  C   UNL     1      33.431  44.151  17.024 -0.31 +0.00    -0.000 A  ATOM      2  C   UNL     1      33.626  42.771  17.245 -0.36 -0.00    +0.009 A  ATOM      3  C   UNL     1      34.217  42.306  18.420 -0.40 -0.00    +0.014 A  ATOM      4  C   UNL     1      34.643  43.218  19.384 -0.38 -0.00    +0.042 A  ATOM      5  C   UNL     1      34.408  44.586  19.205 -0.36 -0.01    +0.039 A  ATOM      6  C   UNL     1      33.742  45.056  18.064 -0.36 -0.02    +0.038 A  ENDROOTBRANCH   1   7ATOM      7  C   UNL     1      32.849  44.638  15.694 -0.30 -0.09    +0.143 C  BRANCH   7   8ATOM      8  C   UNL     1      31.371  45.137  15.794 -0.33 -0.07    +0.141 C  BRANCH   8   9ATOM      9  C   UNL     1      30.528  44.834  14.540 -0.41 -0.03    +0.031 C  ATOM     10  C   UNL     1      30.591  45.877  13.431 -0.64 -0.01    +0.007 C  ENDBRANCH   8   9BRANCH   8  11ATOM     11  O   UNL     1      31.305  46.543  16.083 -0.44 +0.20    -0.391 OA ATOM     12  H   UNL     1      31.978  46.979  15.533 -0.43 -0.37    +0.211 HD ENDBRANCH   8  11ENDBRANCH   7   8BRANCH   7  13ATOM     13  N   UNL     1      33.723  45.673  15.143 -0.10 +0.34    -0.342 N  ATOM     14  C   UNL     1      35.079  45.479  14.998 -0.23 -0.18    +0.254 C  ATOM     15  H   UNL     1      33.379  46.625  15.203 -0.29 -0.35    +0.164 HD ATOM     16  O   UNL     1      35.619  44.395  15.216 -0.23 +0.12    -0.269 OA BRANCH  14  17ATOM     17  C   UNL     1      35.895  46.644  14.559 -0.36 -0.06    +0.075 A  ATOM     18  C   UNL     1      36.600  47.371  15.532 -0.36 -0.02    +0.017 A  ATOM     19  C   UNL     1      36.006  47.035  13.222 -0.47 -0.08    +0.135 A  ATOM     20  C   UNL     1      37.391  48.465  15.168 -0.51 -0.00    +0.001 A  ATOM     21  C   UNL     1      36.796  48.124  12.854 -0.51 -0.01    +0.040 A  ATOM     22  C   UNL     1      37.490  48.840  13.828 -0.42 -0.00    +0.003 A  ATOM     23  F   UNL     1      35.357  46.374  12.249 -0.19 +0.13    -0.206 F  ENDBRANCH  14  17ENDBRANCH   7  13ENDBRANCH   1   7BRANCH   6  24ATOM     24  N   UNL     1      33.591  46.446  17.909 -0.17 +0.39    -0.398 N  ATOM     25  H   UNL     1      33.040  46.885  18.641 -0.30 -0.13    +0.156 HD ATOM     26  H   UNL     1      33.199  46.704  16.994 -0.42 -0.31    +0.156 HD ENDBRANCH   6  24BRANCH   4  27ATOM     27  C   UNL     1      35.343  42.710  20.593 -0.26 +0.01    +0.257 C  ATOM     28  N   UNL     1      36.202  43.622  21.159 -0.23 -0.01    -0.298 N  ATOM     29  O   UNL     1      35.136  41.550  20.933 -0.18 -0.01    -0.269 OA ATOM     30  H   UNL     1      36.393  44.495  20.686 +0.10 -0.00    +0.172 HD BRANCH  28  31ATOM     31  C   UNL     1      36.987  43.438  22.268 -0.27 +0.02    +0.190 A  ATOM     32  N   UNL     1      36.514  42.827  23.333 -0.23 -0.03    -0.220 NA ATOM     33  S   UNL     1      38.610  43.936  22.352 -0.39 -0.01    -0.105 S  ATOM     34  C   UNL     1      37.498  42.751  24.309 -0.31 +0.00    +0.084 A  ATOM     35  C   UNL     1      38.708  43.317  23.949 -0.21 +0.01    +0.097 A  BRANCH  34  36ATOM     36  C   UNL     1      37.223  42.143  25.607 -0.38 -0.00    +0.001 A  ATOM     37  C   UNL     1      38.244  41.843  26.521 -0.34 -0.00    +0.010 A  ATOM     38  C   UNL     1      35.897  41.839  25.958 -0.44 -0.00    +0.010 A  ATOM     39  C   UNL     1      37.942  41.269  27.762 -0.45 -0.00    +0.001 A  ATOM     40  C   UNL     1      35.597  41.265  27.198 -0.63 -0.00    +0.001 A  ATOM     41  C   UNL     1      36.620  40.982  28.099 -0.45 -0.00    +0.000 A  ENDBRANCH  34  36ENDBRANCH  28  31ENDBRANCH   4  27TORSDOF 10TERENDMDL