MODEL        3USER    Run = 3USERUSER    Estimated Free Energy of Binding    =  -7.98 kcal/mol  [=(1)+(2)+(3)-(4)]USERUSER    (1) Final Intermolecular Energy     = -12.15 kcal/molUSER        vdW + Hbond + desolv Energy     = -12.01 kcal/molUSER        Electrostatic Energy            =  -0.24 kcal/molUSER        Moving Ligand-Fixed Receptor    = -12.25 kcal/molUSER        Moving Ligand-Moving Receptor   =  +0.10 kcal/molUSER    (2) Final Total Internal Energy     =  -2.07 kcal/molUSER    (3) Torsional Free Energy           =  +4.18 kcal/molUSER    (4) Unbound System's Energy         =  -2.07 kcal/molUSERUSERREMARK SMILES COc1ccc(O)c(C(=O)c2ccc(C(=O)N[C@H]3CCCNC[C@H]3NC(=O)c3ccncc3)cc2)c1FREMARK SMILES IDX 15 1 16 2 17 3 14 5 11 6 12 7 35 8 13 9 34 10 9 11 10 12REMARK SMILES IDX 8 13 3 14 4 15 36 16 5 17 6 18 37 19 2 20 1 21 7 22 18 24REMARK SMILES IDX 19 25 24 27 23 28 22 29 21 31 20 32 25 34 26 35 27 37 28 38REMARK SMILES IDX 29 39 33 40 30 41 32 42 31 43REMARK H PARENT 17 4 7 23 22 30 25 36REMARK Flexibility Score:   88.900USER                              x       y       z     vdW  Elec       q    TypeUSER                           _______ _______ _______ _____ _____    ______ ____ROOTATOM      1  C   UNL     1      39.586  47.463  16.247 -0.37 -0.07    +0.251 C  ATOM      2  O   UNL     1      39.970  48.131  15.292 -0.36 +0.07    -0.269 OA ATOM      3  N   UNL     1      38.342  46.875  16.292 -0.17 +0.14    -0.347 N  ATOM      4  H   UNL     1      38.049  46.324  17.098 +0.10 -0.06    +0.164 HD ENDROOTBRANCH   1   5ATOM      5  C   UNL     1      40.474  47.279  17.434 -0.48 -0.01    +0.039 A  ATOM      6  C   UNL     1      42.231  47.026  19.616 -0.44 +0.00    +0.023 A  ATOM      7  C   UNL     1      41.117  46.186  19.505 -0.42 +0.00    +0.013 A  ATOM      8  C   UNL     1      42.488  47.971  18.618 -0.40 +0.00    +0.013 A  ATOM      9  C   UNL     1      40.239  46.313  18.421 -0.46 -0.00    +0.014 A  ATOM     10  C   UNL     1      41.610  48.098  17.537 -0.43 -0.00    +0.014 A  BRANCH   6  11ATOM     11  C   UNL     1      43.152  46.825  20.759 -0.30 +0.07    +0.199 C  ATOM     12  O   UNL     1      44.367  46.904  20.565 -0.43 -0.30    -0.288 OA BRANCH  11  13ATOM     13  C   UNL     1      42.689  46.592  22.146 -0.23 +0.02    +0.104 A  ATOM     14  C   UNL     1      41.730  45.159  23.873 -0.06 +0.01    +0.155 A  ATOM     15  C   UNL     1      41.814  46.209  24.789 -0.08 +0.00    +0.053 A  ATOM     16  C   UNL     1      42.179  45.359  22.558 -0.12 +0.03    +0.179 A  ATOM     17  C   UNL     1      42.353  47.438  24.397 -0.18 +0.01    +0.051 A  ATOM     18  C   UNL     1      42.800  47.620  23.089 -0.25 +0.02    +0.130 A  ATOM     19  F   UNL     1      42.133  44.327  21.699 -0.07 -0.03    -0.202 F  BRANCH  14  20ATOM     20  O   UNL     1      41.238  43.909  24.144 -0.01 -0.01    -0.494 OA ATOM     21  C   UNL     1      42.184  42.874  24.387 -0.12 -0.01    +0.278 C  ENDBRANCH  14  20BRANCH  18  22ATOM     22  O   UNL     1      43.344  48.843  22.799 -0.66 -0.14    -0.507 OA ATOM     23  H   UNL     1      43.871  48.749  21.971 -0.45 -0.01    +0.293 HD ENDBRANCH  18  22ENDBRANCH  11  13ENDBRANCH   6  11ENDBRANCH   1   5BRANCH   3  24ATOM     24  C   UNL     1      37.410  46.899  15.160 -0.40 -0.06    +0.106 C  BRANCH  24  25ATOM     25  C   UNL     1      37.952  45.993  14.043 -0.47 -0.01    +0.028 CG0ATOM     26  G   UNL     1      37.575  46.315  12.597 +0.00 +0.00    +0.000 G0 ENDBRANCH  24  25BRANCH  24  27ATOM     27  C   UNL     1      35.974  46.577  15.648 -0.33 -0.11    +0.118 C  BRANCH  27  28ATOM     28  C   UNL     1      35.045  46.224  14.468 -0.37 -0.09    +0.108 C  BRANCH  28  29ATOM     29  N   UNL     1      35.279  47.000  13.241 -0.28 +0.23    -0.315 NA ATOM     30  H   UNL     1      35.787  47.847  13.506 +0.08 -0.09    +0.122 HD BRANCH  29  31ATOM     31  C   UNL     1      36.090  46.280  12.255 -0.64 -0.04    +0.081 C  BRANCH  31  32ATOM     32  C   UNL     1      37.575  46.315  12.597 -0.39 -0.00    +0.017 CG0ATOM     33  G   UNL     1      37.951  45.991  14.043 +0.00 +0.00    +0.000 G0 ENDBRANCH  31  32ENDBRANCH  29  31ENDBRANCH  28  29ENDBRANCH  27  28BRANCH  27  34ATOM     34  N   UNL     1      35.923  45.523  16.667 -0.11 +0.20    -0.346 N  ATOM     35  C   UNL     1      35.321  45.680  17.891 -0.27 -0.13    +0.251 C  ATOM     36  H   UNL     1      36.397  44.664  16.412 +0.12 -0.07    +0.164 HD ATOM     37  O   UNL     1      34.738  46.709  18.222 -0.57 +0.21    -0.269 OA BRANCH  35  38ATOM     38  C   UNL     1      35.397  44.531  18.831 -0.34 -0.01    +0.042 A  ATOM     39  C   UNL     1      36.487  44.327  19.679 -0.36 -0.00    +0.034 A  ATOM     40  C   UNL     1      34.315  43.649  18.879 -0.35 -0.01    +0.034 A  ATOM     41  C   UNL     1      36.452  43.232  20.524 -0.35 -0.00    +0.112 A  ATOM     42  C   UNL     1      34.380  42.586  19.758 -0.31 +0.00    +0.112 A  ATOM     43  N   UNL     1      35.427  42.355  20.579 -0.30 -0.01    -0.265 NA ENDBRANCH  35  38ENDBRANCH  27  34ENDBRANCH  24  27ENDBRANCH   3  24TORSDOF 8TERENDMDL