MODEL        7USER    Run = 7USERUSER    Estimated Free Energy of Binding    =  -9.84 kcal/mol  [=(1)+(2)+(3)-(4)]USERUSER    (1) Final Intermolecular Energy     = -12.23 kcal/molUSER        vdW + Hbond + desolv Energy     = -12.12 kcal/molUSER        Electrostatic Energy            =  -0.11 kcal/molUSER        Moving Ligand-Fixed Receptor    = -12.23 kcal/molUSER        Moving Ligand-Moving Receptor   =  +0.00 kcal/molUSER    (2) Final Total Internal Energy     =  -2.41 kcal/molUSER    (3) Torsional Free Energy           =  +2.39 kcal/molUSER    (4) Unbound System's Energy         =  -2.41 kcal/molUSERUSERREMARK SMILES CN(C)CCn1cnc2c(-c3ccc(Oc4ccccc4)cc3)nc(-c3cncnc3N)nc21REMARK SMILES IDX 6 1 7 2 8 3 9 4 10 5 24 6 25 7 33 8 34 9 5 10 4 11 2 12 1 13REMARK SMILES IDX 3 14 26 15 27 16 31 17 28 18 30 19 29 20 32 21 11 24 12 25REMARK SMILES IDX 23 26 13 27 22 28 14 29 15 30 16 31 17 32 21 33 18 34 20 35REMARK SMILES IDX 19 36REMARK H PARENT 32 22 32 23USER                              x       y       z     vdW  Elec       q    TypeUSER                           _______ _______ _______ _____ _____    ______ ____ROOTATOM      1  N   UNL     1      39.377  46.197  18.507 -0.23 +0.04    -0.314 N  ATOM      2  C   UNL     1      39.093  45.489  19.642 -0.26 -0.01    +0.202 A  ATOM      3  N   UNL     1      38.006  44.761  19.500 -0.23 +0.02    -0.233 NA ATOM      4  C   UNL     1      37.577  44.991  18.208 -0.28 -0.03    +0.134 A  ATOM      5  C   UNL     1      36.504  44.515  17.441 -0.26 -0.03    +0.102 A  ATOM      6  N   UNL     1      36.386  44.956  16.148 -0.18 +0.10    -0.225 NA ATOM      7  C   UNL     1      37.284  45.843  15.651 -0.25 -0.07    +0.167 A  ATOM      8  N   UNL     1      38.339  46.353  16.321 -0.25 +0.07    -0.208 NA ATOM      9  C   UNL     1      38.425  45.887  17.575 -0.29 -0.04    +0.164 A  ENDROOTBRANCH   1  10ATOM     10  C   UNL     1      40.473  47.126  18.330 -0.31 -0.01    +0.141 C  BRANCH  10  11ATOM     11  C   UNL     1      41.036  47.120  16.901 -0.37 -0.01    +0.105 C  BRANCH  11  12ATOM     12  N   UNL     1      40.419  48.122  16.009 -0.30 +0.07    -0.308 NA ATOM     13  C   UNL     1      40.524  47.740  14.598 -0.40 -0.01    +0.105 C  ATOM     14  C   UNL     1      41.048  49.431  16.209 -0.52 -0.02    +0.105 C  ENDBRANCH  11  12ENDBRANCH  10  11ENDBRANCH   1  10BRANCH   7  15ATOM     15  C   UNL     1      37.094  46.309  14.269 -0.37 -0.04    +0.080 A  ATOM     16  C   UNL     1      36.678  45.434  13.271 -0.39 -0.05    +0.128 A  ATOM     17  C   UNL     1      37.309  47.610  13.811 -0.43 -0.06    +0.137 A  ATOM     18  N   UNL     1      36.483  45.758  11.974 -0.42 +0.09    -0.244 NA ATOM     19  N   UNL     1      37.119  47.980  12.528 -0.98 +0.04    -0.219 NA ATOM     20  C   UNL     1      36.722  47.035  11.670 -0.39 -0.09    +0.224 A  BRANCH  17  21ATOM     21  N   UNL     1      37.683  48.660  14.668 -0.24 +0.26    -0.383 N  ATOM     22  H   UNL     1      38.219  49.338  14.124 -0.40 -0.11    +0.158 HD ATOM     23  H   UNL     1      38.338  48.297  15.355 +0.11 -0.09    +0.158 HD ENDBRANCH  17  21ENDBRANCH   7  15BRANCH   5  24ATOM     24  C   UNL     1      35.499  43.563  17.939 -0.32 -0.00    +0.003 A  ATOM     25  C   UNL     1      35.154  43.531  19.305 -0.39 -0.00    +0.014 A  ATOM     26  C   UNL     1      34.856  42.635  17.098 -0.41 -0.01    +0.014 A  ATOM     27  C   UNL     1      34.207  42.630  19.804 -0.32 +0.00    +0.048 A  ATOM     28  C   UNL     1      33.906  41.730  17.590 -0.38 -0.02    +0.048 A  ATOM     29  C   UNL     1      33.569  41.744  18.942 -0.27 -0.01    +0.127 A  BRANCH  29  30ATOM     30  O   UNL     1      32.672  40.863  19.500 -0.44 -0.09    -0.457 OA BRANCH  30  31ATOM     31  C   UNL     1      31.602  40.474  18.727 -0.30 -0.00    +0.127 A  ATOM     32  C   UNL     1      31.205  39.140  18.824 -0.40 +0.01    +0.047 A  ATOM     33  C   UNL     1      30.879  41.366  17.932 -0.26 -0.01    +0.047 A  ATOM     34  C   UNL     1      30.106  38.685  18.093 -0.36 +0.00    +0.004 A  ATOM     35  C   UNL     1      29.780  40.910  17.202 -0.31 -0.00    +0.004 A  ATOM     36  C   UNL     1      29.397  39.570  17.279 -0.34 +0.00    +0.000 A  ENDBRANCH  30  31ENDBRANCH  29  30ENDBRANCH   5  24TORSDOF 8TERENDMDL