REMARK SMILES CC[C@H](O)[C@@H](NC(=O)c1ccccc1F)c1ccc(C(=O)Nc2nc(-c3ccccc3)cs2)cc1N
REMARK SMILES IDX 16 1 17 2 18 3 19 4 34 5 35 6 5 7 3 8 2 9 1 10 4 11 6 13
REMARK SMILES IDX 7 14 8 16 9 17 10 18 14 19 11 20 13 21 12 22 15 23 36 24
REMARK SMILES IDX 20 27 22 28 21 29 23 31 24 32 33 33 25 34 32 35 26 36 27 37
REMARK SMILES IDX 31 38 28 39 30 40 29 41
REMARK H PARENT 4 12 6 15 36 25 36 26 22 30
ROOT
ATOM      1  C   UNL     1      -1.497   0.779  -0.330  1.00  0.00    -0.000 A 
ATOM      2  C   UNL     1      -1.141   0.594  -1.683  1.00  0.00     0.009 A 
ATOM      3  C   UNL     1      -0.011  -0.143  -2.037  1.00  0.00     0.014 A 
ATOM      4  C   UNL     1       0.796  -0.688  -1.039  1.00  0.00     0.042 A 
ATOM      5  C   UNL     1       0.428  -0.560   0.305  1.00  0.00     0.039 A 
ATOM      6  C   UNL     1      -0.750   0.110   0.666  1.00  0.00     0.038 A 
ENDROOT
BRANCH   1   7
ATOM      7  C   UNL     1      -2.699   1.655   0.033  1.00  0.00     0.143 C 
BRANCH   7   8
ATOM      8  C   UNL     1      -2.800   2.970  -0.806  1.00  0.00     0.141 C 
BRANCH   8   9
ATOM      9  C   UNL     1      -3.447   4.144  -0.044  1.00  0.00     0.031 C 
ATOM     10  C   UNL     1      -4.888   3.931   0.403  1.00  0.00     0.007 C 
ENDBRANCH   8   9
BRANCH   8  11
ATOM     11  O   UNL     1      -3.506   2.758  -2.039  1.00  0.00    -0.391 OA
ATOM     12  H   UNL     1      -4.422   2.527  -1.808  1.00  0.00     0.211 HD
ENDBRANCH   8  11
ENDBRANCH   7   8
BRANCH   7  13
ATOM     13  N   UNL     1      -3.920   0.859  -0.078  1.00  0.00    -0.342 N 
ATOM     14  C   UNL     1      -4.429   0.155   0.991  1.00  0.00     0.254 C 
ATOM     15  H   UNL     1      -4.173   0.559  -1.013  1.00  0.00     0.164 HD
ATOM     16  O   UNL     1      -3.957   0.240   2.124  1.00  0.00    -0.269 OA
BRANCH  14  17
ATOM     17  C   UNL     1      -5.596  -0.734   0.734  1.00  0.00     0.075 A 
ATOM     18  C   UNL     1      -6.122  -1.473   1.806  1.00  0.00     0.017 A 
ATOM     19  C   UNL     1      -6.201  -0.852  -0.520  1.00  0.00     0.135 A 
ATOM     20  C   UNL     1      -7.225  -2.311   1.618  1.00  0.00     0.001 A 
ATOM     21  C   UNL     1      -7.303  -1.685  -0.712  1.00  0.00     0.040 A 
ATOM     22  C   UNL     1      -7.816  -2.416   0.359  1.00  0.00     0.003 A 
ATOM     23  F   UNL     1      -5.742  -0.166  -1.580  1.00  0.00    -0.206 F 
ENDBRANCH  14  17
ENDBRANCH   7  13
ENDBRANCH   1   7
BRANCH   6  24
ATOM     24  N   UNL     1      -1.034   0.261   2.035  1.00  0.00    -0.398 N 
ATOM     25  H   UNL     1      -0.637  -0.468   2.622  1.00  0.00     0.156 HD
ATOM     26  H   UNL     1      -2.042   0.332   2.227  1.00  0.00     0.156 HD
ENDBRANCH   6  24
BRANCH   4  27
ATOM     27  C   UNL     1       2.039  -1.401  -1.432  1.00  0.00     0.257 C 
ATOM     28  N   UNL     1       3.131  -1.075  -0.662  1.00  0.00    -0.298 N 
ATOM     29  O   UNL     1       1.992  -2.149  -2.402  1.00  0.00    -0.269 OA
ATOM     30  H   UNL     1       3.065  -0.325   0.013  1.00  0.00     0.172 HD
BRANCH  28  31
ATOM     31  C   UNL     1       4.406  -1.560  -0.791  1.00  0.00     0.190 A 
ATOM     32  N   UNL     1       5.395  -1.046  -0.093  1.00  0.00    -0.220 NA
ATOM     33  S   UNL     1       4.809  -2.860  -1.810  1.00  0.00    -0.105 S 
ATOM     34  C   UNL     1       6.577  -1.713  -0.386  1.00  0.00     0.084 A 
ATOM     35  C   UNL     1       6.446  -2.730  -1.314  1.00  0.00     0.097 A 
BRANCH  34  36
ATOM     36  C   UNL     1       7.837  -1.317   0.236  1.00  0.00     0.001 A 
ATOM     37  C   UNL     1       8.914  -2.206   0.368  1.00  0.00     0.010 A 
ATOM     38  C   UNL     1       7.982  -0.009   0.725  1.00  0.00     0.010 A 
ATOM     39  C   UNL     1      10.112  -1.789   0.961  1.00  0.00     0.001 A 
ATOM     40  C   UNL     1       9.180   0.407   1.317  1.00  0.00     0.001 A 
ATOM     41  C   UNL     1      10.244  -0.484   1.433  1.00  0.00     0.000 A 
ENDBRANCH  34  36
ENDBRANCH  28  31
ENDBRANCH   4  27
TORSDOF 10
