MODEL        4USER    Run = 4USERUSER    Estimated Free Energy of Binding    =  -9.46 kcal/mol  [=(1)+(2)+(3)-(4)]USERUSER    (1) Final Intermolecular Energy     = -10.95 kcal/molUSER        vdW + Hbond + desolv Energy     = -10.67 kcal/molUSER        Electrostatic Energy            =  -0.28 kcal/molUSER        Moving Ligand-Fixed Receptor    = -10.95 kcal/molUSER        Moving Ligand-Moving Receptor   =  +0.00 kcal/molUSER    (2) Final Total Internal Energy     =  -1.14 kcal/molUSER    (3) Torsional Free Energy           =  +1.49 kcal/molUSER    (4) Unbound System's Energy         =  -1.14 kcal/molUSERUSERREMARK SMILES O=S(=O)(Nc1cccc(-c2nc3ccccc3[nH]2)c1)c1cccnc1OREMARK SMILES IDX 1 1 2 2 3 3 4 4 5 6 6 7 19 8 7 9 9 10 8 11 10 12 11 13 18 14REMARK SMILES IDX 12 15 17 16 13 17 16 18 14 19 15 20 20 22 21 23 25 24 22 25REMARK SMILES IDX 24 26 23 27 26 28REMARK H PARENT 4 5 18 21 26 29USER                              x       y       z     vdW  Elec       q    TypeUSER                           _______ _______ _______ _____ _____    ______ ____ROOTATOM      1  O   UNL     1      41.419  49.071  15.942 -1.04 +0.00    -0.201 OA ATOM      2  S   UNL     1      40.497  47.979  15.717 -0.55 -0.05    +0.267 S  ATOM      3  O   UNL     1      40.702  47.067  14.608 -0.35 +0.01    -0.201 OA ENDROOTBRANCH   2   4ATOM      4  N   UNL     1      38.944  48.648  15.573 -0.30 +0.15    -0.279 N  ATOM      5  H   UNL     1      38.665  49.060  16.467 +0.13 -0.14    +0.180 HD BRANCH   4   6ATOM      6  C   UNL     1      37.947  47.907  14.869 -0.47 -0.03    +0.050 A  ATOM      7  C   UNL     1      37.753  48.149  13.510 -0.45 -0.01    +0.027 A  ATOM      8  C   UNL     1      37.163  46.961  15.535 -0.38 -0.02    +0.038 A  ATOM      9  C   UNL     1      36.760  47.456  12.821 -0.65 -0.00    +0.003 A  ATOM     10  C   UNL     1      36.151  46.266  14.860 -0.39 -0.01    +0.019 A  ATOM     11  C   UNL     1      35.964  46.526  13.494 -0.52 -0.01    +0.012 A  BRANCH  10  12ATOM     12  C   UNL     1      35.282  45.290  15.530 -0.24 -0.09    +0.138 A  ATOM     13  N   UNL     1      35.644  44.081  15.925 -0.22 +0.10    -0.229 NA ATOM     14  N   UNL     1      33.952  45.498  15.825 -0.11 +0.31    -0.338 N  ATOM     15  C   UNL     1      34.528  43.507  16.481 -0.31 -0.04    +0.089 A  ATOM     16  C   UNL     1      33.449  44.377  16.431 -0.27 -0.03    +0.066 A  ATOM     17  C   UNL     1      34.359  42.237  17.049 -0.39 -0.01    +0.030 A  ATOM     18  C   UNL     1      32.181  44.059  16.922 -0.29 -0.01    +0.028 A  ATOM     19  C   UNL     1      33.098  41.888  17.548 -0.38 -0.00    +0.002 A  ATOM     20  C   UNL     1      32.030  42.787  17.485 -0.31 -0.00    +0.002 A  ATOM     21  H   UNL     1      33.425  46.334  15.617 -0.27 -0.31    +0.168 HD ENDBRANCH  10  12ENDBRANCH   4   6ENDBRANCH   2   4BRANCH   2  22ATOM     22  C   UNL     1      40.422  47.024  17.186 -0.40 -0.02    +0.149 A  ATOM     23  C   UNL     1      39.403  46.094  17.391 -0.42 -0.01    +0.029 A  ATOM     24  C   UNL     1      41.380  47.170  18.165 -0.35 -0.01    +0.231 A  ATOM     25  C   UNL     1      39.395  45.354  18.571 -0.41 -0.00    +0.022 A  ATOM     26  N   UNL     1      41.404  46.473  19.316 -0.32 -0.01    -0.221 NA ATOM     27  C   UNL     1      40.408  45.575  19.493 -0.35 +0.00    +0.115 A  BRANCH  24  28ATOM     28  O   UNL     1      42.388  48.071  18.095 -0.33 -0.00    -0.492 OA ATOM     29  H   UNL     1      42.715  47.883  17.194 -0.33 -0.04    +0.295 HD ENDBRANCH  24  28ENDBRANCH   2  22TORSDOF 5TERENDMDL