MODEL        2USER    Run = 2USERUSER    Estimated Free Energy of Binding    =  -9.27 kcal/mol  [=(1)+(2)+(3)-(4)]USERUSER    (1) Final Intermolecular Energy     = -10.46 kcal/molUSER        vdW + Hbond + desolv Energy     = -10.26 kcal/molUSER        Electrostatic Energy            =  -0.20 kcal/molUSER        Moving Ligand-Fixed Receptor    = -10.46 kcal/molUSER        Moving Ligand-Moving Receptor   =  +0.00 kcal/molUSER    (2) Final Total Internal Energy     =  -0.31 kcal/molUSER    (3) Torsional Free Energy           =  +1.19 kcal/molUSER    (4) Unbound System's Energy         =  -0.31 kcal/molUSERUSERREMARK SMILES CNc1nc(OC)cc(-c2cc3c(cn2)-c2ccccc2C[C@]3(C)O)n1REMARK SMILES IDX 10 1 11 2 12 3 13 4 14 5 15 6 16 7 17 8 18 9 19 10 20 11REMARK SMILES IDX 21 12 22 13 23 14 24 15 9 16 3 17 4 18 26 19 5 20 8 21 2 22REMARK SMILES IDX 1 23 6 25 7 26 25 27REMARK H PARENT 2 24 25 28USER                              x       y       z     vdW  Elec       q    TypeUSER                           _______ _______ _______ _____ _____    ______ ____ROOTATOM      1  C   UNL     1      37.747  45.941  16.885 -0.32 -0.03    +0.089 A  ATOM      2  C   UNL     1      36.705  45.016  16.797 -0.31 -0.01    +0.038 A  ATOM      3  C   UNL     1      36.399  44.173  17.882 -0.32 +0.00    -0.005 A  ATOM      4  C   UNL     1      37.198  44.240  19.043 -0.35 -0.00    +0.006 A  ATOM      5  C   UNL     1      38.203  45.208  19.040 -0.26 -0.01    +0.121 A  ATOM      6  N   UNL     1      38.490  46.044  18.014 -0.24 +0.06    -0.254 NA ATOM      7  C   UNL     1      36.957  43.324  20.178 -0.37 +0.00    -0.013 A  ATOM      8  C   UNL     1      37.912  43.075  21.181 -0.15 +0.00    +0.009 A  ATOM      9  C   UNL     1      37.644  42.203  22.242 -0.44 +0.00    +0.001 A  ATOM     10  C   UNL     1      36.416  41.558  22.322 -0.55 +0.00    +0.000 A  ATOM     11  C   UNL     1      35.459  41.775  21.337 -0.14 +0.00    +0.004 A  ATOM     12  C   UNL     1      35.729  42.637  20.263 -0.44 +0.00    -0.037 A  ATOM     13  C   UNL     1      34.668  42.877  19.212 -0.42 -0.01    +0.076 C  ATOM     14  C   UNL     1      35.260  43.162  17.810 -0.35 -0.03    +0.092 C  ATOM     15  C   UNL     1      34.100  43.574  16.890 -0.36 -0.02    +0.048 C  ENDROOTBRANCH   1  16ATOM     16  C   UNL     1      38.097  46.853  15.771 -0.34 -0.04    +0.098 A  ATOM     17  C   UNL     1      39.348  48.658  15.055 -0.32 -0.10    +0.226 A  ATOM     18  N   UNL     1      38.844  48.606  13.820 -0.37 +0.06    -0.177 NA ATOM     19  N   UNL     1      39.005  47.823  16.042 -0.31 +0.09    -0.211 NA ATOM     20  C   UNL     1      37.950  47.636  13.580 -0.34 -0.07    +0.218 A  ATOM     21  C   UNL     1      37.535  46.729  14.518 -0.36 -0.05    +0.099 A  BRANCH  17  22ATOM     22  N   UNL     1      40.286  49.625  15.393 -0.28 +0.15    -0.357 N  ATOM     23  C   UNL     1      41.449  49.657  14.536 -0.63 -0.03    +0.143 C  ATOM     24  H   UNL     1      39.777  50.498  15.467 -0.36 -0.13    +0.163 HD ENDBRANCH  17  22BRANCH  20  25ATOM     25  O   UNL     1      37.385  47.515  12.324 -0.88 +0.09    -0.481 OA ATOM     26  C   UNL     1      36.133  46.836  12.337 -0.50 -0.14    +0.280 C  ENDBRANCH  20  25ENDBRANCH   1  16BRANCH  14  27ATOM     27  O   UNL     1      35.783  41.940  17.270 -0.16 +0.16    -0.385 OA ATOM     28  H   UNL     1      35.034  41.330  17.155 -0.41 -0.14    +0.211 HD ENDBRANCH  14  27TORSDOF 4TERENDMDL