REMARK SMILES CC[C@]1(O)Cc2ccccc2-c2cnc(-c3ccnc(NC)n3)cc21
REMARK SMILES IDX 3 1 5 2 6 3 7 4 8 5 9 6 10 7 11 8 12 9 13 10 14 11 15 12
REMARK SMILES IDX 24 13 25 14 2 15 1 16 4 17 16 19 17 20 23 21 18 22 20 23
REMARK SMILES IDX 19 24 21 25 22 26
REMARK H PARENT 4 18 21 27
ROOT
ATOM      1  C   UNL     1      -2.305  -0.951   0.607  1.00  0.00     0.094 C 
ATOM      2  C   UNL     1      -3.394  -0.085   1.292  1.00  0.00     0.076 C 
ATOM      3  C   UNL     1      -3.534   1.283   0.671  1.00  0.00    -0.037 A 
ATOM      4  C   UNL     1      -4.787   1.912   0.637  1.00  0.00     0.004 A 
ATOM      5  C   UNL     1      -4.919   3.179   0.078  1.00  0.00     0.000 A 
ATOM      6  C   UNL     1      -3.802   3.822  -0.444  1.00  0.00     0.001 A 
ATOM      7  C   UNL     1      -2.548   3.204  -0.398  1.00  0.00     0.009 A 
ATOM      8  C   UNL     1      -2.383   1.931   0.172  1.00  0.00    -0.013 A 
ATOM      9  C   UNL     1      -1.077   1.242   0.254  1.00  0.00     0.006 A 
ATOM     10  C   UNL     1       0.149   1.899   0.147  1.00  0.00     0.121 A 
ATOM     11  N   UNL     1       1.366   1.306   0.210  1.00  0.00    -0.254 NA
ATOM     12  C   UNL     1       1.408  -0.037   0.381  1.00  0.00     0.089 A 
ATOM     13  C   UNL     1       0.241  -0.785   0.522  1.00  0.00     0.038 A 
ATOM     14  C   UNL     1      -1.014  -0.150   0.468  1.00  0.00    -0.005 A 
ENDROOT
BRANCH   1  15
ATOM     15  C   UNL     1      -2.821  -1.478  -0.756  1.00  0.00     0.037 C 
ATOM     16  C   UNL     1      -1.910  -2.490  -1.446  1.00  0.00     0.007 C 
ENDBRANCH   1  15
BRANCH   1  17
ATOM     17  O   UNL     1      -2.081  -2.080   1.467  1.00  0.00    -0.385 OA
ATOM     18  H   UNL     1      -1.700  -1.739   2.294  1.00  0.00     0.211 HD
ENDBRANCH   1  17
BRANCH  12  19
ATOM     19  C   UNL     1       2.745  -0.655   0.426  1.00  0.00     0.094 A 
ATOM     20  C   UNL     1       3.121  -1.509   1.444  1.00  0.00     0.051 A 
ATOM     21  N   UNL     1       3.583  -0.344  -0.591  1.00  0.00    -0.211 NA
ATOM     22  C   UNL     1       4.394  -2.014   1.363  1.00  0.00     0.117 A 
ATOM     23  C   UNL     1       4.802  -0.890  -0.585  1.00  0.00     0.222 A 
ATOM     24  N   UNL     1       5.246  -1.720   0.368  1.00  0.00    -0.222 NA
BRANCH  23  25
ATOM     25  N   UNL     1       5.616  -0.541  -1.655  1.00  0.00    -0.357 N 
ATOM     26  C   UNL     1       7.011  -0.393  -1.310  1.00  0.00     0.143 C 
ATOM     27  H   UNL     1       5.180   0.283  -2.057  1.00  0.00     0.163 HD
ENDBRANCH  23  25
ENDBRANCH  12  19
TORSDOF 4
