MODEL        2USER    Run = 2USERUSER    Estimated Free Energy of Binding    =  -8.73 kcal/mol  [=(1)+(2)+(3)-(4)]USERUSER    (1) Final Intermolecular Energy     =  -9.62 kcal/molUSER        vdW + Hbond + desolv Energy     =  -9.50 kcal/molUSER        Electrostatic Energy            =  -0.12 kcal/molUSER        Moving Ligand-Fixed Receptor    =  -9.62 kcal/molUSER        Moving Ligand-Moving Receptor   =  +0.00 kcal/molUSER    (2) Final Total Internal Energy     =  -0.27 kcal/molUSER    (3) Torsional Free Energy           =  +0.89 kcal/molUSER    (4) Unbound System's Energy         =  -0.27 kcal/molUSERUSERREMARK SMILES CNc1nccc(-c2cc3c(cn2)-c2ccc(F)cc2C[C@]3(C)O)n1REMARK SMILES IDX 8 1 9 2 10 3 11 4 12 5 13 6 14 7 15 8 16 9 17 10 18 11 19 12REMARK SMILES IDX 20 13 21 14 22 15 23 16 7 17 3 18 4 19 25 20 5 21 6 22 2 23REMARK SMILES IDX 1 24 24 26REMARK H PARENT 2 25 24 27USER                              x       y       z     vdW  Elec       q    TypeUSER                           _______ _______ _______ _____ _____    ______ ____ROOTATOM      1  C   UNL     1      37.069  45.424  16.509 -0.29 -0.04    +0.089 A  ATOM      2  C   UNL     1      36.113  44.429  16.746 -0.30 -0.01    +0.038 A  ATOM      3  C   UNL     1      36.016  43.816  18.008 -0.32 +0.00    -0.005 A  ATOM      4  C   UNL     1      36.950  44.171  19.007 -0.35 -0.00    +0.006 A  ATOM      5  C   UNL     1      37.836  45.209  18.690 -0.26 -0.02    +0.121 A  ATOM      6  N   UNL     1      37.913  45.836  17.490 -0.22 +0.07    -0.254 NA ATOM      7  C   UNL     1      36.964  43.467  20.305 -0.38 +0.00    -0.013 A  ATOM      8  C   UNL     1      38.079  43.462  21.164 -0.26 +0.00    +0.012 A  ATOM      9  C   UNL     1      38.056  42.768  22.377 -0.33 +0.00    +0.040 A  ATOM     10  C   UNL     1      36.918  42.068  22.748 -0.41 +0.01    +0.123 A  ATOM     11  F   UNL     1      36.894  41.407  23.913 -0.13 +0.00    -0.207 F  ATOM     12  C   UNL     1      35.804  42.043  21.926 -0.23 +0.00    +0.043 A  ATOM     13  C   UNL     1      35.831  42.726  20.700 -0.43 -0.00    -0.034 A  ATOM     14  C   UNL     1      34.606  42.722  19.813 -0.43 -0.00    +0.076 C  ATOM     15  C   UNL     1      34.959  42.756  18.304 -0.38 -0.02    +0.092 C  ATOM     16  C   UNL     1      33.641  42.956  17.529 -0.37 -0.02    +0.048 C  ENDROOTBRANCH   1  17ATOM     17  C   UNL     1      37.229  46.065  15.184 -0.31 -0.04    +0.094 A  ATOM     18  C   UNL     1      38.262  47.715  13.941 -0.33 -0.08    +0.222 A  ATOM     19  N   UNL     1      37.596  47.387  12.829 -0.86 +0.05    -0.222 NA ATOM     20  N   UNL     1      38.113  47.092  15.115 -0.26 +0.09    -0.211 NA ATOM     21  C   UNL     1      36.715  46.384  12.930 -0.49 -0.05    +0.117 A  ATOM     22  C   UNL     1      36.490  45.677  14.084 -0.39 -0.02    +0.051 A  BRANCH  18  23ATOM     23  N   UNL     1      39.092  48.828  13.838 -0.07 +0.14    -0.357 N  ATOM     24  C   UNL     1      40.153  48.790  14.834 -0.51 -0.05    +0.143 C  ATOM     25  H   UNL     1      38.452  49.614  13.941 -0.39 -0.14    +0.163 HD ENDBRANCH  18  23ENDBRANCH   1  17BRANCH  15  26ATOM     26  O   UNL     1      35.454  41.463  17.929 -0.35 +0.13    -0.385 OA ATOM     27  H   UNL     1      34.887  41.098  17.220 -0.43 -0.16    +0.211 HD ENDBRANCH  15  26TORSDOF 3TERENDMDL