REMARK SMILES CNc1nc(OC)cc(-c2cc3c(cn2)-c2ccccc2C[C@]3(C)O)n1
REMARK SMILES IDX 10 1 11 2 12 3 13 4 14 5 15 6 16 7 17 8 18 9 19 10 20 11
REMARK SMILES IDX 21 12 22 13 23 14 24 15 9 16 3 17 4 18 26 19 5 20 8 21 2 22
REMARK SMILES IDX 1 23 6 25 7 26 25 27
REMARK H PARENT 2 24 25 28
ROOT
ATOM      1  C   UNL     1      -0.617   0.596   0.221  1.00  0.00     0.089 A 
ATOM      2  C   UNL     1       0.216  -0.520   0.121  1.00  0.00     0.038 A 
ATOM      3  C   UNL     1       1.568  -0.378  -0.244  1.00  0.00    -0.005 A 
ATOM      4  C   UNL     1       2.056   0.907  -0.561  1.00  0.00     0.006 A 
ATOM      5  C   UNL     1       1.152   1.960  -0.414  1.00  0.00     0.121 A 
ATOM      6  N   UNL     1      -0.144   1.840  -0.037  1.00  0.00    -0.254 NA
ATOM      7  C   UNL     1       3.450   1.093  -1.018  1.00  0.00    -0.013 A 
ATOM      8  C   UNL     1       3.890   2.246  -1.694  1.00  0.00     0.009 A 
ATOM      9  C   UNL     1       5.219   2.385  -2.108  1.00  0.00     0.001 A 
ATOM     10  C   UNL     1       6.138   1.373  -1.857  1.00  0.00     0.000 A 
ATOM     11  C   UNL     1       5.727   0.217  -1.203  1.00  0.00     0.004 A 
ATOM     12  C   UNL     1       4.391   0.066  -0.800  1.00  0.00    -0.037 A 
ATOM     13  C   UNL     1       3.967  -1.189  -0.071  1.00  0.00     0.076 C 
ATOM     14  C   UNL     1       2.496  -1.583  -0.351  1.00  0.00     0.092 C 
ATOM     15  C   UNL     1       2.139  -2.747   0.587  1.00  0.00     0.048 C 
ENDROOT
BRANCH   1  16
ATOM     16  C   UNL     1      -2.043   0.493   0.610  1.00  0.00     0.098 A 
ATOM     17  C   UNL     1      -3.809  -0.882   1.181  1.00  0.00     0.226 A 
ATOM     18  N   UNL     1      -4.649   0.144   1.333  1.00  0.00    -0.177 NA
ATOM     19  N   UNL     1      -2.527  -0.756   0.822  1.00  0.00    -0.211 NA
ATOM     20  C   UNL     1      -4.143   1.367   1.119  1.00  0.00     0.218 A 
ATOM     21  C   UNL     1      -2.845   1.605   0.752  1.00  0.00     0.099 A 
BRANCH  17  22
ATOM     22  N   UNL     1      -4.242  -2.185   1.390  1.00  0.00    -0.357 N 
ATOM     23  C   UNL     1      -5.619  -2.425   1.023  1.00  0.00     0.143 C 
ATOM     24  H   UNL     1      -3.561  -2.784   0.936  1.00  0.00     0.163 HD
ENDBRANCH  17  22
BRANCH  20  25
ATOM     25  O   UNL     1      -4.950   2.481   1.259  1.00  0.00    -0.481 OA
ATOM     26  C   UNL     1      -6.269   2.166   1.693  1.00  0.00     0.280 C 
ENDBRANCH  20  25
ENDBRANCH   1  16
BRANCH  14  27
ATOM     27  O   UNL     1       2.400  -2.101  -1.685  1.00  0.00    -0.385 OA
ATOM     28  H   UNL     1       2.420  -1.341  -2.293  1.00  0.00     0.211 HD
ENDBRANCH  14  27
TORSDOF 4
