MODEL        6USER    Run = 6USERUSER    Estimated Free Energy of Binding    =  -9.02 kcal/mol  [=(1)+(2)+(3)-(4)]USERUSER    (1) Final Intermolecular Energy     = -10.21 kcal/molUSER        vdW + Hbond + desolv Energy     = -10.12 kcal/molUSER        Electrostatic Energy            =  -0.09 kcal/molUSER        Moving Ligand-Fixed Receptor    = -10.21 kcal/molUSER        Moving Ligand-Moving Receptor   =  +0.00 kcal/molUSER    (2) Final Total Internal Energy     =  -0.50 kcal/molUSER    (3) Torsional Free Energy           =  +1.19 kcal/molUSER    (4) Unbound System's Energy         =  -0.50 kcal/molUSERUSERREMARK SMILES CC[C@]1(O)Cc2ccccc2-c2cnc(-c3ccnc(NC)n3)cc21REMARK SMILES IDX 3 1 5 2 6 3 7 4 8 5 9 6 10 7 11 8 12 9 13 10 14 11 15 12REMARK SMILES IDX 24 13 25 14 2 15 1 16 4 17 16 19 17 20 23 21 18 22 20 23REMARK SMILES IDX 19 24 21 25 22 26REMARK H PARENT 4 18 21 27USER                              x       y       z     vdW  Elec       q    TypeUSER                           _______ _______ _______ _____ _____    ______ ____ROOTATOM      1  C   UNL     1      34.912  42.918  18.225 -0.36 -0.02    +0.094 C  ATOM      2  C   UNL     1      35.404  41.825  19.209 -0.13 -0.01    +0.076 C  ATOM      3  C   UNL     1      36.152  42.392  20.391 -0.44 +0.00    -0.037 A  ATOM      4  C   UNL     1      36.076  41.755  21.638 -0.52 +0.00    +0.004 A  ATOM      5  C   UNL     1      36.774  42.266  22.728 -0.48 +0.00    +0.000 A  ATOM      6  C   UNL     1      37.551  43.409  22.574 -0.38 +0.00    +0.001 A  ATOM      7  C   UNL     1      37.641  44.037  21.328 -0.38 +0.00    +0.009 A  ATOM      8  C   UNL     1      36.957  43.537  20.208 -0.38 +0.00    -0.013 A  ATOM      9  C   UNL     1      37.030  44.159  18.868 -0.34 -0.00    +0.006 A  ATOM     10  C   UNL     1      38.044  45.034  18.479 -0.30 -0.02    +0.121 A  ATOM     11  N   UNL     1      38.144  45.630  17.266 -0.22 +0.07    -0.254 NA ATOM     12  C   UNL     1      37.180  45.371  16.351 -0.29 -0.04    +0.089 A  ATOM     13  C   UNL     1      36.135  44.493  16.631 -0.31 -0.02    +0.038 A  ATOM     14  C   UNL     1      36.054  43.872  17.892 -0.32 +0.00    -0.005 A  ENDROOTBRANCH   1  15ATOM     15  C   UNL     1      33.683  43.654  18.816 -0.41 -0.01    +0.037 C  ATOM     16  C   UNL     1      33.728  45.176  18.712 -0.51 -0.00    +0.007 C  ENDBRANCH   1  15BRANCH   1  17ATOM     17  O   UNL     1      34.492  42.234  17.033 -0.24 +0.17    -0.385 OA ATOM     18  H   UNL     1      34.694  41.291  17.157 -0.42 -0.13    +0.211 HD ENDBRANCH   1  17BRANCH  12  19ATOM     19  C   UNL     1      37.306  46.049  15.049 -0.32 -0.04    +0.094 A  ATOM     20  C   UNL     1      36.584  45.646  13.943 -0.40 -0.02    +0.051 A  ATOM     21  N   UNL     1      38.165  47.094  14.999 -0.26 +0.09    -0.211 NA ATOM     22  C   UNL     1      36.797  46.365  12.794 -0.50 -0.05    +0.117 A  ATOM     23  C   UNL     1      38.301  47.736  13.835 -0.32 -0.07    +0.222 A  ATOM     24  N   UNL     1      37.644  47.403  12.716 -0.94 +0.04    -0.222 NA BRANCH  23  25ATOM     25  N   UNL     1      39.189  48.803  13.844 -0.08 +0.14    -0.357 N  ATOM     26  C   UNL     1      40.379  48.573  14.631 -0.50 -0.03    +0.143 C  ATOM     27  H   UNL     1      38.633  49.604  14.125 -0.37 -0.14    +0.163 HD ENDBRANCH  23  25ENDBRANCH  12  19TORSDOF 4TERENDMDL