REMARK SMILES CNc1nccc(-c2cc3c(cn2)-c2ccc(F)cc2C[C@]3(C)O)n1
REMARK SMILES IDX 8 1 9 2 10 3 11 4 12 5 13 6 14 7 15 8 16 9 17 10 18 11 19 12
REMARK SMILES IDX 20 13 21 14 22 15 23 16 7 17 3 18 4 19 25 20 5 21 6 22 2 23
REMARK SMILES IDX 1 24 24 26
REMARK H PARENT 2 25 24 27
ROOT
ATOM      1  C   UNL     1       1.366   0.206   0.986  1.00  0.00     0.089 A 
ATOM      2  C   UNL     1       0.498   0.529  -0.064  1.00  0.00     0.038 A 
ATOM      3  C   UNL     1      -0.845   0.111  -0.037  1.00  0.00    -0.005 A 
ATOM      4  C   UNL     1      -1.279  -0.703   1.033  1.00  0.00     0.006 A 
ATOM      5  C   UNL     1      -0.352  -0.931   2.058  1.00  0.00     0.121 A 
ATOM      6  N   UNL     1       0.934  -0.500   2.063  1.00  0.00    -0.254 NA
ATOM      7  C   UNL     1      -2.645  -1.266   1.041  1.00  0.00    -0.013 A 
ATOM      8  C   UNL     1      -3.011  -2.381   1.817  1.00  0.00     0.012 A 
ATOM      9  C   UNL     1      -4.311  -2.893   1.782  1.00  0.00     0.040 A 
ATOM     10  C   UNL     1      -5.264  -2.297   0.970  1.00  0.00     0.123 A 
ATOM     11  F   UNL     1      -6.511  -2.784   0.940  1.00  0.00    -0.207 F 
ATOM     12  C   UNL     1      -4.939  -1.202   0.186  1.00  0.00     0.043 A 
ATOM     13  C   UNL     1      -3.630  -0.697   0.207  1.00  0.00    -0.034 A 
ATOM     14  C   UNL     1      -3.280   0.514  -0.628  1.00  0.00     0.076 C 
ATOM     15  C   UNL     1      -1.821   0.481  -1.150  1.00  0.00     0.092 C 
ATOM     16  C   UNL     1      -1.536   1.850  -1.800  1.00  0.00     0.048 C 
ENDROOT
BRANCH   1  17
ATOM     17  C   UNL     1       2.795   0.593   0.976  1.00  0.00     0.094 A 
ATOM     18  C   UNL     1       4.577   1.396  -0.254  1.00  0.00     0.222 A 
ATOM     19  N   UNL     1       5.421   1.295   0.778  1.00  0.00    -0.222 NA
ATOM     20  N   UNL     1       3.282   1.065  -0.199  1.00  0.00    -0.211 NA
ATOM     21  C   UNL     1       4.919   0.807   1.919  1.00  0.00     0.117 A 
ATOM     22  C   UNL     1       3.606   0.442   2.083  1.00  0.00     0.051 A 
BRANCH  18  23
ATOM     23  N   UNL     1       5.145   1.804  -1.458  1.00  0.00    -0.357 N 
ATOM     24  C   UNL     1       4.783   0.907  -2.545  1.00  0.00     0.143 C 
ATOM     25  H   UNL     1       6.143   1.831  -1.255  1.00  0.00     0.163 HD
ENDBRANCH  18  23
ENDBRANCH   1  17
BRANCH  15  26
ATOM     26  O   UNL     1      -1.743  -0.489  -2.203  1.00  0.00    -0.385 OA
ATOM     27  H   UNL     1      -1.137  -1.207  -1.930  1.00  0.00     0.211 HD
ENDBRANCH  15  26
TORSDOF 3
