MODEL        3USER    Run = 3USERUSER    Estimated Free Energy of Binding    =  -9.49 kcal/mol  [=(1)+(2)+(3)-(4)]USERUSER    (1) Final Intermolecular Energy     = -10.39 kcal/molUSER        vdW + Hbond + desolv Energy     = -10.26 kcal/molUSER        Electrostatic Energy            =  -0.12 kcal/molUSER        Moving Ligand-Fixed Receptor    = -10.39 kcal/molUSER        Moving Ligand-Moving Receptor   =  +0.00 kcal/molUSER    (2) Final Total Internal Energy     =  -1.21 kcal/molUSER    (3) Torsional Free Energy           =  +0.89 kcal/molUSER    (4) Unbound System's Energy         =  -1.21 kcal/molUSERUSERREMARK SMILES C=C1C=C(c2nnc3sc(C)cc3c2CN2CCOCC2)C[C@H]1CREMARK SMILES IDX 5 1 6 2 7 3 8 4 9 5 10 6 11 7 12 8 13 9 14 10 4 11 2 12 3 13REMARK SMILES IDX 23 14 22 15 1 16 24 17 15 18 16 19 17 20 21 21 18 22 20 23REMARK SMILES IDX 19 24REMARK H PARENTUSER                              x       y       z     vdW  Elec       q    TypeUSER                           _______ _______ _______ _____ _____    ______ ____ROOTATOM      1  C   UNL     1      37.598  46.131  17.275 -0.29 -0.04    +0.094 A  ATOM      2  N   UNL     1      38.598  45.807  18.134 -0.31 +0.03    -0.149 NA ATOM      3  N   UNL     1      39.767  46.416  18.088 -0.37 +0.02    -0.139 NA ATOM      4  C   UNL     1      39.940  47.356  17.144 -0.37 -0.03    +0.146 A  ATOM      5  S   UNL     1      41.418  48.181  16.986 -0.56 +0.01    -0.119 S  ATOM      6  C   UNL     1      40.842  49.084  15.653 -0.63 -0.00    +0.004 A  ATOM      7  C   UNL     1      41.730  50.079  14.989 -0.70 -0.01    +0.056 C  ATOM      8  C   UNL     1      39.539  48.752  15.347 -0.52 -0.01    +0.026 A  ATOM      9  C   UNL     1      38.986  47.747  16.218 -0.44 -0.01    +0.020 A  ATOM     10  C   UNL     1      37.714  47.116  16.277 -0.36 -0.00    +0.004 A  ENDROOTBRANCH   1  11ATOM     11  C   UNL     1      36.393  45.330  17.489 -0.38 +0.01    -0.019 C  ATOM     12  C   UNL     1      34.359  44.595  18.231 -0.38 +0.02    -0.052 C  ATOM     13  C   UNL     1      35.326  45.661  18.223 -0.41 -0.00    +0.009 C  ATOM     14  C   UNL     1      34.896  43.461  17.382 -0.38 -0.01    +0.020 C  ATOM     15  C   UNL     1      36.300  43.934  16.948 -0.37 -0.02    +0.046 C  ATOM     16  C   UNL     1      33.195  44.632  18.887 -0.47 -0.00    +0.013 C  ATOM     17  C   UNL     1      34.954  42.120  18.107 -0.47 -0.00    +0.013 C  ENDBRANCH   1  11BRANCH  10  18ATOM     18  C   UNL     1      36.618  47.394  15.272 -0.36 -0.11    +0.123 C  BRANCH  18  19ATOM     19  N   UNL     1      37.035  47.235  13.867 -0.27 +0.15    -0.294 NA ATOM     20  C   UNL     1      35.890  47.327  12.932 -0.58 -0.07    +0.113 C  ATOM     21  C   UNL     1      37.781  45.974  13.655 -0.40 -0.04    +0.113 C  ATOM     22  C   UNL     1      36.197  46.644  11.590 -0.50 -0.08    +0.175 C  ATOM     23  C   UNL     1      36.939  44.863  13.008 -0.40 -0.06    +0.175 C  ATOM     24  O   UNL     1      36.412  45.232  11.727 -0.33 +0.14    -0.379 OA ENDBRANCH  18  19ENDBRANCH  10  18TORSDOF 3TERENDMDL