REMARK SMILES C=C1C=C(c2nnc3sc(C)cc3c2CN2CCOCC2)C[C@H]1C
REMARK SMILES IDX 5 1 6 2 7 3 8 4 9 5 10 6 11 7 12 8 13 9 14 10 4 11 2 12 3 13
REMARK SMILES IDX 23 14 22 15 1 16 24 17 15 18 16 19 17 20 21 21 18 22 20 23
REMARK SMILES IDX 19 24
REMARK H PARENT
ROOT
ATOM      1  C   UNL     1       1.265   1.071  -0.276  1.00  0.00     0.094 A 
ATOM      2  N   UNL     1       2.079   2.131  -0.034  1.00  0.00    -0.149 NA
ATOM      3  N   UNL     1       1.591   3.306   0.311  1.00  0.00    -0.139 NA
ATOM      4  C   UNL     1       0.255   3.424   0.394  1.00  0.00     0.146 A 
ATOM      5  S   UNL     1      -0.473   4.903   0.807  1.00  0.00    -0.119 S 
ATOM      6  C   UNL     1      -2.043   4.242   0.663  1.00  0.00     0.004 A 
ATOM      7  C   UNL     1      -3.237   5.096   0.917  1.00  0.00     0.056 C 
ATOM      8  C   UNL     1      -1.996   2.910   0.307  1.00  0.00     0.026 A 
ATOM      9  C   UNL     1      -0.655   2.407   0.155  1.00  0.00     0.020 A 
ATOM     10  C   UNL     1      -0.138   1.129  -0.191  1.00  0.00     0.004 A 
ENDROOT
BRANCH   1  11
ATOM     11  C   UNL     1       2.007  -0.131  -0.655  1.00  0.00    -0.019 C 
ATOM     12  C   UNL     1       2.950  -2.214  -0.640  1.00  0.00    -0.052 C 
ATOM     13  C   UNL     1       2.090  -1.275   0.032  1.00  0.00     0.009 C 
ATOM     14  C   UNL     1       3.456  -1.567  -1.913  1.00  0.00     0.020 C 
ATOM     15  C   UNL     1       2.876  -0.137  -1.877  1.00  0.00     0.046 C 
ATOM     16  C   UNL     1       3.233  -3.440  -0.188  1.00  0.00     0.013 C 
ATOM     17  C   UNL     1       4.977  -1.554  -2.037  1.00  0.00     0.013 C 
ENDBRANCH   1  11
BRANCH  10  18
ATOM     18  C   UNL     1      -1.028  -0.039  -0.556  1.00  0.00     0.123 C 
BRANCH  18  19
ATOM     19  N   UNL     1      -2.086  -0.322   0.431  1.00  0.00    -0.294 NA
ATOM     20  C   UNL     1      -1.532  -0.755   1.734  1.00  0.00     0.113 C 
ATOM     21  C   UNL     1      -3.059  -1.315  -0.077  1.00  0.00     0.113 C 
ATOM     22  C   UNL     1      -2.561  -1.549   2.553  1.00  0.00     0.175 C 
ATOM     23  C   UNL     1      -2.848  -2.728   0.489  1.00  0.00     0.175 C 
ATOM     24  O   UNL     1      -2.939  -2.779   1.919  1.00  0.00    -0.379 OA
ENDBRANCH  18  19
ENDBRANCH  10  18
TORSDOF 3
