REMARK SMILES C=C1C=C(c2nnc3sc(C(N)=O)cc3c2CCC)C[C@H]1C
REMARK SMILES IDX 5 1 6 2 7 3 8 4 9 5 10 6 14 7 15 8 16 9 4 10 2 11 3 12 21 13
REMARK SMILES IDX 20 14 1 15 22 16 17 17 18 18 19 19 11 20 12 21 13 22
REMARK H PARENT 12 23 12 24
ROOT
ATOM      1  C   UNL     1       0.352   0.913  -0.870  1.00  0.00     0.093 A 
ATOM      2  N   UNL     1       0.333   1.764  -1.933  1.00  0.00    -0.149 NA
ATOM      3  N   UNL     1      -0.784   2.302  -2.394  1.00  0.00    -0.139 NA
ATOM      4  C   UNL     1      -1.926   1.972  -1.775  1.00  0.00     0.147 A 
ATOM      5  S   UNL     1      -3.416   2.590  -2.298  1.00  0.00    -0.108 S 
ATOM      6  C   UNL     1      -4.276   1.738  -1.085  1.00  0.00     0.094 A 
ATOM      7  C   UNL     1      -3.410   0.988  -0.306  1.00  0.00     0.036 A 
ATOM      8  C   UNL     1      -2.026   1.120  -0.689  1.00  0.00     0.019 A 
ATOM      9  C   UNL     1      -0.824   0.548  -0.183  1.00  0.00    -0.010 A 
ENDROOT
BRANCH   1  10
ATOM     10  C   UNL     1       1.721   0.463  -0.552  1.00  0.00    -0.019 C 
ATOM     11  C   UNL     1       3.948  -0.027  -0.881  1.00  0.00    -0.052 C 
ATOM     12  C   UNL     1       2.679   0.297  -1.478  1.00  0.00     0.009 C 
ATOM     13  C   UNL     1       3.794   0.110   0.615  1.00  0.00     0.020 C 
ATOM     14  C   UNL     1       2.267   0.206   0.820  1.00  0.00     0.046 C 
ATOM     15  C   UNL     1       5.045  -0.366  -1.567  1.00  0.00     0.013 C 
ATOM     16  C   UNL     1       4.408  -1.020   1.435  1.00  0.00     0.013 C 
ENDBRANCH   1  10
BRANCH   9  17
ATOM     17  C   UNL     1      -0.862  -0.433   0.963  1.00  0.00     0.038 C 
BRANCH  17  18
ATOM     18  C   UNL     1      -0.738  -1.883   0.489  1.00  0.00     0.001 C 
ATOM     19  C   UNL     1      -0.767  -2.852   1.660  1.00  0.00     0.004 C 
ENDBRANCH  17  18
ENDBRANCH   9  17
BRANCH   6  20
ATOM     20  C   UNL     1      -5.720   1.876  -1.017  1.00  0.00     0.258 C 
ATOM     21  N   UNL     1      -6.321   1.365   0.103  1.00  0.00    -0.365 N 
ATOM     22  O   UNL     1      -6.427   2.418  -1.861  1.00  0.00    -0.269 OA
ATOM     23  H   UNL     1      -5.808   1.128   0.937  1.00  0.00     0.159 HD
ATOM     24  H   UNL     1      -7.308   1.568   0.196  1.00  0.00     0.159 HD
ENDBRANCH   6  20
TORSDOF 4
