MODEL        2USER    Run = 2USERUSER    Estimated Free Energy of Binding    =  -9.57 kcal/mol  [=(1)+(2)+(3)-(4)]USERUSER    (1) Final Intermolecular Energy     = -10.77 kcal/molUSER        vdW + Hbond + desolv Energy     = -10.71 kcal/molUSER        Electrostatic Energy            =  -0.06 kcal/molUSER        Moving Ligand-Fixed Receptor    = -10.77 kcal/molUSER        Moving Ligand-Moving Receptor   =  +0.00 kcal/molUSER    (2) Final Total Internal Energy     =  -0.87 kcal/molUSER    (3) Torsional Free Energy           =  +1.19 kcal/molUSER    (4) Unbound System's Energy         =  -0.87 kcal/molUSERUSERREMARK SMILES C=C1C=C(c2nnc3sc(C(N)=O)cc3c2CCC)C[C@H]1CREMARK SMILES IDX 5 1 6 2 7 3 8 4 9 5 10 6 14 7 15 8 16 9 4 10 2 11 3 12 21 13REMARK SMILES IDX 20 14 1 15 22 16 17 17 18 18 19 19 11 20 12 21 13 22REMARK H PARENT 12 23 12 24USER                              x       y       z     vdW  Elec       q    TypeUSER                           _______ _______ _______ _____ _____    ______ ____ROOTATOM      1  C   UNL     1      38.760  46.246  16.283 -0.34 -0.03    +0.093 A  ATOM      2  N   UNL     1      38.159  45.399  17.164 -0.28 +0.04    -0.149 NA ATOM      3  N   UNL     1      38.674  45.124  18.351 -0.31 +0.02    -0.139 NA ATOM      4  C   UNL     1      39.837  45.712  18.667 -0.35 -0.01    +0.147 A  ATOM      5  S   UNL     1      40.593  45.413  20.155 -0.48 -0.01    -0.108 S  ATOM      6  C   UNL     1      41.904  46.450  19.778 -0.37 +0.01    +0.094 A  ATOM      7  C   UNL     1      41.746  47.000  18.517 -0.51 -0.00    +0.036 A  ATOM      8  C   UNL     1      40.534  46.587  17.853 -0.49 -0.00    +0.019 A  ATOM      9  C   UNL     1      39.977  46.894  16.579 -0.48 +0.00    -0.010 A  ENDROOTBRANCH   1  10ATOM     10  C   UNL     1      37.979  46.388  15.039 -0.45 +0.01    -0.019 C  ATOM     11  C   UNL     1      36.962  45.778  13.064 -0.55 +0.02    -0.052 C  ATOM     12  C   UNL     1      37.883  45.423  14.111 -0.45 -0.00    +0.009 C  ATOM     13  C   UNL     1      36.280  47.061  13.476 -0.61 -0.01    +0.020 C  ATOM     14  C   UNL     1      37.129  47.564  14.663 -0.51 -0.03    +0.046 C  ATOM     15  C   UNL     1      36.764  45.062  11.951 -0.61 -0.00    +0.013 C  ATOM     16  C   UNL     1      36.160  48.112  12.377 -0.66 -0.01    +0.013 C  ENDBRANCH   1  10BRANCH   9  17ATOM     17  C   UNL     1      40.709  47.796  15.616 -0.56 -0.01    +0.038 C  BRANCH  17  18ATOM     18  C   UNL     1      40.272  49.257  15.745 -0.68 -0.00    +0.001 C  ATOM     19  C   UNL     1      41.402  50.206  15.378 -0.75 -0.00    +0.004 C  ENDBRANCH  17  18ENDBRANCH   9  17BRANCH   6  20ATOM     20  C   UNL     1      42.970  46.619  20.750 -0.26 +0.09    +0.258 C  ATOM     21  N   UNL     1      44.038  47.375  20.345 -0.10 -0.19    -0.365 N  ATOM     22  O   UNL     1      42.981  46.158  21.887 -0.18 -0.08    -0.269 OA ATOM     23  H   UNL     1      44.005  47.979  19.539 -0.45 +0.02    +0.159 HD ATOM     24  H   UNL     1      44.719  47.583  21.065 -0.26 +0.11    +0.159 HD ENDBRANCH   6  20TORSDOF 4TERENDMDL