MODEL        6USER    Run = 6USERUSER    Estimated Free Energy of Binding    =  -8.85 kcal/mol  [=(1)+(2)+(3)-(4)]USERUSER    (1) Final Intermolecular Energy     = -10.34 kcal/molUSER        vdW + Hbond + desolv Energy     = -10.06 kcal/molUSER        Electrostatic Energy            =  -0.28 kcal/molUSER        Moving Ligand-Fixed Receptor    = -10.34 kcal/molUSER        Moving Ligand-Moving Receptor   =  +0.00 kcal/molUSER    (2) Final Total Internal Energy     =  -1.05 kcal/molUSER    (3) Torsional Free Energy           =  +1.49 kcal/molUSER    (4) Unbound System's Energy         =  -1.05 kcal/molUSERUSERREMARK SMILES Cn1c(-c2ccnc(N)c2F)nc2cc(C(=O)c3ccc(F)cc3O)ccc21REMARK SMILES IDX 1 1 2 2 3 3 12 4 13 5 14 6 15 7 26 8 27 9 28 10 4 11 5 12REMARK SMILES IDX 10 13 6 14 8 15 7 16 11 17 9 18 16 21 17 22 18 23 19 24REMARK SMILES IDX 24 25 20 26 23 27 21 28 22 29 25 30REMARK H PARENT 9 19 9 20 25 31USER                              x       y       z     vdW  Elec       q    TypeUSER                           _______ _______ _______ _____ _____    ______ ____ROOTATOM      1  C   UNL     1      38.217  45.150  14.567 -0.22 -0.04    +0.152 C  ATOM      2  N   UNL     1      37.635  45.318  15.878 -0.13 +0.11    -0.327 N  ATOM      3  C   UNL     1      38.112  46.103  16.912 -0.29 -0.05    +0.144 A  ATOM      4  N   UNL     1      37.409  45.875  18.010 -0.21 +0.07    -0.228 NA ATOM      5  C   UNL     1      36.418  44.999  17.662 -0.27 -0.03    +0.090 A  ATOM      6  C   UNL     1      35.389  44.468  18.454 -0.32 -0.01    +0.042 A  ATOM      7  C   UNL     1      34.473  43.595  17.853 -0.30 -0.01    +0.025 A  ATOM      8  C   UNL     1      34.607  43.225  16.509 -0.39 -0.01    +0.014 A  ATOM      9  C   UNL     1      35.634  43.744  15.713 -0.36 -0.01    +0.029 A  ATOM     10  C   UNL     1      36.522  44.637  16.325 -0.30 -0.03    +0.068 A  ENDROOTBRANCH   3  11ATOM     11  C   UNL     1      39.251  47.022  16.866 -0.41 -0.02    +0.059 A  ATOM     12  C   UNL     1      39.282  48.014  15.882 -0.48 -0.01    +0.035 A  ATOM     13  C   UNL     1      40.345  46.921  17.725 -0.36 -0.02    +0.176 A  ATOM     14  C   UNL     1      40.372  48.865  15.827 -0.50 -0.03    +0.114 A  ATOM     15  C   UNL     1      41.402  47.826  17.605 -0.38 -0.01    +0.160 A  ATOM     16  N   UNL     1      41.424  48.797  16.673 -0.92 -0.00    -0.237 NA ATOM     17  F   UNL     1      40.392  45.967  18.669 -0.13 +0.01    -0.202 F  BRANCH  15  18ATOM     18  N   UNL     1      42.532  47.739  18.420 -0.31 -0.00    -0.381 N  ATOM     19  H   UNL     1      43.309  47.287  17.953 -0.51 -0.01    +0.158 HD ATOM     20  H   UNL     1      42.259  47.279  19.284 +0.07 +0.01    +0.158 HD ENDBRANCH  15  18ENDBRANCH   3  11BRANCH   7  21ATOM     21  C   UNL     1      33.370  42.992  18.638 -0.29 -0.03    +0.196 C  ATOM     22  O   UNL     1      33.372  43.124  19.862 -0.81 -0.02    -0.288 OA BRANCH  21  23ATOM     23  C   UNL     1      32.250  42.246  18.005 -0.30 -0.01    +0.064 A  ATOM     24  C   UNL     1      31.626  42.710  16.839 -0.30 -0.01    +0.019 A  ATOM     25  C   UNL     1      31.832  41.027  18.565 -0.29 -0.01    +0.129 A  ATOM     26  C   UNL     1      30.573  41.985  16.273 -0.31 -0.02    +0.040 A  ATOM     27  C   UNL     1      30.778  40.308  18.005 -0.29 -0.00    +0.086 A  ATOM     28  C   UNL     1      30.156  40.796  16.865 -0.29 -0.02    +0.126 A  ATOM     29  F   UNL     1      29.146  40.109  16.316 -0.12 -0.02    -0.207 F  BRANCH  25  30ATOM     30  O   UNL     1      32.421  40.476  19.673 -0.57 -0.14    -0.507 OA ATOM     31  H   UNL     1      32.810  41.209  20.203 +0.20 +0.10    +0.293 HD ENDBRANCH  25  30ENDBRANCH  21  23ENDBRANCH   7  21TORSDOF 5TERENDMDL