REMARK SMILES CC(=O)Nc1cc(-c2nc3cc(C(=O)c4ccc(F)cc4O)ccc3n2C)ccn1
REMARK SMILES IDX 8 1 9 2 10 3 11 4 12 5 23 6 24 7 25 8 26 9 27 10 7 11 5 12
REMARK SMILES IDX 6 13 30 14 29 15 28 16 4 17 2 18 1 19 3 20 13 22 14 23 15 24
REMARK SMILES IDX 16 25 21 26 17 27 20 28 18 29 19 30 22 31
REMARK H PARENT 4 21 22 32
ROOT
ATOM      1  C   UNL     1       1.536   0.755  -0.172  1.00  0.00     0.141 A 
ATOM      2  N   UNL     1       0.536   1.350  -0.801  1.00  0.00    -0.228 NA
ATOM      3  C   UNL     1      -0.594   0.644  -0.492  1.00  0.00     0.090 A 
ATOM      4  C   UNL     1      -1.909   0.841  -0.932  1.00  0.00     0.042 A 
ATOM      5  C   UNL     1      -2.907  -0.017  -0.451  1.00  0.00     0.025 A 
ATOM      6  C   UNL     1      -2.596  -1.072   0.417  1.00  0.00     0.014 A 
ATOM      7  C   UNL     1      -1.284  -1.277   0.861  1.00  0.00     0.029 A 
ATOM      8  C   UNL     1      -0.306  -0.393   0.388  1.00  0.00     0.068 A 
ATOM      9  N   UNL     1       1.051  -0.281   0.607  1.00  0.00    -0.327 N 
ATOM     10  C   UNL     1       1.800  -1.085   1.546  1.00  0.00     0.152 C 
ENDROOT
BRANCH   1  11
ATOM     11  C   UNL     1       2.933   1.189  -0.281  1.00  0.00     0.023 A 
ATOM     12  C   UNL     1       5.290   0.766  -0.463  1.00  0.00     0.133 A 
ATOM     13  C   UNL     1       3.994   0.283  -0.362  1.00  0.00     0.059 A 
ATOM     14  N   UNL     1       5.574   2.083  -0.525  1.00  0.00    -0.239 NA
ATOM     15  C   UNL     1       4.536   2.945  -0.480  1.00  0.00     0.114 A 
ATOM     16  C   UNL     1       3.217   2.552  -0.358  1.00  0.00     0.032 A 
BRANCH  12  17
ATOM     17  N   UNL     1       6.423  -0.047  -0.517  1.00  0.00    -0.311 N 
ATOM     18  C   UNL     1       6.499  -1.407  -0.340  1.00  0.00     0.222 C 
ATOM     19  C   UNL     1       7.901  -1.940  -0.491  1.00  0.00     0.114 C 
ATOM     20  O   UNL     1       5.570  -2.155  -0.051  1.00  0.00    -0.275 OA
ATOM     21  H   UNL     1       7.271   0.492  -0.634  1.00  0.00     0.171 HD
ENDBRANCH  12  17
ENDBRANCH   1  11
BRANCH   5  22
ATOM     22  C   UNL     1      -4.292   0.191  -0.927  1.00  0.00     0.196 C 
ATOM     23  O   UNL     1      -4.490   0.387  -2.125  1.00  0.00    -0.288 OA
BRANCH  22  24
ATOM     24  C   UNL     1      -5.460   0.150  -0.008  1.00  0.00     0.064 A 
ATOM     25  C   UNL     1      -5.326   0.442   1.358  1.00  0.00     0.019 A 
ATOM     26  C   UNL     1      -6.733  -0.154  -0.521  1.00  0.00     0.129 A 
ATOM     27  C   UNL     1      -6.444   0.388   2.196  1.00  0.00     0.040 A 
ATOM     28  C   UNL     1      -7.844  -0.214   0.316  1.00  0.00     0.086 A 
ATOM     29  C   UNL     1      -7.688   0.054   1.669  1.00  0.00     0.126 A 
ATOM     30  F   UNL     1      -8.751   0.003   2.481  1.00  0.00    -0.207 F 
BRANCH  26  31
ATOM     31  O   UNL     1      -6.957  -0.403  -1.849  1.00  0.00    -0.507 OA
ATOM     32  H   UNL     1      -6.144  -0.152  -2.345  1.00  0.00     0.293 HD
ENDBRANCH  26  31
ENDBRANCH  22  24
ENDBRANCH   5  22
TORSDOF 5
