MODEL        1USER    Run = 1USERUSER    Estimated Free Energy of Binding    =  -9.80 kcal/mol  [=(1)+(2)+(3)-(4)]USERUSER    (1) Final Intermolecular Energy     = -11.29 kcal/molUSER        vdW + Hbond + desolv Energy     = -11.29 kcal/molUSER        Electrostatic Energy            =  -0.00 kcal/molUSER        Moving Ligand-Fixed Receptor    = -11.29 kcal/molUSER        Moving Ligand-Moving Receptor   =  +0.00 kcal/molUSER    (2) Final Total Internal Energy     =  -1.35 kcal/molUSER    (3) Torsional Free Energy           =  +1.49 kcal/molUSER    (4) Unbound System's Energy         =  -1.35 kcal/molUSERUSERREMARK SMILES CC(=O)Nc1cc(-c2nc3cc(C(=O)c4ccc(F)cc4O)ccc3n2C)ccn1REMARK SMILES IDX 8 1 9 2 10 3 11 4 12 5 23 6 24 7 25 8 26 9 27 10 7 11 5 12REMARK SMILES IDX 6 13 30 14 29 15 28 16 4 17 2 18 1 19 3 20 13 22 14 23 15 24REMARK SMILES IDX 16 25 21 26 17 27 20 28 18 29 19 30 22 31REMARK H PARENT 4 21 22 32USER                              x       y       z     vdW  Elec       q    TypeUSER                           _______ _______ _______ _____ _____    ______ ____ROOTATOM      1  C   UNL     1      38.190  44.362  20.316 -0.27 -0.00    +0.141 A  ATOM      2  N   UNL     1      37.556  44.769  19.228 -0.22 +0.03    -0.228 NA ATOM      3  C   UNL     1      38.443  45.537  18.525 -0.32 -0.01    +0.090 A  ATOM      4  C   UNL     1      38.254  46.231  17.323 -0.36 -0.01    +0.042 A  ATOM      5  C   UNL     1      39.337  46.941  16.788 -0.44 -0.01    +0.025 A  ATOM      6  C   UNL     1      40.568  46.992  17.455 -0.51 -0.00    +0.014 A  ATOM      7  C   UNL     1      40.765  46.303  18.657 -0.47 -0.00    +0.029 A  ATOM      8  C   UNL     1      39.678  45.579  19.162 -0.38 -0.00    +0.068 A  ATOM      9  N   UNL     1      39.505  44.793  20.283 -0.16 -0.00    -0.327 N  ATOM     10  C   UNL     1      40.556  44.446  21.212 -0.27 +0.01    +0.152 C  ENDROOTBRANCH   1  11ATOM     11  C   UNL     1      37.563  43.542  21.358 -0.37 +0.00    +0.023 A  ATOM     12  C   UNL     1      36.919  43.107  23.631 -0.29 +0.01    +0.133 A  ATOM     13  C   UNL     1      37.529  43.934  22.699 -0.33 +0.01    +0.059 A  ATOM     14  N   UNL     1      36.319  41.948  23.293 -0.31 -0.01    -0.239 NA ATOM     15  C   UNL     1      36.330  41.599  21.989 -0.47 +0.00    +0.114 A  ATOM     16  C   UNL     1      36.933  42.351  20.999 -0.42 +0.00    +0.032 A  BRANCH  12  17ATOM     17  N   UNL     1      36.856  43.385  24.997 -0.17 -0.01    -0.311 N  ATOM     18  C   UNL     1      36.848  44.613  25.612 -0.25 -0.00    +0.222 C  ATOM     19  C   UNL     1      36.753  44.515  27.114 -0.37 -0.02    +0.114 C  ATOM     20  O   UNL     1      36.943  45.704  25.058 -0.78 -0.04    -0.275 OA ATOM     21  H   UNL     1      36.894  42.543  25.557 +0.12 -0.01    +0.171 HD ENDBRANCH  12  17ENDBRANCH   1  11BRANCH   5  22ATOM     22  C   UNL     1      39.128  47.679  15.523 -0.41 -0.07    +0.196 C  ATOM     23  O   UNL     1      39.791  48.691  15.304 -0.37 +0.11    -0.288 OA BRANCH  22  24ATOM     24  C   UNL     1      38.156  47.226  14.493 -0.42 -0.03    +0.064 A  ATOM     25  C   UNL     1      38.140  45.900  14.035 -0.39 -0.01    +0.019 A  ATOM     26  C   UNL     1      37.208  48.135  13.990 -0.45 -0.07    +0.129 A  ATOM     27  C   UNL     1      37.217  45.509  13.061 -0.45 -0.01    +0.040 A  ATOM     28  C   UNL     1      36.294  47.745  13.015 -0.55 -0.04    +0.086 A  ATOM     29  C   UNL     1      36.309  46.435  12.556 -0.53 -0.06    +0.126 A  ATOM     30  F   UNL     1      35.431  46.050  11.622 -0.19 +0.12    -0.207 F  BRANCH  26  31ATOM     31  O   UNL     1      37.125  49.433  14.419 -0.17 +0.44    -0.507 OA ATOM     32  H   UNL     1      38.036  49.740  14.631 -0.33 -0.29    +0.293 HD ENDBRANCH  26  31ENDBRANCH  22  24ENDBRANCH   5  22TORSDOF 5TERENDMDL