REMARK SMILES Cn1c(-c2ccnc(N)c2F)nc2cc(C(=O)c3ccc(F)cc3O)ccc21
REMARK SMILES IDX 1 1 2 2 3 3 12 4 13 5 14 6 15 7 26 8 27 9 28 10 4 11 5 12
REMARK SMILES IDX 10 13 6 14 8 15 7 16 11 17 9 18 16 21 17 22 18 23 19 24
REMARK SMILES IDX 24 25 20 26 23 27 21 28 22 29 25 30
REMARK H PARENT 9 19 9 20 25 31
ROOT
ATOM      1  C   UNL     1      -3.077  -1.383  -1.675  1.00  0.00     0.152 C 
ATOM      2  N   UNL     1      -2.050  -0.650  -0.972  1.00  0.00    -0.327 N 
ATOM      3  C   UNL     1      -2.223   0.254   0.060  1.00  0.00     0.144 A 
ATOM      4  N   UNL     1      -1.072   0.845   0.337  1.00  0.00    -0.228 NA
ATOM      5  C   UNL     1      -0.131   0.259  -0.464  1.00  0.00     0.090 A 
ATOM      6  C   UNL     1       1.248   0.504  -0.533  1.00  0.00     0.042 A 
ATOM      7  C   UNL     1       2.012  -0.252  -1.432  1.00  0.00     0.025 A 
ATOM      8  C   UNL     1       1.408  -1.195  -2.273  1.00  0.00     0.014 A 
ATOM      9  C   UNL     1       0.032  -1.441  -2.217  1.00  0.00     0.029 A 
ATOM     10  C   UNL     1      -0.709  -0.695  -1.292  1.00  0.00     0.068 A 
ENDROOT
BRANCH   3  11
ATOM     11  C   UNL     1      -3.478   0.584   0.740  1.00  0.00     0.059 A 
ATOM     12  C   UNL     1      -3.757   1.921   1.035  1.00  0.00     0.035 A 
ATOM     13  C   UNL     1      -4.390  -0.382   1.164  1.00  0.00     0.176 A 
ATOM     14  C   UNL     1      -4.933   2.226   1.699  1.00  0.00     0.114 A 
ATOM     15  C   UNL     1      -5.556   0.013   1.823  1.00  0.00     0.160 A 
ATOM     16  N   UNL     1      -5.839   1.302   2.088  1.00  0.00    -0.237 NA
ATOM     17  F   UNL     1      -4.162  -1.687   0.943  1.00  0.00    -0.202 F 
BRANCH  15  18
ATOM     18  N   UNL     1      -6.478  -0.922   2.296  1.00  0.00    -0.381 N 
ATOM     19  H   UNL     1      -6.736  -1.600   1.589  1.00  0.00     0.158 HD
ATOM     20  H   UNL     1      -7.272  -0.414   2.675  1.00  0.00     0.158 HD
ENDBRANCH  15  18
ENDBRANCH   3  11
BRANCH   7  21
ATOM     21  C   UNL     1       3.472  -0.034  -1.559  1.00  0.00     0.196 C 
ATOM     22  O   UNL     1       3.974  -0.015  -2.683  1.00  0.00    -0.288 OA
BRANCH  21  23
ATOM     23  C   UNL     1       4.356   0.178  -0.382  1.00  0.00     0.064 A 
ATOM     24  C   UNL     1       4.027  -0.327   0.884  1.00  0.00     0.019 A 
ATOM     25  C   UNL     1       5.570   0.867  -0.548  1.00  0.00     0.129 A 
ATOM     26  C   UNL     1       4.879  -0.105   1.969  1.00  0.00     0.040 A 
ATOM     27  C   UNL     1       6.416   1.094   0.535  1.00  0.00     0.086 A 
ATOM     28  C   UNL     1       6.061   0.608   1.785  1.00  0.00     0.126 A 
ATOM     29  F   UNL     1       6.871   0.816   2.831  1.00  0.00    -0.207 F 
BRANCH  25  30
ATOM     30  O   UNL     1       5.993   1.348  -1.760  1.00  0.00    -0.507 OA
ATOM     31  H   UNL     1       5.406   0.970  -2.454  1.00  0.00     0.293 HD
ENDBRANCH  25  30
ENDBRANCH  21  23
ENDBRANCH   7  21
TORSDOF 5
