REMARK SMILES CS(=O)(=O)N1CCN(C(=O)c2ccc(-c3nc4ccccc4nc3-c3ccc(CN4CCC(n5c(O)nc6ccccc65)CC4)cc3)cn2)CC1
REMARK SMILES IDX 25 1 26 2 27 3 28 4 46 5 47 6 24 7 15 8 16 9 17 10 23 11
REMARK SMILES IDX 18 12 22 13 19 14 21 15 20 16 14 17 11 18 12 19 49 20 13 21
REMARK SMILES IDX 48 22 9 23 5 24 6 25 51 26 7 27 50 28 8 29 10 30 2 31 1 32
REMARK SMILES IDX 3 33 4 34 29 35 30 36 31 37 45 38 32 39 44 40 33 41 34 42
REMARK SMILES IDX 35 43 43 44 37 45 42 46 38 47 41 48 39 49 40 50 36 51
REMARK H PARENT 36 52
ROOT
ATOM      1  C   UNL     1      -0.260  -1.429   0.468  1.00  0.00     0.002 A 
ATOM      2  C   UNL     1      -0.514  -0.970  -0.833  1.00  0.00     0.011 A 
ATOM      3  C   UNL     1      -1.409   0.082  -1.060  1.00  0.00     0.006 A 
ATOM      4  C   UNL     1      -2.065   0.706   0.011  1.00  0.00    -0.034 A 
ATOM      5  C   UNL     1      -1.811   0.249   1.310  1.00  0.00     0.006 A 
ATOM      6  C   UNL     1      -0.937  -0.818   1.533  1.00  0.00     0.011 A 
ENDROOT
BRANCH   1   7
ATOM      7  C   UNL     1       0.683  -2.526   0.717  1.00  0.00     0.097 A 
ATOM      8  C   UNL     1       2.074  -2.436   0.571  1.00  0.00     0.099 A 
ATOM      9  N   UNL     1       2.861  -3.533   0.761  1.00  0.00    -0.244 NA
ATOM     10  C   UNL     1       2.266  -4.683   1.121  1.00  0.00     0.089 A 
ATOM     11  N   UNL     1       0.082  -3.689   1.092  1.00  0.00    -0.244 NA
ATOM     12  C   UNL     1       3.042  -5.814   1.334  1.00  0.00     0.030 A 
ATOM     13  C   UNL     1       0.868  -4.762   1.296  1.00  0.00     0.089 A 
ATOM     14  C   UNL     1       2.469  -7.023   1.723  1.00  0.00     0.002 A 
ATOM     15  C   UNL     1       0.305  -5.971   1.685  1.00  0.00     0.030 A 
ATOM     16  C   UNL     1       1.094  -7.102   1.900  1.00  0.00     0.002 A 
BRANCH   8  17
ATOM     17  C   UNL     1       2.845  -1.220   0.254  1.00  0.00     0.021 A 
ATOM     18  C   UNL     1       4.513   0.935  -0.281  1.00  0.00     0.128 A 
ATOM     19  C   UNL     1       3.416   1.124   0.549  1.00  0.00     0.035 A 
ATOM     20  N   UNL     1       4.787  -0.251  -0.879  1.00  0.00    -0.250 NA
ATOM     21  C   UNL     1       2.589   0.032   0.827  1.00  0.00     0.014 A 
ATOM     22  C   UNL     1       3.955  -1.284  -0.594  1.00  0.00     0.122 A 
BRANCH  18  23
ATOM     23  C   UNL     1       5.441   2.088  -0.535  1.00  0.00     0.272 C 
ATOM     24  N   UNL     1       9.691   1.551  -1.234  1.00  0.00    -0.199 NA
ATOM     25  C   UNL     1       8.962   0.755  -0.213  1.00  0.00     0.123 C 
ATOM     26  C   UNL     1       8.874   2.547  -1.984  1.00  0.00     0.123 C 
ATOM     27  C   UNL     1       7.483   0.573  -0.584  1.00  0.00     0.136 C 
ATOM     28  C   UNL     1       7.633   2.984  -1.198  1.00  0.00     0.136 C 
ATOM     29  N   UNL     1       6.795   1.855  -0.794  1.00  0.00    -0.335 N 
ATOM     30  O   UNL     1       4.979   3.230  -0.490  1.00  0.00    -0.267 OA
BRANCH  24  31
ATOM     31  S   UNL     1      11.315   1.889  -0.946  1.00  0.00     0.211 S 
ATOM     32  C   UNL     1      11.229   3.189   0.272  1.00  0.00     0.176 C 
ATOM     33  O   UNL     1      11.905   0.728  -0.314  1.00  0.00    -0.213 OA
ATOM     34  O   UNL     1      11.875   2.455  -2.154  1.00  0.00    -0.213 OA
ENDBRANCH  24  31
ENDBRANCH  18  23
ENDBRANCH   8  17
ENDBRANCH   1   7
BRANCH   4  35
ATOM     35  C   UNL     1      -3.022   1.855  -0.238  1.00  0.00     0.120 C 
BRANCH  35  36
ATOM     36  N   UNL     1      -4.462   1.547  -0.223  1.00  0.00    -0.299 NA
ATOM     37  C   UNL     1      -4.985   1.264   1.116  1.00  0.00     0.087 C 
ATOM     38  C   UNL     1      -4.847   0.522  -1.198  1.00  0.00     0.087 C 
ATOM     39  C   UNL     1      -6.511   1.216   1.095  1.00  0.00     0.041 C 
ATOM     40  C   UNL     1      -6.370   0.421  -1.303  1.00  0.00     0.041 C 
ATOM     41  C   UNL     1      -6.995   0.180   0.077  1.00  0.00     0.095 C 
BRANCH  41  42
ATOM     42  N   UNL     1      -8.446   0.069   0.047  1.00  0.00    -0.291 N 
ATOM     43  C   UNL     1      -9.151  -1.030   0.464  1.00  0.00     0.295 A 
ATOM     44  C   UNL     1      -9.371   1.006  -0.359  1.00  0.00     0.072 A 
ATOM     45  N   UNL     1     -10.441  -0.898   0.337  1.00  0.00    -0.195 NA
ATOM     46  C   UNL     1      -9.280   2.315  -0.852  1.00  0.00     0.029 A 
ATOM     47  C   UNL     1     -10.602   0.367  -0.176  1.00  0.00     0.092 A 
ATOM     48  C   UNL     1     -10.476   2.967  -1.177  1.00  0.00     0.002 A 
ATOM     49  C   UNL     1     -11.789   1.040  -0.506  1.00  0.00     0.031 A 
ATOM     50  C   UNL     1     -11.712   2.343  -1.010  1.00  0.00     0.002 A 
BRANCH  43  51
ATOM     51  O   UNL     1      -8.611  -2.124   0.965  1.00  0.00    -0.480 OA
ATOM     52  H   UNL     1      -9.404  -2.654   1.167  1.00  0.00     0.296 HD
ENDBRANCH  43  51
ENDBRANCH  41  42
ENDBRANCH  35  36
ENDBRANCH   4  35
TORSDOF 8
