MODEL        6USER    Run = 6USERUSER    Estimated Free Energy of Binding    = -13.28 kcal/mol  [=(1)+(2)+(3)-(4)]USERUSER    (1) Final Intermolecular Energy     = -15.66 kcal/molUSER        vdW + Hbond + desolv Energy     = -15.67 kcal/molUSER        Electrostatic Energy            =  +0.01 kcal/molUSER        Moving Ligand-Fixed Receptor    = -15.66 kcal/molUSER        Moving Ligand-Moving Receptor   =  +0.00 kcal/molUSER    (2) Final Total Internal Energy     =  -1.52 kcal/molUSER    (3) Torsional Free Energy           =  +2.39 kcal/molUSER    (4) Unbound System's Energy         =  -1.52 kcal/molUSERUSERREMARK SMILES CS(=O)(=O)N1CCN(C(=O)c2ccc(-c3nc4ccccc4nc3-c3ccc(CN4CCC(n5c(O)nc6ccccc65)CC4)cc3)cn2)CC1REMARK SMILES IDX 25 1 26 2 27 3 28 4 46 5 47 6 24 7 15 8 16 9 17 10 23 11REMARK SMILES IDX 18 12 22 13 19 14 21 15 20 16 14 17 11 18 12 19 49 20 13 21REMARK SMILES IDX 48 22 9 23 5 24 6 25 51 26 7 27 50 28 8 29 10 30 2 31 1 32REMARK SMILES IDX 3 33 4 34 29 35 30 36 31 37 45 38 32 39 44 40 33 41 34 42REMARK SMILES IDX 35 43 43 44 37 45 42 46 38 47 41 48 39 49 40 50 36 51REMARK H PARENT 36 52USER                              x       y       z     vdW  Elec       q    TypeUSER                           _______ _______ _______ _____ _____    ______ ____ROOTATOM      1  C   UNL     1      39.329  45.468  19.328 -0.41 -0.00    +0.002 A  ATOM      2  C   UNL     1      38.288  44.774  19.963 -0.35 -0.00    +0.011 A  ATOM      3  C   UNL     1      38.492  44.149  21.198 -0.34 +0.00    +0.006 A  ATOM      4  C   UNL     1      39.741  44.210  21.833 -0.26 -0.00    -0.034 A  ATOM      5  C   UNL     1      40.780  44.904  21.200 -0.31 +0.00    +0.006 A  ATOM      6  C   UNL     1      40.582  45.506  19.955 -0.40 +0.00    +0.011 A  ENDROOTBRANCH   1   7ATOM      7  C   UNL     1      39.122  46.134  18.037 -0.35 -0.02    +0.097 A  ATOM      8  C   UNL     1      38.006  45.951  17.209 -0.32 -0.03    +0.099 A  ATOM      9  N   UNL     1      37.938  46.565  15.994 -0.21 +0.11    -0.244 NA ATOM     10  C   UNL     1      38.953  47.369  15.635 -0.41 -0.03    +0.089 A  ATOM     11  N   UNL     1      40.145  46.958  17.677 -0.32 +0.04    -0.244 NA ATOM     12  C   UNL     1      38.907  48.018  14.409 -0.49 -0.01    +0.030 A  ATOM     13  C   UNL     1      40.061  47.575  16.484 -0.45 -0.02    +0.089 A  ATOM     14  C   UNL     1      39.930  48.873  14.002 -0.12 -0.00    +0.002 A  ATOM     15  C   UNL     1      41.076  48.429  16.071 -0.52 -0.00    +0.030 A  ATOM     16  C   UNL     1      41.019  49.080  14.838 -0.63 -0.00    +0.002 A  BRANCH   8  17ATOM     17  C   UNL     1      36.804  45.157  17.523 -0.33 -0.01    +0.021 A  ATOM     18  C   UNL     1      34.540  43.776  18.350 -0.24 -0.03    +0.128 A  ATOM     19  C   UNL     1      35.597  43.065  17.798 -0.32 -0.01    +0.035 A  ATOM     20  N   UNL     1      34.545  45.127  18.468 -0.23 +0.10    -0.250 NA ATOM     21  C   UNL     1      36.740  43.764  17.398 -0.23 -0.00    +0.014 A  ATOM     22  C   UNL     1      35.667  45.771  18.058 -0.23 -0.06    +0.122 A  BRANCH  18  23ATOM     23  C   UNL     1      33.334  43.027  18.839 -0.25 -0.04    +0.272 C  ATOM     24  N   UNL     1      30.272  41.529  16.153 -0.26 +0.08    -0.199 NA ATOM     25  C   UNL     1      30.900  42.861  15.954 -0.32 -0.06    +0.123 C  ATOM     26  C   UNL     1      30.750  40.757  17.335 -0.32 -0.02    +0.123 C  ATOM     27  C   UNL     1      32.333  42.901  16.505 -0.28 -0.06    +0.136 C  ATOM     28  C   UNL     1      31.327  41.668  18.423 -0.22 -0.02    +0.136 C  ATOM     29  N   UNL     1      32.398  42.531  17.926 -0.10 +0.08    -0.335 N  ATOM     30  O   UNL     1      33.191  42.881  20.055 -0.78 -0.06    -0.267 OA BRANCH  24  31ATOM     31  S   UNL     1      28.676  41.338  15.652 -0.37 -0.08    +0.211 S  ATOM     32  C   UNL     1      27.878  40.733  17.128 -0.20 +0.00    +0.176 C  ATOM     33  O   UNL     1      28.140  42.651  15.365 -0.19 +0.17    -0.213 OA ATOM     34  O   UNL     1      28.640  40.278  14.668 -0.37 +0.06    -0.213 OA ENDBRANCH  24  31ENDBRANCH  18  23ENDBRANCH   8  17ENDBRANCH   1   7BRANCH   4  35ATOM     35  C   UNL     1      39.954  43.544  23.178 -0.22 +0.01    +0.120 C  BRANCH  35  36ATOM     36  N   UNL     1      39.112  44.001  24.296 -0.06 -0.01    -0.299 NA ATOM     37  C   UNL     1      38.496  42.906  25.050 -0.25 +0.00    +0.087 C  ATOM     38  C   UNL     1      38.137  45.025  23.908 -0.29 +0.01    +0.087 C  ATOM     39  C   UNL     1      37.862  43.431  26.335 -0.29 -0.00    +0.041 C  ATOM     40  C   UNL     1      37.465  45.627  25.144 -0.31 +0.00    +0.041 C  ATOM     41  C   UNL     1      36.844  44.528  26.015 -0.34 -0.01    +0.095 C  BRANCH  41  42ATOM     42  N   UNL     1      36.182  45.036  27.208 -0.15 +0.08    -0.291 N  ATOM     43  C   UNL     1      35.414  44.278  28.053 -0.31 -0.08    +0.295 A  ATOM     44  C   UNL     1      36.210  46.311  27.728 +0.00 -0.02    +0.072 A  ATOM     45  N   UNL     1      34.922  44.954  29.053 -0.36 +0.05    -0.195 NA ATOM     46  C   UNL     1      36.834  47.506  27.346 -0.32 -0.01    +0.029 A  ATOM     47  C   UNL     1      35.406  46.227  28.870 -0.24 -0.02    +0.092 A  ATOM     48  C   UNL     1      36.611  48.635  28.144 -0.29 -0.00    +0.002 A  ATOM     49  C   UNL     1      35.197  47.371  29.658 -0.30 -0.01    +0.031 A  ATOM     50  C   UNL     1      35.806  48.573  29.281 -0.30 -0.00    +0.002 A  BRANCH  43  51ATOM     51  O   UNL     1      35.188  42.987  27.910 -0.22 +0.15    -0.480 OA ATOM     52  H   UNL     1      35.648  42.624  28.689 -0.30 -0.21    +0.296 HD ENDBRANCH  43  51ENDBRANCH  41  42ENDBRANCH  35  36ENDBRANCH   4  35TORSDOF 8TERENDMDL