MODEL        6USER    Run = 6USERUSER    Estimated Free Energy of Binding    =  -9.81 kcal/mol  [=(1)+(2)+(3)-(4)]USERUSER    (1) Final Intermolecular Energy     = -12.50 kcal/molUSER        vdW + Hbond + desolv Energy     = -12.04 kcal/molUSER        Electrostatic Energy            =  -0.45 kcal/molUSER        Moving Ligand-Fixed Receptor    = -12.50 kcal/molUSER        Moving Ligand-Moving Receptor   =  +0.00 kcal/molUSER    (2) Final Total Internal Energy     =  -4.84 kcal/molUSER    (3) Torsional Free Energy           =  +2.68 kcal/molUSER    (4) Unbound System's Energy         =  -4.84 kcal/molUSERUSERREMARK SMILES O=C(c1ccc(-c2nc3ccccc3nc2-c2ccc(CN3CCC(n4c(O)nc5ccccc54)CC3)cc2)c(-n2cccn2)c1)N1CC(O)C1REMARK SMILES IDX 17 1 18 2 19 3 20 4 38 5 39 6 16 7 7 8 8 9 9 10 15 11 10 12REMARK SMILES IDX 14 13 11 14 13 15 12 16 6 17 3 18 4 19 46 20 5 21 40 22 2 23REMARK SMILES IDX 47 24 48 25 51 26 49 27 1 28 50 29 41 31 42 32 45 33 43 34REMARK SMILES IDX 44 35 21 36 22 37 23 38 37 39 24 40 36 41 25 42 26 43 27 44REMARK SMILES IDX 35 45 29 46 34 47 30 48 33 49 31 50 32 51 28 52REMARK H PARENT 50 30 28 53USER                              x       y       z     vdW  Elec       q    TypeUSER                           _______ _______ _______ _____ _____    ______ ____ROOTATOM      1  C   UNL     1      38.860  44.071  24.947 -0.18 +0.00    +0.002 A  ATOM      2  C   UNL     1      40.033  43.378  25.283 -0.17 +0.00    +0.011 A  ATOM      3  C   UNL     1      40.874  42.866  24.289 -0.19 -0.00    +0.006 A  ATOM      4  C   UNL     1      40.567  43.050  22.934 -0.26 -0.00    -0.034 A  ATOM      5  C   UNL     1      39.395  43.738  22.593 -0.26 +0.00    +0.006 A  ATOM      6  C   UNL     1      38.547  44.231  23.589 -0.26 +0.00    +0.011 A  ENDROOTBRANCH   1   7ATOM      7  C   UNL     1      37.967  44.614  25.977 -0.20 -0.00    +0.097 A  ATOM      8  C   UNL     1      38.188  45.820  26.659 -0.22 -0.01    +0.099 A  ATOM      9  N   UNL     1      37.319  46.260  27.609 -0.20 +0.04    -0.244 NA ATOM     10  C   UNL     1      36.244  45.494  27.869 -0.27 -0.02    +0.089 A  ATOM     11  N   UNL     1      36.877  43.845  26.237 -0.19 +0.02    -0.244 NA ATOM     12  C   UNL     1      35.332  45.900  28.834 -0.29 -0.01    +0.030 A  ATOM     13  C   UNL     1      36.022  44.281  27.179 -0.34 -0.02    +0.089 A  ATOM     14  C   UNL     1      34.205  45.136  29.134 -0.41 -0.00    +0.002 A  ATOM     15  C   UNL     1      34.896  43.527  27.484 -0.56 -0.01    +0.030 A  ATOM     16  C   UNL     1      33.985  43.944  28.457 -0.50 -0.00    +0.002 A  BRANCH   8  17ATOM     17  C   UNL     1      39.291  46.755  26.382 -0.20 +0.00    +0.028 A  ATOM     18  C   UNL     1      41.529  48.282  25.545 -0.24 +0.00    +0.042 A  ATOM     19  C   UNL     1      41.707  46.970  25.963 -0.11 +0.00    +0.015 A  ATOM     20  C   UNL     1      40.257  48.857  25.586 -0.25 +0.01    +0.043 A  ATOM     21  C   UNL     1      40.601  46.214  26.354 -0.12 +0.00    +0.013 A  ATOM     22  C   UNL     1      39.132  48.115  26.017 -0.23 +0.01    +0.075 A  BRANCH  18  23ATOM     23  C   UNL     1      42.715  49.044  25.083 -0.26 +0.04    +0.254 C  ATOM     24  N   UNL     1      43.783  49.139  25.950 -0.14 -0.02    -0.333 N  ATOM     25  C   UNL     1      43.742  49.221  27.410 -0.06 -0.00    +0.153 C  ATOM     26  C   UNL     1      44.837  50.146  25.836 -0.20 +0.01    +0.153 C  ATOM     27  C   UNL     1      45.108  49.924  27.335 -0.12 +0.00    +0.153 C  ATOM     28  O   UNL     1      42.695  49.574  23.975 -0.82 -0.12    -0.269 OA BRANCH  27  29ATOM     29  O   UNL     1      45.270  51.109  28.144 -0.10 -0.02    -0.389 OA ATOM     30  H   UNL     1      44.369  51.453  28.268 -0.36 +0.00    +0.211 HD ENDBRANCH  27  29ENDBRANCH  18  23BRANCH  22  31ATOM     31  N   UNL     1      37.884  48.818  26.062 -0.20 -0.01    -0.240 N  ATOM     32  C   UNL     1      37.519  49.938  26.783 -0.12 +0.02    +0.115 A  ATOM     33  N   UNL     1      36.868  48.442  25.230 -0.49 -0.01    -0.177 NA ATOM     34  C   UNL     1      36.211  50.228  26.471 -0.35 +0.00    +0.042 A  ATOM     35  C   UNL     1      35.863  49.272  25.511 -0.36 -0.02    +0.135 A  ENDBRANCH  22  31ENDBRANCH   8  17ENDBRANCH   1   7BRANCH   4  36ATOM     36  C   UNL     1      41.476  42.483  21.861 -0.00 -0.00    +0.120 C  BRANCH  36  37ATOM     37  N   UNL     1      42.511  43.434  21.424 -0.18 -0.04    -0.299 NA ATOM     38  C   UNL     1      42.049  44.830  21.463 -0.29 +0.02    +0.087 C  ATOM     39  C   UNL     1      43.800  43.199  22.076 -0.26 +0.02    +0.087 C  ATOM     40  C   UNL     1      43.142  45.824  21.853 -0.28 +0.01    +0.041 C  ATOM     41  C   UNL     1      43.987  43.957  23.389 -0.18 +0.01    +0.041 C  ATOM     42  C   UNL     1      43.667  45.455  23.248 -0.13 +0.02    +0.095 C  BRANCH  42  43ATOM     43  N   UNL     1      44.742  46.322  23.712 -0.04 -0.09    -0.291 N  ATOM     44  C   UNL     1      45.477  47.176  22.921 -0.12 +0.16    +0.295 A  ATOM     45  C   UNL     1      45.254  46.413  24.992 -0.03 +0.01    +0.072 A  ATOM     46  N   UNL     1      46.452  47.747  23.576 -0.10 -0.07    -0.195 NA ATOM     47  C   UNL     1      44.919  45.828  26.221 -0.01 +0.00    +0.029 A  ATOM     48  C   UNL     1      46.326  47.299  24.864 -0.05 +0.02    +0.092 A  ATOM     49  C   UNL     1      45.706  46.160  27.330 -0.00 +0.00    +0.002 A  ATOM     50  C   UNL     1      47.103  47.618  25.988 -0.03 +0.00    +0.031 A  ATOM     51  C   UNL     1      46.781  47.041  27.221 -0.01 +0.00    +0.002 A  BRANCH  44  52ATOM     52  O   UNL     1      45.258  47.417  21.639 -0.70 -0.47    -0.480 OA ATOM     53  H   UNL     1      44.731  48.227  21.576 -0.41 +0.07    +0.296 HD ENDBRANCH  44  52ENDBRANCH  42  43ENDBRANCH  36  37ENDBRANCH   4  36TORSDOF 9TERENDMDL