MODEL        5USER    Run = 5USERUSER    Estimated Free Energy of Binding    = -12.28 kcal/mol  [=(1)+(2)+(3)-(4)]USERUSER    (1) Final Intermolecular Energy     = -14.37 kcal/molUSER        vdW + Hbond + desolv Energy     = -14.36 kcal/molUSER        Electrostatic Energy            =  -0.01 kcal/molUSER        Moving Ligand-Fixed Receptor    = -14.37 kcal/molUSER        Moving Ligand-Moving Receptor   =  +0.00 kcal/molUSER    (2) Final Total Internal Energy     =  -1.99 kcal/molUSER    (3) Torsional Free Energy           =  +2.09 kcal/molUSER    (4) Unbound System's Energy         =  -1.99 kcal/molUSERUSERREMARK SMILES O=C(c1ccc(-c2nc3nccnc3nc2-c2ccc(CN3CCC(n4c(O)nc5ccccc54)CC3)cc2)cc1)N1CCS(=O)(=O)CC1REMARK SMILES IDX 17 1 18 2 19 3 20 4 38 5 39 6 16 7 7 8 8 9 9 10 15 11 10 12REMARK SMILES IDX 14 13 11 14 13 15 12 16 6 17 3 18 4 19 41 20 5 21 40 22 2 23REMARK SMILES IDX 42 24 43 25 49 26 44 27 48 28 45 29 1 30 46 31 47 32 21 33REMARK SMILES IDX 22 34 23 35 37 36 24 37 36 38 25 39 26 40 27 41 35 42 29 43REMARK SMILES IDX 34 44 30 45 33 46 31 47 32 48 28 49REMARK H PARENT 28 50USER                              x       y       z     vdW  Elec       q    TypeUSER                           _______ _______ _______ _____ _____    ______ ____ROOTATOM      1  C   UNL     1      40.642  45.597  19.843 -0.41 +0.00    +0.002 A  ATOM      2  C   UNL     1      40.563  46.222  21.104 -0.04 +0.00    +0.011 A  ATOM      3  C   UNL     1      40.940  45.565  22.280 -0.24 +0.00    +0.006 A  ATOM      4  C   UNL     1      41.422  44.254  22.232 -0.24 -0.00    -0.034 A  ATOM      5  C   UNL     1      41.514  43.619  20.988 -0.30 +0.00    +0.006 A  ATOM      6  C   UNL     1      41.114  44.275  19.817 -0.32 +0.00    +0.011 A  ENDROOTBRANCH   1   7ATOM      7  C   UNL     1      40.181  46.316  18.633 -0.37 -0.01    +0.099 A  ATOM      8  C   UNL     1      38.906  46.240  18.054 -0.31 -0.02    +0.099 A  ATOM      9  N   UNL     1      38.576  46.991  16.967 -0.26 +0.08    -0.223 NA ATOM     10  C   UNL     1      39.516  47.771  16.432 -0.33 -0.07    +0.198 A  ATOM     11  N   UNL     1      41.133  47.120  18.082 -0.37 +0.02    -0.223 NA ATOM     12  N   UNL     1      39.196  48.481  15.340 -0.33 +0.11    -0.232 NA ATOM     13  C   UNL     1      40.821  47.832  16.995 -0.36 -0.03    +0.198 A  ATOM     14  C   UNL     1      40.170  49.245  14.803 -0.28 -0.05    +0.134 A  ATOM     15  N   UNL     1      41.774  48.598  16.446 -0.68 -0.02    -0.232 NA ATOM     16  C   UNL     1      41.434  49.302  15.346 -0.48 -0.01    +0.134 A  BRANCH   8  17ATOM     17  C   UNL     1      37.816  45.343  18.469 -0.34 -0.00    +0.002 A  ATOM     18  C   UNL     1      35.744  43.555  19.102 -0.35 -0.01    +0.040 A  ATOM     19  C   UNL     1      35.468  44.690  18.337 -0.34 -0.00    +0.014 A  ATOM     20  C   UNL     1      37.030  43.327  19.595 -0.24 -0.00    +0.014 A  ATOM     21  C   UNL     1      36.504  45.566  18.009 -0.29 -0.00    +0.011 A  ATOM     22  C   UNL     1      38.060  44.216  19.275 -0.32 -0.00    +0.011 A  BRANCH  18  23ATOM     23  C   UNL     1      34.668  42.597  19.423 -0.30 -0.02    +0.253 C  ATOM     24  N   UNL     1      33.697  42.313  18.459 -0.16 +0.06    -0.337 N  ATOM     25  C   UNL     1      32.559  41.499  18.897 -0.35 -0.01    +0.136 C  ATOM     26  C   UNL     1      33.723  42.768  17.063 -0.33 -0.05    +0.136 C  ATOM     27  C   UNL     1      31.683  40.990  17.773 -0.31 -0.04    +0.158 C  ATOM     28  C   UNL     1      32.439  43.476  16.698 -0.27 -0.06    +0.158 C  ATOM     29  S   UNL     1      31.063  42.352  16.815 -0.36 -0.05    +0.153 S  ATOM     30  O   UNL     1      34.673  42.092  20.543 -0.33 -0.03    -0.269 OA ATOM     31  O   UNL     1      30.020  43.002  17.584 -0.17 +0.04    -0.229 OA ATOM     32  O   UNL     1      30.791  41.848  15.481 -0.29 +0.13    -0.229 OA ENDBRANCH  18  23ENDBRANCH   8  17ENDBRANCH   1   7BRANCH   4  33ATOM     33  C   UNL     1      41.810  43.521  23.497 -0.20 +0.00    +0.120 C  BRANCH  33  34ATOM     34  N   UNL     1      40.671  42.864  24.167 -0.10 -0.00    -0.299 NA ATOM     35  C   UNL     1      39.418  43.541  23.793 -0.22 +0.00    +0.087 C  ATOM     36  C   UNL     1      40.862  42.734  25.618 -0.15 -0.00    +0.087 C  ATOM     37  C   UNL     1      38.257  43.179  24.719 -0.29 +0.00    +0.041 C  ATOM     38  C   UNL     1      40.059  43.744  26.435 -0.16 -0.00    +0.041 C  ATOM     39  C   UNL     1      38.558  43.557  26.180 -0.20 -0.00    +0.095 C  BRANCH  39  40ATOM     40  N   UNL     1      37.808  44.697  26.698 -0.13 +0.02    -0.291 N  ATOM     41  C   UNL     1      36.842  44.691  27.667 -0.22 -0.06    +0.295 A  ATOM     42  C   UNL     1      37.889  45.994  26.226 -0.26 -0.00    +0.072 A  ATOM     43  N   UNL     1      36.299  45.860  27.865 -0.26 +0.05    -0.195 NA ATOM     44  C   UNL     1      38.666  46.617  25.239 -0.25 +0.00    +0.029 A  ATOM     45  C   UNL     1      36.937  46.689  26.976 -0.28 -0.02    +0.092 A  ATOM     46  C   UNL     1      38.458  47.984  25.026 -0.38 +0.00    +0.002 A  ATOM     47  C   UNL     1      36.747  48.060  26.748 -0.36 -0.00    +0.031 A  ATOM     48  C   UNL     1      37.513  48.697  25.764 -0.40 +0.00    +0.002 A  BRANCH  41  49ATOM     49  O   UNL     1      36.458  43.634  28.353 -0.07 +0.17    -0.480 OA ATOM     50  H   UNL     1      36.267  44.039  29.218 -0.33 -0.13    +0.296 HD ENDBRANCH  41  49ENDBRANCH  39  40ENDBRANCH  33  34ENDBRANCH   4  33TORSDOF 7TERENDMDL