REMARK SMILES O=C(c1ccc(-c2nc3ccccc3nc2-c2ccc(CN3CCC(n4c(O)nc5ccccc54)CC3)cc2)c(-n2cccn2)c1)N1CC(O)C1
REMARK SMILES IDX 17 1 18 2 19 3 20 4 38 5 39 6 16 7 7 8 8 9 9 10 15 11 10 12
REMARK SMILES IDX 14 13 11 14 13 15 12 16 6 17 3 18 4 19 46 20 5 21 40 22 2 23
REMARK SMILES IDX 47 24 48 25 51 26 49 27 1 28 50 29 41 31 42 32 45 33 43 34
REMARK SMILES IDX 44 35 21 36 22 37 23 38 37 39 24 40 36 41 25 42 26 43 27 44
REMARK SMILES IDX 35 45 29 46 34 47 30 48 33 49 31 50 32 51 28 52
REMARK H PARENT 50 30 28 53
ROOT
ATOM      1  C   UNL     1      -0.742  -1.414  -0.226  1.00  0.00     0.002 A 
ATOM      2  C   UNL     1      -0.482  -0.639   0.915  1.00  0.00     0.011 A 
ATOM      3  C   UNL     1       0.557   0.298   0.924  1.00  0.00     0.006 A 
ATOM      4  C   UNL     1       1.351   0.491  -0.214  1.00  0.00    -0.034 A 
ATOM      5  C   UNL     1       1.098  -0.283  -1.354  1.00  0.00     0.006 A 
ATOM      6  C   UNL     1       0.072  -1.232  -1.354  1.00  0.00     0.011 A 
ENDROOT
BRANCH   1   7
ATOM      7  C   UNL     1      -1.828  -2.400  -0.252  1.00  0.00     0.097 A 
ATOM      8  C   UNL     1      -3.192  -2.076  -0.197  1.00  0.00     0.099 A 
ATOM      9  N   UNL     1      -4.146  -3.045  -0.220  1.00  0.00    -0.244 NA
ATOM     10  C   UNL     1      -3.732  -4.323  -0.296  1.00  0.00     0.089 A 
ATOM     11  N   UNL     1      -1.412  -3.691  -0.335  1.00  0.00    -0.244 NA
ATOM     12  C   UNL     1      -4.669  -5.347  -0.317  1.00  0.00     0.030 A 
ATOM     13  C   UNL     1      -2.357  -4.647  -0.354  1.00  0.00     0.089 A 
ATOM     14  C   UNL     1      -4.282  -6.684  -0.394  1.00  0.00     0.002 A 
ATOM     15  C   UNL     1      -1.981  -5.982  -0.432  1.00  0.00     0.030 A 
ATOM     16  C   UNL     1      -2.932  -7.004  -0.452  1.00  0.00     0.002 A 
BRANCH   8  17
ATOM     17  C   UNL     1      -3.734  -0.707  -0.194  1.00  0.00     0.028 A 
ATOM     18  C   UNL     1      -4.949   1.828  -0.565  1.00  0.00     0.042 A 
ATOM     19  C   UNL     1      -4.058   1.345  -1.514  1.00  0.00     0.015 A 
ATOM     20  C   UNL     1      -5.203   1.085   0.590  1.00  0.00     0.043 A 
ATOM     21  C   UNL     1      -3.478   0.088  -1.340  1.00  0.00     0.013 A 
ATOM     22  C   UNL     1      -4.593  -0.175   0.799  1.00  0.00     0.075 A 
BRANCH  18  23
ATOM     23  C   UNL     1      -5.592   3.144  -0.803  1.00  0.00     0.254 C 
ATOM     24  N   UNL     1      -6.934   3.255  -0.506  1.00  0.00    -0.333 N 
ATOM     25  C   UNL     1      -7.965   2.226  -0.637  1.00  0.00     0.153 C 
ATOM     26  C   UNL     1      -7.798   4.312  -1.030  1.00  0.00     0.153 C 
ATOM     27  C   UNL     1      -8.986   3.369  -0.763  1.00  0.00     0.153 C 
ATOM     28  O   UNL     1      -4.924   4.063  -1.270  1.00  0.00    -0.269 OA
BRANCH  27  29
ATOM     29  O   UNL     1      -9.964   3.249  -1.817  1.00  0.00    -0.389 OA
ATOM     30  H   UNL     1     -10.550   2.526  -1.535  1.00  0.00     0.211 HD
ENDBRANCH  27  29
ENDBRANCH  18  23
BRANCH  22  31
ATOM     31  N   UNL     1      -4.891  -0.829   2.039  1.00  0.00    -0.240 N 
ATOM     32  C   UNL     1      -4.215  -1.836   2.699  1.00  0.00     0.115 A 
ATOM     33  N   UNL     1      -5.943  -0.395   2.794  1.00  0.00    -0.177 NA
ATOM     34  C   UNL     1      -4.903  -2.111   3.858  1.00  0.00     0.042 A 
ATOM     35  C   UNL     1      -5.958  -1.193   3.861  1.00  0.00     0.135 A 
ENDBRANCH  22  31
ENDBRANCH   8  17
ENDBRANCH   1   7
BRANCH   4  36
ATOM     36  C   UNL     1       2.483   1.499  -0.194  1.00  0.00     0.120 C 
BRANCH  36  37
ATOM     37  N   UNL     1       3.633   1.056   0.610  1.00  0.00    -0.299 NA
ATOM     38  C   UNL     1       4.261  -0.162   0.075  1.00  0.00     0.087 C 
ATOM     39  C   UNL     1       4.566   2.145   0.903  1.00  0.00     0.087 C 
ATOM     40  C   UNL     1       5.778  -0.196   0.255  1.00  0.00     0.041 C 
ATOM     41  C   UNL     1       5.664   2.331  -0.143  1.00  0.00     0.041 C 
ATOM     42  C   UNL     1       6.387   1.013  -0.469  1.00  0.00     0.095 C 
BRANCH  42  43
ATOM     43  N   UNL     1       7.835   1.101  -0.336  1.00  0.00    -0.291 N 
ATOM     44  C   UNL     1       8.739   1.026  -1.372  1.00  0.00     0.295 A 
ATOM     45  C   UNL     1       8.565   1.221   0.831  1.00  0.00     0.072 A 
ATOM     46  N   UNL     1       9.976   1.020  -0.955  1.00  0.00    -0.195 NA
ATOM     47  C   UNL     1       8.227   1.368   2.183  1.00  0.00     0.029 A 
ATOM     48  C   UNL     1       9.894   1.152   0.406  1.00  0.00     0.092 A 
ATOM     49  C   UNL     1       9.276   1.439   3.108  1.00  0.00     0.002 A 
ATOM     50  C   UNL     1      10.931   1.224   1.349  1.00  0.00     0.031 A 
ATOM     51  C   UNL     1      10.608   1.370   2.702  1.00  0.00     0.002 A 
BRANCH  44  52
ATOM     52  O   UNL     1       8.432   0.962  -2.657  1.00  0.00    -0.480 OA
ATOM     53  H   UNL     1       7.703   1.579  -2.818  1.00  0.00     0.296 HD
ENDBRANCH  44  52
ENDBRANCH  42  43
ENDBRANCH  36  37
ENDBRANCH   4  36
TORSDOF 9
