MODEL        7USER    Run = 7USERUSER    Estimated Free Energy of Binding    =  -8.25 kcal/mol  [=(1)+(2)+(3)-(4)]USERUSER    (1) Final Intermolecular Energy     = -11.23 kcal/molUSER        vdW + Hbond + desolv Energy     = -11.20 kcal/molUSER        Electrostatic Energy            =  -0.03 kcal/molUSER        Moving Ligand-Fixed Receptor    = -11.23 kcal/molUSER        Moving Ligand-Moving Receptor   =  +0.00 kcal/molUSER    (2) Final Total Internal Energy     =  -2.60 kcal/molUSER    (3) Torsional Free Energy           =  +2.98 kcal/molUSER    (4) Unbound System's Energy         =  -2.60 kcal/molUSERUSERREMARK SMILES C[C@H]1C[C@@H]1Nc1ccc(F)nc1-c1n[nH]cc1C(=O)N(CCC(F)(F)F)Cc1ccc2c(c1)OCO2REMARK SMILES IDX 18 1 19 2 17 3 13 4 14 5 15 6 16 7 12 9 6 10 7 11 8 12 11 13REMARK SMILES IDX 9 14 10 15 5 16 4 18 2 19 3 20 1 21 20 22 21 23 22 24 23 25REMARK SMILES IDX 24 26 25 27 26 28 27 29 28 30 29 31 33 32 30 33 32 34 31 35REMARK SMILES IDX 34 36 36 37 35 38REMARK H PARENT 15 8 5 17USER                              x       y       z     vdW  Elec       q    TypeUSER                           _______ _______ _______ _____ _____    ______ ____ROOTATOM      1  C   UNL     1      40.542  45.356  18.476 -0.34 -0.00    +0.258 C  ATOM      2  O   UNL     1      40.997  44.255  18.170 -0.26 -0.01    -0.269 OA ENDROOTBRANCH   1   3ATOM      3  C   UNL     1      41.361  46.542  18.307 -0.46 -0.00    +0.087 A  ATOM      4  C   UNL     1      41.282  47.534  17.279 -0.30 -0.01    +0.125 A  ATOM      5  N   UNL     1      42.155  48.535  17.529 -0.47 -0.02    -0.173 NA ATOM      6  N   UNL     1      42.758  48.183  18.677 -0.31 -0.00    -0.284 N  ATOM      7  C   UNL     1      42.318  47.003  19.187 -0.44 +0.01    +0.119 A  ATOM      8  H   UNL     1      43.459  48.808  19.065 -0.50 -0.04    +0.189 HD BRANCH   4   9ATOM      9  C   UNL     1      40.388  47.529  16.098 -0.43 -0.02    +0.118 A  ATOM     10  C   UNL     1      40.047  48.706  15.393 -0.53 -0.02    +0.063 A  ATOM     11  C   UNL     1      39.121  48.576  14.352 -0.40 -0.01    +0.033 A  ATOM     12  C   UNL     1      38.610  47.328  14.015 -0.41 -0.02    +0.062 A  ATOM     13  N   UNL     1      39.914  46.298  15.759 -0.28 +0.03    -0.216 NA ATOM     14  C   UNL     1      39.043  46.233  14.737 -0.26 -0.05    +0.213 A  ATOM     15  F   UNL     1      38.572  45.022  14.407 -0.07 +0.05    -0.185 F  BRANCH  10  16ATOM     16  N   UNL     1      40.577  49.993  15.698 -0.31 +0.15    -0.380 N  ATOM     17  H   UNL     1      41.091  49.887  16.590 +0.07 -0.02    +0.160 HD BRANCH  16  18ATOM     18  C   UNL     1      41.429  50.692  14.706 -0.39 -0.03    +0.082 C  ATOM     19  C   UNL     1      42.458  49.874  13.956 -0.68 -0.00    +0.010 C  ATOM     20  C   UNL     1      42.892  51.024  14.820 -0.20 -0.00    +0.030 C  ATOM     21  C   UNL     1      42.556  49.962  12.470 -0.59 -0.00    +0.010 C  ENDBRANCH  16  18ENDBRANCH  10  16ENDBRANCH   4   9ENDBRANCH   1   3BRANCH   1  22ATOM     22  N   UNL     1      39.242  45.531  18.960 -0.20 +0.03    -0.334 N  BRANCH  22  23ATOM     23  C   UNL     1      38.035  45.600  18.126 -0.33 -0.03    +0.129 C  BRANCH  23  24ATOM     24  C   UNL     1      37.839  44.360  17.264 -0.28 -0.03    +0.137 C  BRANCH  24  25ATOM     25  C   UNL     1      36.374  44.159  16.973 -0.13 -0.13    +0.390 C  ATOM     26  F   UNL     1      36.186  43.080  16.184 -0.16 +0.06    -0.171 F  ATOM     27  F   UNL     1      35.669  43.967  18.110 -0.06 +0.05    -0.171 F  ATOM     28  F   UNL     1      35.852  45.229  16.336 -0.06 +0.09    -0.171 F  ENDBRANCH  24  25ENDBRANCH  23  24ENDBRANCH  22  23BRANCH  22  29ATOM     29  C   UNL     1      39.081  45.740  20.398 -0.16 +0.00    +0.155 C  BRANCH  29  30ATOM     30  C   UNL     1      38.569  44.506  21.105 -0.34 -0.00    -0.025 A  ATOM     31  C   UNL     1      39.315  43.937  22.165 -0.27 +0.00    +0.009 A  ATOM     32  C   UNL     1      37.358  43.911  20.713 -0.35 -0.00    +0.056 A  ATOM     33  C   UNL     1      38.866  42.791  22.830 -0.27 +0.00    +0.051 A  ATOM     34  C   UNL     1      36.942  42.782  21.387 -0.33 +0.01    +0.166 A  ATOM     35  C   UNL     1      37.675  42.237  22.417 -0.32 +0.01    +0.165 A  ATOM     36  O   UNL     1      35.802  42.083  21.136 -0.23 -0.02    -0.454 OA ATOM     37  O   UNL     1      37.086  41.132  22.945 -0.20 -0.03    -0.454 OA ATOM     38  C   UNL     1      35.897  41.042  22.131 +0.05 +0.01    +0.468 C  ENDBRANCH  29  30ENDBRANCH  22  29ENDBRANCH   1  22TORSDOF 10TERENDMDL