REMARK SMILES Cc1ncc2n1[C@@]2(NS(=O)(=O)Cc1cc(Cl)ccc1Cl)c1ccc(F)cc1
REMARK SMILES IDX 8 1 7 3 2 4 3 5 6 6 4 7 5 8 1 9 21 10 22 11 27 12 23 13
REMARK SMILES IDX 26 14 24 15 25 16 9 17 10 18 11 19 12 20 13 21 14 22 19 23
REMARK SMILES IDX 15 24 18 25 17 26 20 27 16 28
REMARK H PARENT 8 2
ROOT
ATOM      1  N   UNL     1      -0.071   0.911   1.689  1.00  0.00    -0.180 NA
ATOM      2  H   UNL     1      -0.255   0.338   2.512  1.00  0.00     0.144 HD
ENDROOT
BRANCH   1   3
ATOM      3  C   UNL     1      -1.117   0.925   0.654  1.00  0.00     0.178 C 
ATOM      4  C   UNL     1      -3.075   2.413   0.069  1.00  0.00     0.108 A 
ATOM      5  N   UNL     1      -3.046   2.636  -1.222  1.00  0.00    -0.241 NA
ATOM      6  N   UNL     1      -1.816   2.162   0.517  1.00  0.00    -0.299 N 
ATOM      7  C   UNL     1      -1.725   2.486  -1.545  1.00  0.00     0.139 A 
ATOM      8  C   UNL     1      -0.969   1.897  -0.554  1.00  0.00     0.087 A 
ATOM      9  C   UNL     1      -4.245   2.508   0.969  1.00  0.00     0.088 C 
BRANCH   3  10
ATOM     10  C   UNL     1      -1.883  -0.375   0.443  1.00  0.00     0.000 A 
ATOM     11  C   UNL     1      -1.832  -1.103  -0.764  1.00  0.00     0.011 A 
ATOM     12  C   UNL     1      -2.669  -0.917   1.483  1.00  0.00     0.011 A 
ATOM     13  C   UNL     1      -2.527  -2.305  -0.926  1.00  0.00     0.039 A 
ATOM     14  C   UNL     1      -3.364  -2.120   1.327  1.00  0.00     0.039 A 
ATOM     15  C   UNL     1      -3.286  -2.803   0.123  1.00  0.00     0.123 A 
ATOM     16  F   UNL     1      -3.950  -3.955  -0.029  1.00  0.00    -0.207 F 
ENDBRANCH   3  10
ENDBRANCH   1   3
BRANCH   1  17
ATOM     17  S   UNL     1       1.549   0.889   1.258  1.00  0.00     0.218 S 
ATOM     18  O   UNL     1       2.225   0.460   2.467  1.00  0.00    -0.212 OA
ATOM     19  O   UNL     1       1.861   2.159   0.643  1.00  0.00    -0.212 OA
BRANCH  17  20
ATOM     20  C   UNL     1       1.669  -0.446   0.050  1.00  0.00     0.191 C 
BRANCH  20  21
ATOM     21  C   UNL     1       3.108  -0.578  -0.387  1.00  0.00    -0.011 A 
ATOM     22  C   UNL     1       3.986  -1.371   0.377  1.00  0.00     0.026 A 
ATOM     23  C   UNL     1       3.618   0.079  -1.521  1.00  0.00     0.045 A 
ATOM     24  C   UNL     1       5.328  -1.501   0.016  1.00  0.00     0.041 A 
ATOM     25  C   UNL     1       4.965  -0.056  -1.876  1.00  0.00     0.022 A 
ATOM     26  C   UNL     1       5.821  -0.846  -1.108  1.00  0.00     0.022 A 
ATOM     27  Cl  UNL     1       2.622   1.054  -2.541  1.00  0.00    -0.084 Cl
ATOM     28  Cl  UNL     1       6.378  -2.478   0.965  1.00  0.00    -0.084 Cl
ENDBRANCH  20  21
ENDBRANCH  17  20
ENDBRANCH   1  17
TORSDOF 5
