MODEL        10USER    Run = 10USERUSER    Estimated Free Energy of Binding    =  -7.58 kcal/mol  [=(1)+(2)+(3)-(4)]USERUSER    (1) Final Intermolecular Energy     = -11.76 kcal/molUSER        vdW + Hbond + desolv Energy     = -11.84 kcal/molUSER        Electrostatic Energy            =  -0.26 kcal/molUSER        Moving Ligand-Fixed Receptor    = -12.10 kcal/molUSER        Moving Ligand-Moving Receptor   =  +0.35 kcal/molUSER    (2) Final Total Internal Energy     =  -2.16 kcal/molUSER    (3) Torsional Free Energy           =  +4.18 kcal/molUSER    (4) Unbound System's Energy         =  -2.16 kcal/molUSERUSERREMARK SMILES COc1ccc(O)c(C(=O)c2ccc(C(=O)N[C@@H]3CCCNC[C@H]3NC(=O)c3cc(F)ncc3F)cc2)c1FREMARK SMILES IDX 15 1 16 2 17 3 14 5 11 6 12 7 37 8 13 9 36 10 9 11 10 12REMARK SMILES IDX 8 13 3 14 4 15 38 16 5 17 6 18 39 19 2 20 1 21 7 22 18 24REMARK SMILES IDX 19 25 24 27 23 28 22 29 21 31 20 32 25 34 26 35 27 37 28 38REMARK SMILES IDX 29 39 34 40 30 41 33 42 32 43 35 44 31 45REMARK H PARENT 17 4 7 23 22 30 25 36REMARK Flexibility Score:   88.900USER                              x       y       z     vdW  Elec       q    TypeUSER                           _______ _______ _______ _____ _____    ______ ____ROOTATOM      1  C   UNL     1      38.654  45.075  16.991 -0.13 -0.05    +0.251 C  ATOM      2  O   UNL     1      38.023  44.027  17.073 -0.21 +0.06    -0.269 OA ATOM      3  N   UNL     1      38.540  45.946  15.927 -0.14 +0.10    -0.347 N  ATOM      4  H   UNL     1      39.082  46.799  15.918 +0.12 -0.05    +0.164 HD ENDROOTBRANCH   1   5ATOM      5  C   UNL     1      39.606  45.457  18.064 -0.41 -0.00    +0.039 A  ATOM      6  C   UNL     1      41.339  46.126  20.161 -0.37 +0.00    +0.023 A  ATOM      7  C   UNL     1      40.492  45.020  20.283 -0.37 +0.00    +0.013 A  ATOM      8  C   UNL     1      41.330  46.887  18.985 -0.42 +0.00    +0.013 A  ATOM      9  C   UNL     1      39.619  44.695  19.240 -0.39 -0.00    +0.014 A  ATOM     10  C   UNL     1      40.458  46.561  17.942 -0.49 -0.00    +0.014 A  BRANCH   6  11ATOM     11  C   UNL     1      42.300  46.493  21.227 -0.27 +0.04    +0.199 C  ATOM     12  O   UNL     1      43.485  46.180  21.091 -0.22 -0.16    -0.288 OA BRANCH  11  13ATOM     13  C   UNL     1      41.900  47.168  22.480 -0.17 +0.01    +0.104 A  ATOM     14  C   UNL     1      40.312  47.554  24.292 -0.21 +0.02    +0.155 A  ATOM     15  C   UNL     1      41.205  48.458  24.874 -0.29 +0.01    +0.053 A  ATOM     16  C   UNL     1      40.667  46.923  23.090 -0.11 +0.02    +0.179 A  ATOM     17  C   UNL     1      42.427  48.738  24.254 -0.36 +0.01    +0.051 A  ATOM     18  C   UNL     1      42.762  48.108  23.059 -0.29 +0.03    +0.130 A  ATOM     19  F   UNL     1      39.786  46.086  22.517 -0.08 -0.02    -0.202 F  BRANCH  14  20ATOM     20  O   UNL     1      39.087  47.209  24.796 -0.08 -0.05    -0.494 OA ATOM     21  C   UNL     1      38.092  48.225  24.851 -0.29 +0.03    +0.278 C  ENDBRANCH  14  20BRANCH  18  22ATOM     22  O   UNL     1      43.963  48.458  22.500 -0.31 -0.10    -0.507 OA ATOM     23  H   UNL     1      43.918  48.250  21.540 -0.44 -0.00    +0.293 HD ENDBRANCH  18  22ENDBRANCH  11  13ENDBRANCH   6  11ENDBRANCH   1   5BRANCH   3  24ATOM     24  C   UNL     1      37.548  45.743  14.860 -0.37 -0.04    +0.106 C  BRANCH  24  25ATOM     25  C   UNL     1      38.129  46.197  13.514 -0.36 -0.01    +0.028 CG0ATOM     26  G   UNL     1      37.302  45.694  12.328 +0.00 +0.00    +0.000 G0 ENDBRANCH  24  25BRANCH  24  27ATOM     27  C   UNL     1      36.202  46.428  15.238 -0.36 -0.09    +0.118 C  BRANCH  27  28ATOM     28  C   UNL     1      35.147  46.444  14.105 -0.39 -0.09    +0.108 C  BRANCH  28  29ATOM     29  N   UNL     1      35.465  47.301  12.961 -0.31 +0.21    -0.315 NA ATOM     30  H   UNL     1      34.634  47.789  12.630 -0.20 -0.10    +0.122 HD BRANCH  29  31ATOM     31  C   UNL     1      36.143  46.580  11.892 -0.66 -0.04    +0.081 C  BRANCH  31  32ATOM     32  C   UNL     1      37.304  45.691  12.328 -0.42 -0.01    +0.017 CG0ATOM     33  G   UNL     1      38.128  46.200  13.514 +0.00 +0.00    +0.000 G0 ENDBRANCH  31  32ENDBRANCH  29  31ENDBRANCH  28  29ENDBRANCH  27  28BRANCH  27  34ATOM     34  N   UNL     1      35.656  45.828  16.463 -0.12 +0.25    -0.346 N  ATOM     35  C   UNL     1      35.229  44.521  16.505 -0.20 -0.12    +0.254 C  ATOM     36  H   UNL     1      35.336  46.468  17.191 +0.08 -0.16    +0.164 HD ATOM     37  O   UNL     1      35.360  43.745  15.562 -0.26 +0.11    -0.269 OA BRANCH  35  38ATOM     38  C   UNL     1      34.542  44.065  17.737 -0.25 -0.03    +0.081 A  ATOM     39  C   UNL     1      35.275  43.311  18.660 -0.31 -0.02    +0.077 A  ATOM     40  C   UNL     1      33.212  44.361  18.017 -0.23 -0.05    +0.154 A  ATOM     41  C   UNL     1      34.641  42.887  19.811 -0.27 -0.00    +0.213 A  ATOM     42  C   UNL     1      32.665  43.885  19.196 -0.31 -0.02    +0.154 A  ATOM     43  N   UNL     1      33.351  43.153  20.104 -0.77 -0.03    -0.225 NA ATOM     44  F   UNL     1      32.456  45.100  17.195 -0.05 +0.08    -0.204 F  ATOM     45  F   UNL     1      35.341  42.164  20.696 -0.16 -0.01    -0.185 F  ENDBRANCH  35  38ENDBRANCH  27  34ENDBRANCH  24  27ENDBRANCH   3  24TORSDOF 8TERENDMDL