MODEL        6USER    Run = 6USERUSER    Estimated Free Energy of Binding    =  -8.83 kcal/mol  [=(1)+(2)+(3)-(4)]USERUSER    (1) Final Intermolecular Energy     = -10.32 kcal/molUSER        vdW + Hbond + desolv Energy     = -10.21 kcal/molUSER        Electrostatic Energy            =  -0.12 kcal/molUSER        Moving Ligand-Fixed Receptor    = -10.32 kcal/molUSER        Moving Ligand-Moving Receptor   =  +0.00 kcal/molUSER    (2) Final Total Internal Energy     =  -1.75 kcal/molUSER    (3) Torsional Free Energy           =  +1.49 kcal/molUSER    (4) Unbound System's Energy         =  -1.75 kcal/molUSERUSERREMARK SMILES Cc1ncc2n1[C@@]2(NS(=O)(=O)Cc1cc(Cl)ccc1Cl)c1ccc(F)cc1REMARK SMILES IDX 8 1 7 3 2 4 3 5 6 6 4 7 5 8 1 9 21 10 22 11 27 12 23 13REMARK SMILES IDX 26 14 24 15 25 16 9 17 10 18 11 19 12 20 13 21 14 22 19 23REMARK SMILES IDX 15 24 18 25 17 26 20 27 16 28REMARK H PARENT 8 2USER                              x       y       z     vdW  Elec       q    TypeUSER                           _______ _______ _______ _____ _____    ______ ____ROOTATOM      1  N   UNL     1      35.676  47.001  16.863 -0.21 +0.21    -0.180 NA ATOM      2  H   UNL     1      35.148  47.831  17.131 -0.15 -0.31    +0.144 HD ENDROOTBRANCH   1   3ATOM      3  C   UNL     1      36.769  47.204  15.899 -0.30 -0.15    +0.178 C  ATOM      4  C   UNL     1      37.311  46.388  13.569 -0.40 -0.04    +0.108 A  ATOM      5  N   UNL     1      37.686  47.419  12.852 -0.84 +0.05    -0.241 NA ATOM      6  N   UNL     1      36.478  46.800  14.561 -0.20 +0.20    -0.299 N  ATOM      7  C   UNL     1      37.068  48.476  13.463 -0.41 -0.06    +0.139 A  ATOM      8  C   UNL     1      36.550  48.181  14.706 -0.18 -0.08    +0.087 A  ATOM      9  C   UNL     1      37.627  44.964  13.323 -0.26 -0.03    +0.088 C  BRANCH   3  10ATOM     10  C   UNL     1      38.186  47.018  16.427 -0.40 -0.00    +0.000 A  ATOM     11  C   UNL     1      39.237  47.907  16.121 -0.48 -0.00    +0.011 A  ATOM     12  C   UNL     1      38.493  45.936  17.281 -0.39 -0.00    +0.011 A  ATOM     13  C   UNL     1      40.524  47.727  16.635 -0.51 -0.01    +0.039 A  ATOM     14  C   UNL     1      39.778  45.753  17.800 -0.42 -0.00    +0.039 A  ATOM     15  C   UNL     1      40.782  46.651  17.472 -0.40 -0.01    +0.123 A  ATOM     16  F   UNL     1      42.013  46.478  17.968 -0.11 +0.01    -0.207 F  ENDBRANCH   3  10ENDBRANCH   1   3BRANCH   1  17ATOM     17  S   UNL     1      34.702  45.640  16.768 -0.35 -0.18    +0.218 S  ATOM     18  O   UNL     1      34.148  45.702  15.429 -0.28 +0.22    -0.212 OA ATOM     19  O   UNL     1      33.841  45.630  17.928 -0.34 +0.13    -0.212 OA BRANCH  17  20ATOM     20  C   UNL     1      35.861  44.259  16.827 -0.25 -0.07    +0.191 C  BRANCH  20  21ATOM     21  C   UNL     1      35.881  43.702  18.230 -0.32 +0.00    -0.011 A  ATOM     22  C   UNL     1      36.796  44.227  19.163 -0.35 -0.00    +0.026 A  ATOM     23  C   UNL     1      35.033  42.658  18.642 -0.37 -0.01    +0.045 A  ATOM     24  C   UNL     1      36.858  43.723  20.463 -0.38 -0.00    +0.041 A  ATOM     25  C   UNL     1      35.102  42.158  19.947 -0.39 -0.00    +0.022 A  ATOM     26  C   UNL     1      36.014  42.690  20.859 -0.44 +0.00    +0.022 A  ATOM     27  Cl  UNL     1      33.858  41.960  17.586 -0.58 +0.03    -0.084 Cl ATOM     28  Cl  UNL     1      37.983  44.385  21.584 -0.51 -0.00    -0.084 Cl ENDBRANCH  20  21ENDBRANCH  17  20ENDBRANCH   1  17TORSDOF 5TERENDMDL