MODEL        2USER    Run = 2USERUSER    Estimated Free Energy of Binding    = -12.69 kcal/mol  [=(1)+(2)+(3)-(4)]USERUSER    (1) Final Intermolecular Energy     = -14.77 kcal/molUSER        vdW + Hbond + desolv Energy     = -14.57 kcal/molUSER        Electrostatic Energy            =  -0.21 kcal/molUSER        Moving Ligand-Fixed Receptor    = -14.77 kcal/molUSER        Moving Ligand-Moving Receptor   =  +0.00 kcal/molUSER    (2) Final Total Internal Energy     =  -1.43 kcal/molUSER    (3) Torsional Free Energy           =  +2.09 kcal/molUSER    (4) Unbound System's Energy         =  -1.43 kcal/molUSERUSERREMARK SMILES Oc1ccc(-c2nc3ccccc3nc2-c2ccc(CN3CCC(n4c(O)nc5cc(F)ccc54)CC3)cc2)cc1REMARK SMILES IDX 16 1 17 2 18 3 19 4 38 5 39 6 15 7 6 8 7 9 8 10 14 11 9 12REMARK SMILES IDX 13 13 10 14 12 15 11 16 5 17 2 18 3 19 41 20 4 21 40 22 1 23REMARK SMILES IDX 20 25 21 26 22 27 37 28 23 29 36 30 24 31 25 32 26 33 35 34REMARK SMILES IDX 28 35 34 36 29 37 33 38 30 39 31 40 32 41 27 42REMARK H PARENT 1 24 27 43USER                              x       y       z     vdW  Elec       q    TypeUSER                           _______ _______ _______ _____ _____    ______ ____ROOTATOM      1  C   UNL     1      38.791  45.321  24.556 -0.23 +0.00    +0.002 A  ATOM      2  C   UNL     1      39.981  45.940  24.144 -0.19 +0.00    +0.011 A  ATOM      3  C   UNL     1      40.659  45.508  23.002 -0.20 +0.00    +0.006 A  ATOM      4  C   UNL     1      40.175  44.435  22.239 -0.23 -0.00    -0.034 A  ATOM      5  C   UNL     1      39.005  43.795  22.659 -0.27 +0.00    +0.006 A  ATOM      6  C   UNL     1      38.327  44.227  23.807 -0.27 +0.00    +0.011 A  ENDROOTBRANCH   1   7ATOM      7  C   UNL     1      38.042  45.799  25.732 -0.24 +0.00    +0.097 A  ATOM      8  C   UNL     1      37.815  45.043  26.895 -0.24 -0.01    +0.097 A  ATOM      9  N   UNL     1      37.044  45.528  27.908 -0.23 +0.05    -0.244 NA ATOM     10  C   UNL     1      36.535  46.764  27.763 -0.27 -0.02    +0.089 A  ATOM     11  N   UNL     1      37.539  47.059  25.597 -0.55 -0.01    -0.244 NA ATOM     12  C   UNL     1      35.744  47.300  28.774 -0.37 -0.01    +0.030 A  ATOM     13  C   UNL     1      36.785  47.534  26.605 -0.28 -0.01    +0.089 A  ATOM     14  C   UNL     1      35.193  48.576  28.665 -0.34 -0.00    +0.002 A  ATOM     15  C   UNL     1      36.233  48.807  26.510 -0.41 -0.00    +0.030 A  ATOM     16  C   UNL     1      35.438  49.334  27.529 -0.24 -0.00    +0.002 A  BRANCH   8  17ATOM     17  C   UNL     1      38.360  43.697  27.152 -0.26 -0.00    +0.003 A  ATOM     18  C   UNL     1      39.439  41.153  27.671 -0.29 -0.00    +0.115 A  ATOM     19  C   UNL     1      40.286  42.248  27.575 -0.21 -0.00    +0.047 A  ATOM     20  C   UNL     1      38.069  41.299  27.498 -0.42 -0.01    +0.047 A  ATOM     21  C   UNL     1      39.747  43.511  27.312 -0.19 -0.00    +0.014 A  ATOM     22  C   UNL     1      37.534  42.562  27.232 -0.36 -0.00    +0.014 A  BRANCH  18  23ATOM     23  O   UNL     1      39.915  39.903  27.935 -0.40 -0.02    -0.508 OA ATOM     24  H   UNL     1      40.384  39.580  27.148 -0.40 -0.12    +0.293 HD ENDBRANCH  18  23ENDBRANCH   8  17ENDBRANCH   1   7BRANCH   4  25ATOM     25  C   UNL     1      40.915  44.003  20.989 -0.29 +0.01    +0.120 C  BRANCH  25  26ATOM     26  N   UNL     1      40.657  44.774  19.768 -0.20 -0.01    -0.299 NA ATOM     27  C   UNL     1      41.560  45.907  19.578 -0.43 +0.01    +0.087 C  ATOM     28  C   UNL     1      39.257  45.067  19.499 -0.39 -0.00    +0.087 C  ATOM     29  C   UNL     1      41.030  46.953  18.592 -0.50 -0.00    +0.041 C  ATOM     30  C   UNL     1      39.066  45.438  18.027 -0.44 -0.01    +0.041 C  ATOM     31  C   UNL     1      40.226  46.284  17.474 -0.47 -0.01    +0.095 C  BRANCH  31  32ATOM     32  N   UNL     1      39.793  47.220  16.444 -0.27 +0.07    -0.291 N  ATOM     33  C   UNL     1      40.449  48.372  16.105 -0.32 -0.07    +0.295 A  ATOM     34  C   UNL     1      38.699  47.121  15.609 -0.40 -0.03    +0.072 A  ATOM     35  N   UNL     1      39.875  49.028  15.137 -0.38 +0.08    -0.195 NA ATOM     36  C   UNL     1      37.676  46.175  15.460 -0.36 -0.01    +0.032 A  ATOM     37  C   UNL     1      38.779  48.267  14.810 -0.45 -0.04    +0.095 A  ATOM     38  C   UNL     1      36.712  46.427  14.478 -0.39 -0.02    +0.041 A  ATOM     39  C   UNL     1      37.808  48.500  13.829 -0.44 -0.03    +0.070 A  ATOM     40  C   UNL     1      36.784  47.566  13.684 -0.45 -0.07    +0.125 A  ATOM     41  F   UNL     1      35.842  47.772  12.754 -0.21 +0.12    -0.207 F  BRANCH  33  42ATOM     42  O   UNL     1      41.548  48.809  16.686 -0.77 -0.03    -0.480 OA ATOM     43  H   UNL     1      42.162  48.069  16.525 -0.29 +0.00    +0.296 HD ENDBRANCH  33  42ENDBRANCH  31  32ENDBRANCH  25  26ENDBRANCH   4  25TORSDOF 7TERENDMDL