MODEL        9USER    Run = 9USERUSER    Estimated Free Energy of Binding    =  -8.70 kcal/mol  [=(1)+(2)+(3)-(4)]USERUSER    (1) Final Intermolecular Energy     = -10.49 kcal/molUSER        vdW + Hbond + desolv Energy     = -10.35 kcal/molUSER        Electrostatic Energy            =  -0.14 kcal/molUSER        Moving Ligand-Fixed Receptor    = -10.49 kcal/molUSER        Moving Ligand-Moving Receptor   =  +0.00 kcal/molUSER    (2) Final Total Internal Energy     =  -0.99 kcal/molUSER    (3) Torsional Free Energy           =  +1.79 kcal/molUSER    (4) Unbound System's Energy         =  -0.99 kcal/molUSERUSERREMARK SMILES CCC[C@H](C)NC(=O)c1ccc(-c2ccc(Cl)cc2)cc1C#NREMARK SMILES IDX 6 1 7 2 8 3 4 5 5 6 3 7 2 8 1 9 9 10 10 11 21 12 11 13 20 14REMARK SMILES IDX 12 15 22 16 23 17 13 18 14 19 19 20 15 21 18 22 16 23 17 24REMARK H PARENT 6 4USER                              x       y       z     vdW  Elec       q    TypeUSER                           _______ _______ _______ _____ _____    ______ ____ROOTATOM      1  N   UNL     1      33.041  41.688  17.575 -0.16 +0.13    -0.350 N  ATOM      2  C   UNL     1      33.443  42.687  18.438 -0.25 -0.05    +0.252 C  ATOM      3  O   UNL     1      33.017  42.844  19.573 -0.64 -0.01    -0.269 OA ATOM      4  H   UNL     1      33.311  41.759  16.603 -0.37 -0.11    +0.164 HD ENDROOTBRANCH   1   5ATOM      5  C   UNL     1      31.940  40.790  17.915 -0.40 -0.02    +0.079 C  ATOM      6  C   UNL     1      30.753  41.022  16.984 -0.36 -0.01    +0.031 C  BRANCH   5   7ATOM      7  C   UNL     1      32.420  39.328  17.960 -0.50 -0.00    +0.024 C  BRANCH   7   8ATOM      8  C   UNL     1      31.685  38.396  18.933 -0.55 -0.00    -0.001 C  ATOM      9  C   UNL     1      32.365  37.046  19.107 -0.66 +0.00    +0.004 C  ENDBRANCH   7   8ENDBRANCH   5   7ENDBRANCH   1   5BRANCH   2  10ATOM     10  C   UNL     1      34.467  43.612  17.902 -0.28 -0.02    +0.057 A  ATOM     11  C   UNL     1      35.814  43.378  18.209 -0.32 -0.00    +0.016 A  ATOM     12  C   UNL     1      34.104  44.722  17.133 -0.27 -0.03    +0.065 A  ATOM     13  C   UNL     1      36.799  44.251  17.740 -0.32 -0.00    +0.009 A  ATOM     14  C   UNL     1      35.107  45.590  16.668 -0.32 -0.02    +0.029 A  ATOM     15  C   UNL     1      36.465  45.371  16.963 -0.33 +0.01    -0.017 A  BRANCH  12  16ATOM     16  C   UNL     1      32.745  44.982  16.753 -0.31 -0.05    +0.100 C  ATOM     17  N   UNL     1      31.624  45.119  16.481 -0.76 +0.06    -0.192 NA ENDBRANCH  12  16BRANCH  15  18ATOM     18  C   UNL     1      37.504  46.291  16.472 -0.37 +0.01    -0.018 A  ATOM     19  C   UNL     1      38.808  46.254  16.994 -0.41 -0.00    +0.010 A  ATOM     20  C   UNL     1      37.219  47.231  15.466 -0.42 -0.01    +0.010 A  ATOM     21  C   UNL     1      39.795  47.129  16.527 -0.48 -0.00    +0.021 A  ATOM     22  C   UNL     1      38.205  48.106  14.996 -0.51 -0.01    +0.021 A  ATOM     23  C   UNL     1      39.489  48.051  15.532 -0.50 -0.01    +0.041 A  ATOM     24  Cl  UNL     1      40.701  49.128  14.957 -0.87 +0.02    -0.084 Cl ENDBRANCH  15  18ENDBRANCH   2  10TORSDOF 6TERENDMDL