REMARK SMILES Oc1ccc(-c2nc3ccccc3nc2-c2ccc(CN3CCC(n4c(O)nc5cc(F)ccc54)CC3)cc2)cc1
REMARK SMILES IDX 16 1 17 2 18 3 19 4 38 5 39 6 15 7 6 8 7 9 8 10 14 11 9 12
REMARK SMILES IDX 13 13 10 14 12 15 11 16 5 17 2 18 3 19 41 20 4 21 40 22 1 23
REMARK SMILES IDX 20 25 21 26 22 27 37 28 23 29 36 30 24 31 25 32 26 33 35 34
REMARK SMILES IDX 28 35 34 36 29 37 33 38 30 39 31 40 32 41 27 42
REMARK H PARENT 1 24 27 43
ROOT
ATOM      1  C   UNL     1      -2.447  -0.298  -0.214  1.00  0.00     0.002 A 
ATOM      2  C   UNL     1      -2.055   0.932   0.336  1.00  0.00     0.011 A 
ATOM      3  C   UNL     1      -1.041   1.693  -0.251  1.00  0.00     0.006 A 
ATOM      4  C   UNL     1      -0.377   1.244  -1.402  1.00  0.00    -0.034 A 
ATOM      5  C   UNL     1      -0.743   0.006  -1.940  1.00  0.00     0.006 A 
ATOM      6  C   UNL     1      -1.758  -0.758  -1.349  1.00  0.00     0.011 A 
ENDROOT
BRANCH   1   7
ATOM      7  C   UNL     1      -3.547  -1.086   0.369  1.00  0.00     0.097 A 
ATOM      8  C   UNL     1      -4.847  -0.600   0.592  1.00  0.00     0.097 A 
ATOM      9  N   UNL     1      -5.787  -1.367   1.210  1.00  0.00    -0.244 NA
ATOM     10  C   UNL     1      -5.432  -2.613   1.571  1.00  0.00     0.089 A 
ATOM     11  N   UNL     1      -3.196  -2.356   0.721  1.00  0.00    -0.244 NA
ATOM     12  C   UNL     1      -6.361  -3.432   2.202  1.00  0.00     0.030 A 
ATOM     13  C   UNL     1      -4.133  -3.111   1.323  1.00  0.00     0.089 A 
ATOM     14  C   UNL     1      -6.036  -4.730   2.597  1.00  0.00     0.002 A 
ATOM     15  C   UNL     1      -3.821  -4.407   1.718  1.00  0.00     0.030 A 
ATOM     16  C   UNL     1      -4.761  -5.220   2.354  1.00  0.00     0.002 A 
BRANCH   8  17
ATOM     17  C   UNL     1      -5.331   0.737   0.200  1.00  0.00     0.003 A 
ATOM     18  C   UNL     1      -6.242   3.304  -0.496  1.00  0.00     0.115 A 
ATOM     19  C   UNL     1      -6.420   2.844   0.801  1.00  0.00     0.047 A 
ATOM     20  C   UNL     1      -5.634   2.505  -1.455  1.00  0.00     0.047 A 
ATOM     21  C   UNL     1      -5.970   1.565   1.143  1.00  0.00     0.014 A 
ATOM     22  C   UNL     1      -5.189   1.226  -1.111  1.00  0.00     0.014 A 
BRANCH  18  23
ATOM     23  O   UNL     1      -6.656   4.547  -0.876  1.00  0.00    -0.508 OA
ATOM     24  H   UNL     1      -7.112   4.962  -0.126  1.00  0.00     0.293 HD
ENDBRANCH  18  23
ENDBRANCH   8  17
ENDBRANCH   1   7
BRANCH   4  25
ATOM     25  C   UNL     1       0.701   2.100  -2.035  1.00  0.00     0.120 C 
BRANCH  25  26
ATOM     26  N   UNL     1       2.088   1.793  -1.670  1.00  0.00    -0.299 NA
ATOM     27  C   UNL     1       2.712   0.771  -2.507  1.00  0.00     0.087 C 
ATOM     28  C   UNL     1       2.339   1.641  -0.245  1.00  0.00     0.087 C 
ATOM     29  C   UNL     1       3.952   0.133  -1.872  1.00  0.00     0.041 C 
ATOM     30  C   UNL     1       3.832   1.794   0.051  1.00  0.00     0.041 C 
ATOM     31  C   UNL     1       4.719   1.159  -1.034  1.00  0.00     0.095 C 
BRANCH  31  32
ATOM     32  N   UNL     1       5.970   0.637  -0.498  1.00  0.00    -0.291 N 
ATOM     33  C   UNL     1       7.212   1.141  -0.774  1.00  0.00     0.295 A 
ATOM     34  C   UNL     1       6.148  -0.405   0.389  1.00  0.00     0.072 A 
ATOM     35  N   UNL     1       8.173   0.515  -0.155  1.00  0.00    -0.195 NA
ATOM     36  C   UNL     1       5.271  -1.283   1.040  1.00  0.00     0.032 A 
ATOM     37  C   UNL     1       7.533  -0.455   0.578  1.00  0.00     0.095 A 
ATOM     38  C   UNL     1       5.839  -2.239   1.888  1.00  0.00     0.041 A 
ATOM     39  C   UNL     1       8.084  -1.416   1.435  1.00  0.00     0.070 A 
ATOM     40  C   UNL     1       7.216  -2.297   2.076  1.00  0.00     0.125 A 
ATOM     41  F   UNL     1       7.722  -3.227   2.898  1.00  0.00    -0.207 F 
BRANCH  33  42
ATOM     42  O   UNL     1       7.450   2.150  -1.587  1.00  0.00    -0.480 OA
ATOM     43  H   UNL     1       8.420   2.224  -1.528  1.00  0.00     0.296 HD
ENDBRANCH  33  42
ENDBRANCH  31  32
ENDBRANCH  25  26
ENDBRANCH   4  25
TORSDOF 7
