REMARK SMILES CCNC(=O)c1ccc(-c2ccc(F)c(O)c2)cc1C#N
REMARK SMILES IDX 6 1 7 2 8 3 9 4 18 5 19 6 4 7 3 8 5 10 2 11 1 12 20 13 21 14
REMARK SMILES IDX 10 15 11 16 17 17 12 18 15 19 13 20 14 21 16 22
REMARK H PARENT 3 9 16 23
ROOT
ATOM      1  C   UNL     1      -1.443   0.552   0.416  1.00  0.00     0.057 A 
ATOM      2  C   UNL     1      -0.879   0.328  -0.847  1.00  0.00     0.016 A 
ATOM      3  C   UNL     1       0.496   0.107  -0.972  1.00  0.00     0.009 A 
ATOM      4  C   UNL     1       1.335   0.107   0.153  1.00  0.00    -0.017 A 
ATOM      5  C   UNL     1       0.752   0.338   1.412  1.00  0.00     0.029 A 
ATOM      6  C   UNL     1      -0.629   0.563   1.554  1.00  0.00     0.065 A 
ENDROOT
BRANCH   1   7
ATOM      7  C   UNL     1      -2.898   0.815   0.512  1.00  0.00     0.252 C 
ATOM      8  N   UNL     1      -3.705  -0.057  -0.190  1.00  0.00    -0.352 N 
ATOM      9  H   UNL     1      -3.301  -0.928  -0.509  1.00  0.00     0.163 HD
ATOM     10  O   UNL     1      -3.307   1.751   1.184  1.00  0.00    -0.269 OA
BRANCH   8  11
ATOM     11  C   UNL     1      -5.145   0.005  -0.045  1.00  0.00     0.112 C 
ATOM     12  C   UNL     1      -5.846  -0.741  -1.164  1.00  0.00     0.027 C 
ENDBRANCH   8  11
ENDBRANCH   1   7
BRANCH   6  13
ATOM     13  C   UNL     1      -1.156   0.742   2.877  1.00  0.00     0.100 C 
ATOM     14  N   UNL     1      -1.517   0.833   3.976  1.00  0.00    -0.192 NA
ENDBRANCH   6  13
BRANCH   4  15
ATOM     15  C   UNL     1       2.784  -0.125   0.019  1.00  0.00    -0.014 A 
ATOM     16  C   UNL     1       3.437  -1.102   0.798  1.00  0.00     0.012 A 
ATOM     17  C   UNL     1       3.553   0.622  -0.892  1.00  0.00     0.058 A 
ATOM     18  C   UNL     1       4.812  -1.327   0.673  1.00  0.00     0.044 A 
ATOM     19  C   UNL     1       4.920   0.393  -1.012  1.00  0.00     0.151 A 
ATOM     20  C   UNL     1       5.544  -0.575  -0.234  1.00  0.00     0.164 A 
ATOM     21  F   UNL     1       6.862  -0.781  -0.365  1.00  0.00    -0.203 F 
BRANCH  19  22
ATOM     22  O   UNL     1       5.631   1.141  -1.908  1.00  0.00    -0.505 OA
ATOM     23  H   UNL     1       6.561   0.852  -1.844  1.00  0.00     0.293 HD
ENDBRANCH  19  22
ENDBRANCH   4  15
TORSDOF 5
