REMARK SMILES CCC[C@H](C)NC(=O)c1ccc(-c2ccc(Cl)cc2)cc1C#N
REMARK SMILES IDX 6 1 7 2 8 3 4 5 5 6 3 7 2 8 1 9 9 10 10 11 21 12 11 13 20 14
REMARK SMILES IDX 12 15 22 16 23 17 13 18 14 19 19 20 15 21 18 22 16 23 17 24
REMARK H PARENT 6 4
ROOT
ATOM      1  N   UNL     1       2.105   0.786   0.347  1.00  0.00    -0.350 N 
ATOM      2  C   UNL     1       1.095   1.244   1.168  1.00  0.00     0.252 C 
ATOM      3  O   UNL     1       1.259   1.955   2.149  1.00  0.00    -0.269 OA
ATOM      4  H   UNL     1       1.886   0.056  -0.318  1.00  0.00     0.164 HD
ENDROOT
BRANCH   1   5
ATOM      5  C   UNL     1       3.510   1.014   0.674  1.00  0.00     0.079 C 
ATOM      6  C   UNL     1       3.984   0.015   1.726  1.00  0.00     0.031 C 
BRANCH   5   7
ATOM      7  C   UNL     1       4.373   1.033  -0.601  1.00  0.00     0.024 C 
BRANCH   7   8
ATOM      8  C   UNL     1       4.521  -0.300  -1.347  1.00  0.00    -0.001 C 
ATOM      9  C   UNL     1       5.764  -1.082  -0.946  1.00  0.00     0.004 C 
ENDBRANCH   7   8
ENDBRANCH   5   7
ENDBRANCH   1   5
BRANCH   2  10
ATOM     10  C   UNL     1      -0.270   0.813   0.792  1.00  0.00     0.057 A 
ATOM     11  C   UNL     1      -0.693   0.989  -0.532  1.00  0.00     0.016 A 
ATOM     12  C   UNL     1      -1.143   0.272   1.741  1.00  0.00     0.065 A 
ATOM     13  C   UNL     1      -1.986   0.618  -0.909  1.00  0.00     0.009 A 
ATOM     14  C   UNL     1      -2.440  -0.098   1.347  1.00  0.00     0.029 A 
ATOM     15  C   UNL     1      -2.882   0.069   0.022  1.00  0.00    -0.017 A 
BRANCH  12  16
ATOM     16  C   UNL     1      -0.746   0.028   3.099  1.00  0.00     0.100 C 
ATOM     17  N   UNL     1      -0.476  -0.237   4.197  1.00  0.00    -0.192 NA
ENDBRANCH  12  16
BRANCH  15  18
ATOM     18  C   UNL     1      -4.245  -0.320  -0.376  1.00  0.00    -0.018 A 
ATOM     19  C   UNL     1      -4.729  -1.616  -0.129  1.00  0.00     0.010 A 
ATOM     20  C   UNL     1      -5.100   0.596  -1.014  1.00  0.00     0.010 A 
ATOM     21  C   UNL     1      -6.024  -1.986  -0.508  1.00  0.00     0.021 A 
ATOM     22  C   UNL     1      -6.396   0.229  -1.393  1.00  0.00     0.021 A 
ATOM     23  C   UNL     1      -6.851  -1.062  -1.139  1.00  0.00     0.041 A 
ATOM     24  Cl  UNL     1      -8.443  -1.515  -1.606  1.00  0.00    -0.084 Cl
ENDBRANCH  15  18
ENDBRANCH   2  10
TORSDOF 6
