MODEL        1USER    Run = 1USERUSER    Estimated Free Energy of Binding    =  -9.16 kcal/mol  [=(1)+(2)+(3)-(4)]USERUSER    (1) Final Intermolecular Energy     = -11.25 kcal/molUSER        vdW + Hbond + desolv Energy     = -11.17 kcal/molUSER        Electrostatic Energy            =  -0.08 kcal/molUSER        Moving Ligand-Fixed Receptor    = -11.25 kcal/molUSER        Moving Ligand-Moving Receptor   =  +0.00 kcal/molUSER    (2) Final Total Internal Energy     =  -1.32 kcal/molUSER    (3) Torsional Free Energy           =  +2.09 kcal/molUSER    (4) Unbound System's Energy         =  -1.32 kcal/molUSERUSERREMARK SMILES CCC[C@@H](C)NC(=O)c1ccc(-c2ccc(N3CCCC3)cc2)cc1C#NREMARK SMILES IDX 6 1 7 2 8 3 4 5 5 6 3 7 2 8 1 9 9 10 10 11 25 12 11 13 24 14REMARK SMILES IDX 12 15 26 16 27 17 13 18 14 19 23 20 15 21 22 22 16 23 17 24REMARK SMILES IDX 18 25 21 26 19 27 20 28REMARK H PARENT 6 4USER                              x       y       z     vdW  Elec       q    TypeUSER                           _______ _______ _______ _____ _____    ______ ____ROOTATOM      1  N   UNL     1      31.610  40.530  17.432 -0.15 +0.09    -0.350 N  ATOM      2  C   UNL     1      32.430  41.042  18.413 -0.29 -0.03    +0.252 C  ATOM      3  O   UNL     1      32.416  40.699  19.588 -0.69 -0.06    -0.269 OA ATOM      4  H   UNL     1      31.750  40.800  16.467 -0.40 -0.11    +0.164 HD ENDROOTBRANCH   1   5ATOM      5  C   UNL     1      30.567  39.533  17.682 -0.35 +0.01    +0.079 C  ATOM      6  C   UNL     1      29.207  40.195  17.890 -0.31 +0.00    +0.031 C  BRANCH   5   7ATOM      7  C   UNL     1      30.980  38.563  18.804 -0.49 +0.00    +0.024 C  BRANCH   7   8ATOM      8  C   UNL     1      32.184  37.676  18.469 -0.54 -0.00    -0.001 C  ATOM      9  C   UNL     1      32.349  36.502  19.424 -0.66 +0.00    +0.004 C  ENDBRANCH   7   8ENDBRANCH   5   7ENDBRANCH   1   5BRANCH   2  10ATOM     10  C   UNL     1      33.428  42.047  17.974 -0.36 -0.02    +0.057 A  ATOM     11  C   UNL     1      34.594  42.159  18.740 -0.40 -0.00    +0.016 A  ATOM     12  C   UNL     1      33.232  42.895  16.878 -0.30 -0.03    +0.065 A  ATOM     13  C   UNL     1      35.579  43.088  18.394 -0.34 -0.00    +0.009 A  ATOM     14  C   UNL     1      34.231  43.824  16.539 -0.32 -0.01    +0.029 A  ATOM     15  C   UNL     1      35.417  43.933  17.286 -0.30 +0.01    -0.017 A  BRANCH  12  16ATOM     16  C   UNL     1      32.032  42.867  16.095 -0.28 -0.05    +0.100 C  ATOM     17  N   UNL     1      31.056  42.801  15.471 -0.27 +0.11    -0.192 NA ENDBRANCH  12  16BRANCH  15  18ATOM     18  C   UNL     1      36.451  44.914  16.923 -0.32 +0.01    -0.018 A  ATOM     19  C   UNL     1      36.184  45.957  16.031 -0.35 -0.01    +0.011 A  ATOM     20  C   UNL     1      37.743  44.841  17.455 -0.35 -0.00    +0.011 A  ATOM     21  C   UNL     1      37.175  46.890  15.685 -0.39 -0.02    +0.026 A  ATOM     22  C   UNL     1      38.726  45.780  17.105 -0.38 -0.01    +0.026 A  ATOM     23  C   UNL     1      38.473  46.829  16.210 -0.39 -0.01    +0.037 A  BRANCH  23  24ATOM     24  N   UNL     1      39.440  47.744  15.870 -0.20 +0.12    -0.372 N  ATOM     25  C   UNL     1      40.564  48.113  16.727 -0.51 -0.02    +0.116 C  ATOM     26  C   UNL     1      39.482  48.461  14.597 -0.51 -0.04    +0.116 C  ATOM     27  C   UNL     1      41.156  49.344  16.045 -0.64 -0.00    +0.023 C  ATOM     28  C   UNL     1      40.871  49.092  14.575 -0.67 -0.01    +0.023 C  ENDBRANCH  23  24ENDBRANCH  15  18ENDBRANCH   2  10TORSDOF 7TERENDMDL