MODEL        3USER    Run = 3USERUSER    Estimated Free Energy of Binding    = -11.43 kcal/mol  [=(1)+(2)+(3)-(4)]USERUSER    (1) Final Intermolecular Energy     = -12.92 kcal/molUSER        vdW + Hbond + desolv Energy     = -12.75 kcal/molUSER        Electrostatic Energy            =  -0.18 kcal/molUSER        Moving Ligand-Fixed Receptor    = -12.92 kcal/molUSER        Moving Ligand-Moving Receptor   =  +0.00 kcal/molUSER    (2) Final Total Internal Energy     =  -1.29 kcal/molUSER    (3) Torsional Free Energy           =  +1.49 kcal/molUSER    (4) Unbound System's Energy         =  -1.29 kcal/molUSERUSERREMARK SMILES N#Cc1ccc(-c2nc3ccccc3nc2-c2ccc(NC(=O)c3ccc(F)cc3)cc2)cc1REMARK SMILES IDX 7 1 8 2 9 3 10 4 11 5 12 6 13 7 14 8 15 9 16 10 6 11 3 12REMARK SMILES IDX 4 13 34 14 5 15 33 16 2 17 1 18 17 19 18 20 32 21 19 22REMARK SMILES IDX 31 23 20 24 21 25 22 26 23 28 24 29 25 30 30 31 26 32 29 33REMARK SMILES IDX 27 34 28 35REMARK H PARENT 21 27USER                              x       y       z     vdW  Elec       q    TypeUSER                           _______ _______ _______ _____ _____    ______ ____ROOTATOM      1  C   UNL     1      39.597  46.160  17.926 -0.38 -0.01    +0.097 A  ATOM      2  N   UNL     1      40.737  46.870  18.153 -0.33 +0.02    -0.244 NA ATOM      3  C   UNL     1      41.440  46.580  19.264 -0.40 +0.00    +0.089 A  ATOM      4  C   UNL     1      42.615  47.270  19.532 -0.47 +0.00    +0.030 A  ATOM      5  C   UNL     1      43.376  46.996  20.669 -0.39 +0.00    +0.002 A  ATOM      6  C   UNL     1      42.952  46.014  21.555 -0.29 +0.00    +0.002 A  ATOM      7  C   UNL     1      41.772  45.316  21.295 -0.29 +0.00    +0.030 A  ATOM      8  C   UNL     1      41.008  45.581  20.166 -0.33 +0.01    +0.089 A  ATOM      9  N   UNL     1      39.875  44.891  19.953 -0.23 -0.00    -0.244 NA ATOM     10  C   UNL     1      39.155  45.187  18.836 -0.35 -0.01    +0.097 A  ENDROOTBRANCH   1  11ATOM     11  C   UNL     1      38.926  46.503  16.658 -0.42 -0.00    +0.002 A  ATOM     12  C   UNL     1      37.673  47.146  14.205 -0.44 -0.02    +0.052 A  ATOM     13  C   UNL     1      38.975  46.641  14.217 -0.41 -0.00    +0.020 A  ATOM     14  C   UNL     1      36.989  47.318  15.411 -0.41 -0.02    +0.020 A  ATOM     15  C   UNL     1      39.591  46.321  15.432 -0.43 -0.00    +0.012 A  ATOM     16  C   UNL     1      37.608  46.994  16.623 -0.28 -0.01    +0.012 A  BRANCH  12  17ATOM     17  C   UNL     1      37.041  47.482  12.963 -0.60 -0.04    +0.099 C  ATOM     18  N   UNL     1      36.531  47.764  11.959 -0.97 +0.08    -0.192 NA ENDBRANCH  12  17ENDBRANCH   1  11BRANCH  10  19ATOM     19  C   UNL     1      37.901  44.424  18.714 -0.35 -0.00    +0.003 A  ATOM     20  C   UNL     1      37.383  44.043  17.466 -0.24 -0.00    +0.012 A  ATOM     21  C   UNL     1      37.171  44.066  19.857 -0.37 -0.00    +0.012 A  ATOM     22  C   UNL     1      36.197  43.306  17.371 -0.25 -0.01    +0.027 A  ATOM     23  C   UNL     1      35.983  43.326  19.763 -0.40 -0.00    +0.027 A  ATOM     24  C   UNL     1      35.487  42.939  18.520 -0.34 -0.01    +0.041 A  BRANCH  24  25ATOM     25  N   UNL     1      34.307  42.188  18.337 -0.19 +0.07    -0.322 N  ATOM     26  C   UNL     1      33.120  42.308  19.038 -0.28 -0.01    +0.255 C  ATOM     27  H   UNL     1      34.321  41.537  17.564 -0.09 -0.07    +0.170 HD ATOM     28  O   UNL     1      32.857  43.129  19.908 -0.83 -0.03    -0.269 OA BRANCH  26  29ATOM     29  C   UNL     1      32.057  41.344  18.638 -0.35 -0.00    +0.040 A  ATOM     30  C   UNL     1      31.366  41.573  17.438 -0.30 -0.00    +0.017 A  ATOM     31  C   UNL     1      31.715  40.247  19.442 -0.35 +0.00    +0.017 A  ATOM     32  C   UNL     1      30.361  40.694  17.031 -0.34 -0.01    +0.040 A  ATOM     33  C   UNL     1      30.707  39.371  19.031 -0.35 +0.00    +0.040 A  ATOM     34  C   UNL     1      30.043  39.599  17.829 -0.28 +0.01    +0.123 A  ATOM     35  F   UNL     1      29.078  38.758  17.440 -0.03 -0.12    -0.207 F  ENDBRANCH  26  29ENDBRANCH  24  25ENDBRANCH  10  19TORSDOF 5TERENDMDL