MODEL        3USER    Run = 3USERUSER    Estimated Free Energy of Binding    =  -8.16 kcal/mol  [=(1)+(2)+(3)-(4)]USERUSER    (1) Final Intermolecular Energy     =  -9.65 kcal/molUSER        vdW + Hbond + desolv Energy     =  -9.14 kcal/molUSER        Electrostatic Energy            =  -0.51 kcal/molUSER        Moving Ligand-Fixed Receptor    =  -9.65 kcal/molUSER        Moving Ligand-Moving Receptor   =  +0.00 kcal/molUSER    (2) Final Total Internal Energy     =  -0.57 kcal/molUSER    (3) Torsional Free Energy           =  +1.49 kcal/molUSER    (4) Unbound System's Energy         =  -0.57 kcal/molUSERUSERREMARK SMILES CCNC(=O)c1ccc(-c2ccc(F)c(O)c2)cc1C#NREMARK SMILES IDX 6 1 7 2 8 3 9 4 18 5 19 6 4 7 3 8 5 10 2 11 1 12 20 13 21 14REMARK SMILES IDX 10 15 11 16 17 17 12 18 15 19 13 20 14 21 16 22REMARK H PARENT 3 9 16 23USER                              x       y       z     vdW  Elec       q    TypeUSER                           _______ _______ _______ _____ _____    ______ ____ROOTATOM      1  C   UNL     1      39.990  48.423  15.712 -0.52 -0.02    +0.057 A  ATOM      2  C   UNL     1      38.900  48.498  14.835 -0.52 -0.01    +0.016 A  ATOM      3  C   UNL     1      37.813  47.633  14.993 -0.48 -0.01    +0.009 A  ATOM      4  C   UNL     1      37.790  46.678  16.021 -0.38 +0.01    -0.017 A  ATOM      5  C   UNL     1      38.895  46.615  16.889 -0.40 -0.01    +0.029 A  ATOM      6  C   UNL     1      39.996  47.477  16.743 -0.45 -0.02    +0.065 A  ENDROOTBRANCH   1   7ATOM      7  C   UNL     1      41.141  49.332  15.499 -0.49 -0.04    +0.252 C  ATOM      8  N   UNL     1      41.529  49.499  14.185 -0.35 +0.06    -0.352 N  ATOM      9  H   UNL     1      40.888  49.208  13.459 +0.12 -0.03    +0.163 HD ATOM     10  O   UNL     1      41.675  49.877  16.455 -1.05 -0.02    -0.269 OA BRANCH   8  11ATOM     11  C   UNL     1      42.537  50.481  13.842 -0.65 -0.03    +0.112 C  ATOM     12  C   UNL     1      42.584  50.725  12.345 -0.71 -0.01    +0.027 C  ENDBRANCH   8  11ENDBRANCH   1   7BRANCH   6  13ATOM     13  C   UNL     1      41.064  47.384  17.698 -0.52 -0.01    +0.100 C  ATOM     14  N   UNL     1      41.967  47.376  18.426 -0.44 +0.00    -0.192 NA ENDBRANCH   6  13BRANCH   4  15ATOM     15  C   UNL     1      36.644  45.766  16.185 -0.35 +0.01    -0.014 A  ATOM     16  C   UNL     1      36.763  44.392  15.895 -0.35 -0.00    +0.012 A  ATOM     17  C   UNL     1      35.400  46.245  16.636 -0.31 -0.05    +0.058 A  ATOM     18  C   UNL     1      35.678  43.522  16.051 -0.38 -0.02    +0.044 A  ATOM     19  C   UNL     1      34.325  45.375  16.790 -0.22 -0.11    +0.151 A  ATOM     20  C   UNL     1      34.465  44.023  16.498 -0.22 -0.08    +0.164 A  ATOM     21  F   UNL     1      33.417  43.201  16.653 -0.06 +0.09    -0.203 F  BRANCH  19  22ATOM     22  O   UNL     1      33.134  45.880  17.230 -0.10 +0.44    -0.505 OA ATOM     23  H   UNL     1      33.058  46.784  16.869 -0.30 -0.66    +0.293 HD ENDBRANCH  19  22ENDBRANCH   4  15TORSDOF 5TERENDMDL