REMARK SMILES N#Cc1ccc(-c2nc3ccccc3nc2-c2ccc(NC(=O)c3ccc(F)cc3)cc2)cc1
REMARK SMILES IDX 7 1 8 2 9 3 10 4 11 5 12 6 13 7 14 8 15 9 16 10 6 11 3 12
REMARK SMILES IDX 4 13 34 14 5 15 33 16 2 17 1 18 17 19 18 20 32 21 19 22
REMARK SMILES IDX 31 23 20 24 21 25 22 26 23 28 24 29 25 30 30 31 26 32 29 33
REMARK SMILES IDX 27 34 28 35
REMARK H PARENT 21 27
ROOT
ATOM      1  C   UNL     1      -3.239   0.469   0.202  1.00  0.00     0.097 A 
ATOM      2  N   UNL     1      -4.517   0.939   0.232  1.00  0.00    -0.244 NA
ATOM      3  C   UNL     1      -4.694   2.268   0.113  1.00  0.00     0.089 A 
ATOM      4  C   UNL     1      -5.980   2.793   0.126  1.00  0.00     0.030 A 
ATOM      5  C   UNL     1      -6.207   4.164   0.001  1.00  0.00     0.002 A 
ATOM      6  C   UNL     1      -5.127   5.026  -0.141  1.00  0.00     0.002 A 
ATOM      7  C   UNL     1      -3.831   4.508  -0.155  1.00  0.00     0.030 A 
ATOM      8  C   UNL     1      -3.595   3.145  -0.030  1.00  0.00     0.089 A 
ATOM      9  N   UNL     1      -2.332   2.686  -0.043  1.00  0.00    -0.244 NA
ATOM     10  C   UNL     1      -2.147   1.343   0.087  1.00  0.00     0.097 A 
ENDROOT
BRANCH   1  11
ATOM     11  C   UNL     1      -3.145  -1.001   0.278  1.00  0.00     0.002 A 
ATOM     12  C   UNL     1      -2.992  -3.820   0.456  1.00  0.00     0.052 A 
ATOM     13  C   UNL     1      -3.730  -3.096   1.395  1.00  0.00     0.020 A 
ATOM     14  C   UNL     1      -2.342  -3.144  -0.579  1.00  0.00     0.020 A 
ATOM     15  C   UNL     1      -3.807  -1.702   1.302  1.00  0.00     0.012 A 
ATOM     16  C   UNL     1      -2.423  -1.750  -0.669  1.00  0.00     0.012 A 
BRANCH  12  17
ATOM     17  C   UNL     1      -2.905  -5.248   0.552  1.00  0.00     0.099 C 
ATOM     18  N   UNL     1      -2.827  -6.403   0.635  1.00  0.00    -0.192 NA
ENDBRANCH  12  17
ENDBRANCH   1  11
BRANCH  10  19
ATOM     19  C   UNL     1      -0.732   0.936   0.120  1.00  0.00     0.003 A 
ATOM     20  C   UNL     1      -0.200   0.187   1.181  1.00  0.00     0.012 A 
ATOM     21  C   UNL     1       0.140   1.306  -0.915  1.00  0.00     0.012 A 
ATOM     22  C   UNL     1       1.145  -0.201   1.188  1.00  0.00     0.027 A 
ATOM     23  C   UNL     1       1.487   0.916  -0.910  1.00  0.00     0.027 A 
ATOM     24  C   UNL     1       2.000   0.158   0.140  1.00  0.00     0.041 A 
BRANCH  24  25
ATOM     25  N   UNL     1       3.338  -0.283   0.219  1.00  0.00    -0.322 N 
ATOM     26  C   UNL     1       4.365  -0.005  -0.665  1.00  0.00     0.255 C 
ATOM     27  H   UNL     1       3.576  -0.805   1.051  1.00  0.00     0.170 HD
ATOM     28  O   UNL     1       4.315   0.722  -1.649  1.00  0.00    -0.269 OA
BRANCH  26  29
ATOM     29  C   UNL     1       5.668  -0.647  -0.332  1.00  0.00     0.040 A 
ATOM     30  C   UNL     1       6.849   0.064  -0.597  1.00  0.00     0.017 A 
ATOM     31  C   UNL     1       5.738  -1.943   0.201  1.00  0.00     0.017 A 
ATOM     32  C   UNL     1       8.089  -0.505  -0.302  1.00  0.00     0.040 A 
ATOM     33  C   UNL     1       6.982  -2.508   0.493  1.00  0.00     0.040 A 
ATOM     34  C   UNL     1       8.144  -1.784   0.243  1.00  0.00     0.123 A 
ATOM     35  F   UNL     1       9.333  -2.330   0.524  1.00  0.00    -0.207 F 
ENDBRANCH  26  29
ENDBRANCH  24  25
ENDBRANCH  10  19
TORSDOF 5
