MODEL        9USER    Run = 9USERUSER    Estimated Free Energy of Binding    = -12.15 kcal/mol  [=(1)+(2)+(3)-(4)]USERUSER    (1) Final Intermolecular Energy     = -13.94 kcal/molUSER        vdW + Hbond + desolv Energy     = -13.67 kcal/molUSER        Electrostatic Energy            =  -0.27 kcal/molUSER        Moving Ligand-Fixed Receptor    = -13.94 kcal/molUSER        Moving Ligand-Moving Receptor   =  +0.00 kcal/molUSER    (2) Final Total Internal Energy     =  -1.85 kcal/molUSER    (3) Torsional Free Energy           =  +1.79 kcal/molUSER    (4) Unbound System's Energy         =  -1.85 kcal/molUSERUSERREMARK SMILES Oc1nc2cc(F)ccc2n1C1CCN(Cc2ccc(-c3nc4cc(F)ccc4nc3-c3ccncc3)cc2)CC1REMARK SMILES IDX 12 1 13 2 14 3 15 4 40 5 41 6 11 7 2 8 3 9 4 10 10 11 5 12REMARK SMILES IDX 9 13 6 14 8 15 7 16 1 17 16 19 17 20 18 21 39 22 19 23 38 24REMARK SMILES IDX 20 25 21 26 22 27 31 28 23 29 30 30 24 31 29 32 25 33 28 34REMARK SMILES IDX 27 35 26 36 32 37 33 38 37 39 34 40 36 41 35 42REMARK H PARENT 1 18USER                              x       y       z     vdW  Elec       q    TypeUSER                           _______ _______ _______ _____ _____    ______ ____ROOTATOM      1  C   UNL     1      38.786  47.436  15.806 -0.46 -0.04    +0.095 C  ATOM      2  C   UNL     1      37.717  48.531  15.672 -0.36 -0.03    +0.041 C  ATOM      3  C   UNL     1      36.569  48.013  14.809 -0.30 -0.08    +0.087 C  ATOM      4  N   UNL     1      36.978  47.619  13.451 -0.43 +0.14    -0.299 NA ATOM      5  C   UNL     1      38.428  47.450  13.293 -0.30 -0.02    +0.087 C  ATOM      6  C   UNL     1      39.089  46.736  14.469 -0.48 -0.01    +0.041 C  ENDROOTBRANCH   1   7ATOM      7  N   UNL     1      39.981  47.906  16.495 -0.29 +0.08    -0.291 N  ATOM      8  C   UNL     1      40.737  48.995  16.163 -0.31 -0.06    +0.295 A  ATOM      9  N   UNL     1      41.764  49.172  16.948 -0.85 -0.04    -0.195 NA ATOM     10  C   UNL     1      41.708  48.120  17.829 -0.35 -0.00    +0.095 A  ATOM     11  C   UNL     1      40.605  47.300  17.569 -0.46 -0.01    +0.072 A  ATOM     12  C   UNL     1      42.588  47.789  18.870 -0.43 +0.00    +0.070 A  ATOM     13  C   UNL     1      40.338  46.137  18.310 -0.46 -0.00    +0.032 A  ATOM     14  C   UNL     1      42.332  46.630  19.605 -0.37 +0.02    +0.125 A  ATOM     15  C   UNL     1      41.234  45.818  19.337 -0.42 +0.00    +0.041 A  ATOM     16  F   UNL     1      43.173  46.281  20.590 -0.08 -0.10    -0.207 F  BRANCH   8  17ATOM     17  O   UNL     1      40.511  49.773  15.128 -0.23 +0.20    -0.480 OA ATOM     18  H   UNL     1      39.764  50.311  15.451 -0.19 -0.22    +0.296 HD ENDBRANCH   8  17ENDBRANCH   1   7BRANCH   4  19ATOM     19  C   UNL     1      36.230  46.453  12.952 -0.56 -0.06    +0.120 C  BRANCH  19  20ATOM     20  C   UNL     1      35.666  45.575  14.050 -0.32 +0.02    -0.034 A  ATOM     21  C   UNL     1      34.434  45.875  14.640 -0.31 -0.01    +0.006 A  ATOM     22  C   UNL     1      36.369  44.451  14.499 -0.28 -0.00    +0.006 A  ATOM     23  C   UNL     1      33.906  45.049  15.639 -0.31 -0.01    +0.011 A  ATOM     24  C   UNL     1      35.845  43.635  15.508 -0.35 -0.00    +0.011 A  ATOM     25  C   UNL     1      34.588  43.900  16.078 -0.34 -0.00    +0.002 A  BRANCH  25  26ATOM     26  C   UNL     1      33.998  43.031  17.118 -0.29 -0.04    +0.097 A  ATOM     27  N   UNL     1      32.901  42.337  16.694 -0.11 +0.12    -0.244 NA ATOM     28  C   UNL     1      34.461  42.905  18.439 -0.31 -0.02    +0.097 A  ATOM     29  C   UNL     1      32.269  41.554  17.585 -0.29 -0.03    +0.092 A  ATOM     30  N   UNL     1      33.810  42.115  19.341 -0.37 +0.00    -0.244 NA ATOM     31  C   UNL     1      31.142  40.848  17.195 -0.27 -0.02    +0.069 A  ATOM     32  C   UNL     1      32.727  41.445  18.919 -0.32 -0.00    +0.090 A  ATOM     33  C   UNL     1      30.471  40.038  18.101 -0.26 +0.00    +0.125 A  ATOM     34  C   UNL     1      32.041  40.623  19.809 -0.06 +0.01    +0.033 A  ATOM     35  C   UNL     1      30.911  39.914  19.408 -0.25 +0.00    +0.041 A  ATOM     36  F   UNL     1      29.380  39.370  17.706 -0.09 -0.05    -0.207 F  BRANCH  28  37ATOM     37  C   UNL     1      35.649  43.577  19.001 -0.37 -0.00    +0.005 A  ATOM     38  C   UNL     1      36.315  44.567  18.263 -0.32 -0.01    +0.030 A  ATOM     39  C   UNL     1      36.149  43.276  20.276 -0.42 -0.00    +0.030 A  ATOM     40  C   UNL     1      37.444  45.168  18.798 -0.20 -0.02    +0.111 A  ATOM     41  C   UNL     1      37.291  43.929  20.724 -0.32 -0.00    +0.111 A  ATOM     42  N   UNL     1      37.955  44.860  20.008 -0.19 +0.01    -0.265 NA ENDBRANCH  28  37ENDBRANCH  25  26ENDBRANCH  19  20ENDBRANCH   4  19TORSDOF 6TERENDMDL