MODEL        4USER    Run = 4USERUSER    Estimated Free Energy of Binding    = -11.38 kcal/mol  [=(1)+(2)+(3)-(4)]USERUSER    (1) Final Intermolecular Energy     = -13.17 kcal/molUSER        vdW + Hbond + desolv Energy     = -12.97 kcal/molUSER        Electrostatic Energy            =  -0.20 kcal/molUSER        Moving Ligand-Fixed Receptor    = -13.17 kcal/molUSER        Moving Ligand-Moving Receptor   =  +0.00 kcal/molUSER    (2) Final Total Internal Energy     =  -1.29 kcal/molUSER    (3) Torsional Free Energy           =  +1.79 kcal/molUSER    (4) Unbound System's Energy         =  -1.29 kcal/molUSERUSERREMARK SMILES Oc1nc2cc(F)ccc2n1C1CCN(Cc2ccc(-c3nc4cc(F)ccc4nc3-c3ccncc3)cc2)CC1REMARK SMILES IDX 12 1 13 2 14 3 15 4 40 5 41 6 11 7 2 8 3 9 4 10 10 11 5 12REMARK SMILES IDX 9 13 6 14 8 15 7 16 1 17 16 19 17 20 18 21 39 22 19 23 38 24REMARK SMILES IDX 20 25 21 26 22 27 31 28 23 29 30 30 24 31 29 32 25 33 28 34REMARK SMILES IDX 27 35 26 36 32 37 33 38 37 39 34 40 36 41 35 42REMARK H PARENT 1 18USER                              x       y       z     vdW  Elec       q    TypeUSER                           _______ _______ _______ _____ _____    ______ ____ROOTATOM      1  C   UNL     1      36.928  45.048  27.799 -0.38 -0.02    +0.095 C  ATOM      2  C   UNL     1      37.382  43.605  28.065 -0.37 -0.01    +0.041 C  ATOM      3  C   UNL     1      38.638  43.311  27.247 -0.26 -0.01    +0.087 C  ATOM      4  N   UNL     1      38.449  43.460  25.795 -0.06 +0.01    -0.299 NA ATOM      5  C   UNL     1      37.234  44.198  25.427 -0.33 +0.00    +0.087 C  ATOM      6  C   UNL     1      36.973  45.418  26.305 -0.35 -0.00    +0.041 C  ENDROOTBRANCH   1   7ATOM      7  N   UNL     1      35.652  45.356  28.432 -0.29 +0.08    -0.291 N  ATOM      8  C   UNL     1      34.618  44.488  28.643 -0.36 -0.07    +0.295 A  ATOM      9  N   UNL     1      33.586  45.041  29.218 -0.71 +0.02    -0.195 NA ATOM     10  C   UNL     1      33.941  46.360  29.365 -0.18 -0.02    +0.095 A  ATOM     11  C   UNL     1      35.230  46.595  28.874 -0.32 -0.02    +0.072 A  ATOM     12  C   UNL     1      33.194  47.425  29.892 -0.32 -0.01    +0.070 A  ATOM     13  C   UNL     1      35.818  47.870  28.879 -0.33 -0.01    +0.032 A  ATOM     14  C   UNL     1      33.771  48.695  29.891 -0.25 -0.00    +0.125 A  ATOM     15  C   UNL     1      35.053  48.922  29.398 -0.28 -0.00    +0.041 A  ATOM     16  F   UNL     1      33.068  49.733  30.370 -0.05 -0.01    -0.207 F  BRANCH   8  17ATOM     17  O   UNL     1      34.610  43.229  28.264 -0.29 +0.14    -0.480 OA ATOM     18  H   UNL     1      35.117  42.809  28.984 -0.30 -0.20    +0.296 HD ENDBRANCH   8  17ENDBRANCH   1   7BRANCH   4  19ATOM     19  C   UNL     1      39.644  43.996  25.123 -0.14 +0.00    +0.120 C  BRANCH  19  20ATOM     20  C   UNL     1      39.412  44.368  23.673 -0.19 -0.00    -0.034 A  ATOM     21  C   UNL     1      38.688  45.517  23.339 -0.30 +0.00    +0.006 A  ATOM     22  C   UNL     1      39.913  43.568  22.640 -0.26 +0.00    +0.006 A  ATOM     23  C   UNL     1      38.495  45.870  21.998 -0.10 +0.00    +0.011 A  ATOM     24  C   UNL     1      39.706  43.916  21.300 -0.20 +0.00    +0.011 A  ATOM     25  C   UNL     1      39.019  45.091  20.951 -0.35 +0.00    +0.002 A  BRANCH  25  26ATOM     26  C   UNL     1      38.821  45.497  19.544 -0.30 -0.01    +0.097 A  ATOM     27  N   UNL     1      39.848  46.243  19.040 -0.27 +0.02    -0.244 NA ATOM     28  C   UNL     1      37.698  45.194  18.755 -0.25 -0.02    +0.097 A  ATOM     29  C   UNL     1      39.736  46.698  17.781 -0.38 -0.02    +0.092 A  ATOM     30  N   UNL     1      37.587  45.665  17.479 -0.21 +0.08    -0.244 NA ATOM     31  C   UNL     1      40.750  47.473  17.242 -0.47 -0.01    +0.069 A  ATOM     32  C   UNL     1      38.595  46.408  16.995 -0.34 -0.03    +0.090 A  ATOM     33  C   UNL     1      40.653  47.957  15.944 -0.45 -0.02    +0.125 A  ATOM     34  C   UNL     1      38.520  46.899  15.696 -0.40 -0.01    +0.033 A  ATOM     35  C   UNL     1      39.546  47.676  15.161 -0.49 -0.01    +0.041 A  ATOM     36  F   UNL     1      41.640  48.711  15.445 -0.11 -0.00    -0.207 F  BRANCH  28  37ATOM     37  C   UNL     1      36.547  44.373  19.177 -0.37 -0.00    +0.005 A  ATOM     38  C   UNL     1      35.276  44.609  18.632 -0.34 -0.01    +0.030 A  ATOM     39  C   UNL     1      36.667  43.332  20.107 -0.38 -0.00    +0.030 A  ATOM     40  C   UNL     1      34.201  43.843  19.060 -0.31 -0.02    +0.111 A  ATOM     41  C   UNL     1      35.531  42.623  20.479 -0.37 +0.00    +0.111 A  ATOM     42  N   UNL     1      34.299  42.865  19.983 -0.55 -0.01    -0.265 NA ENDBRANCH  28  37ENDBRANCH  25  26ENDBRANCH  19  20ENDBRANCH   4  19TORSDOF 6TERENDMDL