MODEL        4USER    Run = 4USERUSER    Estimated Free Energy of Binding    =  -6.14 kcal/mol  [=(1)+(2)+(3)-(4)]USERUSER    (1) Final Intermolecular Energy     = -10.61 kcal/molUSER        vdW + Hbond + desolv Energy     = -10.99 kcal/molUSER        Electrostatic Energy            =  -0.14 kcal/molUSER        Moving Ligand-Fixed Receptor    = -11.13 kcal/molUSER        Moving Ligand-Moving Receptor   =  +0.52 kcal/molUSER    (2) Final Total Internal Energy     =  -3.03 kcal/molUSER    (3) Torsional Free Energy           =  +4.47 kcal/molUSER    (4) Unbound System's Energy         =  -3.03 kcal/molUSERUSERREMARK SMILES COc1ccc(O)c(C(=O)c2ccc(C(=O)N[C@@H]3CCCN(C)C[C@H]3n3cc(C(F)(F)F)nc3OC)cc2)c1FREMARK SMILES IDX 15 1 16 2 17 3 14 5 11 6 12 7 38 8 13 9 37 10 9 11 10 12REMARK SMILES IDX 8 13 3 14 4 15 39 16 5 17 6 18 40 19 2 20 1 21 7 22 18 24REMARK SMILES IDX 19 25 25 27 24 28 22 29 23 30 21 31 20 32 26 34 27 35 34 36REMARK SMILES IDX 28 37 33 38 35 39 36 40 29 41 30 42 31 43 32 44REMARK H PARENT 17 4 7 23REMARK Flexibility Score:   49.900USER                              x       y       z     vdW  Elec       q    TypeUSER                           _______ _______ _______ _____ _____    ______ ____ROOTATOM      1  C   UNL     1      33.364  42.825  18.120 -0.23 -0.06    +0.251 C  ATOM      2  O   UNL     1      33.613  42.836  19.320 -0.46 +0.01    -0.269 OA ATOM      3  N   UNL     1      32.222  42.249  17.601 -0.10 +0.10    -0.347 N  ATOM      4  H   UNL     1      32.050  42.276  16.605 -0.07 -0.08    +0.164 HD ENDROOTBRANCH   1   5ATOM      5  C   UNL     1      34.304  43.470  17.155 -0.31 -0.01    +0.039 A  ATOM      6  C   UNL     1      36.143  44.559  15.318 -0.35 -0.01    +0.023 A  ATOM      7  C   UNL     1      35.021  45.293  15.724 -0.32 -0.01    +0.013 A  ATOM      8  C   UNL     1      36.344  43.276  15.836 -0.42 -0.00    +0.013 A  ATOM      9  C   UNL     1      34.102  44.752  16.631 -0.30 -0.01    +0.014 A  ATOM     10  C   UNL     1      35.427  42.736  16.745 -0.43 -0.01    +0.014 A  BRANCH   6  11ATOM     11  C   UNL     1      37.077  45.187  14.341 -0.32 -0.08    +0.199 C  ATOM     12  O   UNL     1      37.166  44.765  13.190 -0.33 +0.09    -0.288 OA BRANCH  11  13ATOM     13  C   UNL     1      37.932  46.310  14.737 -0.33 -0.04    +0.104 A  ATOM     14  C   UNL     1      39.417  47.297  16.382 -0.36 -0.05    +0.155 A  ATOM     15  C   UNL     1      39.639  48.371  15.513 -0.51 -0.02    +0.053 A  ATOM     16  C   UNL     1      38.562  46.266  15.979 -0.28 -0.06    +0.179 A  ATOM     17  C   UNL     1      39.007  48.416  14.264 -0.44 -0.02    +0.051 A  ATOM     18  C   UNL     1      38.152  47.386  13.878 -0.40 -0.04    +0.130 A  ATOM     19  F   UNL     1      38.336  45.231  16.806 -0.08 +0.05    -0.202 F  BRANCH  14  20ATOM     20  O   UNL     1      39.972  47.154  17.627 -0.19 +0.09    -0.494 OA ATOM     21  C   UNL     1      40.996  46.180  17.778 -0.34 -0.02    +0.278 C  ENDBRANCH  14  20BRANCH  18  22ATOM     22  O   UNL     1      37.502  47.446  12.681 -0.75 +0.11    -0.507 OA ATOM     23  H   UNL     1      37.262  46.548  12.392 +0.24 -0.09    +0.293 HD ENDBRANCH  18  22ENDBRANCH  11  13ENDBRANCH   6  11ENDBRANCH   1   5BRANCH   3  24ATOM     24  C   UNL     1      31.250  41.534  18.451 -0.22 -0.01    +0.106 C  BRANCH  24  25ATOM     25  C   UNL     1      32.005  40.361  19.106 -0.41 +0.00    +0.028 CG0ATOM     26  G   UNL     1      32.149  39.091  18.277 +0.00 +0.00    +0.000 G0 ENDBRANCH  24  25BRANCH  24  27ATOM     27  C   UNL     1      30.028  41.033  17.636 -0.25 -0.01    +0.128 C  BRANCH  27  28ATOM     28  C   UNL     1      29.155  39.988  18.368 -0.23 +0.01    +0.112 C  BRANCH  28  29ATOM     29  N   UNL     1      29.812  38.814  18.957 -0.16 -0.06    -0.304 NA ATOM     30  C   UNL     1      28.811  37.804  19.311 -0.30 +0.03    +0.105 C  BRANCH  29  31ATOM     31  C   UNL     1      30.883  38.241  18.145 -0.26 +0.02    +0.084 C  BRANCH  31  32ATOM     32  C   UNL     1      32.146  39.089  18.280 -0.49 +0.00    +0.018 CG0ATOM     33  G   UNL     1      32.010  40.363  19.103 +0.00 +0.00    +0.000 G0 ENDBRANCH  31  32ENDBRANCH  29  31ENDBRANCH  28  29ENDBRANCH  27  28BRANCH  27  34ATOM     34  N   UNL     1      29.168  42.126  17.165 -0.08 +0.06    -0.294 N  ATOM     35  C   UNL     1      27.927  42.459  17.641 -0.13 -0.02    +0.124 A  ATOM     36  C   UNL     1      29.483  43.023  16.180 -0.09 -0.13    +0.296 A  ATOM     37  C   UNL     1      27.526  43.567  16.911 -0.15 -0.03    +0.166 A  ATOM     38  N   UNL     1      28.522  43.900  16.001 -0.18 +0.09    -0.191 NA BRANCH  36  39ATOM     39  O   UNL     1      30.639  42.989  15.524 -0.12 +0.26    -0.468 OA ATOM     40  C   UNL     1      31.004  44.224  14.919 -0.23 -0.19    +0.282 C  ENDBRANCH  36  39BRANCH  37  41ATOM     41  C   UNL     1      26.250  44.349  17.035 -0.15 -0.01    +0.435 C  ATOM     42  F   UNL     1      25.165  43.567  17.278 -0.14 +0.00    -0.164 F  ATOM     43  F   UNL     1      26.311  45.254  18.050 -0.20 -0.01    -0.164 F  ATOM     44  F   UNL     1      25.980  45.058  15.905 -0.12 -0.01    -0.164 F  ENDBRANCH  37  41ENDBRANCH  27  34ENDBRANCH  24  27ENDBRANCH   3  24TORSDOF 9TERENDMDL