REMARK SMILES Oc1nc2cc(F)ccc2n1C1CCN(Cc2ccc(-c3nc4ccc(F)cc4nc3-c3cncnc3)cc2)CC1
REMARK SMILES IDX 12 1 13 2 14 3 15 4 40 5 41 6 11 7 2 8 3 9 4 10 10 11 5 12
REMARK SMILES IDX 9 13 6 14 8 15 7 16 1 17 16 19 17 20 18 21 39 22 19 23 38 24
REMARK SMILES IDX 20 25 21 26 22 27 31 28 23 29 30 30 24 31 29 32 25 33 28 34
REMARK SMILES IDX 26 35 27 36 32 37 33 38 37 39 34 40 36 41 35 42
REMARK H PARENT 1 18
ROOT
ATOM      1  C   UNL     1       4.261   1.444  -0.300  1.00  0.00     0.095 C 
ATOM      2  C   UNL     1       3.644   1.714   1.083  1.00  0.00     0.041 C 
ATOM      3  C   UNL     1       2.141   1.997   1.011  1.00  0.00     0.087 C 
ATOM      4  N   UNL     1       1.849   2.821  -0.154  1.00  0.00    -0.299 NA
ATOM      5  C   UNL     1       2.116   2.151  -1.429  1.00  0.00     0.087 C 
ATOM      6  C   UNL     1       3.201   1.073  -1.339  1.00  0.00     0.041 C 
ENDROOT
BRANCH   1   7
ATOM      7  N   UNL     1       5.354   0.481  -0.262  1.00  0.00    -0.291 N 
ATOM      8  C   UNL     1       6.646   0.743  -0.626  1.00  0.00     0.295 A 
ATOM      9  N   UNL     1       7.430  -0.296  -0.540  1.00  0.00    -0.195 NA
ATOM     10  C   UNL     1       6.614  -1.304  -0.087  1.00  0.00     0.095 A 
ATOM     11  C   UNL     1       5.303  -0.852   0.099  1.00  0.00     0.072 A 
ATOM     12  C   UNL     1       6.934  -2.641   0.188  1.00  0.00     0.070 A 
ATOM     13  C   UNL     1       4.279  -1.693   0.556  1.00  0.00     0.032 A 
ATOM     14  C   UNL     1       5.920  -3.478   0.645  1.00  0.00     0.125 A 
ATOM     15  C   UNL     1       4.618  -3.022   0.829  1.00  0.00     0.041 A 
ATOM     16  F   UNL     1       6.206  -4.759   0.917  1.00  0.00    -0.207 F 
BRANCH   8  17
ATOM     17  O   UNL     1       7.088   1.918  -1.028  1.00  0.00    -0.480 OA
ATOM     18  H   UNL     1       8.025   1.719  -1.201  1.00  0.00     0.296 HD
ENDBRANCH   8  17
ENDBRANCH   1   7
BRANCH   4  19
ATOM     19  C   UNL     1       0.561   3.525  -0.107  1.00  0.00     0.120 C 
BRANCH  19  20
ATOM     20  C   UNL     1      -0.681   2.656  -0.097  1.00  0.00    -0.034 A 
ATOM     21  C   UNL     1      -1.351   2.357  -1.288  1.00  0.00     0.006 A 
ATOM     22  C   UNL     1      -1.188   2.140   1.102  1.00  0.00     0.006 A 
ATOM     23  C   UNL     1      -2.474   1.525  -1.285  1.00  0.00     0.011 A 
ATOM     24  C   UNL     1      -2.317   1.312   1.105  1.00  0.00     0.011 A 
ATOM     25  C   UNL     1      -2.963   0.966  -0.093  1.00  0.00     0.002 A 
BRANCH  25  26
ATOM     26  C   UNL     1      -4.125   0.060  -0.120  1.00  0.00     0.097 A 
ATOM     27  N   UNL     1      -5.200   0.565  -0.787  1.00  0.00    -0.244 NA
ATOM     28  C   UNL     1      -4.176  -1.210   0.478  1.00  0.00     0.100 A 
ATOM     29  C   UNL     1      -6.321  -0.173  -0.821  1.00  0.00     0.090 A 
ATOM     30  N   UNL     1      -5.323  -1.947   0.455  1.00  0.00    -0.244 NA
ATOM     31  C   UNL     1      -7.442   0.318  -1.482  1.00  0.00     0.033 A 
ATOM     32  C   UNL     1      -6.387  -1.437  -0.190  1.00  0.00     0.092 A 
ATOM     33  C   UNL     1      -8.626  -0.417  -1.530  1.00  0.00     0.041 A 
ATOM     34  C   UNL     1      -7.568  -2.162  -0.243  1.00  0.00     0.069 A 
ATOM     35  C   UNL     1      -8.677  -1.654  -0.907  1.00  0.00     0.125 A 
ATOM     36  F   UNL     1      -9.808  -2.368  -0.948  1.00  0.00    -0.207 F 
BRANCH  28  37
ATOM     37  C   UNL     1      -3.061  -1.882   1.151  1.00  0.00     0.039 A 
ATOM     38  C   UNL     1      -1.776  -1.972   0.639  1.00  0.00     0.125 A 
ATOM     39  C   UNL     1      -3.214  -2.518   2.372  1.00  0.00     0.125 A 
ATOM     40  N   UNL     1      -0.739  -2.579   1.262  1.00  0.00    -0.244 NA
ATOM     41  N   UNL     1      -2.219  -3.141   3.046  1.00  0.00    -0.244 NA
ATOM     42  C   UNL     1      -1.020  -3.139   2.447  1.00  0.00     0.221 A 
ENDBRANCH  28  37
ENDBRANCH  25  26
ENDBRANCH  19  20
ENDBRANCH   4  19
TORSDOF 6
