MODEL        10USER    Run = 10USERUSER    Estimated Free Energy of Binding    = -11.46 kcal/mol  [=(1)+(2)+(3)-(4)]USERUSER    (1) Final Intermolecular Energy     = -14.74 kcal/molUSER        vdW + Hbond + desolv Energy     = -14.58 kcal/molUSER        Electrostatic Energy            =  -0.16 kcal/molUSER        Moving Ligand-Fixed Receptor    = -14.74 kcal/molUSER        Moving Ligand-Moving Receptor   =  +0.00 kcal/molUSER    (2) Final Total Internal Energy     =  -2.55 kcal/molUSER    (3) Torsional Free Energy           =  +3.28 kcal/molUSER    (4) Unbound System's Energy         =  -2.55 kcal/molUSERUSERREMARK SMILES Oc1nc2cc(F)ccc2n1C1CCN(Cc2ccc(-c3nc4cc(F)ccc4nc3-c3ccc(OCCOc4cccnc4)cc3)cc2)CC1REMARK SMILES IDX 21 1 22 2 23 3 24 4 25 5 26 6 27 7 28 8 29 9 30 10 31 11REMARK SMILES IDX 20 12 17 13 18 14 49 15 19 16 48 17 16 18 15 19 12 20 13 21REMARK SMILES IDX 51 22 14 23 50 24 11 25 2 26 3 27 4 28 10 29 5 30 9 31 6 32REMARK SMILES IDX 8 33 7 34 1 35 32 37 33 38 47 39 34 40 46 41 35 42 36 43REMARK SMILES IDX 37 44 38 45 39 46 40 47 41 48 45 49 42 50 44 51 43 52REMARK H PARENT 1 36USER                              x       y       z     vdW  Elec       q    TypeUSER                           _______ _______ _______ _____ _____    ______ ____ROOTATOM      1  C   UNL     1      38.364  44.287  20.355 -0.29 -0.00    +0.097 A  ATOM      2  N   UNL     1      37.453  43.898  19.418 -0.18 +0.02    -0.244 NA ATOM      3  C   UNL     1      37.529  44.462  18.201 -0.28 -0.02    +0.092 A  ATOM      4  C   UNL     1      36.617  44.096  17.224 -0.28 -0.02    +0.069 A  ATOM      5  C   UNL     1      36.674  44.667  15.960 -0.27 -0.05    +0.125 A  ATOM      6  F   UNL     1      35.785  44.301  15.028 -0.08 +0.09    -0.207 F  ATOM      7  C   UNL     1      37.638  45.612  15.648 -0.33 -0.02    +0.041 A  ATOM      8  C   UNL     1      38.559  45.984  16.627 -0.37 -0.01    +0.033 A  ATOM      9  C   UNL     1      38.521  45.426  17.899 -0.34 -0.02    +0.090 A  ATOM     10  N   UNL     1      39.427  45.805  18.814 -0.27 +0.02    -0.244 NA ATOM     11  C   UNL     1      39.365  45.222  20.045 -0.32 -0.00    +0.097 A  ENDROOTBRANCH   1  12ATOM     12  C   UNL     1      38.171  43.654  21.673 -0.34 +0.00    +0.002 A  ATOM     13  C   UNL     1      37.837  42.459  24.225 -0.30 -0.00    -0.034 A  ATOM     14  C   UNL     1      39.113  42.793  23.755 -0.21 +0.00    +0.006 A  ATOM     15  C   UNL     1      36.732  42.705  23.403 -0.37 +0.00    +0.006 A  ATOM     16  C   UNL     1      39.276  43.380  22.497 -0.27 +0.00    +0.011 A  ATOM     17  C   UNL     1      36.899  43.287  22.143 -0.40 +0.00    +0.011 A  BRANCH  13  18ATOM     18  C   UNL     1      37.663  41.837  25.594 -0.29 -0.01    +0.120 C  BRANCH  18  19ATOM     19  N   UNL     1      37.078  42.762  26.579 -0.15 +0.04    -0.299 NA ATOM     20  C   UNL     1      35.714  44.660  28.109 -0.48 -0.03    +0.095 C  ATOM     21  C   UNL     1      37.030  45.060  27.420 -0.40 -0.01    +0.041 C  ATOM     22  C   UNL     1      34.855  43.767  27.210 -0.49 -0.01    +0.041 C  ATOM     23  C   UNL     1      37.369  44.153  26.234 -0.30 -0.01    +0.087 C  ATOM     24  C   UNL     1      35.635  42.527  26.761 -0.51 -0.02    +0.087 C  BRANCH  20  25ATOM     25  N   UNL     1      34.976  45.806  28.623 -0.22 +0.08    -0.291 N  ATOM     26  C   UNL     1      33.746  45.778  29.220 -0.01 -0.03    +0.295 A  ATOM     27  N   UNL     1      33.324  46.955  29.594 -0.69 +0.01    -0.195 NA ATOM     28  C   UNL     1      34.332  47.811  29.225 -0.33 -0.01    +0.095 A  ATOM     29  C   UNL     1      35.385  47.124  28.612 -0.28 -0.02    +0.072 A  ATOM     30  C   UNL     1      34.411  49.201  29.387 -0.23 -0.00    +0.070 A  ATOM     31  C   UNL     1      36.536  47.773  28.143 -0.29 -0.01    +0.032 A  ATOM     32  C   UNL     1      35.553  49.850  28.924 -0.18 +0.00    +0.125 A  ATOM     33  C   UNL     1      36.596  49.160  28.313 -0.24 -0.00    +0.041 A  ATOM     34  F   UNL     1      35.651  51.179  29.068 -0.02 -0.03    -0.207 F  BRANCH  26  35ATOM     35  O   UNL     1      33.024  44.692  29.408 -0.53 -0.01    -0.480 OA ATOM     36  H   UNL     1      32.665  44.854  30.300 -0.17 -0.06    +0.296 HD ENDBRANCH  26  35ENDBRANCH  20  25ENDBRANCH  18  19ENDBRANCH  13  18ENDBRANCH   1  12BRANCH  11  37ATOM     37  C   UNL     1      40.433  45.653  20.964 -0.31 +0.00    +0.003 A  ATOM     38  C   UNL     1      40.117  46.179  22.230 -0.19 +0.00    +0.014 A  ATOM     39  C   UNL     1      41.790  45.575  20.614 -0.34 +0.00    +0.014 A  ATOM     40  C   UNL     1      41.117  46.575  23.128 -0.20 +0.00    +0.047 A  ATOM     41  C   UNL     1      42.787  45.972  21.510 -0.27 +0.01    +0.047 A  ATOM     42  C   UNL     1      42.459  46.458  22.776 -0.17 +0.02    +0.119 A  BRANCH  42  43ATOM     43  O   UNL     1      43.532  46.801  23.550 -0.01 -0.10    -0.490 OA BRANCH  43  44ATOM     44  C   UNL     1      44.077  48.112  23.406 -0.21 +0.07    +0.271 C  BRANCH  44  45ATOM     45  C   UNL     1      43.758  48.973  24.628 -0.22 +0.06    +0.271 C  BRANCH  45  46ATOM     46  O   UNL     1      42.380  49.345  24.654 -0.39 -0.12    -0.488 OA BRANCH  46  47ATOM     47  C   UNL     1      41.549  48.714  25.531 -0.24 +0.02    +0.137 A  ATOM     48  C   UNL     1      40.193  48.788  25.218 -0.24 +0.01    +0.049 A  ATOM     49  C   UNL     1      41.896  48.015  26.680 -0.13 +0.01    +0.157 A  ATOM     50  C   UNL     1      39.251  48.175  26.040 -0.25 +0.00    +0.024 A  ATOM     51  N   UNL     1      41.004  47.404  27.501 -0.53 -0.03    -0.261 NA ATOM     52  C   UNL     1      39.702  47.499  27.161 -0.14 +0.00    +0.111 A  ENDBRANCH  46  47ENDBRANCH  45  46ENDBRANCH  44  45ENDBRANCH  43  44ENDBRANCH  42  43ENDBRANCH  11  37TORSDOF 11TERENDMDL