REMARK SMILES COc1ncc(F)cc1C(=O)N[C@@H]1CCCN(C)C[C@H]1NC(=O)c1cnc(N2CCN(C)CC2)c(F)c1
REMARK SMILES IDX 20 1 13 2 12 4 10 5 11 6 9 8 3 9 4 10 5 11 8 12 6 13 7 14
REMARK SMILES IDX 2 15 1 16 19 17 17 18 18 19 16 20 15 21 14 22 21 24 22 25
REMARK SMILES IDX 23 27 24 28 25 29 37 30 26 31 35 32 27 33 36 34 28 35 29 36
REMARK SMILES IDX 34 37 30 38 33 39 31 40 32 41
REMARK H PARENT 12 7 21 26
REMARK Flexibility Score:   65.900
ROOT
ATOM      1  C   UNL     1      -1.685  -0.010   0.369  1.00  0.00     0.118 C 
ENDROOT
BRANCH   1   2
ATOM      2  C   UNL     1      -2.476  -0.548  -0.858  1.00  0.00     0.106 CG0
ATOM      3  G   UNL     1      -2.280  -2.041  -1.174  1.00  0.00     0.000 G0
BRANCH   2   4
ATOM      4  N   UNL     1      -3.900  -0.231  -0.758  1.00  0.00    -0.347 N 
ATOM      5  C   UNL     1      -4.647   0.212  -1.824  1.00  0.00     0.257 C 
ATOM      6  O   UNL     1      -4.156   0.490  -2.914  1.00  0.00    -0.269 OA
ATOM      7  H   UNL     1      -4.367  -0.571   0.085  1.00  0.00     0.164 HD
BRANCH   5   8
ATOM      8  C   UNL     1      -6.103   0.404  -1.617  1.00  0.00     0.104 A 
ATOM      9  C   UNL     1      -6.875  -0.303  -0.693  1.00  0.00     0.226 A 
ATOM     10  N   UNL     1      -8.208  -0.100  -0.522  1.00  0.00    -0.218 NA
ATOM     11  C   UNL     1      -8.793   0.832  -1.311  1.00  0.00     0.154 A 
ATOM     12  C   UNL     1      -6.750   1.351  -2.423  1.00  0.00     0.060 A 
ATOM     13  C   UNL     1      -8.108   1.565  -2.262  1.00  0.00     0.142 A 
ATOM     14  F   UNL     1      -8.746   2.469  -3.015  1.00  0.00    -0.205 F 
BRANCH   9  15
ATOM     15  O   UNL     1      -6.265  -1.275   0.074  1.00  0.00    -0.480 OA
ATOM     16  C   UNL     1      -7.164  -1.994   0.913  1.00  0.00     0.280 C 
ENDBRANCH   9  15
ENDBRANCH   5   8
ENDBRANCH   2   4
ENDBRANCH   1   2
BRANCH   1  17
ATOM     17  C   UNL     1      -2.031  -0.690   1.734  1.00  0.00     0.111 C 
BRANCH  17  18
ATOM     18  N   UNL     1      -3.256  -1.509   1.716  1.00  0.00    -0.304 NA
ATOM     19  C   UNL     1      -3.834  -1.603   3.060  1.00  0.00     0.105 C 
BRANCH  18  20
ATOM     20  C   UNL     1      -3.026  -2.858   1.172  1.00  0.00     0.084 C 
BRANCH  20  21
ATOM     21  C   UNL     1      -2.028  -2.966   0.014  1.00  0.00     0.018 C 
BRANCH  21  22
ATOM     22  C   UNL     1      -2.280  -2.041  -1.174  1.00  0.00     0.028 CG0
ATOM     23  G   UNL     1      -2.476  -0.548  -0.858  1.00  0.00     0.000 G0
ENDBRANCH  21  22
ENDBRANCH  20  21
ENDBRANCH  18  20
ENDBRANCH  17  18
ENDBRANCH   1  17
BRANCH   1  24
ATOM     24  N   UNL     1      -0.236  -0.011   0.100  1.00  0.00    -0.346 N 
ATOM     25  C   UNL     1       0.642   0.630   0.951  1.00  0.00     0.253 C 
ATOM     26  H   UNL     1       0.038  -0.090  -0.871  1.00  0.00     0.164 HD
ATOM     27  O   UNL     1       0.310   1.124   2.022  1.00  0.00    -0.269 OA
BRANCH  25  28
ATOM     28  C   UNL     1       2.047   0.732   0.498  1.00  0.00     0.061 A 
ATOM     29  C   UNL     1       2.845   1.744   1.011  1.00  0.00     0.127 A 
ATOM     30  C   UNL     1       2.624  -0.148  -0.409  1.00  0.00     0.058 A 
ATOM     31  N   UNL     1       4.143   1.940   0.660  1.00  0.00    -0.236 NA
ATOM     32  C   UNL     1       3.957   0.039  -0.772  1.00  0.00     0.166 A 
ATOM     33  C   UNL     1       4.718   1.089  -0.228  1.00  0.00     0.164 A 
ATOM     34  F   UNL     1       4.478  -0.808  -1.675  1.00  0.00    -0.203 F 
BRANCH  33  35
ATOM     35  N   UNL     1       6.037   1.320  -0.586  1.00  0.00    -0.352 N 
ATOM     36  C   UNL     1       6.683   2.524  -0.049  1.00  0.00     0.133 C 
ATOM     37  C   UNL     1       6.922   0.194  -0.923  1.00  0.00     0.133 C 
ATOM     38  C   UNL     1       8.038   2.770  -0.753  1.00  0.00     0.105 C 
ATOM     39  C   UNL     1       8.335   0.382  -0.321  1.00  0.00     0.105 C 
ATOM     40  N   UNL     1       8.996   1.642  -0.715  1.00  0.00    -0.303 NA
ATOM     41  C   UNL     1      10.133   1.925   0.155  1.00  0.00     0.105 C 
ENDBRANCH  33  35
ENDBRANCH  25  28
ENDBRANCH   1  24
TORSDOF 6
