MODEL        9USER    Run = 9USERUSER    Estimated Free Energy of Binding    =  -6.26 kcal/mol  [=(1)+(2)+(3)-(4)]USERUSER    (1) Final Intermolecular Energy     =  -9.84 kcal/molUSER        vdW + Hbond + desolv Energy     = -10.55 kcal/molUSER        Electrostatic Energy            =  +0.06 kcal/molUSER        Moving Ligand-Fixed Receptor    = -10.49 kcal/molUSER        Moving Ligand-Moving Receptor   =  +0.65 kcal/molUSER    (2) Final Total Internal Energy     =  -2.97 kcal/molUSER    (3) Torsional Free Energy           =  +3.58 kcal/molUSER    (4) Unbound System's Energy         =  -2.97 kcal/molUSERUSERREMARK SMILES COc1ncc(F)cc1C(=O)N[C@@H]1CCCN(C)C[C@H]1NC(=O)c1cnc(N2CCN(C)CC2)c(F)c1REMARK SMILES IDX 20 1 13 2 12 4 10 5 11 6 9 8 3 9 4 10 5 11 8 12 6 13 7 14REMARK SMILES IDX 2 15 1 16 19 17 17 18 18 19 16 20 15 21 14 22 21 24 22 25REMARK SMILES IDX 23 27 24 28 25 29 37 30 26 31 35 32 27 33 36 34 28 35 29 36REMARK SMILES IDX 34 37 30 38 33 39 31 40 32 41REMARK H PARENT 12 7 21 26REMARK Flexibility Score:   65.900USER                              x       y       z     vdW  Elec       q    TypeUSER                           _______ _______ _______ _____ _____    ______ ____ROOTATOM      1  C   UNL     1      36.897  47.014  16.454 -0.26 -0.09    +0.118 C  ENDROOTBRANCH   1   2ATOM      2  C   UNL     1      38.308  46.546  16.911 -0.37 -0.04    +0.106 CG0ATOM      3  G   UNL     1      39.440  47.573  16.736 +0.00 +0.00    +0.000 G0 BRANCH   2   4ATOM      4  N   UNL     1      38.286  46.040  18.283 -0.14 +0.07    -0.347 N  ATOM      5  C   UNL     1      37.839  44.782  18.612 -0.26 -0.04    +0.257 C  ATOM      6  O   UNL     1      37.313  44.026  17.800 -0.21 +0.06    -0.269 OA ATOM      7  H   UNL     1      38.831  46.580  18.958 +0.07 -0.02    +0.164 HD BRANCH   5   8ATOM      8  C   UNL     1      37.960  44.352  20.027 -0.30 -0.00    +0.104 A  ATOM      9  C   UNL     1      38.893  44.858  20.934 -0.22 +0.00    +0.226 A  ATOM     10  N   UNL     1      38.976  44.448  22.227 -0.17 -0.01    -0.218 NA ATOM     11  C   UNL     1      38.106  43.490  22.624 -0.25 +0.01    +0.154 A  ATOM     12  C   UNL     1      37.086  43.352  20.474 -0.34 -0.00    +0.060 A  ATOM     13  C   UNL     1      37.162  42.923  21.788 -0.33 +0.01    +0.142 A  ATOM     14  F   UNL     1      36.333  41.974  22.240 -0.17 -0.01    -0.205 F  BRANCH   9  15ATOM     15  O   UNL     1      39.795  45.807  20.497 -0.12 -0.01    -0.480 OA ATOM     16  C   UNL     1      41.157  45.456  20.728 -0.23 +0.03    +0.280 C  ENDBRANCH   9  15ENDBRANCH   5   8ENDBRANCH   2   4ENDBRANCH   1   2BRANCH   1  17ATOM     17  C   UNL     1      36.854  47.746  15.073 -0.41 -0.09    +0.111 C  BRANCH  17  18ATOM     18  N   UNL     1      37.683  47.124  14.025 -0.24 +0.12    -0.304 NA ATOM     19  C   UNL     1      37.506  45.669  14.022 -0.41 -0.04    +0.105 C  BRANCH  18  20ATOM     20  C   UNL     1      39.111  47.457  14.162 -0.42 -0.02    +0.084 C  BRANCH  20  21ATOM     21  C   UNL     1      39.502  48.293  15.385 -0.60 -0.01    +0.018 C  BRANCH  21  22ATOM     22  C   UNL     1      39.440  47.577  16.732 -0.49 -0.01    +0.028 CG0ATOM     23  G   UNL     1      38.311  46.548  16.916 +0.00 +0.00    +0.000 G0 ENDBRANCH  21  22ENDBRANCH  20  21ENDBRANCH  18  20ENDBRANCH  17  18ENDBRANCH   1  17BRANCH   1  24ATOM     24  N   UNL     1      35.928  45.906  16.525 -0.13 +0.24    -0.346 N  ATOM     25  C   UNL     1      34.923  45.905  17.471 -0.27 -0.19    +0.253 C  ATOM     26  H   UNL     1      36.255  45.006  16.198 +0.12 -0.08    +0.164 HD ATOM     27  O   UNL     1      34.691  46.850  18.215 -0.65 +0.23    -0.269 OA BRANCH  25  28ATOM     28  C   UNL     1      34.120  44.666  17.582 -0.28 -0.03    +0.061 A  ATOM     29  C   UNL     1      34.012  43.836  16.477 -0.25 -0.06    +0.127 A  ATOM     30  C   UNL     1      33.476  44.275  18.749 -0.35 -0.01    +0.058 A  ATOM     31  N   UNL     1      33.295  42.682  16.460 -0.20 +0.12    -0.236 NA ATOM     32  C   UNL     1      32.742  43.089  18.747 -0.26 -0.02    +0.166 A  ATOM     33  C   UNL     1      32.658  42.289  17.593 -0.24 -0.05    +0.164 A  ATOM     34  F   UNL     1      32.104  42.753  19.880 -0.11 -0.02    -0.203 F  BRANCH  33  35ATOM     35  N   UNL     1      31.917  41.119  17.547 -0.14 +0.11    -0.352 N  ATOM     36  C   UNL     1      32.090  40.165  18.650 -0.36 -0.00    +0.133 C  ATOM     37  C   UNL     1      30.623  41.088  16.848 -0.31 -0.04    +0.133 C  ATOM     38  C   UNL     1      31.410  38.818  18.310 -0.43 +0.01    +0.105 C  ATOM     39  C   UNL     1      29.568  40.280  17.641 -0.30 +0.00    +0.105 C  ATOM     40  N   UNL     1      29.976  38.895  17.950 -0.19 -0.09    -0.303 NA ATOM     41  C   UNL     1      29.124  38.323  18.988 -0.33 +0.03    +0.105 C  ENDBRANCH  33  35ENDBRANCH  25  28ENDBRANCH   1  24TORSDOF 6TERENDMDL