MODEL        7USER    Run = 7USERUSER    Estimated Free Energy of Binding    = -12.07 kcal/mol  [=(1)+(2)+(3)-(4)]USERUSER    (1) Final Intermolecular Energy     = -13.86 kcal/molUSER        vdW + Hbond + desolv Energy     = -13.73 kcal/molUSER        Electrostatic Energy            =  -0.12 kcal/molUSER        Moving Ligand-Fixed Receptor    = -13.86 kcal/molUSER        Moving Ligand-Moving Receptor   =  +0.00 kcal/molUSER    (2) Final Total Internal Energy     =  -1.29 kcal/molUSER    (3) Torsional Free Energy           =  +1.79 kcal/molUSER    (4) Unbound System's Energy         =  -1.29 kcal/molUSERUSERREMARK SMILES Oc1nc2cc(F)ccc2n1C1CCN(Cc2ccc(-c3nc4ccc(F)cc4nc3-c3cncnc3)cc2)CC1REMARK SMILES IDX 12 1 13 2 14 3 15 4 40 5 41 6 11 7 2 8 3 9 4 10 10 11 5 12REMARK SMILES IDX 9 13 6 14 8 15 7 16 1 17 16 19 17 20 18 21 39 22 19 23 38 24REMARK SMILES IDX 20 25 21 26 22 27 31 28 23 29 30 30 24 31 29 32 25 33 28 34REMARK SMILES IDX 26 35 27 36 32 37 33 38 37 39 34 40 36 41 35 42REMARK H PARENT 1 18USER                              x       y       z     vdW  Elec       q    TypeUSER                           _______ _______ _______ _____ _____    ______ ____ROOTATOM      1  C   UNL     1      40.940  45.805  19.034 -0.46 +0.00    +0.095 C  ATOM      2  C   UNL     1      39.522  45.237  19.216 -0.44 -0.00    +0.041 C  ATOM      3  C   UNL     1      39.238  44.817  20.661 -0.36 +0.00    +0.087 C  ATOM      4  N   UNL     1      40.418  44.181  21.230 -0.13 -0.01    -0.299 NA ATOM      5  C   UNL     1      41.562  45.085  21.372 -0.30 +0.01    +0.087 C  ATOM      6  C   UNL     1      41.561  46.237  20.363 -0.40 +0.00    +0.041 C  ENDROOTBRANCH   1   7ATOM      7  N   UNL     1      41.012  46.855  18.026 -0.31 +0.02    -0.291 N  ATOM      8  C   UNL     1      41.957  47.843  17.986 -0.19 -0.01    +0.295 A  ATOM      9  N   UNL     1      41.783  48.687  17.007 -0.80 -0.02    -0.195 NA ATOM     10  C   UNL     1      40.663  48.231  16.356 -0.49 -0.02    +0.095 A  ATOM     11  C   UNL     1      40.152  47.081  16.968 -0.45 -0.01    +0.072 A  ATOM     12  C   UNL     1      40.024  48.758  15.225 -0.52 -0.02    +0.070 A  ATOM     13  C   UNL     1      39.009  46.424  16.491 -0.40 -0.01    +0.032 A  ATOM     14  C   UNL     1      38.891  48.106  14.746 -0.43 -0.05    +0.125 A  ATOM     15  C   UNL     1      38.388  46.962  15.360 -0.40 -0.02    +0.041 A  ATOM     16  F   UNL     1      38.268  48.592  13.664 -0.14 +0.07    -0.207 F  BRANCH   8  17ATOM     17  O   UNL     1      42.957  47.958  18.836 -0.31 -0.01    -0.480 OA ATOM     18  H   UNL     1      42.905  48.903  19.063 -0.36 -0.04    +0.296 HD ENDBRANCH   8  17ENDBRANCH   1   7BRANCH   4  19ATOM     19  C   UNL     1      40.163  43.349  22.414 -0.25 +0.01    +0.120 C  BRANCH  19  20ATOM     20  C   UNL     1      39.316  43.973  23.505 -0.21 -0.00    -0.034 A  ATOM     21  C   UNL     1      37.955  43.667  23.613 -0.31 +0.00    +0.006 A  ATOM     22  C   UNL     1      39.873  44.873  24.422 -0.14 +0.00    +0.006 A  ATOM     23  C   UNL     1      37.181  44.212  24.641 -0.32 +0.00    +0.011 A  ATOM     24  C   UNL     1      39.095  45.424  25.447 -0.17 +0.00    +0.011 A  ATOM     25  C   UNL     1      37.741  45.080  25.593 -0.29 +0.00    +0.002 A  BRANCH  25  26ATOM     26  C   UNL     1      36.914  45.611  26.691 -0.27 -0.02    +0.097 A  ATOM     27  N   UNL     1      36.918  46.971  26.774 -0.25 +0.04    -0.244 NA ATOM     28  C   UNL     1      36.179  44.833  27.600 -0.33 -0.03    +0.100 A  ATOM     29  C   UNL     1      36.230  47.541  27.775 -0.25 -0.02    +0.090 A  ATOM     30  N   UNL     1      35.496  45.417  28.626 -0.30 +0.06    -0.244 NA ATOM     31  C   UNL     1      36.224  48.926  27.898 -0.30 -0.00    +0.033 A  ATOM     32  C   UNL     1      35.517  46.759  28.714 -0.28 -0.02    +0.092 A  ATOM     33  C   UNL     1      35.527  49.552  28.931 -0.23 -0.00    +0.041 A  ATOM     34  C   UNL     1      34.826  47.389  29.738 -0.33 -0.01    +0.069 A  ATOM     35  C   UNL     1      34.833  48.774  29.844 -0.25 -0.01    +0.125 A  ATOM     36  F   UNL     1      34.160  49.365  30.838 -0.03 +0.00    -0.207 F  BRANCH  28  37ATOM     37  C   UNL     1      36.040  43.375  27.559 -0.44 -0.01    +0.039 A  ATOM     38  C   UNL     1      37.096  42.484  27.676 -0.29 -0.03    +0.125 A  ATOM     39  C   UNL     1      34.815  42.757  27.371 -0.47 -0.03    +0.125 A  ATOM     40  N   UNL     1      36.972  41.136  27.652 -0.36 +0.07    -0.244 NA ATOM     41  N   UNL     1      34.625  41.417  27.339 -0.41 +0.09    -0.244 NA ATOM     42  C   UNL     1      35.727  40.669  27.482 -0.35 -0.10    +0.221 A  ENDBRANCH  28  37ENDBRANCH  25  26ENDBRANCH  19  20ENDBRANCH   4  19TORSDOF 6TERENDMDL