REMARK SMILES COc1ccc(O)c(C(=O)c2ccc(C(=O)N[C@@H]3CCCN(C)C[C@H]3n3cc(C(F)(F)F)nc3OC)cc2)c1F
REMARK SMILES IDX 15 1 16 2 17 3 14 5 11 6 12 7 38 8 13 9 37 10 9 11 10 12
REMARK SMILES IDX 8 13 3 14 4 15 39 16 5 17 6 18 40 19 2 20 1 21 7 22 18 24
REMARK SMILES IDX 19 25 25 27 24 28 22 29 23 30 21 31 20 32 26 34 27 35 34 36
REMARK SMILES IDX 28 37 33 38 35 39 36 40 29 41 30 42 31 43 32 44
REMARK H PARENT 17 4 7 23
REMARK Flexibility Score:   49.900
ROOT
ATOM      1  C   UNL     1      -0.204  -1.109  -0.702  1.00  0.00     0.251 C 
ATOM      2  O   UNL     1      -0.043  -2.324  -0.736  1.00  0.00    -0.269 OA
ATOM      3  N   UNL     1      -1.435  -0.514  -0.893  1.00  0.00    -0.347 N 
ATOM      4  H   UNL     1      -1.523   0.492  -0.842  1.00  0.00     0.164 HD
ENDROOT
BRANCH   1   5
ATOM      5  C   UNL     1       0.956  -0.209  -0.426  1.00  0.00     0.039 A 
ATOM      6  C   UNL     1       3.225   1.371   0.120  1.00  0.00     0.023 A 
ATOM      7  C   UNL     1       2.081   1.940  -0.456  1.00  0.00     0.013 A 
ATOM      8  C   UNL     1       3.230   0.006   0.424  1.00  0.00     0.013 A 
ATOM      9  C   UNL     1       0.956   1.156  -0.735  1.00  0.00     0.014 A 
ATOM     10  C   UNL     1       2.103  -0.777   0.148  1.00  0.00     0.014 A 
BRANCH   6  11
ATOM     11  C   UNL     1       4.394   2.257   0.381  1.00  0.00     0.199 C 
ATOM     12  O   UNL     1       4.312   3.474   0.230  1.00  0.00    -0.288 OA
BRANCH  11  13
ATOM     13  C   UNL     1       5.681   1.695   0.801  1.00  0.00     0.104 A 
ATOM     14  C   UNL     1       7.781   0.650   0.182  1.00  0.00     0.155 A 
ATOM     15  C   UNL     1       8.178   0.690   1.523  1.00  0.00     0.053 A 
ATOM     16  C   UNL     1       6.527   1.161  -0.169  1.00  0.00     0.179 A 
ATOM     17  C   UNL     1       7.329   1.228   2.499  1.00  0.00     0.051 A 
ATOM     18  C   UNL     1       6.080   1.728   2.137  1.00  0.00     0.130 A 
ATOM     19  F   UNL     1       6.131   1.123  -1.452  1.00  0.00    -0.202 F 
BRANCH  14  20
ATOM     20  O   UNL     1       8.523   0.140  -0.851  1.00  0.00    -0.494 OA
ATOM     21  C   UNL     1       9.832  -0.324  -0.548  1.00  0.00     0.278 C 
ENDBRANCH  14  20
BRANCH  18  22
ATOM     22  O   UNL     1       5.233   2.213   3.089  1.00  0.00    -0.507 OA
ATOM     23  H   UNL     1       5.719   2.354   3.920  1.00  0.00     0.293 HD
ENDBRANCH  18  22
ENDBRANCH  11  13
ENDBRANCH   6  11
ENDBRANCH   1   5
BRANCH   3  24
ATOM     24  C   UNL     1      -2.639  -1.298  -1.228  1.00  0.00     0.106 C 
BRANCH  24  25
ATOM     25  C   UNL     1      -2.681  -1.422  -2.764  1.00  0.00     0.028 CG0
ATOM     26  G   UNL     1      -3.705  -2.388  -3.345  1.00  0.00     0.000 G0
ENDBRANCH  24  25
BRANCH  24  27
ATOM     27  C   UNL     1      -3.932  -0.635  -0.681  1.00  0.00     0.128 C 
BRANCH  27  28
ATOM     28  C   UNL     1      -5.128  -1.601  -0.519  1.00  0.00     0.112 C 
BRANCH  28  29
ATOM     29  N   UNL     1      -5.348  -2.624  -1.549  1.00  0.00    -0.304 NA
ATOM     30  C   UNL     1      -6.667  -3.238  -1.372  1.00  0.00     0.105 C 
BRANCH  29  31
ATOM     31  C   UNL     1      -5.155  -2.162  -2.921  1.00  0.00     0.084 C 
BRANCH  31  32
ATOM     32  C   UNL     1      -3.705  -2.388  -3.345  1.00  0.00     0.018 CG0
ATOM     33  G   UNL     1      -2.681  -1.422  -2.764  1.00  0.00     0.000 G0
ENDBRANCH  31  32
ENDBRANCH  29  31
ENDBRANCH  28  29
ENDBRANCH  27  28
BRANCH  27  34
ATOM     34  N   UNL     1      -3.718   0.075   0.586  1.00  0.00    -0.294 N 
ATOM     35  C   UNL     1      -3.259  -0.459   1.761  1.00  0.00     0.124 A 
ATOM     36  C   UNL     1      -3.916   1.414   0.795  1.00  0.00     0.296 A 
ATOM     37  C   UNL     1      -3.196   0.596   2.658  1.00  0.00     0.166 A 
ATOM     38  N   UNL     1      -3.614   1.760   2.025  1.00  0.00    -0.191 NA
BRANCH  36  39
ATOM     39  O   UNL     1      -4.342   2.232  -0.162  1.00  0.00    -0.468 OA
ATOM     40  C   UNL     1      -4.536   3.577   0.262  1.00  0.00     0.282 C 
ENDBRANCH  36  39
BRANCH  37  41
ATOM     41  C   UNL     1      -2.743   0.571   4.090  1.00  0.00     0.435 C 
ATOM     42  F   UNL     1      -3.103   1.683   4.784  1.00  0.00    -0.164 F 
ATOM     43  F   UNL     1      -3.262  -0.492   4.763  1.00  0.00    -0.164 F 
ATOM     44  F   UNL     1      -1.390   0.465   4.189  1.00  0.00    -0.164 F 
ENDBRANCH  37  41
ENDBRANCH  27  34
ENDBRANCH  24  27
ENDBRANCH   3  24
TORSDOF 9
