REMARK SMILES NS(=O)(=O)C=C1C=C(Nc2nc3ccccc3nc2N2CCNCC2)[C@H]1Cl
REMARK SMILES IDX 6 1 7 2 8 3 26 4 27 5 5 6 2 7 3 8 4 9 1 10 9 13 10 15 11 16
REMARK SMILES IDX 19 17 12 18 18 19 13 20 17 21 14 22 16 23 15 24 20 25 21 26
REMARK SMILES IDX 25 27 22 28 24 29 23 30
REMARK H PARENT 1 11 1 12 9 14 23 31
ROOT
ATOM      1  C   UNL     1       3.849  -0.186  -0.166  1.00  0.00    -0.010 C 
ATOM      2  C   UNL     1       3.043   1.002  -0.145  1.00  0.00     0.030 C 
ATOM      3  C   UNL     1       1.875   0.324   0.040  1.00  0.00     0.039 C 
ATOM      4  C   UNL     1       2.616  -1.044  -0.006  1.00  0.00     0.158 C 
ATOM      5  Cl  UNL     1       2.233  -2.192  -1.370  1.00  0.00    -0.111 Cl
ENDROOT
BRANCH   1   6
ATOM      6  C   UNL     1       5.152  -0.462  -0.283  1.00  0.00     0.128 C 
BRANCH   6   7
ATOM      7  S   UNL     1       6.301   0.801  -0.467  1.00  0.00     0.231 S 
ATOM      8  O   UNL     1       6.257   1.700   0.665  1.00  0.00    -0.208 OA
ATOM      9  O   UNL     1       6.284   1.297  -1.824  1.00  0.00    -0.208 OA
BRANCH   7  10
ATOM     10  N   UNL     1       7.799   0.043  -0.326  1.00  0.00    -0.225 NA
ATOM     11  H   UNL     1       8.299   0.476   0.454  1.00  0.00     0.137 HD
ATOM     12  H   UNL     1       8.306   0.169  -1.206  1.00  0.00     0.137 HD
ENDBRANCH   7  10
ENDBRANCH   6   7
ENDBRANCH   1   6
BRANCH   3  13
ATOM     13  N   UNL     1       0.603   0.612   0.188  1.00  0.00    -0.339 N 
ATOM     14  H   UNL     1       0.278   1.574   0.292  1.00  0.00     0.168 HD
BRANCH  13  15
ATOM     15  C   UNL     1      -0.424  -0.258   0.643  1.00  0.00     0.174 A 
ATOM     16  N   UNL     1      -0.095  -1.476   1.136  1.00  0.00    -0.225 NA
ATOM     17  C   UNL     1      -1.781   0.172   0.555  1.00  0.00     0.172 A 
ATOM     18  C   UNL     1      -1.101  -2.248   1.575  1.00  0.00     0.091 A 
ATOM     19  N   UNL     1      -2.779  -0.607   1.031  1.00  0.00    -0.225 NA
ATOM     20  C   UNL     1      -0.818  -3.507   2.090  1.00  0.00     0.031 A 
ATOM     21  C   UNL     1      -2.445  -1.811   1.530  1.00  0.00     0.091 A 
ATOM     22  C   UNL     1      -1.829  -4.343   2.564  1.00  0.00     0.002 A 
ATOM     23  C   UNL     1      -3.445  -2.651   2.005  1.00  0.00     0.031 A 
ATOM     24  C   UNL     1      -3.148  -3.913   2.520  1.00  0.00     0.002 A 
BRANCH  17  25
ATOM     25  N   UNL     1      -2.098   1.433  -0.004  1.00  0.00    -0.351 N 
ATOM     26  C   UNL     1      -3.441   1.920   0.362  1.00  0.00     0.133 C 
ATOM     27  C   UNL     1      -1.790   1.520  -1.456  1.00  0.00     0.133 C 
ATOM     28  C   UNL     1      -3.728   3.260  -0.353  1.00  0.00     0.102 C 
ATOM     29  C   UNL     1      -3.007   1.975  -2.294  1.00  0.00     0.102 C 
ATOM     30  N   UNL     1      -3.642   3.220  -1.826  1.00  0.00    -0.313 NA
ATOM     31  H   UNL     1      -4.577   3.283  -2.226  1.00  0.00     0.122 HD
ENDBRANCH  17  25
ENDBRANCH  13  15
ENDBRANCH   3  13
TORSDOF 6
