MODEL        7USER    Run = 7USERUSER    Estimated Free Energy of Binding    =  -6.67 kcal/mol  [=(1)+(2)+(3)-(4)]USERUSER    (1) Final Intermolecular Energy     = -11.14 kcal/molUSER        vdW + Hbond + desolv Energy     = -12.41 kcal/molUSER        Electrostatic Energy            =  -0.09 kcal/molUSER        Moving Ligand-Fixed Receptor    = -12.50 kcal/molUSER        Moving Ligand-Moving Receptor   =  +1.36 kcal/molUSER    (2) Final Total Internal Energy     =  -2.02 kcal/molUSER    (3) Torsional Free Energy           =  +4.47 kcal/molUSER    (4) Unbound System's Energy         =  -2.02 kcal/molUSERUSERREMARK SMILES COc1ccc(O)c(C(=O)c2ccc(C(=O)O[C@@H]3CCCNC[C@H]3NC(=O)c3ccnc(F)c3)cc2)c1FREMARK SMILES IDX 17 1 15 2 16 3 14 4 11 5 12 6 36 7 13 8 35 9 9 10 10 11 8 12REMARK SMILES IDX 3 13 4 14 37 15 5 16 6 17 38 18 2 19 1 20 7 21 18 23 24 25REMARK SMILES IDX 23 26 22 27 21 29 20 30 19 31 25 33 26 34 27 36 28 37 29 38REMARK SMILES IDX 34 39 30 40 32 41 31 42 33 43REMARK H PARENT 7 22 22 28 25 35REMARK Flexibility Score:   99.900USER                              x       y       z     vdW  Elec       q    TypeUSER                           _______ _______ _______ _____ _____    ______ ____ROOTATOM      1  O   UNL     1      39.836  46.705  23.944 -0.07 -0.04    -0.457 OA ENDROOTBRANCH   1   2ATOM      2  C   UNL     1      39.710  45.496  23.345 -0.12 +0.02    +0.338 C  ATOM      3  O   UNL     1      39.397  44.457  23.902 -0.10 -0.01    -0.246 OA BRANCH   2   4ATOM      4  C   UNL     1      40.007  45.596  21.890 -0.26 +0.00    +0.060 A  ATOM      5  C   UNL     1      40.457  45.764  19.128 -0.44 -0.00    +0.023 A  ATOM      6  C   UNL     1      39.213  45.343  19.606 -0.39 -0.00    +0.013 A  ATOM      7  C   UNL     1      41.486  46.071  20.027 -0.40 +0.00    +0.013 A  ATOM      8  C   UNL     1      38.989  45.265  20.984 -0.33 +0.00    +0.016 A  ATOM      9  C   UNL     1      41.260  45.998  21.404 -0.28 +0.00    +0.016 A  BRANCH   5  10ATOM     10  C   UNL     1      40.746  45.830  17.678 -0.38 -0.01    +0.199 C  ATOM     11  O   UNL     1      41.620  45.092  17.218 -0.21 -0.01    -0.288 OA BRANCH  10  12ATOM     12  C   UNL     1      40.004  46.704  16.742 -0.40 -0.02    +0.104 A  ATOM     13  C   UNL     1      38.079  47.170  15.316 -0.32 -0.07    +0.155 A  ATOM     14  C   UNL     1      38.642  48.398  14.961 -0.49 -0.03    +0.053 A  ATOM     15  C   UNL     1      38.765  46.336  16.212 -0.29 -0.05    +0.179 A  ATOM     16  C   UNL     1      39.865  48.790  15.509 -0.53 -0.02    +0.051 A  ATOM     17  C   UNL     1      40.533  47.954  16.402 -0.44 -0.02    +0.130 A  ATOM     18  F   UNL     1      38.191  45.177  16.575 -0.07 +0.05    -0.202 F  BRANCH  13  19ATOM     19  O   UNL     1      36.883  46.684  14.857 -0.07 +0.30    -0.494 OA ATOM     20  C   UNL     1      36.474  47.082  13.554 -0.39 -0.15    +0.278 C  ENDBRANCH  13  19BRANCH  17  21ATOM     21  O   UNL     1      41.711  48.432  16.911 -0.60 -0.02    -0.507 OA ATOM     22  H   UNL     1      42.288  47.661  17.120 -0.35 -0.06    +0.293 HD ENDBRANCH  17  21ENDBRANCH  10  12ENDBRANCH   5  10ENDBRANCH   2   4ENDBRANCH   1   2BRANCH   1  23ATOM     23  C   UNL     1      38.680  47.180  24.682 -0.27 +0.02    +0.200 CG0ATOM     24  G   UNL     1      38.442  48.644  24.276 +0.00 +0.00    +0.000 G0 BRANCH  23  25ATOM     25  C   UNL     1      38.844  46.926  26.207 -0.22 +0.00    +0.137 C  BRANCH  25  26ATOM     26  C   UNL     1      38.163  47.993  27.127 -0.25 -0.01    +0.109 C  BRANCH  26  27ATOM     27  N   UNL     1      36.707  48.114  27.007 -0.19 +0.04    -0.315 NA ATOM     28  H   UNL     1      36.389  48.860  27.629 +0.06 -0.01    +0.122 HD BRANCH  27  29ATOM     29  C   UNL     1      36.255  48.392  25.645 -0.44 -0.01    +0.081 C  BRANCH  29  30ATOM     30  C   UNL     1      37.151  49.285  24.785 -0.45 +0.00    +0.019 C  BRANCH  30  31ATOM     31  C   UNL     1      38.442  48.644  24.281 -0.43 +0.01    +0.049 CG0ATOM     32  G   UNL     1      38.702  47.183  24.682 +0.00 +0.00    +0.000 G0 ENDBRANCH  30  31ENDBRANCH  29  30ENDBRANCH  27  29ENDBRANCH  26  27ENDBRANCH  25  26BRANCH  25  33ATOM     33  N   UNL     1      38.432  45.558  26.557 -0.09 +0.01    -0.344 N  ATOM     34  C   UNL     1      37.286  45.003  26.028 -0.23 -0.01    +0.251 C  ATOM     35  H   UNL     1      38.796  45.164  27.412 +0.05 -0.01    +0.164 HD ATOM     36  O   UNL     1      36.584  45.554  25.191 -0.70 -0.03    -0.269 OA BRANCH  34  37ATOM     37  C   UNL     1      36.898  43.669  26.549 -0.33 -0.01    +0.045 A  ATOM     38  C   UNL     1      37.907  42.753  26.849 -0.29 -0.00    +0.034 A  ATOM     39  C   UNL     1      35.566  43.330  26.776 -0.42 -0.01    +0.074 A  ATOM     40  C   UNL     1      37.537  41.518  27.345 -0.39 -0.02    +0.115 A  ATOM     41  C   UNL     1      35.307  42.070  27.276 -0.40 -0.06    +0.213 A  ATOM     42  N   UNL     1      36.256  41.154  27.559 -0.41 +0.08    -0.228 NA ATOM     43  F   UNL     1      34.030  41.728  27.501 -0.08 +0.06    -0.185 F  ENDBRANCH  34  37ENDBRANCH  25  33ENDBRANCH  23  25ENDBRANCH   1  23TORSDOF 9TERENDMDL