MODEL        1USER    Run = 1USERUSER    Estimated Free Energy of Binding    = -10.28 kcal/mol  [=(1)+(2)+(3)-(4)]USERUSER    (1) Final Intermolecular Energy     = -12.07 kcal/molUSER        vdW + Hbond + desolv Energy     = -12.00 kcal/molUSER        Electrostatic Energy            =  -0.07 kcal/molUSER        Moving Ligand-Fixed Receptor    = -12.07 kcal/molUSER        Moving Ligand-Moving Receptor   =  +0.00 kcal/molUSER    (2) Final Total Internal Energy     =  -1.25 kcal/molUSER    (3) Torsional Free Energy           =  +1.79 kcal/molUSER    (4) Unbound System's Energy         =  -1.25 kcal/molUSERUSERREMARK SMILES NS(=O)(=O)C=C1C=C(Nc2nc3ccccc3nc2N2CCNCC2)[C@H]1ClREMARK SMILES IDX 6 1 7 2 8 3 26 4 27 5 5 6 2 7 3 8 4 9 1 10 9 13 10 15 11 16REMARK SMILES IDX 19 17 12 18 18 19 13 20 17 21 14 22 16 23 15 24 20 25 21 26REMARK SMILES IDX 25 27 22 28 24 29 23 30REMARK H PARENT 1 11 1 12 9 14 23 31USER                              x       y       z     vdW  Elec       q    TypeUSER                           _______ _______ _______ _____ _____    ______ ____ROOTATOM      1  C   UNL     1      34.425  42.868  18.552 -0.43 +0.00    -0.010 C  ATOM      2  C   UNL     1      35.004  42.486  17.295 -0.47 -0.01    +0.030 C  ATOM      3  C   UNL     1      35.781  43.602  17.203 -0.38 -0.01    +0.039 C  ATOM      4  C   UNL     1      35.206  44.161  18.537 -0.29 -0.04    +0.158 C  ATOM      5  Cl  UNL     1      34.236  45.704  18.484 -0.65 +0.06    -0.111 Cl ENDROOTBRANCH   1   6ATOM      6  C   UNL     1      33.549  42.333  19.409 -0.34 +0.00    +0.128 C  BRANCH   6   7ATOM      7  S   UNL     1      32.355  41.226  18.864 -0.40 -0.01    +0.231 S  ATOM      8  O   UNL     1      31.258  41.927  18.234 -0.21 +0.03    -0.208 OA ATOM      9  O   UNL     1      32.124  40.209  19.864 -0.95 -0.06    -0.208 OA BRANCH   7  10ATOM     10  N   UNL     1      33.088  40.394  17.595 -0.26 +0.09    -0.225 NA ATOM     11  H   UNL     1      34.071  40.250  17.839 -0.44 -0.07    +0.137 HD ATOM     12  H   UNL     1      32.996  40.958  16.747 -0.38 -0.11    +0.137 HD ENDBRANCH   7  10ENDBRANCH   6   7ENDBRANCH   1   6BRANCH   3  13ATOM     13  N   UNL     1      36.665  44.099  16.369 -0.14 +0.11    -0.339 N  ATOM     14  H   UNL     1      36.845  43.672  15.459 +0.10 -0.05    +0.168 HD BRANCH  13  15ATOM     15  C   UNL     1      37.756  44.952  16.686 -0.23 -0.05    +0.174 A  ATOM     16  N   UNL     1      38.528  44.673  17.763 -0.22 +0.04    -0.225 NA ATOM     17  C   UNL     1      38.001  46.092  15.864 -0.26 -0.06    +0.172 A  ATOM     18  C   UNL     1      39.560  45.497  18.003 -0.37 -0.01    +0.091 A  ATOM     19  N   UNL     1      39.064  46.893  16.103 -0.27 +0.07    -0.225 NA ATOM     20  C   UNL     1      40.383  45.256  19.097 -0.42 -0.00    +0.031 A  ATOM     21  C   UNL     1      39.834  46.604  17.168 -0.41 -0.02    +0.091 A  ATOM     22  C   UNL     1      41.471  46.080  19.383 -0.45 +0.00    +0.002 A  ATOM     23  C   UNL     1      40.921  47.419  17.462 -0.50 -0.00    +0.031 A  ATOM     24  C   UNL     1      41.740  47.167  18.563 -0.53 -0.00    +0.002 A  BRANCH  17  25ATOM     25  N   UNL     1      37.152  46.382  14.770 -0.13 +0.18    -0.351 N  ATOM     26  C   UNL     1      37.700  45.955  13.469 -0.39 -0.04    +0.133 C  ATOM     27  C   UNL     1      36.634  47.775  14.788 -0.36 -0.11    +0.133 C  ATOM     28  C   UNL     1      36.745  46.380  12.330 -0.63 -0.04    +0.102 C  ATOM     29  C   UNL     1      36.912  48.529  13.468 -0.53 -0.05    +0.102 C  ATOM     30  N   UNL     1      36.459  47.827  12.254 -0.79 +0.13    -0.313 NA ATOM     31  H   UNL     1      36.932  48.227  11.446 -0.27 -0.03    +0.122 HD ENDBRANCH  17  25ENDBRANCH  13  15ENDBRANCH   3  13TORSDOF 6TERENDMDL