REMARK SMILES CCNC(=O)Nc1cccc(/C(=C\C=C\c2ccccc2)N2CCOCC2)c1
REMARK SMILES IDX 12 1 11 2 7 3 8 4 28 5 9 6 10 7 6 8 3 9 4 10 5 12 2 14 1 15
REMARK SMILES IDX 13 16 14 17 15 18 16 19 17 20 21 21 18 22 20 23 19 24 22 25
REMARK SMILES IDX 23 26 27 27 24 28 26 29 25 30
REMARK H PARENT 3 11 6 13
ROOT
ATOM      1  C   UNL     1      -0.499   1.826  -0.803  1.00  0.00     0.044 C 
ENDROOT
BRANCH   1   2
ATOM      2  C   UNL     1      -0.016   1.094   0.394  1.00  0.00    -0.000 A 
ATOM      3  C   UNL     1       1.449  -0.590   1.374  1.00  0.00     0.043 A 
ATOM      4  C   UNL     1       0.908  -0.307   2.630  1.00  0.00     0.026 A 
ATOM      5  C   UNL     1       0.977   0.112   0.258  1.00  0.00     0.036 A 
ATOM      6  C   UNL     1      -0.083   0.669   2.773  1.00  0.00     0.003 A 
ATOM      7  C   UNL     1      -0.544   1.369   1.660  1.00  0.00     0.010 A 
BRANCH   3   8
ATOM      8  N   UNL     1       2.442  -1.565   1.150  1.00  0.00    -0.308 N 
ATOM      9  N   UNL     1       3.974  -3.202   1.478  1.00  0.00    -0.338 N 
ATOM     10  C   UNL     1       3.162  -2.265   2.094  1.00  0.00     0.319 C 
ATOM     11  H   UNL     1       3.576  -3.608   0.644  1.00  0.00     0.165 HD
ATOM     12  O   UNL     1       3.133  -2.108   3.306  1.00  0.00    -0.249 OA
ATOM     13  H   UNL     1       2.777  -1.657   0.203  1.00  0.00     0.171 HD
BRANCH   9  14
ATOM     14  C   UNL     1       4.800  -4.088   2.276  1.00  0.00     0.114 C 
ATOM     15  C   UNL     1       6.048  -3.396   2.797  1.00  0.00     0.027 C 
ENDBRANCH   9  14
ENDBRANCH   3   8
ENDBRANCH   1   2
BRANCH   1  16
ATOM     16  C   UNL     1      -1.649   1.423  -1.390  1.00  0.00     0.026 C 
BRANCH  16  17
ATOM     17  C   UNL     1      -2.497   0.305  -1.011  1.00  0.00     0.003 C 
BRANCH  17  18
ATOM     18  C   UNL     1      -3.627  -0.005  -1.668  1.00  0.00     0.008 C 
BRANCH  18  19
ATOM     19  C   UNL     1      -4.511  -1.125  -1.311  1.00  0.00    -0.026 A 
ATOM     20  C   UNL     1      -5.889  -0.992  -1.530  1.00  0.00     0.008 A 
ATOM     21  C   UNL     1      -4.024  -2.341  -0.812  1.00  0.00     0.008 A 
ATOM     22  C   UNL     1      -6.763  -2.041  -1.232  1.00  0.00     0.001 A 
ATOM     23  C   UNL     1      -4.898  -3.390  -0.514  1.00  0.00     0.001 A 
ATOM     24  C   UNL     1      -6.267  -3.239  -0.722  1.00  0.00     0.000 A 
ENDBRANCH  18  19
ENDBRANCH  17  18
ENDBRANCH  16  17
ENDBRANCH   1  16
BRANCH   1  25
ATOM     25  N   UNL     1       0.281   2.911  -1.252  1.00  0.00    -0.366 N 
ATOM     26  C   UNL     1       0.468   3.170  -2.704  1.00  0.00     0.145 C 
ATOM     27  C   UNL     1       1.436   3.432  -0.469  1.00  0.00     0.145 C 
ATOM     28  C   UNL     1       0.786   4.649  -2.960  1.00  0.00     0.181 C 
ATOM     29  C   UNL     1       1.720   4.899  -0.825  1.00  0.00     0.181 C 
ATOM     30  O   UNL     1       1.946   5.071  -2.231  1.00  0.00    -0.378 OA
ENDBRANCH   1  25
TORSDOF 8
