MODEL        8USER    Run = 8USERUSER    Estimated Free Energy of Binding    = -10.15 kcal/mol  [=(1)+(2)+(3)-(4)]USERUSER    (1) Final Intermolecular Energy     = -12.53 kcal/molUSER        vdW + Hbond + desolv Energy     = -12.51 kcal/molUSER        Electrostatic Energy            =  -0.02 kcal/molUSER        Moving Ligand-Fixed Receptor    = -12.53 kcal/molUSER        Moving Ligand-Moving Receptor   =  +0.00 kcal/molUSER    (2) Final Total Internal Energy     =  -1.66 kcal/molUSER    (3) Torsional Free Energy           =  +2.39 kcal/molUSER    (4) Unbound System's Energy         =  -1.66 kcal/molUSERUSERREMARK SMILES CCNC(=O)Nc1cccc(/C(=C\C=C\c2ccccc2)N2CCOCC2)c1REMARK SMILES IDX 12 1 11 2 7 3 8 4 28 5 9 6 10 7 6 8 3 9 4 10 5 12 2 14 1 15REMARK SMILES IDX 13 16 14 17 15 18 16 19 17 20 21 21 18 22 20 23 19 24 22 25REMARK SMILES IDX 23 26 27 27 24 28 26 29 25 30REMARK H PARENT 3 11 6 13USER                              x       y       z     vdW  Elec       q    TypeUSER                           _______ _______ _______ _____ _____    ______ ____ROOTATOM      1  C   UNL     1      36.892  46.211  15.911 -0.40 -0.03    +0.044 C  ENDROOTBRANCH   1   2ATOM      2  C   UNL     1      38.171  46.353  16.650 -0.39 +0.00    -0.000 A  ATOM      3  C   UNL     1      40.275  47.535  16.993 -0.47 -0.01    +0.043 A  ATOM      4  C   UNL     1      40.592  46.642  18.019 -0.49 -0.00    +0.026 A  ATOM      5  C   UNL     1      39.064  47.381  16.308 -0.43 -0.01    +0.036 A  ATOM      6  C   UNL     1      39.708  45.615  18.364 -0.44 -0.00    +0.003 A  ATOM      7  C   UNL     1      38.501  45.470  17.684 -0.39 -0.00    +0.010 A  BRANCH   3   8ATOM      8  N   UNL     1      41.118  48.588  16.583 -0.33 +0.03    -0.308 N  ATOM      9  N   UNL     1      42.118  50.193  15.334 -0.27 +0.00    -0.338 N  ATOM     10  C   UNL     1      41.268  49.100  15.312 -0.38 -0.04    +0.319 C  ATOM     11  H   UNL     1      42.051  50.751  16.172 -0.36 -0.01    +0.165 HD ATOM     12  O   UNL     1      40.757  48.678  14.285 -0.42 +0.05    -0.249 OA ATOM     13  H   UNL     1      41.802  48.905  17.254 +0.07 +0.02    +0.171 HD BRANCH   9  14ATOM     14  C   UNL     1      42.396  50.924  14.112 -0.44 -0.03    +0.114 C  ATOM     15  C   UNL     1      42.902  50.018  13.003 -0.73 -0.01    +0.027 C  ENDBRANCH   9  14ENDBRANCH   3   8ENDBRANCH   1   2BRANCH   1  16ATOM     16  C   UNL     1      35.810  45.739  16.572 -0.39 -0.02    +0.026 C  BRANCH  16  17ATOM     17  C   UNL     1      34.983  46.441  17.539 -0.45 -0.00    +0.003 C  BRANCH  17  18ATOM     18  C   UNL     1      34.441  45.834  18.608 -0.51 -0.00    +0.008 C  BRANCH  18  19ATOM     19  C   UNL     1      34.868  44.523  19.119 -0.37 +0.01    -0.026 A  ATOM     20  C   UNL     1      36.079  44.435  19.820 -0.34 -0.00    +0.008 A  ATOM     21  C   UNL     1      34.085  43.368  18.982 -0.38 -0.00    +0.008 A  ATOM     22  C   UNL     1      36.509  43.215  20.348 -0.42 -0.00    +0.001 A  ATOM     23  C   UNL     1      34.516  42.148  19.510 -0.38 -0.00    +0.001 A  ATOM     24  C   UNL     1      35.729  42.071  20.191 -0.44 -0.00    +0.000 A  ENDBRANCH  18  19ENDBRANCH  17  18ENDBRANCH  16  17ENDBRANCH   1  16BRANCH   1  25ATOM     25  N   UNL     1      36.889  46.586  14.552 -0.13 +0.20    -0.366 N  ATOM     26  C   UNL     1      37.525  45.727  13.519 -0.40 -0.05    +0.145 C  ATOM     27  C   UNL     1      36.889  48.013  14.126 -0.48 -0.09    +0.145 C  ATOM     28  C   UNL     1      36.899  45.972  12.141 -0.53 -0.06    +0.181 C  ATOM     29  C   UNL     1      36.297  48.163  12.717 -0.49 -0.08    +0.181 C  ATOM     30  O   UNL     1      36.990  47.351  11.759 -0.93 +0.12    -0.378 OA ENDBRANCH   1  25TORSDOF 8TERENDMDL