
     RDKit          2D

 37 39  0  0  0  0  0  0  0  0999 V2000
    5.6775    0.0000    0.0000 Cl  0  0  0  0  0  0  0  0  0  0  0  0
    3.4383    0.3961    0.0000 C   0  0  0  0  0  0  0  0  0  0  0  0
    2.7238   -0.0164    0.0000 O   0  0  0  0  0  0  0  0  0  0  0  0
    2.7238   -0.8414    0.0000 C   0  0  0  0  0  0  0  0  0  0  0  0
    3.4383   -1.2539    0.0000 C   0  0  0  0  0  0  0  0  0  0  0  0
    3.4383   -2.0789    0.0000 C   0  0  0  0  0  0  0  0  0  0  0  0
    2.7238   -2.4914    0.0000 C   0  0  0  0  0  0  0  0  0  0  0  0
    2.7238   -3.3164    0.0000 O   0  0  0  0  0  0  0  0  0  0  0  0
    2.0093   -2.0789    0.0000 C   0  0  0  0  0  0  0  0  0  0  0  0
    1.2949   -2.4914    0.0000 C   0  0  0  0  0  0  0  0  0  0  0  0
    1.2949   -3.3164    0.0000 O   0  0  0  0  0  0  0  0  0  0  0  0
    0.5804   -2.0789    0.0000 C   0  0  0  0  0  0  0  0  0  0  0  0
   -0.1341   -2.4914    0.0000 C   0  0  0  0  0  0  0  0  0  0  0  0
   -0.8486   -2.0789    0.0000 C   0  0  0  0  0  0  0  0  0  0  0  0
   -0.8486   -1.2539    0.0000 C   0  0  0  0  0  0  0  0  0  0  0  0
   -1.5630   -0.8414    0.0000 C   0  0  0  0  0  0  0  0  0  0  0  0
   -1.5630   -0.0164    0.0000 C   0  0  0  0  0  0  0  0  0  0  0  0
   -2.2775    0.3961    0.0000 C   0  0  0  0  0  0  0  0  0  0  0  0
   -2.9592   -0.0686    0.0000 C   0  0  0  0  0  0  0  0  0  0  0  0
   -3.7475    0.1746    0.0000 C   0  0  0  0  0  0  0  0  0  0  0  0
   -4.0489    0.9425    0.0000 C   0  0  0  0  0  0  0  0  0  0  0  0
   -3.6364    1.6570    0.0000 N   0  0  0  0  0  0  0  0  0  0  0  0
   -2.8206    1.7800    0.0000 C   0  0  0  0  0  0  0  0  0  0  0  0
   -2.2159    1.2188    0.0000 C   0  0  0  0  0  0  0  0  0  0  0  0
   -1.4479    1.5202    0.0000 N   0  0  0  0  0  0  0  0  0  0  0  0
   -1.3249    2.3360    0.0000 C   0  0  0  0  0  0  0  0  0  0  0  0
   -1.9699    2.8504    0.0000 O   0  0  0  0  0  0  0  0  0  0  0  0
   -0.5570    2.6374    0.0000 C   0  0  0  0  0  0  0  0  0  0  0  0
   -0.4340    3.4532    0.0000 C   0  0  0  0  0  0  0  0  0  0  0  0
    0.3340    3.7546    0.0000 C   0  0  0  0  0  0  0  0  0  0  0  0
    0.9790    3.2402    0.0000 N   0  0  0  0  0  0  0  0  0  0  0  0
    0.8560    2.4244    0.0000 C   0  0  0  0  0  0  0  0  0  0  0  0
    0.0881    2.1230    0.0000 C   0  0  0  0  0  0  0  0  0  0  0  0
   -0.1341   -0.8414    0.0000 C   0  0  0  0  0  0  0  0  0  0  0  0
    0.5804   -1.2539    0.0000 C   0  0  0  0  0  0  0  0  0  0  0  0
    2.0093   -1.2539    0.0000 C   0  0  0  0  0  0  0  0  0  0  0  0
    1.2949   -0.8414    0.0000 F   0  0  0  0  0  0  0  0  0  0  0  0
  2  3  1  0
  3  4  1  0
  4  5  2  0
  5  6  1  0
  6  7  2  0
  7  8  1  0
  7  9  1  0
  9 10  1  0
 10 11  2  0
 10 12  1  0
 12 13  2  0
 13 14  1  0
 14 15  2  0
 15 16  1  0
 16 17  2  0
 18 17  1  6
 18 19  1  0
 19 20  1  0
 20 21  1  0
 21 22  1  0
 22 23  1  0
 23 24  1  0
 18 24  1  0
 24 25  1  1
 25 26  1  0
 26 27  2  0
 26 28  1  0
 28 29  2  0
 29 30  1  0
 30 31  2  0
 31 32  1  0
 32 33  2  0
 28 33  1  0
 15 34  1  0
 34 35  2  0
 12 35  1  0
  9 36  2  0
  4 36  1  0
 36 37  1  0
M  END
> <chembl_id>
CHEMBL1204095

> <chembl_pref_name>
None