MODEL        1USER    Run = 1USERUSER    Estimated Free Energy of Binding    = -10.00 kcal/mol  [=(1)+(2)+(3)-(4)]USERUSER    (1) Final Intermolecular Energy     = -11.49 kcal/molUSER        vdW + Hbond + desolv Energy     = -11.42 kcal/molUSER        Electrostatic Energy            =  -0.07 kcal/molUSER        Moving Ligand-Fixed Receptor    = -11.49 kcal/molUSER        Moving Ligand-Moving Receptor   =  +0.00 kcal/molUSER    (2) Final Total Internal Energy     =  -1.62 kcal/molUSER    (3) Torsional Free Energy           =  +1.49 kcal/molUSER    (4) Unbound System's Energy         =  -1.62 kcal/molUSERUSERREMARK SMILES Cc1cc(-n2cc(Nc3ccccc3N3CCOCC3)nn2)ccc1-n1cnnn1REMARK SMILES IDX 5 1 6 2 7 3 21 4 22 5 4 6 2 7 3 8 25 9 24 10 23 11 1 12REMARK SMILES IDX 26 13 27 14 30 15 28 16 29 17 8 18 9 20 10 21 14 22 11 23REMARK SMILES IDX 13 24 12 25 15 26 16 27 20 28 17 29 19 30 18 31REMARK H PARENT 8 19USER                              x       y       z     vdW  Elec       q    TypeUSER                           _______ _______ _______ _____ _____    ______ ____ROOTATOM      1  N   UNL     1      41.349  47.304  18.076 -0.39 +0.02    -0.219 N  ATOM      2  C   UNL     1      41.195  46.604  19.250 -0.31 +0.00    +0.164 A  ATOM      3  C   UNL     1      42.344  46.851  19.955 -0.31 +0.03    +0.173 A  ATOM      4  N   UNL     1      43.139  47.698  19.243 -0.47 -0.01    -0.112 NA ATOM      5  N   UNL     1      42.535  47.963  18.093 -0.48 -0.00    -0.060 NA ENDROOTBRANCH   1   6ATOM      6  C   UNL     1      40.463  47.395  16.970 -0.47 -0.01    +0.067 A  ATOM      7  C   UNL     1      38.573  46.451  15.696 -0.40 +0.01    -0.023 A  ATOM      8  C   UNL     1      39.482  46.410  16.781 -0.43 -0.01    +0.034 A  ATOM      9  C   UNL     1      38.656  47.527  14.785 -0.44 -0.03    +0.071 A  ATOM     10  C   UNL     1      39.655  48.508  14.986 -0.53 -0.01    +0.031 A  ATOM     11  C   UNL     1      40.547  48.447  16.062 -0.56 -0.01    +0.030 A  ATOM     12  C   UNL     1      37.595  45.310  15.621 -0.38 -0.02    +0.047 C  BRANCH   9  13ATOM     13  N   UNL     1      37.799  47.713  13.657 -0.39 +0.07    -0.200 N  ATOM     14  C   UNL     1      36.671  48.473  13.467 -0.27 -0.13    +0.252 A  ATOM     15  N   UNL     1      38.045  47.078  12.479 -0.80 +0.01    -0.040 NA ATOM     16  N   UNL     1      36.223  48.313  12.242 -0.83 +0.05    -0.117 NA ATOM     17  N   UNL     1      37.086  47.445  11.642 -1.15 +0.01    -0.024 NA ENDBRANCH   9  13ENDBRANCH   1   6BRANCH   3  18ATOM     18  N   UNL     1      42.712  46.445  21.180 -0.17 -0.09    -0.336 N  ATOM     19  H   UNL     1      43.004  47.167  21.841 +0.06 +0.04    +0.168 HD BRANCH  18  20ATOM     20  C   UNL     1      42.809  45.193  21.832 -0.21 +0.02    +0.063 A  ATOM     21  C   UNL     1      44.019  44.609  22.219 -0.12 +0.01    +0.028 A  ATOM     22  C   UNL     1      41.590  44.498  22.081 -0.23 +0.01    +0.061 A  ATOM     23  C   UNL     1      44.040  43.360  22.844 -0.26 +0.00    +0.002 A  ATOM     24  C   UNL     1      41.633  43.243  22.707 -0.29 +0.00    +0.028 A  ATOM     25  C   UNL     1      42.852  42.678  23.085 -0.26 -0.00    +0.002 A  BRANCH  22  26ATOM     26  N   UNL     1      40.379  45.098  21.653 -0.09 -0.02    -0.365 N  ATOM     27  C   UNL     1      39.651  44.212  20.709 -0.21 +0.00    +0.145 C  ATOM     28  C   UNL     1      39.515  45.677  22.710 -0.27 +0.01    +0.145 C  ATOM     29  C   UNL     1      38.220  44.735  20.507 -0.29 -0.00    +0.181 C  ATOM     30  C   UNL     1      38.230  44.858  22.906 -0.27 +0.02    +0.181 C  ATOM     31  O   UNL     1      37.438  44.733  21.713 -0.22 -0.02    -0.378 OA ENDBRANCH  22  26ENDBRANCH  18  20ENDBRANCH   3  18TORSDOF 5TERENDMDL