REMARK SMILES Cc1cc(-n2cc(Nc3ccccc3N3CCOCC3)nn2)ccc1-n1cnnn1
REMARK SMILES IDX 5 1 6 2 7 3 21 4 22 5 4 6 2 7 3 8 25 9 24 10 23 11 1 12
REMARK SMILES IDX 26 13 27 14 30 15 28 16 29 17 8 18 9 20 10 21 14 22 11 23
REMARK SMILES IDX 13 24 12 25 15 26 16 27 20 28 17 29 19 30 18 31
REMARK H PARENT 8 19
ROOT
ATOM      1  N   UNL     1       1.675  -0.429   0.458  1.00  0.00    -0.219 N 
ATOM      2  C   UNL     1       0.574  -0.156  -0.321  1.00  0.00     0.164 A 
ATOM      3  C   UNL     1      -0.488  -0.641   0.396  1.00  0.00     0.173 A 
ATOM      4  N   UNL     1      -0.041  -1.152   1.578  1.00  0.00    -0.112 NA
ATOM      5  N   UNL     1       1.279  -1.032   1.607  1.00  0.00    -0.060 NA
ENDROOT
BRANCH   1   6
ATOM      6  C   UNL     1       3.043  -0.154   0.195  1.00  0.00     0.067 A 
ATOM      7  C   UNL     1       5.397  -0.262   0.927  1.00  0.00    -0.023 A 
ATOM      8  C   UNL     1       4.019  -0.512   1.137  1.00  0.00     0.034 A 
ATOM      9  C   UNL     1       5.794   0.359  -0.278  1.00  0.00     0.071 A 
ATOM     10  C   UNL     1       4.797   0.720  -1.214  1.00  0.00     0.031 A 
ATOM     11  C   UNL     1       3.440   0.468  -0.985  1.00  0.00     0.030 A 
ATOM     12  C   UNL     1       6.315  -0.687   2.040  1.00  0.00     0.047 C 
BRANCH   9  13
ATOM     13  N   UNL     1       7.144   0.658  -0.638  1.00  0.00    -0.200 N 
ATOM     14  C   UNL     1       8.345   0.393  -0.027  1.00  0.00     0.252 A 
ATOM     15  N   UNL     1       7.431   1.320  -1.792  1.00  0.00    -0.040 NA
ATOM     16  N   UNL     1       9.332   0.876  -0.748  1.00  0.00    -0.117 NA
ATOM     17  N   UNL     1       8.748   1.448  -1.839  1.00  0.00    -0.024 NA
ENDBRANCH   9  13
ENDBRANCH   1   6
BRANCH   3  18
ATOM     18  N   UNL     1      -1.801  -0.613   0.123  1.00  0.00    -0.336 N 
ATOM     19  H   UNL     1      -2.440  -0.861   0.881  1.00  0.00     0.168 HD
BRANCH  18  20
ATOM     20  C   UNL     1      -2.579  -0.314  -1.021  1.00  0.00     0.063 A 
ATOM     21  C   UNL     1      -2.059  -0.230  -2.316  1.00  0.00     0.028 A 
ATOM     22  C   UNL     1      -3.968  -0.071  -0.812  1.00  0.00     0.061 A 
ATOM     23  C   UNL     1      -2.885   0.086  -3.397  1.00  0.00     0.002 A 
ATOM     24  C   UNL     1      -4.780   0.249  -1.911  1.00  0.00     0.028 A 
ATOM     25  C   UNL     1      -4.240   0.328  -3.195  1.00  0.00     0.002 A 
BRANCH  22  26
ATOM     26  N   UNL     1      -4.465  -0.134   0.514  1.00  0.00    -0.365 N 
ATOM     27  C   UNL     1      -4.408   1.199   1.167  1.00  0.00     0.145 C 
ATOM     28  C   UNL     1      -5.758  -0.834   0.706  1.00  0.00     0.145 C 
ATOM     29  C   UNL     1      -5.227   1.174   2.467  1.00  0.00     0.181 C 
ATOM     30  C   UNL     1      -6.886   0.144   1.069  1.00  0.00     0.181 C 
ATOM     31  O   UNL     1      -6.624   0.912   2.255  1.00  0.00    -0.378 OA
ENDBRANCH  22  26
ENDBRANCH  18  20
ENDBRANCH   3  18
TORSDOF 5
