MODEL        6USER    Run = 6USERUSER    Estimated Free Energy of Binding    =  -9.12 kcal/mol  [=(1)+(2)+(3)-(4)]USERUSER    (1) Final Intermolecular Energy     = -10.91 kcal/molUSER        vdW + Hbond + desolv Energy     = -10.65 kcal/molUSER        Electrostatic Energy            =  -0.26 kcal/molUSER        Moving Ligand-Fixed Receptor    = -10.91 kcal/molUSER        Moving Ligand-Moving Receptor   =  +0.00 kcal/molUSER    (2) Final Total Internal Energy     =  -1.04 kcal/molUSER    (3) Torsional Free Energy           =  +1.79 kcal/molUSER    (4) Unbound System's Energy         =  -1.04 kcal/molUSERUSERREMARK SMILES Cc1ncc2n1[C@@]2(NS(=O)(=O)Cc1ccncc1)c1ccc(O)cc1REMARK SMILES IDX 1 1 2 2 3 3 4 4 5 5 6 6 7 7 8 8 9 10 10 11 11 12 12 13 13 14REMARK SMILES IDX 14 15 18 16 15 17 17 18 16 19 19 20 20 21 25 22 21 23 24 24REMARK SMILES IDX 22 25 23 26REMARK H PARENT 8 9 23 27USER                              x       y       z     vdW  Elec       q    TypeUSER                           _______ _______ _______ _____ _____    ______ ____ROOTATOM      1  C   UNL     1      36.942  44.636  12.539 -0.47 -0.03    +0.088 C  ATOM      2  C   UNL     1      36.739  46.098  12.627 -0.51 -0.04    +0.108 A  ATOM      3  N   UNL     1      35.842  46.822  12.000 -0.48 +0.14    -0.241 NA ATOM      4  C   UNL     1      36.158  48.109  12.344 -0.46 -0.07    +0.139 A  ATOM      5  C   UNL     1      37.041  48.197  13.402 -0.49 -0.04    +0.087 A  ATOM      6  N   UNL     1      37.540  46.903  13.377 -0.27 +0.10    -0.299 N  ATOM      7  C   UNL     1      37.324  47.393  14.708 -0.39 -0.10    +0.178 C  ENDROOTBRANCH   7   8ATOM      8  N   UNL     1      36.138  46.888  15.458 -0.26 +0.17    -0.180 NA ATOM      9  H   UNL     1      35.994  47.464  16.298 +0.08 -0.20    +0.144 HD BRANCH   8  10ATOM     10  S   UNL     1      36.288  45.280  15.991 -0.36 -0.11    +0.218 S  ATOM     11  O   UNL     1      35.044  44.583  15.748 -0.25 +0.11    -0.212 OA ATOM     12  O   UNL     1      37.540  44.775  15.464 -0.27 +0.07    -0.212 OA BRANCH  10  13ATOM     13  C   UNL     1      36.453  45.477  17.772 -0.27 -0.07    +0.189 C  BRANCH  13  14ATOM     14  C   UNL     1      35.389  44.702  18.507 -0.34 +0.01    -0.029 A  ATOM     15  C   UNL     1      35.679  43.445  19.050 -0.36 -0.00    +0.025 A  ATOM     16  C   UNL     1      34.093  45.204  18.657 -0.43 -0.01    +0.025 A  ATOM     17  C   UNL     1      34.671  42.750  19.698 -0.35 -0.00    +0.111 A  ATOM     18  C   UNL     1      33.151  44.429  19.315 -0.35 -0.02    +0.111 A  ATOM     19  N   UNL     1      33.413  43.211  19.835 -0.77 -0.01    -0.265 NA ENDBRANCH  13  14ENDBRANCH  10  13ENDBRANCH   8  10ENDBRANCH   7   8BRANCH   7  20ATOM     20  C   UNL     1      38.605  47.674  15.466 -0.49 -0.00    +0.000 A  ATOM     21  C   UNL     1      38.899  46.987  16.662 -0.43 -0.00    +0.012 A  ATOM     22  C   UNL     1      39.547  48.626  15.028 -0.53 -0.00    +0.012 A  ATOM     23  C   UNL     1      40.081  47.221  17.375 -0.44 -0.01    +0.046 A  ATOM     24  C   UNL     1      40.730  48.864  15.733 -0.58 -0.01    +0.046 A  ATOM     25  C   UNL     1      40.989  48.158  16.899 -0.44 -0.01    +0.115 A  BRANCH  25  26ATOM     26  O   UNL     1      42.153  48.419  17.557 -0.40 -0.05    -0.508 OA ATOM     27  H   UNL     1      42.766  47.680  17.411 -0.36 -0.06    +0.293 HD ENDBRANCH  25  26ENDBRANCH   7  20TORSDOF 6TERENDMDL