REMARK SMILES Cc1ncc2n1[C@]2(NS(=O)(=O)Cc1ccncc1)c1ccc(O)c(F)c1
REMARK SMILES IDX 1 1 2 2 3 3 4 4 5 5 6 6 7 7 8 8 9 10 10 11 11 12 12 13 13 14
REMARK SMILES IDX 14 15 18 16 15 17 17 18 16 19 19 20 20 21 26 22 21 23 24 24
REMARK SMILES IDX 22 25 25 26 23 27
REMARK H PARENT 8 9 23 28
ROOT
ATOM      1  C   UNL     1      -2.914   1.182  -2.568  1.00  0.00     0.088 C 
ATOM      2  C   UNL     1      -3.085   1.265  -1.093  1.00  0.00     0.108 A 
ATOM      3  N   UNL     1      -4.057   1.887  -0.489  1.00  0.00    -0.241 NA
ATOM      4  C   UNL     1      -3.792   1.704   0.816  1.00  0.00     0.139 A 
ATOM      5  C   UNL     1      -2.685   0.963   1.068  1.00  0.00     0.087 A 
ATOM      6  N   UNL     1      -2.194   0.660  -0.291  1.00  0.00    -0.299 N 
ATOM      7  C   UNL     1      -1.494   0.162   0.822  1.00  0.00     0.178 C 
ENDROOT
BRANCH   7   8
ATOM      8  N   UNL     1      -0.217   0.826   1.198  1.00  0.00    -0.180 NA
ATOM      9  H   UNL     1       0.036   0.582   2.159  1.00  0.00     0.144 HD
BRANCH   8  10
ATOM     10  S   UNL     1       1.081   0.454   0.167  1.00  0.00     0.218 S 
ATOM     11  O   UNL     1       0.555   0.314  -1.175  1.00  0.00    -0.212 OA
ATOM     12  O   UNL     1       1.794  -0.615   0.831  1.00  0.00    -0.212 OA
BRANCH  10  13
ATOM     13  C   UNL     1       2.030   1.976   0.282  1.00  0.00     0.189 C 
BRANCH  13  14
ATOM     14  C   UNL     1       3.292   1.833  -0.524  1.00  0.00    -0.029 A 
ATOM     15  C   UNL     1       4.471   1.366   0.066  1.00  0.00     0.025 A 
ATOM     16  C   UNL     1       3.311   2.146  -1.887  1.00  0.00     0.025 A 
ATOM     17  C   UNL     1       5.605   1.239  -0.722  1.00  0.00     0.111 A 
ATOM     18  C   UNL     1       4.495   1.986  -2.591  1.00  0.00     0.111 A 
ATOM     19  N   UNL     1       5.643   1.544  -2.036  1.00  0.00    -0.265 NA
ENDBRANCH  13  14
ENDBRANCH  10  13
ENDBRANCH   8  10
ENDBRANCH   7   8
BRANCH   7  20
ATOM     20  C   UNL     1      -1.614  -1.324   1.123  1.00  0.00     0.003 A 
ATOM     21  C   UNL     1      -1.953  -1.787   2.414  1.00  0.00     0.012 A 
ATOM     22  C   UNL     1      -1.356  -2.299   0.138  1.00  0.00     0.051 A 
ATOM     23  C   UNL     1      -2.045  -3.151   2.709  1.00  0.00     0.050 A 
ATOM     24  C   UNL     1      -1.448  -3.654   0.436  1.00  0.00     0.165 A 
ATOM     25  C   UNL     1      -1.792  -4.079   1.712  1.00  0.00     0.151 A 
ATOM     26  F   UNL     1      -1.206  -4.563  -0.521  1.00  0.00    -0.203 F 
BRANCH  25  27
ATOM     27  O   UNL     1      -1.886  -5.408   2.010  1.00  0.00    -0.505 OA
ATOM     28  H   UNL     1      -1.663  -5.898   1.196  1.00  0.00     0.293 HD
ENDBRANCH  25  27
ENDBRANCH   7  20
TORSDOF 6
