MODEL        5USER    Run = 5USERUSER    Estimated Free Energy of Binding    =  -7.92 kcal/mol  [=(1)+(2)+(3)-(4)]USERUSER    (1) Final Intermolecular Energy     = -10.01 kcal/molUSER        vdW + Hbond + desolv Energy     =  -9.70 kcal/molUSER        Electrostatic Energy            =  -0.31 kcal/molUSER        Moving Ligand-Fixed Receptor    = -10.01 kcal/molUSER        Moving Ligand-Moving Receptor   =  +0.00 kcal/molUSER    (2) Final Total Internal Energy     =  -2.11 kcal/molUSER    (3) Torsional Free Energy           =  +2.09 kcal/molUSER    (4) Unbound System's Energy         =  -2.11 kcal/molUSERUSERREMARK SMILES Cc1ncc2n1[C@@]2(NS(=O)(=O)Cc1ccncc1)c1ccc(O)c(N)c1REMARK SMILES IDX 1 1 2 2 3 3 4 4 5 5 6 6 7 7 8 8 9 10 10 11 11 12 12 13 13 14REMARK SMILES IDX 14 15 18 16 15 17 17 18 16 19 19 20 20 21 26 22 21 23 24 24REMARK SMILES IDX 22 25 25 26 23 29REMARK H PARENT 8 9 25 27 25 28 23 30USER                              x       y       z     vdW  Elec       q    TypeUSER                           _______ _______ _______ _____ _____    ______ ____ROOTATOM      1  C   UNL     1      37.314  44.879  12.745 -0.40 -0.03    +0.088 C  ATOM      2  C   UNL     1      37.114  46.256  13.248 -0.43 -0.04    +0.108 A  ATOM      3  N   UNL     1      37.561  47.371  12.724 -0.90 +0.05    -0.241 NA ATOM      4  C   UNL     1      37.010  48.345  13.510 -0.44 -0.07    +0.139 A  ATOM      5  C   UNL     1      36.434  47.874  14.671 -0.15 -0.08    +0.087 A  ATOM      6  N   UNL     1      36.298  46.540  14.297 -0.21 +0.19    -0.299 N  ATOM      7  C   UNL     1      36.576  46.686  15.683 -0.32 -0.13    +0.178 C  ENDROOTBRANCH   7   8ATOM      8  N   UNL     1      35.462  46.583  16.640 -0.26 +0.20    -0.180 NA ATOM      9  H   UNL     1      34.894  47.424  16.759 -0.19 -0.33    +0.144 HD BRANCH   8  10ATOM     10  S   UNL     1      34.523  45.194  16.554 -0.33 -0.15    +0.218 S  ATOM     11  O   UNL     1      35.389  44.071  16.256 -0.25 +0.09    -0.212 OA ATOM     12  O   UNL     1      33.424  45.522  15.670 -0.28 +0.20    -0.212 OA BRANCH  10  13ATOM     13  C   UNL     1      33.898  45.001  18.232 -0.32 -0.08    +0.189 C  BRANCH  13  14ATOM     14  C   UNL     1      34.841  44.189  19.077 -0.36 +0.01    -0.029 A  ATOM     15  C   UNL     1      34.494  42.913  19.531 -0.40 -0.00    +0.025 A  ATOM     16  C   UNL     1      36.099  44.695  19.419 -0.28 -0.00    +0.025 A  ATOM     17  C   UNL     1      35.403  42.214  20.310 -0.36 +0.00    +0.111 A  ATOM     18  C   UNL     1      36.941  43.918  20.200 -0.32 -0.01    +0.111 A  ATOM     19  N   UNL     1      36.617  42.690  20.657 -0.24 +0.00    -0.265 NA ENDBRANCH  13  14ENDBRANCH  10  13ENDBRANCH   8  10ENDBRANCH   7   8BRANCH   7  20ATOM     20  C   UNL     1      37.967  46.466  16.250 -0.39 -0.00    +0.002 A  ATOM     21  C   UNL     1      38.250  45.377  17.101 -0.36 -0.00    +0.012 A  ATOM     22  C   UNL     1      39.009  47.391  16.014 -0.44 -0.01    +0.037 A  ATOM     23  C   UNL     1      39.506  45.211  17.685 -0.32 -0.01    +0.049 A  ATOM     24  C   UNL     1      40.286  47.209  16.544 -0.46 -0.01    +0.074 A  ATOM     25  C   UNL     1      40.500  46.134  17.410 -0.37 -0.01    +0.138 A  BRANCH  24  26ATOM     26  N   UNL     1      41.288  48.198  16.422 -0.20 +0.03    -0.396 N  ATOM     27  H   UNL     1      42.166  47.853  16.810 -0.44 -0.02    +0.156 HD ATOM     28  H   UNL     1      41.029  49.049  16.919 +0.10 -0.02    +0.156 HD ENDBRANCH  24  26BRANCH  25  29ATOM     29  O   UNL     1      41.731  45.986  17.988 -0.15 +0.00    -0.506 OA ATOM     30  H   UNL     1      42.327  46.484  17.391 -0.24 -0.09    +0.293 HD ENDBRANCH  25  29ENDBRANCH   7  20TORSDOF 7TERENDMDL