MODEL        8USER    Run = 8USERUSER    Estimated Free Energy of Binding    =  -8.70 kcal/mol  [=(1)+(2)+(3)-(4)]USERUSER    (1) Final Intermolecular Energy     = -10.49 kcal/molUSER        vdW + Hbond + desolv Energy     =  -9.99 kcal/molUSER        Electrostatic Energy            =  -0.50 kcal/molUSER        Moving Ligand-Fixed Receptor    = -10.49 kcal/molUSER        Moving Ligand-Moving Receptor   =  +0.00 kcal/molUSER    (2) Final Total Internal Energy     =  -1.71 kcal/molUSER    (3) Torsional Free Energy           =  +1.79 kcal/molUSER    (4) Unbound System's Energy         =  -1.71 kcal/molUSERUSERREMARK SMILES Cc1ncc2n1[C@]2(NS(=O)(=O)Cc1ccncc1)c1ccccc1OREMARK SMILES IDX 1 1 2 2 3 3 4 4 5 5 6 6 7 7 8 8 9 10 10 11 11 12 12 13 13 14REMARK SMILES IDX 14 15 18 16 15 17 17 18 16 19 19 20 20 21 24 22 21 23 23 24REMARK SMILES IDX 22 25 25 26REMARK H PARENT 8 9 25 27USER                              x       y       z     vdW  Elec       q    TypeUSER                           _______ _______ _______ _____ _____    ______ ____ROOTATOM      1  C   UNL     1      30.992  37.620  19.640 -0.48 +0.02    +0.088 C  ATOM      2  C   UNL     1      30.526  37.344  21.015 -0.36 +0.01    +0.108 A  ATOM      3  N   UNL     1      30.908  37.944  22.118 -0.34 +0.00    -0.241 NA ATOM      4  C   UNL     1      30.270  37.242  23.103 -0.34 +0.00    +0.139 A  ATOM      5  C   UNL     1      29.296  36.379  22.645 -0.33 +0.01    +0.087 A  ATOM      6  N   UNL     1      29.705  36.304  21.318 -0.18 +0.01    -0.299 N  ATOM      7  C   UNL     1      28.290  36.233  21.439 -0.28 -0.04    +0.182 C  ENDROOTBRANCH   7   8ATOM      8  N   UNL     1      27.628  34.917  21.414 -0.26 +0.10    -0.180 NA ATOM      9  H   UNL     1      26.675  34.891  21.050 -0.26 -0.19    +0.144 HD BRANCH   8  10ATOM     10  S   UNL     1      27.851  33.904  22.727 -0.45 +0.02    +0.218 S  ATOM     11  O   UNL     1      29.232  33.972  23.152 -0.32 -0.08    -0.212 OA ATOM     12  O   UNL     1      26.796  34.246  23.661 -0.66 -0.17    -0.212 OA BRANCH  10  13ATOM     13  C   UNL     1      27.530  32.262  22.061 -0.35 -0.07    +0.189 C  BRANCH  13  14ATOM     14  C   UNL     1      28.403  31.226  22.720 -0.45 +0.00    -0.029 A  ATOM     15  C   UNL     1      29.743  31.082  22.345 -0.50 -0.00    +0.025 A  ATOM     16  C   UNL     1      27.905  30.387  23.721 -0.50 +0.00    +0.025 A  ATOM     17  C   UNL     1      30.512  30.112  22.969 -0.51 -0.00    +0.111 A  ATOM     18  C   UNL     1      28.751  29.446  24.286 -0.47 +0.01    +0.111 A  ATOM     19  N   UNL     1      30.044  29.290  23.932 -0.82 -0.04    -0.265 NA ENDBRANCH  13  14ENDBRANCH  10  13ENDBRANCH   8  10ENDBRANCH   7   8BRANCH   7  20ATOM     20  C   UNL     1      27.401  37.444  21.201 -0.28 -0.02    +0.042 A  ATOM     21  C   UNL     1      27.774  38.444  20.278 -0.26 -0.00    +0.012 A  ATOM     22  C   UNL     1      26.207  37.663  21.909 -0.25 -0.09    +0.122 A  ATOM     23  C   UNL     1      26.984  39.576  20.056 -0.25 -0.00    +0.001 A  ATOM     24  C   UNL     1      25.407  38.789  21.695 -0.33 -0.03    +0.046 A  ATOM     25  C   UNL     1      25.799  39.746  20.763 -0.33 -0.00    +0.004 A  BRANCH  22  26ATOM     26  O   UNL     1      25.833  36.749  22.856 -0.05 +0.51    -0.508 OA ATOM     27  H   UNL     1      25.949  35.853  22.496 -0.38 -0.47    +0.293 HD ENDBRANCH  22  26ENDBRANCH   7  20TORSDOF 6TERENDMDL