MODEL        10USER    Run = 10USERUSER    Estimated Free Energy of Binding    =  -8.59 kcal/mol  [=(1)+(2)+(3)-(4)]USERUSER    (1) Final Intermolecular Energy     = -10.38 kcal/molUSER        vdW + Hbond + desolv Energy     = -10.02 kcal/molUSER        Electrostatic Energy            =  -0.36 kcal/molUSER        Moving Ligand-Fixed Receptor    = -10.38 kcal/molUSER        Moving Ligand-Moving Receptor   =  +0.00 kcal/molUSER    (2) Final Total Internal Energy     =  -1.10 kcal/molUSER    (3) Torsional Free Energy           =  +1.79 kcal/molUSER    (4) Unbound System's Energy         =  -1.10 kcal/molUSERUSERREMARK SMILES Cc1ncc2n1[C@]2(NS(=O)(=O)Cc1ccncc1)c1ccc(O)c(F)c1REMARK SMILES IDX 1 1 2 2 3 3 4 4 5 5 6 6 7 7 8 8 9 10 10 11 11 12 12 13 13 14REMARK SMILES IDX 14 15 18 16 15 17 17 18 16 19 19 20 20 21 26 22 21 23 24 24REMARK SMILES IDX 22 25 25 26 23 27REMARK H PARENT 8 9 23 28USER                              x       y       z     vdW  Elec       q    TypeUSER                           _______ _______ _______ _____ _____    ______ ____ROOTATOM      1  C   UNL     1      36.909  46.889  11.586 -0.64 -0.03    +0.088 C  ATOM      2  C   UNL     1      36.929  46.033  12.802 -0.48 -0.04    +0.108 A  ATOM      3  N   UNL     1      36.887  44.731  12.798 -0.33 +0.08    -0.241 NA ATOM      4  C   UNL     1      36.914  44.406  14.102 -0.13 -0.05    +0.139 A  ATOM      5  C   UNL     1      36.993  45.464  14.945 -0.32 -0.04    +0.087 A  ATOM      6  N   UNL     1      37.002  46.609  14.013 -0.21 +0.14    -0.299 N  ATOM      7  C   UNL     1      37.080  46.846  15.397 -0.34 -0.11    +0.178 C  ENDROOTBRANCH   7   8ATOM      8  N   UNL     1      35.862  47.344  16.090 -0.06 +0.25    -0.180 NA ATOM      9  H   UNL     1      35.073  47.371  15.438 +0.12 -0.28    +0.144 HD BRANCH   8  10ATOM     10  S   UNL     1      35.427  46.435  17.457 -0.34 -0.18    +0.218 S  ATOM     11  O   UNL     1      34.657  47.292  18.334 -0.95 +0.19    -0.212 OA ATOM     12  O   UNL     1      36.651  45.793  17.886 -0.28 +0.08    -0.212 OA BRANCH  10  13ATOM     13  C   UNL     1      34.340  45.219  16.702 -0.25 -0.13    +0.189 C  BRANCH  13  14ATOM     14  C   UNL     1      33.844  44.274  17.763 -0.30 +0.01    -0.029 A  ATOM     15  C   UNL     1      33.170  44.752  18.891 -0.40 -0.01    +0.025 A  ATOM     16  C   UNL     1      34.030  42.894  17.636 -0.35 -0.01    +0.025 A  ATOM     17  C   UNL     1      32.721  43.840  19.834 -0.38 -0.00    +0.111 A  ATOM     18  C   UNL     1      33.545  42.062  18.633 -0.33 -0.02    +0.111 A  ATOM     19  N   UNL     1      32.899  42.506  19.732 -0.53 -0.03    -0.265 NA ENDBRANCH  13  14ENDBRANCH  10  13ENDBRANCH   8  10ENDBRANCH   7   8BRANCH   7  20ATOM     20  C   UNL     1      38.423  47.281  15.962 -0.44 -0.00    +0.003 A  ATOM     21  C   UNL     1      39.031  48.492  15.563 -0.51 -0.01    +0.012 A  ATOM     22  C   UNL     1      39.132  46.478  16.879 -0.40 -0.01    +0.051 A  ATOM     23  C   UNL     1      40.276  48.892  16.059 -0.52 -0.01    +0.050 A  ATOM     24  C   UNL     1      40.370  46.880  17.369 -0.38 -0.02    +0.165 A  ATOM     25  C   UNL     1      40.938  48.080  16.964 -0.40 -0.02    +0.151 A  ATOM     26  F   UNL     1      41.022  46.102  18.247 -0.14 +0.01    -0.203 F  BRANCH  25  27ATOM     27  O   UNL     1      42.152  48.481  17.444 -0.39 -0.06    -0.505 OA ATOM     28  H   UNL     1      42.746  47.708  17.395 -0.36 -0.06    +0.293 HD ENDBRANCH  25  27ENDBRANCH   7  20TORSDOF 6TERENDMDL