MODEL        7USER    Run = 7USERUSER    Estimated Free Energy of Binding    =  -8.46 kcal/mol  [=(1)+(2)+(3)-(4)]USERUSER    (1) Final Intermolecular Energy     = -10.25 kcal/molUSER        vdW + Hbond + desolv Energy     =  -9.91 kcal/molUSER        Electrostatic Energy            =  -0.34 kcal/molUSER        Moving Ligand-Fixed Receptor    = -10.25 kcal/molUSER        Moving Ligand-Moving Receptor   =  +0.00 kcal/molUSER    (2) Final Total Internal Energy     =  -1.69 kcal/molUSER    (3) Torsional Free Energy           =  +1.79 kcal/molUSER    (4) Unbound System's Energy         =  -1.69 kcal/molUSERUSERREMARK SMILES Cc1ncc2n1[C@]2(NS(=O)(=O)Cc1ccncc1)c1cccc(O)c1REMARK SMILES IDX 1 1 2 2 3 3 4 4 5 5 6 6 7 7 8 8 9 10 10 11 11 12 12 13 13 14REMARK SMILES IDX 14 15 18 16 15 17 17 18 16 19 19 20 20 21 25 22 21 23 23 24REMARK SMILES IDX 22 25 24 26REMARK H PARENT 8 9 24 27USER                              x       y       z     vdW  Elec       q    TypeUSER                           _______ _______ _______ _____ _____    ______ ____ROOTATOM      1  C   UNL     1      36.884  45.945  11.803 -0.59 -0.03    +0.088 C  ATOM      2  C   UNL     1      37.193  47.059  12.726 -0.52 -0.03    +0.108 A  ATOM      3  N   UNL     1      36.544  48.193  12.850 -0.80 +0.10    -0.241 NA ATOM      4  C   UNL     1      37.275  48.884  13.776 -0.30 -0.07    +0.139 A  ATOM      5  C   UNL     1      38.226  48.128  14.429 -0.47 -0.04    +0.087 A  ATOM      6  N   UNL     1      38.301  47.082  13.511 -0.25 +0.08    -0.299 N  ATOM      7  C   UNL     1      38.504  46.643  14.848 -0.36 -0.06    +0.178 C  ENDROOTBRANCH   7   8ATOM      8  N   UNL     1      39.890  46.408  15.311 -0.33 +0.03    -0.180 NA ATOM      9  H   UNL     1      40.142  45.424  15.430 +0.12 -0.01    +0.144 HD BRANCH   8  10ATOM     10  S   UNL     1      40.370  47.311  16.655 -0.55 -0.04    +0.218 S  ATOM     11  O   UNL     1      41.371  48.262  16.223 -0.72 +0.01    -0.212 OA ATOM     12  O   UNL     1      39.130  47.748  17.260 -0.28 +0.08    -0.212 OA BRANCH  10  13ATOM     13  C   UNL     1      41.113  46.030  17.677 -0.37 -0.01    +0.189 C  BRANCH  13  14ATOM     14  C   UNL     1      40.115  45.578  18.706 -0.43 +0.00    -0.029 A  ATOM     15  C   UNL     1      38.957  44.888  18.333 -0.38 -0.00    +0.025 A  ATOM     16  C   UNL     1      40.317  45.851  20.064 -0.34 +0.00    +0.025 A  ATOM     17  C   UNL     1      38.067  44.498  19.322 -0.29 -0.01    +0.111 A  ATOM     18  C   UNL     1      39.368  45.418  20.977 -0.28 +0.00    +0.111 A  ATOM     19  N   UNL     1      38.251  44.742  20.636 -0.22 -0.00    -0.265 NA ENDBRANCH  13  14ENDBRANCH  10  13ENDBRANCH   8  10ENDBRANCH   7   8BRANCH   7  20ATOM     20  C   UNL     1      37.398  45.960  15.634 -0.37 -0.00    +0.003 A  ATOM     21  C   UNL     1      37.164  44.575  15.522 -0.34 -0.00    +0.008 A  ATOM     22  C   UNL     1      36.523  46.688  16.460 -0.32 -0.04    +0.054 A  ATOM     23  C   UNL     1      36.123  43.947  16.214 -0.38 -0.00    +0.004 A  ATOM     24  C   UNL     1      35.484  46.061  17.143 -0.28 -0.09    +0.116 A  ATOM     25  C   UNL     1      35.278  44.693  17.030 -0.28 -0.02    +0.046 A  BRANCH  24  26ATOM     26  O   UNL     1      34.675  46.842  17.915 -0.32 +0.52    -0.508 OA ATOM     27  H   UNL     1      34.194  47.458  17.337 -0.26 -0.70    +0.293 HD ENDBRANCH  24  26ENDBRANCH   7  20TORSDOF 6TERENDMDL