MODEL        6USER    Run = 6USERUSER    Estimated Free Energy of Binding    =  -8.37 kcal/mol  [=(1)+(2)+(3)-(4)]USERUSER    (1) Final Intermolecular Energy     =  -9.27 kcal/molUSER        vdW + Hbond + desolv Energy     =  -9.16 kcal/molUSER        Electrostatic Energy            =  -0.11 kcal/molUSER        Moving Ligand-Fixed Receptor    =  -9.27 kcal/molUSER        Moving Ligand-Moving Receptor   =  +0.00 kcal/molUSER    (2) Final Total Internal Energy     =  -0.65 kcal/molUSER    (3) Torsional Free Energy           =  +0.89 kcal/molUSER    (4) Unbound System's Energy         =  -0.65 kcal/molUSERUSERREMARK SMILES NC1CCN(c2ccc3c(-c4c(F)cccc4F)n[nH]c3c2)CC1REMARK SMILES IDX 6 1 7 2 8 3 9 4 10 5 19 6 20 7 21 8 22 9 5 11 2 12 3 13REMARK SMILES IDX 24 14 4 15 23 16 1 17 11 20 12 21 17 22 14 23 16 24 15 25REMARK SMILES IDX 13 26 18 27REMARK H PARENT 20 10 1 18 1 19USER                              x       y       z     vdW  Elec       q    TypeUSER                           _______ _______ _______ _____ _____    ______ ____ROOTATOM      1  C   UNL     1      39.170  46.343  16.495 -0.40 -0.01    +0.039 A  ATOM      2  C   UNL     1      38.419  45.671  17.477 -0.38 -0.01    +0.027 A  ATOM      3  C   UNL     1      38.942  45.335  18.738 -0.40 -0.00    +0.015 A  ATOM      4  C   UNL     1      40.267  45.688  19.039 -0.43 -0.00    +0.028 A  ATOM      5  C   UNL     1      41.154  45.537  20.150 -0.32 +0.01    +0.106 A  ATOM      6  N   UNL     1      42.354  46.081  19.886 -0.25 -0.04    -0.174 NA ATOM      7  N   UNL     1      42.231  46.559  18.640 -0.32 -0.02    -0.277 N  ATOM      8  C   UNL     1      41.005  46.358  18.073 -0.46 -0.00    +0.068 A  ATOM      9  C   UNL     1      40.493  46.701  16.812 -0.44 -0.01    +0.054 A  ATOM     10  H   UNL     1      43.033  47.020  18.224 -0.29 +0.00    +0.190 HD ENDROOTBRANCH   1  11ATOM     11  N   UNL     1      38.579  46.649  15.256 -0.14 +0.13    -0.371 N  ATOM     12  C   UNL     1      37.631  47.368  12.738 -0.55 -0.01    +0.054 C  ATOM     13  C   UNL     1      37.531  48.417  13.839 -0.59 -0.02    +0.040 C  ATOM     14  C   UNL     1      37.284  45.972  13.271 -0.53 -0.01    +0.040 C  ATOM     15  C   UNL     1      38.529  48.095  14.952 -0.50 -0.06    +0.118 C  ATOM     16  C   UNL     1      37.449  45.846  14.789 -0.37 -0.05    +0.118 C  BRANCH  12  17ATOM     17  N   UNL     1      36.782  47.728  11.597 -0.63 +0.12    -0.328 NA ATOM     18  H   UNL     1      37.287  47.579  10.724 -0.30 -0.04    +0.119 HD ATOM     19  H   UNL     1      36.569  48.724  11.635 -0.37 -0.04    +0.119 HD ENDBRANCH  12  17ENDBRANCH   1  11BRANCH   5  20ATOM     20  C   UNL     1      40.885  44.901  21.428 -0.26 +0.01    +0.074 A  ATOM     21  C   UNL     1      39.728  45.199  22.153 -0.22 +0.01    +0.135 A  ATOM     22  C   UNL     1      41.776  43.972  21.970 -0.23 +0.01    +0.135 A  ATOM     23  C   UNL     1      39.464  44.587  23.380 -0.20 +0.00    +0.040 A  ATOM     24  C   UNL     1      41.524  43.352  23.195 -0.24 +0.00    +0.040 A  ATOM     25  C   UNL     1      40.363  43.659  23.904 -0.19 +0.00    +0.006 A  ATOM     26  F   UNL     1      38.848  46.108  21.705 -0.09 -0.02    -0.206 F  ATOM     27  F   UNL     1      42.903  43.643  21.320 -0.08 -0.05    -0.206 F  ENDBRANCH   5  20TORSDOF 3TERENDMDL