REMARK SMILES OC1CCN(c2ccc3c(-c4c(F)cccc4F)n[nH]c3c2)CC1
REMARK SMILES IDX 6 1 7 2 8 3 9 4 10 5 19 6 20 7 21 8 22 9 5 11 2 12 3 13
REMARK SMILES IDX 24 14 4 15 23 16 1 17 11 19 12 20 17 21 14 22 16 23 15 24
REMARK SMILES IDX 13 25 18 26
REMARK H PARENT 20 10 1 18
ROOT
ATOM      1  C   UNL     1      -1.162  -0.184  -0.113  1.00  0.00     0.039 A 
ATOM      2  C   UNL     1      -0.275   0.882   0.123  1.00  0.00     0.027 A 
ATOM      3  C   UNL     1       1.123   0.727   0.151  1.00  0.00     0.015 A 
ATOM      4  C   UNL     1       1.667  -0.551  -0.047  1.00  0.00     0.028 A 
ATOM      5  C   UNL     1       2.975  -1.126  -0.101  1.00  0.00     0.106 A 
ATOM      6  N   UNL     1       2.911  -2.449  -0.324  1.00  0.00    -0.174 NA
ATOM      7  N   UNL     1       1.597  -2.704  -0.415  1.00  0.00    -0.277 N 
ATOM      8  C   UNL     1       0.796  -1.608  -0.259  1.00  0.00     0.068 A 
ATOM      9  C   UNL     1      -0.600  -1.463  -0.286  1.00  0.00     0.054 A 
ATOM     10  H   UNL     1       1.308  -3.659  -0.589  1.00  0.00     0.190 HD
ENDROOT
BRANCH   1  11
ATOM     11  N   UNL     1      -2.542   0.027  -0.117  1.00  0.00    -0.371 N 
ATOM     12  C   UNL     1      -5.025   0.677   0.782  1.00  0.00     0.118 C 
ATOM     13  C   UNL     1      -4.920  -0.651   0.045  1.00  0.00     0.053 C 
ATOM     14  C   UNL     1      -4.228   1.778   0.077  1.00  0.00     0.053 C 
ATOM     15  C   UNL     1      -3.465  -1.116  -0.037  1.00  0.00     0.119 C 
ATOM     16  C   UNL     1      -3.086   1.220  -0.772  1.00  0.00     0.119 C 
BRANCH  12  17
ATOM     17  O   UNL     1      -6.397   1.056   0.870  1.00  0.00    -0.393 OA
ATOM     18  H   UNL     1      -6.439   1.864   1.409  1.00  0.00     0.210 HD
ENDBRANCH  12  17
ENDBRANCH   1  11
BRANCH   5  19
ATOM     19  C   UNL     1       4.255  -0.455   0.059  1.00  0.00     0.074 A 
ATOM     20  C   UNL     1       5.245  -0.550  -0.922  1.00  0.00     0.135 A 
ATOM     21  C   UNL     1       4.531   0.305   1.198  1.00  0.00     0.135 A 
ATOM     22  C   UNL     1       6.477   0.089  -0.771  1.00  0.00     0.040 A 
ATOM     23  C   UNL     1       5.760   0.948   1.361  1.00  0.00     0.040 A 
ATOM     24  C   UNL     1       6.738   0.840   0.374  1.00  0.00     0.006 A 
ATOM     25  F   UNL     1       5.030  -1.236  -2.056  1.00  0.00    -0.206 F 
ATOM     26  F   UNL     1       3.620   0.433   2.175  1.00  0.00    -0.206 F 
ENDBRANCH   5  19
TORSDOF 3
