REMARK SMILES NC1CCN(c2ccc3c(-c4c(F)cccc4F)n[nH]c3c2)CC1
REMARK SMILES IDX 6 1 7 2 8 3 9 4 10 5 19 6 20 7 21 8 22 9 5 11 2 12 3 13
REMARK SMILES IDX 24 14 4 15 23 16 1 17 11 20 12 21 17 22 14 23 16 24 15 25
REMARK SMILES IDX 13 26 18 27
REMARK H PARENT 20 10 1 18 1 19
ROOT
ATOM      1  C   UNL     1      -0.935   0.104  -0.185  1.00  0.00     0.039 A 
ATOM      2  C   UNL     1      -0.124   0.502   0.894  1.00  0.00     0.027 A 
ATOM      3  C   UNL     1       1.274   0.354   0.891  1.00  0.00     0.015 A 
ATOM      4  C   UNL     1       1.894  -0.208  -0.236  1.00  0.00     0.028 A 
ATOM      5  C   UNL     1       3.229  -0.531  -0.632  1.00  0.00     0.106 A 
ATOM      6  N   UNL     1       3.249  -1.074  -1.861  1.00  0.00    -0.174 NA
ATOM      7  N   UNL     1       1.961  -1.098  -2.231  1.00  0.00    -0.277 N 
ATOM      8  C   UNL     1       1.095  -0.593  -1.303  1.00  0.00     0.068 A 
ATOM      9  C   UNL     1      -0.301  -0.448  -1.313  1.00  0.00     0.054 A 
ATOM     10  H   UNL     1       1.733  -1.478  -3.143  1.00  0.00     0.190 HD
ENDROOT
BRANCH   1  11
ATOM     11  N   UNL     1      -2.328   0.286  -0.112  1.00  0.00    -0.371 N 
ATOM     12  C   UNL     1      -5.045   0.775   0.253  1.00  0.00     0.054 C 
ATOM     13  C   UNL     1      -4.460  -0.438   0.966  1.00  0.00     0.040 C 
ATOM     14  C   UNL     1      -4.467   0.916  -1.161  1.00  0.00     0.040 C 
ATOM     15  C   UNL     1      -2.946  -0.273   1.109  1.00  0.00     0.118 C 
ATOM     16  C   UNL     1      -3.121   0.207  -1.338  1.00  0.00     0.118 C 
BRANCH  12  17
ATOM     17  N   UNL     1      -6.510   0.705   0.224  1.00  0.00    -0.328 NA
ATOM     18  H   UNL     1      -6.811  -0.106  -0.316  1.00  0.00     0.119 HD
ATOM     19  H   UNL     1      -6.878   1.522  -0.262  1.00  0.00     0.119 HD
ENDBRANCH  12  17
ENDBRANCH   1  11
BRANCH   5  20
ATOM     20  C   UNL     1       4.457  -0.335   0.120  1.00  0.00     0.074 A 
ATOM     21  C   UNL     1       5.322  -1.401   0.379  1.00  0.00     0.135 A 
ATOM     22  C   UNL     1       4.808   0.926   0.606  1.00  0.00     0.135 A 
ATOM     23  C   UNL     1       6.505  -1.216   1.098  1.00  0.00     0.040 A 
ATOM     24  C   UNL     1       5.988   1.125   1.325  1.00  0.00     0.040 A 
ATOM     25  C   UNL     1       6.841   0.051   1.572  1.00  0.00     0.006 A 
ATOM     26  F   UNL     1       5.026  -2.645  -0.030  1.00  0.00    -0.206 F 
ATOM     27  F   UNL     1       4.019   1.990   0.388  1.00  0.00    -0.206 F 
ENDBRANCH   5  20
TORSDOF 3
