MODEL        4USER    Run = 4USERUSER    Estimated Free Energy of Binding    =  -8.59 kcal/mol  [=(1)+(2)+(3)-(4)]USERUSER    (1) Final Intermolecular Energy     =  -9.48 kcal/molUSER        vdW + Hbond + desolv Energy     =  -9.45 kcal/molUSER        Electrostatic Energy            =  -0.04 kcal/molUSER        Moving Ligand-Fixed Receptor    =  -9.48 kcal/molUSER        Moving Ligand-Moving Receptor   =  +0.00 kcal/molUSER    (2) Final Total Internal Energy     =  -0.72 kcal/molUSER    (3) Torsional Free Energy           =  +0.89 kcal/molUSER    (4) Unbound System's Energy         =  -0.72 kcal/molUSERUSERREMARK SMILES OC1CCN(c2ccc3c(-c4c(F)cccc4Cl)n[nH]c3c2)CC1REMARK SMILES IDX 6 1 7 2 8 3 9 4 10 5 19 6 20 7 21 8 22 9 5 11 2 12 3 13REMARK SMILES IDX 24 14 4 15 23 16 1 17 11 19 12 20 17 21 14 22 16 23 15 24REMARK SMILES IDX 13 25 18 26REMARK H PARENT 20 10 1 18USER                              x       y       z     vdW  Elec       q    TypeUSER                           _______ _______ _______ _____ _____    ______ ____ROOTATOM      1  C   UNL     1      39.239  46.840  16.725 -0.42 -0.01    +0.039 A  ATOM      2  C   UNL     1      38.774  46.026  17.775 -0.39 -0.01    +0.027 A  ATOM      3  C   UNL     1      39.543  45.729  18.915 -0.42 -0.00    +0.015 A  ATOM      4  C   UNL     1      40.839  46.258  19.012 -0.45 -0.00    +0.028 A  ATOM      5  C   UNL     1      41.910  46.203  19.952 -0.34 +0.02    +0.104 A  ATOM      6  N   UNL     1      42.968  46.915  19.529 -0.38 -0.05    -0.174 NA ATOM      7  N   UNL     1      42.579  47.395  18.337 -0.35 +0.00    -0.277 N  ATOM      8  C   UNL     1      41.310  47.040  17.970 -0.47 -0.01    +0.068 A  ATOM      9  C   UNL     1      40.552  47.336  16.827 -0.48 -0.01    +0.054 A  ATOM     10  H   UNL     1      43.233  47.969  17.816 -0.24 -0.01    +0.190 HD ENDROOTBRANCH   1  11ATOM     11  N   UNL     1      38.435  47.087  15.611 -0.15 +0.15    -0.371 N  ATOM     12  C   UNL     1      37.682  47.371  13.014 -0.51 -0.03    +0.118 C  ATOM     13  C   UNL     1      37.287  48.513  13.940 -0.59 -0.03    +0.053 C  ATOM     14  C   UNL     1      37.437  46.007  13.666 -0.48 -0.02    +0.053 C  ATOM     15  C   UNL     1      38.096  48.469  15.238 -0.50 -0.08    +0.119 C  ATOM     16  C   UNL     1      37.460  46.075  15.193 -0.36 -0.05    +0.119 C  BRANCH  12  17ATOM     17  O   UNL     1      36.933  47.468  11.804 -0.93 +0.12    -0.393 OA ATOM     18  H   UNL     1      36.861  48.413  11.586 -0.21 -0.04    +0.210 HD ENDBRANCH  12  17ENDBRANCH   1  11BRANCH   5  19ATOM     19  C   UNL     1      41.937  45.504  21.226 -0.28 +0.01    +0.057 A  ATOM     20  C   UNL     1      41.524  44.168  21.279 -0.25 +0.01    +0.134 A  ATOM     21  C   UNL     1      42.367  46.117  22.411 -0.21 +0.01    +0.053 A  ATOM     22  C   UNL     1      41.523  43.454  22.476 -0.29 +0.00    +0.040 A  ATOM     23  C   UNL     1      42.367  45.401  23.617 -0.11 +0.00    +0.021 A  ATOM     24  C   UNL     1      41.944  44.072  23.650 -0.16 +0.00    +0.005 A  ATOM     25  F   UNL     1      41.119  43.534  20.167 -0.02 -0.02    -0.206 F  ATOM     26  Cl  UNL     1      42.954  47.744  22.460 -0.47 -0.01    -0.083 Cl ENDBRANCH   5  19TORSDOF 3TERENDMDL