MODEL        6USER    Run = 6USERUSER    Estimated Free Energy of Binding    =  -8.26 kcal/mol  [=(1)+(2)+(3)-(4)]USERUSER    (1) Final Intermolecular Energy     =  -9.15 kcal/molUSER        vdW + Hbond + desolv Energy     =  -9.02 kcal/molUSER        Electrostatic Energy            =  -0.13 kcal/molUSER        Moving Ligand-Fixed Receptor    =  -9.15 kcal/molUSER        Moving Ligand-Moving Receptor   =  +0.00 kcal/molUSER    (2) Final Total Internal Energy     =  -0.64 kcal/molUSER    (3) Torsional Free Energy           =  +0.89 kcal/molUSER    (4) Unbound System's Energy         =  -0.64 kcal/molUSERUSERREMARK SMILES OC1CCN(c2ccc3c(-c4c(F)cccc4F)n[nH]c3c2)CC1REMARK SMILES IDX 6 1 7 2 8 3 9 4 10 5 19 6 20 7 21 8 22 9 5 11 2 12 3 13REMARK SMILES IDX 24 14 4 15 23 16 1 17 11 19 12 20 17 21 14 22 16 23 15 24REMARK SMILES IDX 13 25 18 26REMARK H PARENT 20 10 1 18USER                              x       y       z     vdW  Elec       q    TypeUSER                           _______ _______ _______ _____ _____    ______ ____ROOTATOM      1  C   UNL     1      38.592  46.511  16.670 -0.38 -0.01    +0.039 A  ATOM      2  C   UNL     1      37.910  45.859  17.713 -0.35 -0.01    +0.027 A  ATOM      3  C   UNL     1      38.536  45.459  18.908 -0.36 -0.00    +0.015 A  ATOM      4  C   UNL     1      39.909  45.702  19.068 -0.42 -0.00    +0.028 A  ATOM      5  C   UNL     1      40.893  45.475  20.081 -0.33 +0.01    +0.106 A  ATOM      6  N   UNL     1      42.097  45.922  19.691 -0.28 -0.03    -0.174 NA ATOM      7  N   UNL     1      41.881  46.425  18.466 -0.31 -0.01    -0.277 N  ATOM      8  C   UNL     1      40.588  46.325  18.034 -0.45 -0.01    +0.068 A  ATOM      9  C   UNL     1      39.973  46.725  16.837 -0.44 -0.01    +0.054 A  ATOM     10  H   UNL     1      42.667  46.830  17.971 -0.42 -0.02    +0.190 HD ENDROOTBRANCH   1  11ATOM     11  N   UNL     1      37.921  46.873  15.500 -0.13 +0.17    -0.371 N  ATOM     12  C   UNL     1      37.480  47.372  12.863 -0.53 -0.03    +0.118 C  ATOM     13  C   UNL     1      37.026  48.463  13.823 -0.59 -0.03    +0.053 C  ATOM     14  C   UNL     1      37.114  45.978  13.381 -0.52 -0.02    +0.053 C  ATOM     15  C   UNL     1      37.684  48.293  15.193 -0.48 -0.09    +0.119 C  ATOM     16  C   UNL     1      36.963  45.940  14.901 -0.36 -0.06    +0.119 C  BRANCH  12  17ATOM     17  O   UNL     1      36.875  47.587  11.590 -0.86 +0.13    -0.393 OA ATOM     18  H   UNL     1      36.497  48.483  11.598 -0.27 -0.09    +0.210 HD ENDBRANCH  12  17ENDBRANCH   1  11BRANCH   5  19ATOM     19  C   UNL     1      40.712  44.848  21.380 -0.26 +0.01    +0.074 A  ATOM     20  C   UNL     1      39.694  45.261  22.243 -0.22 +0.01    +0.135 A  ATOM     21  C   UNL     1      41.550  43.813  21.802 -0.25 +0.01    +0.135 A  ATOM     22  C   UNL     1      39.519  44.665  23.493 -0.19 +0.00    +0.040 A  ATOM     23  C   UNL     1      41.385  43.209  23.050 -0.25 +0.00    +0.040 A  ATOM     24  C   UNL     1      40.367  43.636  23.901 -0.19 +0.00    +0.006 A  ATOM     25  F   UNL     1      38.833  46.227  21.883 -0.10 -0.02    -0.206 F  ATOM     26  F   UNL     1      42.545  43.373  21.017 -0.06 -0.04    -0.206 F  ENDBRANCH   5  19TORSDOF 3TERENDMDL