REMARK SMILES COc1ccc2c(c1)ON(/C=C1\C(=O)N(C)c3ccc(C(F)(F)F)cc31)C[C@@H]2O
REMARK SMILES IDX 11 1 10 2 3 3 4 4 8 5 5 6 7 7 6 8 9 9 28 10 27 11 2 12 1 13
REMARK SMILES IDX 29 14 12 16 13 17 26 18 15 19 25 20 17 21 20 22 18 23 19 24
REMARK SMILES IDX 14 25 16 26 21 27 22 28 23 29 24 30
REMARK H PARENT 29 15
ROOT
ATOM      1  C   UNL     1      -0.608   0.008   0.090  1.00  0.00     0.138 C 
ENDROOT
BRANCH   1   2
ATOM      2  N   UNL     1       0.732  -0.084  -0.254  1.00  0.00    -0.213 N 
ATOM      3  C   UNL     1       5.010   0.480   1.705  1.00  0.00     0.122 A 
ATOM      4  C   UNL     1       5.563  -0.405   0.780  1.00  0.00     0.047 A 
ATOM      5  C   UNL     1       3.667   0.845   1.585  1.00  0.00     0.096 A 
ATOM      6  C   UNL     1       4.779  -0.915  -0.261  1.00  0.00     0.014 A 
ATOM      7  C   UNL     1       2.881   0.326   0.554  1.00  0.00     0.164 A 
ATOM      8  C   UNL     1       3.435  -0.541  -0.388  1.00  0.00     0.028 A 
ATOM      9  O   UNL     1       1.576   0.762   0.500  1.00  0.00    -0.379 OA
ATOM     10  C   UNL     1       2.582  -1.083  -1.497  1.00  0.00     0.171 C 
ATOM     11  C   UNL     1       1.250  -0.323  -1.608  1.00  0.00     0.198 C 
BRANCH   3  12
ATOM     12  O   UNL     1       5.665   1.054   2.761  1.00  0.00    -0.497 OA
ATOM     13  C   UNL     1       7.037   0.718   2.926  1.00  0.00     0.278 C 
ENDBRANCH   3  12
BRANCH  10  14
ATOM     14  O   UNL     1       2.339  -2.468  -1.218  1.00  0.00    -0.386 OA
ATOM     15  H   UNL     1       1.853  -2.481  -0.372  1.00  0.00     0.211 HD
ENDBRANCH  10  14
ENDBRANCH   1   2
BRANCH   1  16
ATOM     16  C   UNL     1      -1.770   0.091  -0.574  1.00  0.00     0.069 C 
ATOM     17  C   UNL     1      -2.018   0.220  -2.058  1.00  0.00     0.260 C 
ATOM     18  C   UNL     1      -3.089   0.118   0.080  1.00  0.00     0.013 A 
ATOM     19  N   UNL     1      -3.406   0.263  -2.188  1.00  0.00    -0.311 N 
ATOM     20  C   UNL     1      -3.483   0.058   1.409  1.00  0.00     0.024 A 
ATOM     21  C   UNL     1      -4.040   0.217  -0.939  1.00  0.00     0.052 A 
ATOM     22  C   UNL     1      -4.857   0.098   1.714  1.00  0.00     0.056 A 
ATOM     23  C   UNL     1      -5.397   0.264  -0.669  1.00  0.00     0.027 A 
ATOM     24  C   UNL     1      -5.802   0.206   0.668  1.00  0.00     0.015 A 
ATOM     25  O   UNL     1      -1.195   0.305  -2.950  1.00  0.00    -0.269 OA
ATOM     26  C   UNL     1      -4.097   0.406  -3.442  1.00  0.00     0.153 C 
BRANCH  22  27
ATOM     27  C   UNL     1      -5.308   0.051   3.157  1.00  0.00     0.416 C 
ATOM     28  F   UNL     1      -6.627  -0.254   3.301  1.00  0.00    -0.166 F 
ATOM     29  F   UNL     1      -5.125   1.239   3.792  1.00  0.00    -0.166 F 
ATOM     30  F   UNL     1      -4.630  -0.876   3.888  1.00  0.00    -0.166 F 
ENDBRANCH  22  27
ENDBRANCH   1  16
TORSDOF 5
