MODEL        9USER    Run = 9USERUSER    Estimated Free Energy of Binding    =  -9.35 kcal/mol  [=(1)+(2)+(3)-(4)]USERUSER    (1) Final Intermolecular Energy     = -10.84 kcal/molUSER        vdW + Hbond + desolv Energy     = -10.58 kcal/molUSER        Electrostatic Energy            =  -0.26 kcal/molUSER        Moving Ligand-Fixed Receptor    = -10.84 kcal/molUSER        Moving Ligand-Moving Receptor   =  +0.00 kcal/molUSER    (2) Final Total Internal Energy     =  -0.70 kcal/molUSER    (3) Torsional Free Energy           =  +1.49 kcal/molUSER    (4) Unbound System's Energy         =  -0.70 kcal/molUSERUSERREMARK SMILES C=C1C=C(c2nnc3sc(CO)cc3c2CCC)C[C@@H]1CREMARK SMILES IDX 5 1 6 2 7 3 8 4 9 5 10 6 13 7 14 8 15 9 4 10 2 11 3 12 20 13REMARK SMILES IDX 19 14 1 15 21 16 16 17 17 18 18 19 11 20 12 21REMARK H PARENT 12 22USER                              x       y       z     vdW  Elec       q    TypeUSER                           _______ _______ _______ _____ _____    ______ ____ROOTATOM      1  C   UNL     1      39.468  47.186  16.014 -0.41 -0.03    +0.093 A  ATOM      2  N   UNL     1      40.331  48.194  15.725 -0.43 +0.03    -0.149 NA ATOM      3  N   UNL     1      41.342  48.484  16.522 -0.87 +0.01    -0.139 NA ATOM      4  C   UNL     1      41.498  47.734  17.624 -0.36 -0.01    +0.146 A  ATOM      5  S   UNL     1      42.774  48.019  18.710 -0.45 -0.00    -0.116 S  ATOM      6  C   UNL     1      42.291  46.726  19.719 -0.43 +0.01    +0.033 A  ATOM      7  C   UNL     1      41.168  46.095  19.219 -0.44 +0.00    +0.028 A  ATOM      8  C   UNL     1      40.682  46.678  17.998 -0.50 -0.00    +0.019 A  ATOM      9  C   UNL     1      39.586  46.368  17.152 -0.45 +0.00    -0.010 A  ENDROOTBRANCH   1  10ATOM     10  C   UNL     1      38.419  47.027  15.006 -0.49 +0.01    -0.019 C  ATOM     11  C   UNL     1      36.881  47.434  13.360 -0.62 +0.02    -0.052 C  ATOM     12  C   UNL     1      37.845  47.989  14.275 -0.60 -0.00    +0.009 C  ATOM     13  C   UNL     1      36.823  45.937  13.586 -0.53 -0.01    +0.020 C  ATOM     14  C   UNL     1      37.946  45.659  14.610 -0.43 -0.02    +0.046 C  ATOM     15  C   UNL     1      36.177  48.148  12.476 -0.65 -0.01    +0.013 C  ATOM     16  C   UNL     1      36.997  45.105  12.319 -0.57 -0.00    +0.013 C  ENDBRANCH   1  10BRANCH   9  17ATOM     17  C   UNL     1      38.674  45.193  17.422 -0.40 -0.01    +0.038 C  BRANCH  17  18ATOM     18  C   UNL     1      37.800  45.426  18.655 -0.34 -0.00    +0.001 C  ATOM     19  C   UNL     1      38.139  44.447  19.768 -0.42 -0.00    +0.004 C  ENDBRANCH  17  18ENDBRANCH   9  17BRANCH   6  20ATOM     20  C   UNL     1      43.061  46.401  20.955 -0.23 +0.08    +0.202 C  BRANCH  20  21ATOM     21  O   UNL     1      44.336  47.016  20.828 -0.51 -0.35    -0.391 OA ATOM     22  H   UNL     1      44.189  47.978  20.858 -0.45 +0.02    +0.211 HD ENDBRANCH  20  21ENDBRANCH   6  20TORSDOF 5TERENDMDL