REMARK SMILES C=C1C=C(c2nnc3sc(CO)cc3c2CCC)C[C@@H]1C
REMARK SMILES IDX 5 1 6 2 7 3 8 4 9 5 10 6 13 7 14 8 15 9 4 10 2 11 3 12 20 13
REMARK SMILES IDX 19 14 1 15 21 16 16 17 17 18 18 19 11 20 12 21
REMARK H PARENT 12 22
ROOT
ATOM      1  C   UNL     1       0.076   0.763   0.821  1.00  0.00     0.093 A 
ATOM      2  N   UNL     1      -0.230   1.496   1.923  1.00  0.00    -0.149 NA
ATOM      3  N   UNL     1      -1.452   1.946   2.133  1.00  0.00    -0.139 NA
ATOM      4  C   UNL     1      -2.391   1.639   1.224  1.00  0.00     0.146 A 
ATOM      5  S   UNL     1      -3.998   2.161   1.407  1.00  0.00    -0.116 S 
ATOM      6  C   UNL     1      -4.483   1.388  -0.039  1.00  0.00     0.033 A 
ATOM      7  C   UNL     1      -3.419   0.744  -0.642  1.00  0.00     0.028 A 
ATOM      8  C   UNL     1      -2.183   0.888   0.078  1.00  0.00     0.019 A 
ATOM      9  C   UNL     1      -0.868   0.411  -0.161  1.00  0.00    -0.010 A 
ENDROOT
BRANCH   1  10
ATOM     10  C   UNL     1       1.482   0.361   0.775  1.00  0.00    -0.019 C 
ATOM     11  C   UNL     1       3.672   0.114   0.155  1.00  0.00    -0.052 C 
ATOM     12  C   UNL     1       2.379   0.656  -0.173  1.00  0.00     0.009 C 
ATOM     13  C   UNL     1       3.546  -0.651   1.457  1.00  0.00     0.020 C 
ATOM     14  C   UNL     1       2.100  -0.378   1.925  1.00  0.00     0.046 C 
ATOM     15  C   UNL     1       4.773   0.279  -0.585  1.00  0.00     0.013 C 
ATOM     16  C   UNL     1       4.567  -0.253   2.519  1.00  0.00     0.013 C 
ENDBRANCH   1  10
BRANCH   9  17
ATOM     17  C   UNL     1      -0.541  -0.477  -1.339  1.00  0.00     0.038 C 
BRANCH  17  18
ATOM     18  C   UNL     1      -0.596  -1.959  -0.964  1.00  0.00     0.001 C 
ATOM     19  C   UNL     1      -0.277  -2.845  -2.158  1.00  0.00     0.004 C 
ENDBRANCH  17  18
ENDBRANCH   9  17
BRANCH   6  20
ATOM     20  C   UNL     1      -5.901   1.457  -0.496  1.00  0.00     0.202 C 
BRANCH  20  21
ATOM     21  O   UNL     1      -5.900   2.082  -1.773  1.00  0.00    -0.391 OA
ATOM     22  H   UNL     1      -5.527   2.973  -1.649  1.00  0.00     0.211 HD
ENDBRANCH  20  21
ENDBRANCH   6  20
TORSDOF 5
