
     RDKit          3D

 90 97  0  0  0  0  0  0  0  0999 V2000
    0.1313   -2.8061    2.8558 O   0  0  0  0  0  0  0  0  0  0  0  0
   -0.3981   -3.7051    2.0582 C   0  0  0  0  0  0  0  0  0  0  0  0
   -0.9910   -4.7583    2.5481 N   0  0  0  0  0  0  0  0  0  0  0  0
   -1.4268   -5.4480    1.4476 C   0  0  0  0  0  0  0  0  0  0  0  0
   -2.1309   -6.6603    1.3856 C   0  0  0  0  0  0  0  0  0  0  0  0
   -2.4786   -7.1779    0.1333 C   0  0  0  0  0  0  0  0  0  0  0  0
   -2.1342   -6.5005   -1.0360 C   0  0  0  0  0  0  0  0  0  0  0  0
   -1.4312   -5.2901   -0.9945 C   0  0  0  0  0  0  0  0  0  0  0  0
   -1.0851   -4.7856    0.2677 C   0  0  0  0  0  0  0  0  0  0  0  0
   -0.4124   -3.6486    0.6929 N   0  0  0  0  0  0  0  0  0  0  0  0
    0.2017   -2.6593   -0.1834 C   0  0  0  0  0  0  0  0  0  0  0  0
    1.7411   -2.6300   -0.0749 C   0  0  0  0  0  0  0  0  0  0  0  0
    2.2959   -1.5902    0.9013 C   0  0  0  0  0  0  0  0  0  0  0  0
    1.7285   -0.2447    0.7563 N   0  0  0  0  0  0  0  0  0  0  0  0
    2.2128    0.4750   -0.4319 C   0  0  0  0  0  0  0  0  0  0  0  0
    3.6653    0.8906   -0.3293 C   0  0  0  0  0  0  0  0  0  0  0  0
    4.5913    0.4961   -1.3014 C   0  0  0  0  0  0  0  0  0  0  0  0
    5.9258    0.9038   -1.2135 C   0  0  0  0  0  0  0  0  0  0  0  0
    6.3685    1.7187   -0.1612 C   0  0  0  0  0  0  0  0  0  0  0  0
    7.7772    2.1287   -0.1209 C   0  0  0  0  0  0  0  0  0  0  0  0
    8.7472    1.6429   -0.8783 N   0  0  0  0  0  0  0  0  0  0  0  0
    9.8895    2.3129   -0.5196 C   0  0  0  0  0  0  0  0  0  0  0  0
   11.1981    2.1830   -1.0051 C   0  0  0  0  0  0  0  0  0  0  0  0
   12.1982    3.0017   -0.4655 C   0  0  0  0  0  0  0  0  0  0  0  0
   11.8998    3.9313    0.5337 C   0  0  0  0  0  0  0  0  0  0  0  0
   10.5988    4.0742    1.0302 C   0  0  0  0  0  0  0  0  0  0  0  0
    9.6242    3.2424    0.4759 C   0  0  0  0  0  0  0  0  0  0  0  0
    8.2806    3.1063    0.7092 N   0  0  0  0  0  0  0  0  0  0  0  0
    5.4390    2.1064    0.8139 C   0  0  0  0  0  0  0  0  0  0  0  0
    4.1028    1.6991    0.7283 C   0  0  0  0  0  0  0  0  0  0  0  0
    0.2571   -0.2878    0.8278 C   0  0  0  0  0  0  0  0  0  0  0  0
   -0.4060   -1.2208   -0.2203 C   0  0  0  0  0  0  0  0  0  0  0  0
   -1.8804   -1.1400   -0.3469 N   0  0  0  0  0  0  0  0  0  0  0  0
   -2.3402    0.1091   -0.9728 C   0  0  0  0  0  0  0  0  0  0  0  0
   -3.8642    0.1210   -1.2625 C   0  0  0  0  0  0  0  0  0  0  0  0
   -4.6971   -0.4897   -0.2194 N   0  0  0  0  0  0  0  0  0  0  0  0
   -6.0417    0.0858   -0.1054 C   0  0  0  0  0  0  0  0  0  0  0  0
   -6.1418    1.5061    0.5127 C   0  0  0  0  0  0  0  0  0  0  0  0
   -7.5205    2.0266    0.5932 N   0  0  0  0  0  0  0  0  0  0  0  0
   -7.5791    3.3079    1.3322 C   0  0  0  0  0  0  0  0  0  0  0  0
   -7.6281    4.5410    0.4161 C   0  0  0  0  0  0  0  0  0  0  0  0
   -8.7587    4.5476   -0.4656 O   0  0  0  0  0  0  0  0  0  0  0  0
   -9.2511    3.2323   -0.7566 C   0  0  0  0  0  0  0  0  0  0  0  0
   -8.1396    2.1715   -0.7437 C   0  0  0  0  0  0  0  0  0  0  0  0
   -3.9809   -0.6438    1.0449 C   0  0  0  0  0  0  0  0  0  0  0  0
   -2.6597   -1.4444    0.8705 C   0  0  0  0  0  0  0  0  0  0  0  0
   -0.0458   -3.2012    3.7294 H   0  0  0  0  0  0  0  0  0  0  0  0
   -2.3989   -7.1786    2.2995 H   0  0  0  0  0  0  0  0  0  0  0  0
   -3.0265   -8.1151    0.0748 H   0  0  0  0  0  0  0  0  0  0  0  0
   -2.4213   -6.9169   -1.9997 H   0  0  0  0  0  0  0  0  0  0  0  0
   -1.1833   -4.7697   -1.9130 H   0  0  0  0  0  0  0  0  0  0  0  0
    0.0147   -3.0564   -1.1902 H   0  0  0  0  0  0  0  0  0  0  0  0
    2.1478   -2.4097   -1.0710 H   0  0  0  0  0  0  0  0  0  0  0  0
    2.1298   -3.6212    0.1903 H   0  0  0  0  0  0  0  0  0  0  0  0
    2.1357   -1.9231    1.9303 H   0  0  0  0  0  0  0  0  0  0  0  0
    3.3879   -1.5613    0.8030 H   0  0  0  0  0  0  0  0  0  0  0  0
    1.6425    1.4047   -0.5617 H   0  0  0  0  0  0  0  0  0  0  0  0
    2.0541   -0.1050   -1.3480 H   0  0  0  0  0  0  0  0  0  0  0  0
    4.2880   -0.1326   -2.1352 H   0  0  0  0  0  0  0  0  0  0  0  0
    6.6304    0.5825   -1.9802 H   0  0  0  0  0  0  0  0  0  0  0  0
   11.4207    1.4608   -1.7820 H   0  0  0  0  0  0  0  0  0  0  0  0
   13.2175    2.9106   -0.8315 H   0  0  0  0  0  0  0  0  0  0  0  0
   12.6947    4.5567    0.9348 H   0  0  0  0  0  0  0  0  0  0  0  0
   10.3689    4.7964    1.8055 H   0  0  0  0  0  0  0  0  0  0  0  0
    7.7455    3.6479    1.3693 H   0  0  0  0  0  0  0  0  0  0  0  0
    5.7282    2.7170    1.6634 H   0  0  0  0  0  0  0  0  0  0  0  0
    3.3981    2.0046    1.4997 H   0  0  0  0  0  0  0  0  0  0  0  0
   -0.1242    0.7342    0.7188 H   0  0  0  0  0  0  0  0  0  0  0  0
   -0.0264   -0.5769    1.8432 H   0  0  0  0  0  0  0  0  0  0  0  0
   -0.0484   -0.8453   -1.1912 H   0  0  0  0  0  0  0  0  0  0  0  0
   -1.8223    0.2709   -1.9262 H   0  0  0  0  0  0  0  0  0  0  0  0
   -2.1024    0.9652   -0.3287 H   0  0  0  0  0  0  0  0  0  0  0  0
   -4.0481   -0.4312   -2.1923 H   0  0  0  0  0  0  0  0  0  0  0  0
   -4.1486    1.1614   -1.4560 H   0  0  0  0  0  0  0  0  0  0  0  0
   -6.6575   -0.5975    0.4943 H   0  0  0  0  0  0  0  0  0  0  0  0
   -6.4917    0.0783   -1.1055 H   0  0  0  0  0  0  0  0  0  0  0  0
   -5.7433    1.4512    1.5328 H   0  0  0  0  0  0  0  0  0  0  0  0
   -5.5085    2.2101   -0.0397 H   0  0  0  0  0  0  0  0  0  0  0  0
   -8.4985    3.2880    1.9314 H   0  0  0  0  0  0  0  0  0  0  0  0
   -6.7532    3.4026    2.0470 H   0  0  0  0  0  0  0  0  0  0  0  0
   -7.6794    5.4539    1.0180 H   0  0  0  0  0  0  0  0  0  0  0  0
   -6.7203    4.6053   -0.1948 H   0  0  0  0  0  0  0  0  0  0  0  0
   -9.7214    3.2717   -1.7442 H   0  0  0  0  0  0  0  0  0  0  0  0
  -10.0369    2.9884   -0.0319 H   0  0  0  0  0  0  0  0  0  0  0  0
   -7.3840    2.4677   -1.4831 H   0  0  0  0  0  0  0  0  0  0  0  0
   -8.5593    1.2081   -1.0519 H   0  0  0  0  0  0  0  0  0  0  0  0
   -3.7392    0.3379    1.4717 H   0  0  0  0  0  0  0  0  0  0  0  0
   -4.6063   -1.1712    1.7753 H   0  0  0  0  0  0  0  0  0  0  0  0
   -2.9286   -2.5052    0.8300 H   0  0  0  0  0  0  0  0  0  0  0  0
   -2.0774   -1.2888    1.7832 H   0  0  0  0  0  0  0  0  0  0  0  0
  1  2  1  0
  2  3  2  0
  3  4  1  0
  4  5  2  0
  5  6  1  0
  6  7  2  0
  7  8  1  0
  8  9  2  0
  9 10  1  0
 10 11  1  0
 11 12  1  0
 12 13  1  0
 13 14  1  0
 14 15  1  0
 15 16  1  0
 16 17  2  0
 17 18  1  0
 18 19  2  0
 19 20  1  0
 20 21  2  0
 21 22  1  0
 22 23  2  0
 23 24  1  0
 24 25  2  0
 25 26  1  0
 26 27  2  0
 27 28  1  0
 19 29  1  0
 29 30  2  0
 14 31  1  0
 31 32  1  0
 32 33  1  0
 33 34  1  0
 34 35  1  0
 35 36  1  0
 36 37  1  0
 37 38  1  0
 38 39  1  0
 39 40  1  0
 40 41  1  0
 41 42  1  0
 42 43  1  0
 43 44  1  0
 36 45  1  0
 45 46  1  0
 10  2  1  0
 32 11  1  0
 46 33  1  0
  9  4  1  0
 30 16  1  0
 44 39  1  0
 28 20  1  0
 27 22  1  0
  1 47  1  0
  5 48  1  0
  6 49  1  0
  7 50  1  0
  8 51  1  0
 11 52  1  0
 12 53  1  0
 12 54  1  0
 13 55  1  0
 13 56  1  0
 15 57  1  0
 15 58  1  0
 17 59  1  0
 18 60  1  0
 23 61  1  0
 24 62  1  0
 25 63  1  0
 26 64  1  0
 28 65  1  0
 29 66  1  0
 30 67  1  0
 31 68  1  0
 31 69  1  0
 32 70  1  0
 34 71  1  0
 34 72  1  0
 35 73  1  0
 35 74  1  0
 37 75  1  0
 37 76  1  0
 38 77  1  0
 38 78  1  0
 40 79  1  0
 40 80  1  0
 41 81  1  0
 41 82  1  0
 43 83  1  0
 43 84  1  0
 44 85  1  0
 44 86  1  0
 45 87  1  0
 45 88  1  0
 46 89  1  0
 46 90  1  0
M  END
$$$$
