
     RDKit          3D

 73 78  0  0  0  0  0  0  0  0999 V2000
   -7.7038   -0.6401    0.3259 C   0  0  0  0  0  0  0  0  0  0  0  0
   -6.2908   -0.7297    0.4641 O   0  0  0  0  0  0  0  0  0  0  0  0
   -5.6317    0.4619    0.2170 C   0  0  0  0  0  0  0  0  0  0  0  0
   -6.3515    1.5340   -0.1617 N   0  0  0  0  0  0  0  0  0  0  0  0
   -5.6616    2.6843   -0.3460 C   0  0  0  0  0  0  0  0  0  0  0  0
   -4.2849    2.8771   -0.1527 C   0  0  0  0  0  0  0  0  0  0  0  0
   -3.6668    4.2484   -0.3810 C   0  0  0  0  0  0  0  0  0  0  0  0
   -4.4525    5.5262   -0.1462 C   0  0  0  0  0  0  0  0  0  0  0  0
   -3.3534    5.1481    0.7938 C   0  0  0  0  0  0  0  0  0  0  0  0
   -3.5528    1.7155    0.2177 C   0  0  0  0  0  0  0  0  0  0  0  0
   -2.1496    1.7110    0.4418 N   0  0  0  0  0  0  0  0  0  0  0  0
   -1.7654    2.3215    1.7136 C   0  0  0  0  0  0  0  0  0  0  0  0
   -1.3086    2.0188   -0.7226 C   0  0  0  0  0  0  0  0  0  0  0  0
   -0.4493    0.8168   -1.1351 C   0  0  0  0  0  0  0  0  0  0  0  0
    0.5351    0.3616   -0.0500 C   0  0  0  0  0  0  0  0  0  0  0  0
    1.3951   -0.7536   -0.4980 N   0  0  0  0  0  0  0  0  0  0  0  0
    2.0483   -1.4268    0.6544 C   0  0  0  0  0  0  0  0  0  0  0  0
    3.1730   -0.6116    1.3414 C   0  0  0  0  0  0  0  0  0  0  0  0
    4.1933   -0.1808    0.3686 N   0  0  0  0  0  0  0  0  0  0  0  0
    5.2704   -0.9752    0.1148 C   0  0  0  0  0  0  0  0  0  0  0  0
    5.8372   -1.2362   -1.0448 N   0  0  0  0  0  0  0  0  0  0  0  0
    6.9236   -2.0303   -0.7649 C   0  0  0  0  0  0  0  0  0  0  0  0
    7.8653   -2.6068   -1.6293 C   0  0  0  0  0  0  0  0  0  0  0  0
    8.8987   -3.3786   -1.0812 C   0  0  0  0  0  0  0  0  0  0  0  0
    8.9952   -3.5697    0.2995 C   0  0  0  0  0  0  0  0  0  0  0  0
    8.0663   -3.0012    1.1789 C   0  0  0  0  0  0  0  0  0  0  0  0
    7.0431   -2.2432    0.6027 C   0  0  0  0  0  0  0  0  0  0  0  0
    5.9857   -1.5517    1.1353 N   0  0  0  0  0  0  0  0  0  0  0  0
    3.6071    0.5063   -0.8033 C   0  0  0  0  0  0  0  0  0  0  0  0
    2.4670   -0.3277   -1.4394 C   0  0  0  0  0  0  0  0  0  0  0  0
   -4.2460    0.4854    0.3992 C   0  0  0  0  0  0  0  0  0  0  0  0
   -3.5098   -0.7358    0.7753 C   0  0  0  0  0  0  0  0  0  0  0  0
   -3.1837   -1.7240   -0.0669 C   0  0  0  0  0  0  0  0  0  0  0  0
   -3.5295   -1.8524   -1.7552 S   0  0  0  0  0  0  0  0  0  0  0  0
   -2.6199   -3.3239   -1.8888 C   0  0  0  0  0  0  0  0  0  0  0  0
   -2.4335   -3.9618   -2.9814 N   0  0  0  0  0  0  0  0  0  0  0  0
   -2.1315   -3.7171   -0.6934 N   0  0  0  0  0  0  0  0  0  0  0  0
   -2.3874   -2.9018    0.3762 C   0  0  0  0  0  0  0  0  0  0  0  0
   -2.0288   -3.1264    1.5211 O   0  0  0  0  0  0  0  0  0  0  0  0
   -8.1279    0.1163    0.9972 H   0  0  0  0  0  0  0  0  0  0  0  0
   -7.9935   -0.4526   -0.7115 H   0  0  0  0  0  0  0  0  0  0  0  0
   -8.1212   -1.6043    0.6210 H   0  0  0  0  0  0  0  0  0  0  0  0
   -6.2912    3.5103   -0.6730 H   0  0  0  0  0  0  0  0  0  0  0  0
   -2.9785    4.2996   -1.2220 H   0  0  0  0  0  0  0  0  0  0  0  0
   -4.2791    6.3505   -0.8288 H   0  0  0  0  0  0  0  0  0  0  0  0
   -5.4629    5.4947    0.2453 H   0  0  0  0  0  0  0  0  0  0  0  0
   -2.4361    5.7249    0.7591 H   0  0  0  0  0  0  0  0  0  0  0  0
   -3.6369    4.8310    1.7910 H   0  0  0  0  0  0  0  0  0  0  0  0
   -1.5386    3.3879    1.6056 H   0  0  0  0  0  0  0  0  0  0  0  0
   -0.8593    1.8341    2.0902 H   0  0  0  0  0  0  0  0  0  0  0  0
   -2.5395    2.1993    2.4840 H   0  0  0  0  0  0  0  0  0  0  0  0
   -0.6595    2.8781   -0.5140 H   0  0  0  0  0  0  0  0  0  0  0  0
   -1.9170    2.2947   -1.5939 H   0  0  0  0  0  0  0  0  0  0  0  0
   -1.0950   -0.0237   -1.4087 H   0  0  0  0  0  0  0  0  0  0  0  0
    0.0925    1.1058   -2.0434 H   0  0  0  0  0  0  0  0  0  0  0  0
   -0.0600    0.0096    0.8003 H   0  0  0  0  0  0  0  0  0  0  0  0
    1.1237    1.2136    0.3060 H   0  0  0  0  0  0  0  0  0  0  0  0
    1.2955   -1.7092    1.4008 H   0  0  0  0  0  0  0  0  0  0  0  0
    2.4747   -2.3733    0.2912 H   0  0  0  0  0  0  0  0  0  0  0  0
    3.6047   -1.2059    2.1552 H   0  0  0  0  0  0  0  0  0  0  0  0
    2.7453    0.2823    1.8147 H   0  0  0  0  0  0  0  0  0  0  0  0
    7.7897   -2.4537   -2.6991 H   0  0  0  0  0  0  0  0  0  0  0  0
    9.6328   -3.8338   -1.7419 H   0  0  0  0  0  0  0  0  0  0  0  0
    9.8073   -4.1732    0.7000 H   0  0  0  0  0  0  0  0  0  0  0  0
    8.1460   -3.1482    2.2505 H   0  0  0  0  0  0  0  0  0  0  0  0
    5.7777   -1.4491    2.1163 H   0  0  0  0  0  0  0  0  0  0  0  0
    3.2217    1.4782   -0.4740 H   0  0  0  0  0  0  0  0  0  0  0  0
    4.3669    0.7372   -1.5593 H   0  0  0  0  0  0  0  0  0  0  0  0
    2.0409    0.2238   -2.2846 H   0  0  0  0  0  0  0  0  0  0  0  0
    2.9038   -1.2368   -1.8774 H   0  0  0  0  0  0  0  0  0  0  0  0
   -3.1857   -0.7686    1.8121 H   0  0  0  0  0  0  0  0  0  0  0  0
   -1.8707   -4.8002   -2.8149 H   0  0  0  0  0  0  0  0  0  0  0  0
   -1.5819   -4.5499   -0.5579 H   0  0  0  0  0  0  0  0  0  0  0  0
  1  2  1  0
  2  3  1  0
  3  4  2  0
  4  5  1  0
  5  6  2  0
  6  7  1  0
  7  8  1  0
  8  9  1  0
  6 10  1  0
 10 11  1  0
 11 12  1  0
 11 13  1  0
 13 14  1  0
 14 15  1  0
 15 16  1  0
 16 17  1  0
 17 18  1  0
 18 19  1  0
 19 20  1  0
 20 21  2  0
 21 22  1  0
 22 23  2  0
 23 24  1  0
 24 25  2  0
 25 26  1  0
 26 27  2  0
 27 28  1  0
 19 29  1  0
 29 30  1  0
 10 31  2  0
 31 32  1  0
 32 33  2  0
 33 34  1  0
 34 35  1  0
 35 36  2  3
 35 37  1  0
 37 38  1  0
 38 39  2  0
 31  3  1  0
 38 33  1  0
  9  7  1  0
 30 16  1  0
 28 20  1  0
 27 22  1  0
  1 40  1  0
  1 41  1  0
  1 42  1  0
  5 43  1  0
  7 44  1  0
  8 45  1  0
  8 46  1  0
  9 47  1  0
  9 48  1  0
 12 49  1  0
 12 50  1  0
 12 51  1  0
 13 52  1  0
 13 53  1  0
 14 54  1  0
 14 55  1  0
 15 56  1  0
 15 57  1  0
 17 58  1  0
 17 59  1  0
 18 60  1  0
 18 61  1  0
 23 62  1  0
 24 63  1  0
 25 64  1  0
 26 65  1  0
 28 66  1  0
 29 67  1  0
 29 68  1  0
 30 69  1  0
 30 70  1  0
 32 71  1  0
 36 72  1  0
 37 73  1  0
M  END
$$$$
