
     RDKit          3D

 72 76  0  0  0  0  0  0  0  0999 V2000
   -1.4507   -2.6109    1.8205 C   0  0  0  0  0  0  0  0  0  0  0  0
   -2.4577   -1.5443    1.4007 C   0  0  0  0  0  0  0  0  0  0  0  0
   -3.7651   -2.2444    0.9110 C   0  0  0  0  0  0  0  0  0  0  0  0
   -4.7713   -1.3040    0.3703 N   0  0  0  0  0  0  0  0  0  0  0  0
   -6.1365   -1.6885    0.7918 C   0  0  0  0  0  0  0  0  0  0  0  0
   -7.2068   -1.0765   -0.1227 C   0  0  0  0  0  0  0  0  0  0  0  0
   -7.1355   -1.5838   -1.4622 O   0  0  0  0  0  0  0  0  0  0  0  0
   -5.8084   -1.9708   -1.8441 C   0  0  0  0  0  0  0  0  0  0  0  0
   -4.7085   -1.1866   -1.1088 C   0  0  0  0  0  0  0  0  0  0  0  0
   -1.9373   -0.6524    0.3524 N   0  0  0  0  0  0  0  0  0  0  0  0
   -0.8870    0.2371    0.5562 C   0  0  0  0  0  0  0  0  0  0  0  0
    0.4295    0.1049    0.8166 C   0  0  0  0  0  0  0  0  0  0  0  0
    1.0739   -1.0893    0.7543 N   0  0  0  0  0  0  0  0  0  0  0  0
    2.2362   -1.3762    1.2335 C   0  0  0  0  0  0  0  0  0  0  0  0
    2.7374   -2.8090    0.9741 C   0  0  2  0  0  0  0  0  0  0  0  0
    3.0673   -3.5274    2.2842 C   0  0  0  0  0  0  0  0  0  0  0  0
    3.8336   -2.8140   -0.0805 C   0  0  0  0  0  0  0  0  0  0  0  0
    3.4653   -2.8904   -1.4378 C   0  0  0  0  0  0  0  0  0  0  0  0
    4.4343   -2.8711   -2.4423 C   0  0  0  0  0  0  0  0  0  0  0  0
    5.7761   -2.7679   -2.0980 C   0  0  0  0  0  0  0  0  0  0  0  0
    6.7053   -2.7501   -3.0626 F   0  0  0  0  0  0  0  0  0  0  0  0
    6.1665   -2.6761   -0.7711 C   0  0  0  0  0  0  0  0  0  0  0  0
    5.1953   -2.6934    0.2253 C   0  0  0  0  0  0  0  0  0  0  0  0
    5.6044   -2.5822    1.4959 F   0  0  0  0  0  0  0  0  0  0  0  0
    3.0963   -0.6058    1.9586 N   0  0  0  0  0  0  0  0  0  0  0  0
    3.1464    0.6734    1.9170 C   0  0  0  0  0  0  0  0  0  0  0  0
    2.3323    1.6705    1.2124 C   0  0  0  0  0  0  0  0  0  0  0  0
    1.0904    1.3915    0.8209 C   0  0  0  0  0  0  0  0  0  0  0  0
    0.1504    2.3110    0.4088 N   0  0  0  0  0  0  0  0  0  0  0  0
    0.2996    3.7332    0.2302 C   0  0  0  0  0  0  0  0  0  0  0  0
    0.4403    4.0438   -1.1938 N   0  0  0  0  0  0  0  0  0  0  0  0
    1.7757    3.7556   -1.7500 C   0  0  0  0  0  0  0  0  0  0  0  0
    2.8614    4.7575   -1.3202 C   0  0  0  0  0  0  0  0  0  0  0  0
    2.4849    6.1062   -1.6184 O   0  0  0  0  0  0  0  0  0  0  0  0
    1.2247    6.4360   -1.0227 C   0  0  0  0  0  0  0  0  0  0  0  0
    0.1229    5.4615   -1.4697 C   0  0  0  0  0  0  0  0  0  0  0  0
   -1.0903    1.7048    0.2950 C   0  0  0  0  0  0  0  0  0  0  0  0
   -2.1766    2.2066    0.0511 O   0  0  0  0  0  0  0  0  0  0  0  0
   -0.6289   -2.1733    2.3939 H   0  0  0  0  0  0  0  0  0  0  0  0
   -1.9195   -3.3588    2.4692 H   0  0  0  0  0  0  0  0  0  0  0  0
   -1.0302   -3.1304    0.9529 H   0  0  0  0  0  0  0  0  0  0  0  0
   -2.7145   -0.9347    2.2774 H   0  0  0  0  0  0  0  0  0  0  0  0
   -4.1763   -2.7673    1.7860 H   0  0  0  0  0  0  0  0  0  0  0  0
   -3.5347   -3.0281    0.1768 H   0  0  0  0  0  0  0  0  0  0  0  0
   -6.2511   -2.7804    0.7670 H   0  0  0  0  0  0  0  0  0  0  0  0
   -6.2972   -1.3540    1.8224 H   0  0  0  0  0  0  0  0  0  0  0  0
   -8.2060   -1.3060    0.2609 H   0  0  0  0  0  0  0  0  0  0  0  0
   -7.1155    0.0153   -0.1611 H   0  0  0  0  0  0  0  0  0  0  0  0
   -5.7018   -3.0466   -1.6623 H   0  0  0  0  0  0  0  0  0  0  0  0
   -5.7217   -1.8150   -2.9244 H   0  0  0  0  0  0  0  0  0  0  0  0
   -3.7291   -1.4773   -1.5048 H   0  0  0  0  0  0  0  0  0  0  0  0
   -4.8333   -0.1222   -1.3440 H   0  0  0  0  0  0  0  0  0  0  0  0
   -2.7362   -0.0888    0.0307 H   0  0  0  0  0  0  0  0  0  0  0  0
    1.8917   -3.3714    0.5496 H   0  0  0  0  0  0  0  0  0  0  0  0
    3.4256   -4.5447    2.0946 H   0  0  0  0  0  0  0  0  0  0  0  0
    3.8248   -3.0053    2.8769 H   0  0  0  0  0  0  0  0  0  0  0  0
    2.1713   -3.5950    2.9121 H   0  0  0  0  0  0  0  0  0  0  0  0
    2.4148   -2.9589   -1.7188 H   0  0  0  0  0  0  0  0  0  0  0  0
    4.1498   -2.9333   -3.4883 H   0  0  0  0  0  0  0  0  0  0  0  0
    7.2148   -2.5879   -0.5117 H   0  0  0  0  0  0  0  0  0  0  0  0
    3.9373    1.1337    2.5356 H   0  0  0  0  0  0  0  0  0  0  0  0
    2.7441    2.6693    1.2011 H   0  0  0  0  0  0  0  0  0  0  0  0
    1.1160    4.1243    0.8449 H   0  0  0  0  0  0  0  0  0  0  0  0
   -0.6197    4.1921    0.6163 H   0  0  0  0  0  0  0  0  0  0  0  0
    2.0926    2.7328   -1.5256 H   0  0  0  0  0  0  0  0  0  0  0  0
    1.6867    3.8002   -2.8436 H   0  0  0  0  0  0  0  0  0  0  0  0
    3.7887    4.5486   -1.8636 H   0  0  0  0  0  0  0  0  0  0  0  0
    3.0851    4.6800   -0.2508 H   0  0  0  0  0  0  0  0  0  0  0  0
    0.9681    7.4520   -1.3387 H   0  0  0  0  0  0  0  0  0  0  0  0
    1.3346    6.4478    0.0676 H   0  0  0  0  0  0  0  0  0  0  0  0
   -0.8369    5.7414   -1.0192 H   0  0  0  0  0  0  0  0  0  0  0  0
   -0.0119    5.5634   -2.5545 H   0  0  0  0  0  0  0  0  0  0  0  0
  1  2  1  0
  2  3  1  0
  3  4  1  0
  4  5  1  0
  5  6  1  0
  6  7  1  0
  7  8  1  0
  8  9  1  0
  2 10  1  0
 10 11  1  0
 11 12  2  0
 12 13  1  0
 13 14  2  0
 14 15  1  0
 15 16  1  0
 15 17  1  0
 17 18  2  0
 18 19  1  0
 19 20  2  0
 20 21  1  0
 20 22  1  0
 22 23  2  0
 23 24  1  0
 14 25  1  0
 25 26  2  0
 26 27  1  0
 27 28  2  0
 28 29  1  0
 29 30  1  0
 30 31  1  0
 31 32  1  0
 32 33  1  0
 33 34  1  0
 34 35  1  0
 35 36  1  0
 29 37  1  0
 37 38  2  0
  9  4  1  0
 37 11  1  0
 28 12  1  0
 36 31  1  0
 23 17  1  0
  1 39  1  0
  1 40  1  0
  1 41  1  0
  2 42  1  0
  3 43  1  0
  3 44  1  0
  5 45  1  0
  5 46  1  0
  6 47  1  0
  6 48  1  0
  8 49  1  0
  8 50  1  0
  9 51  1  0
  9 52  1  0
 10 53  1  0
 15 54  1  6
 16 55  1  0
 16 56  1  0
 16 57  1  0
 18 58  1  0
 19 59  1  0
 22 60  1  0
 26 61  1  0
 27 62  1  0
 30 63  1  0
 30 64  1  0
 32 65  1  0
 32 66  1  0
 33 67  1  0
 33 68  1  0
 35 69  1  0
 35 70  1  0
 36 71  1  0
 36 72  1  0
M  END
$$$$
