MODEL        2USER    Run = 2USERUSER    Estimated Free Energy of Binding    = -12.83 kcal/mol  [=(1)+(2)+(3)-(4)]USERUSER    (1) Final Intermolecular Energy     = -14.32 kcal/molUSER        vdW + Hbond + desolv Energy     = -14.14 kcal/molUSER        Electrostatic Energy            =  -0.18 kcal/molUSER        Moving Ligand-Fixed Receptor    = -14.32 kcal/molUSER        Moving Ligand-Moving Receptor   =  +0.00 kcal/molUSER    (2) Final Total Internal Energy     =  -1.67 kcal/molUSER    (3) Torsional Free Energy           =  +1.49 kcal/molUSER    (4) Unbound System's Energy         =  -1.67 kcal/molUSERUSERREMARK SMILES Fc1n[nH]c2ccc(-c3cc4c(-c5ccc(-n6ccnn6)c(CN6CCOCC6)c5)n[nH]c4cn3)cc12REMARK SMILES IDX 9 1 10 2 11 3 12 4 31 5 32 6 33 7 34 8 35 9 8 11 2 12 3 13REMARK SMILES IDX 37 14 4 15 36 16 5 17 6 18 7 19 1 20 13 22 14 23 30 24 15 25REMARK SMILES IDX 22 26 16 27 23 28 24 29 25 30 29 31 26 32 28 33 27 34 17 35REMARK SMILES IDX 18 36 21 37 19 38 20 39REMARK H PARENT 32 10 4 21USER                              x       y       z     vdW  Elec       q    TypeUSER                           _______ _______ _______ _____ _____    ______ ____ROOTATOM      1  C   UNL     1      39.615  45.307  21.372 -0.29 +0.00    +0.071 A  ATOM      2  C   UNL     1      38.978  45.351  20.131 -0.32 -0.00    +0.041 A  ATOM      3  C   UNL     1      37.885  44.495  19.929 -0.34 -0.00    +0.031 A  ATOM      4  C   UNL     1      36.975  44.203  18.863 -0.28 -0.02    +0.100 A  ATOM      5  N   UNL     1      36.058  43.301  19.250 -0.25 +0.02    -0.174 NA ATOM      6  N   UNL     1      36.405  42.991  20.509 -0.24 +0.00    -0.276 N  ATOM      7  C   UNL     1      37.489  43.676  20.975 -0.33 +0.00    +0.084 A  ATOM      8  C   UNL     1      38.145  43.656  22.191 -0.26 +0.01    +0.140 A  ATOM      9  N   UNL     1      39.211  44.473  22.367 -0.14 -0.01    -0.254 NA ATOM     10  H   UNL     1      35.849  42.300  21.001 +0.12 +0.01    +0.190 HD ENDROOTBRANCH   1  11ATOM     11  C   UNL     1      40.790  46.151  21.685 -0.21 +0.00    +0.001 A  ATOM     12  C   UNL     1      42.328  48.565  24.229 -0.25 +0.05    +0.240 A  ATOM     13  N   UNL     1      43.541  49.093  24.057 -0.69 -0.05    -0.144 NA ATOM     14  C   UNL     1      41.938  47.704  23.184 -0.26 +0.01    +0.057 A  ATOM     15  N   UNL     1      43.934  48.568  22.883 -0.18 -0.07    -0.275 N  ATOM     16  C   UNL     1      40.815  46.917  22.871 -0.16 +0.00    +0.025 A  ATOM     17  C   UNL     1      43.016  47.725  22.307 -0.30 +0.01    +0.068 A  ATOM     18  C   UNL     1      43.038  46.998  21.116 -0.37 +0.01    +0.029 A  ATOM     19  C   UNL     1      41.906  46.220  20.827 -0.35 +0.00    +0.012 A  ATOM     20  F   UNL     1      41.564  48.830  25.298 -0.11 -0.03    -0.182 F  ATOM     21  H   UNL     1      44.847  48.824  22.524 -0.27 +0.05    +0.190 HD ENDBRANCH   1  11BRANCH   4  22ATOM     22  C   UNL     1      36.950  44.773  17.517 -0.34 -0.00    +0.003 A  ATOM     23  C   UNL     1      36.156  44.203  16.523 -0.34 -0.00    +0.013 A  ATOM     24  C   UNL     1      37.710  45.906  17.200 -0.37 -0.01    +0.017 A  ATOM     25  C   UNL     1      36.105  44.768  15.244 -0.34 -0.01    +0.029 A  ATOM     26  C   UNL     1      37.666  46.508  15.919 -0.38 +0.00    -0.007 A  ATOM     27  C   UNL     1      36.857  45.917  14.920 -0.33 -0.04    +0.071 A  BRANCH  26  28ATOM     28  C   UNL     1      38.427  47.816  15.763 -0.44 -0.06    +0.122 C  BRANCH  28  29ATOM     29  N   UNL     1      39.783  47.597  15.232 -0.26 +0.07    -0.294 NA ATOM     30  C   UNL     1      40.407  48.813  14.670 -0.55 -0.03    +0.113 C  ATOM     31  C   UNL     1      40.683  47.052  16.273 -0.43 -0.01    +0.113 C  ATOM     32  C   UNL     1      40.871  49.828  15.729 -0.56 -0.05    +0.175 C  ATOM     33  C   UNL     1      41.130  48.095  17.311 -0.42 -0.02    +0.175 C  ATOM     34  O   UNL     1      41.752  49.224  16.682 -0.90 -0.07    -0.379 OA ENDBRANCH  28  29ENDBRANCH  26  28BRANCH  27  35ATOM     35  N   UNL     1      36.777  46.415  13.583 -0.30 +0.10    -0.220 N  ATOM     36  C   UNL     1      36.572  45.698  12.419 -0.48 -0.05    +0.137 A  ATOM     37  N   UNL     1      36.994  47.710  13.254 -0.77 +0.03    -0.062 NA ATOM     38  C   UNL     1      36.657  46.622  11.409 -0.34 -0.06    +0.157 A  ATOM     39  N   UNL     1      36.919  47.845  11.937 -1.08 +0.04    -0.139 NA ENDBRANCH  27  35ENDBRANCH   4  22TORSDOF 5TERENDMDL