MODEL        8USER    Run = 8USERUSER    Estimated Free Energy of Binding    = -12.21 kcal/mol  [=(1)+(2)+(3)-(4)]USERUSER    (1) Final Intermolecular Energy     = -14.00 kcal/molUSER        vdW + Hbond + desolv Energy     = -13.69 kcal/molUSER        Electrostatic Energy            =  -0.31 kcal/molUSER        Moving Ligand-Fixed Receptor    = -14.00 kcal/molUSER        Moving Ligand-Moving Receptor   =  +0.00 kcal/molUSER    (2) Final Total Internal Energy     =  -1.88 kcal/molUSER    (3) Torsional Free Energy           =  +1.79 kcal/molUSER    (4) Unbound System's Energy         =  -1.88 kcal/molUSERUSERREMARK SMILES Oc1nc2ccccc2n1C1CCN(Cc2ccc(-c3cc4ccccc4nc3-c3ccccc3)cc2)CC1REMARK SMILES IDX 11 1 12 2 13 3 14 4 38 5 39 6 10 7 2 8 3 9 4 10 9 11 5 12REMARK SMILES IDX 8 13 6 14 7 15 1 16 15 18 16 19 17 20 37 21 18 22 36 23REMARK SMILES IDX 19 24 20 25 21 26 29 27 22 28 28 29 23 30 27 31 24 32 26 33REMARK SMILES IDX 25 34 30 35 31 36 35 37 32 38 34 39 33 40REMARK H PARENT 1 17USER                              x       y       z     vdW  Elec       q    TypeUSER                           _______ _______ _______ _____ _____    ______ ____ROOTATOM      1  C   UNL     1      28.170  41.639  15.958 -0.28 -0.03    +0.095 C  ATOM      2  C   UNL     1      29.390  40.712  15.850 -0.45 -0.01    +0.041 C  ATOM      3  C   UNL     1      30.517  41.031  16.827 -0.35 -0.02    +0.087 C  ATOM      4  N   UNL     1      30.851  42.455  16.914 -0.11 +0.10    -0.299 NA ATOM      5  C   UNL     1      29.678  43.238  17.311 -0.22 -0.02    +0.087 C  ATOM      6  C   UNL     1      28.473  43.083  16.386 -0.27 -0.02    +0.041 C  ENDROOTBRANCH   1   7ATOM      7  N   UNL     1      27.020  41.038  16.631 -0.11 +0.02    -0.291 N  ATOM      8  C   UNL     1      26.223  40.078  16.054 -0.15 +0.04    +0.295 A  ATOM      9  N   UNL     1      25.234  39.693  16.809 -0.37 -0.01    -0.195 NA ATOM     10  C   UNL     1      25.381  40.429  17.954 -0.20 -0.01    +0.092 A  ATOM     11  C   UNL     1      26.495  41.278  17.885 -0.18 -0.01    +0.072 A  ATOM     12  C   UNL     1      24.578  40.414  19.108 -0.20 -0.01    +0.031 A  ATOM     13  C   UNL     1      26.836  42.110  18.958 -0.16 -0.00    +0.029 A  ATOM     14  C   UNL     1      24.912  41.248  20.177 -0.40 -0.00    +0.002 A  ATOM     15  C   UNL     1      26.025  42.080  20.101 -0.39 -0.00    +0.002 A  BRANCH   8  16ATOM     16  O   UNL     1      26.404  39.567  14.853 -0.64 -0.18    -0.480 OA ATOM     17  H   UNL     1      26.528  40.376  14.323 +0.15 -0.11    +0.296 HD ENDBRANCH   8  16ENDBRANCH   1   7BRANCH   4  18ATOM     18  C   UNL     1      31.512  42.948  15.694 -0.31 -0.06    +0.120 C  BRANCH  18  19ATOM     19  C   UNL     1      32.880  43.540  15.954 -0.30 +0.02    -0.034 A  ATOM     20  C   UNL     1      33.096  44.920  15.865 -0.33 -0.00    +0.006 A  ATOM     21  C   UNL     1      33.957  42.708  16.290 -0.31 -0.00    +0.006 A  ATOM     22  C   UNL     1      34.365  45.457  16.106 -0.31 -0.01    +0.009 A  ATOM     23  C   UNL     1      35.226  43.246  16.521 -0.41 -0.00    +0.009 A  ATOM     24  C   UNL     1      35.449  44.627  16.428 -0.31 +0.01    -0.016 A  BRANCH  24  25ATOM     25  C   UNL     1      36.783  45.192  16.681 -0.34 -0.00    +0.009 A  ATOM     26  C   UNL     1      37.363  45.036  17.949 -0.35 -0.01    +0.021 A  ATOM     27  C   UNL     1      37.547  45.860  15.710 -0.31 -0.03    +0.079 A  ATOM     28  C   UNL     1      38.649  45.518  18.216 -0.40 -0.00    +0.001 A  ATOM     29  N   UNL     1      38.807  46.323  15.953 -0.22 +0.07    -0.247 NA ATOM     30  C   UNL     1      39.250  45.370  19.479 -0.39 -0.00    +0.010 A  ATOM     31  C   UNL     1      39.341  46.159  17.174 -0.39 -0.01    +0.071 A  ATOM     32  C   UNL     1      40.535  45.856  19.711 -0.41 +0.00    +0.001 A  ATOM     33  C   UNL     1      40.621  46.634  17.429 -0.48 -0.00    +0.029 A  ATOM     34  C   UNL     1      41.224  46.490  18.682 -0.51 -0.00    +0.002 A  BRANCH  27  35ATOM     35  C   UNL     1      37.079  46.135  14.338 -0.42 -0.00    +0.001 A  ATOM     36  C   UNL     1      36.678  47.431  13.969 -0.51 -0.01    +0.010 A  ATOM     37  C   UNL     1      36.997  45.121  13.368 -0.47 -0.00    +0.010 A  ATOM     38  C   UNL     1      36.235  47.708  12.673 -0.67 -0.00    +0.001 A  ATOM     39  C   UNL     1      36.554  45.396  12.071 -0.58 -0.00    +0.001 A  ATOM     40  C   UNL     1      36.177  46.692  11.723 -0.62 -0.00    +0.000 A  ENDBRANCH  27  35ENDBRANCH  24  25ENDBRANCH  18  19ENDBRANCH   4  18TORSDOF 6TERENDMDL