MODEL        3USER    Run = 3USERUSER    Estimated Free Energy of Binding    = -11.57 kcal/mol  [=(1)+(2)+(3)-(4)]USERUSER    (1) Final Intermolecular Energy     = -13.36 kcal/molUSER        vdW + Hbond + desolv Energy     = -13.29 kcal/molUSER        Electrostatic Energy            =  -0.07 kcal/molUSER        Moving Ligand-Fixed Receptor    = -13.36 kcal/molUSER        Moving Ligand-Moving Receptor   =  +0.00 kcal/molUSER    (2) Final Total Internal Energy     =  -1.56 kcal/molUSER    (3) Torsional Free Energy           =  +1.79 kcal/molUSER    (4) Unbound System's Energy         =  -1.56 kcal/molUSERUSERREMARK SMILES Oc1nc2ccccc2n1C1CCN(Cc2ccc(-c3nc4ccccc4nc3-c3ccccc3)cc2)CC1REMARK SMILES IDX 11 1 12 2 13 3 14 4 38 5 39 6 10 7 2 8 3 9 4 10 9 11 5 12REMARK SMILES IDX 8 13 6 14 7 15 1 16 15 18 16 19 17 20 37 21 18 22 36 23REMARK SMILES IDX 19 24 20 25 21 26 29 27 22 28 28 29 23 30 27 31 24 32 26 33REMARK SMILES IDX 25 34 30 35 31 36 35 37 32 38 34 39 33 40REMARK H PARENT 1 17USER                              x       y       z     vdW  Elec       q    TypeUSER                           _______ _______ _______ _____ _____    ______ ____ROOTATOM      1  C   UNL     1      36.490  44.401  27.011 -0.39 -0.02    +0.095 C  ATOM      2  C   UNL     1      37.894  43.978  27.473 -0.34 -0.00    +0.041 C  ATOM      3  C   UNL     1      38.158  42.496  27.207 -0.34 -0.01    +0.087 C  ATOM      4  N   UNL     1      37.711  42.042  25.887 -0.16 +0.02    -0.299 NA ATOM      5  C   UNL     1      36.282  42.302  25.648 -0.41 -0.01    +0.087 C  ATOM      6  C   UNL     1      35.603  43.191  26.694 -0.51 -0.01    +0.041 C  ENDROOTBRANCH   1   7ATOM      7  N   UNL     1      35.861  45.343  27.924 -0.17 +0.09    -0.291 N  ATOM      8  C   UNL     1      34.868  45.065  28.822 -0.27 -0.07    +0.295 A  ATOM      9  N   UNL     1      34.497  46.101  29.522 -0.24 +0.05    -0.195 NA ATOM     10  C   UNL     1      35.297  47.121  29.068 -0.34 -0.02    +0.092 A  ATOM     11  C   UNL     1      36.169  46.681  28.069 -0.25 -0.02    +0.072 A  ATOM     12  C   UNL     1      35.338  48.464  29.475 -0.31 -0.00    +0.031 A  ATOM     13  C   UNL     1      37.096  47.531  27.451 -0.30 -0.00    +0.029 A  ATOM     14  C   UNL     1      36.257  49.329  28.868 -0.24 -0.00    +0.002 A  ATOM     15  C   UNL     1      37.120  48.867  27.874 -0.27 -0.00    +0.002 A  BRANCH   8  16ATOM     16  O   UNL     1      34.325  43.878  28.998 -0.36 +0.13    -0.480 OA ATOM     17  H   UNL     1      34.948  43.473  29.629 -0.35 -0.18    +0.296 HD ENDBRANCH   8  16ENDBRANCH   1   7BRANCH   4  18ATOM     18  C   UNL     1      38.544  42.525  24.772 -0.20 +0.01    +0.120 C  BRANCH  18  19ATOM     19  C   UNL     1      37.782  42.720  23.479 -0.35 -0.00    -0.034 A  ATOM     20  C   UNL     1      37.241  41.625  22.796 -0.45 +0.00    +0.006 A  ATOM     21  C   UNL     1      37.620  44.001  22.936 -0.35 +0.00    +0.006 A  ATOM     22  C   UNL     1      36.535  41.814  21.603 -0.55 +0.00    +0.011 A  ATOM     23  C   UNL     1      36.913  44.186  21.745 -0.35 +0.00    +0.011 A  ATOM     24  C   UNL     1      36.343  43.097  21.065 -0.44 +0.00    +0.002 A  BRANCH  24  25ATOM     25  C   UNL     1      35.580  43.275  19.819 -0.36 -0.01    +0.097 A  ATOM     26  N   UNL     1      34.316  42.764  19.870 -0.53 -0.01    -0.244 NA ATOM     27  C   UNL     1      36.069  43.888  18.654 -0.27 -0.02    +0.097 A  ATOM     28  C   UNL     1      33.571  42.837  18.753 -0.31 -0.01    +0.089 A  ATOM     29  N   UNL     1      35.311  43.948  17.521 -0.14 +0.08    -0.244 NA ATOM     30  C   UNL     1      32.282  42.318  18.754 -0.34 -0.00    +0.030 A  ATOM     31  C   UNL     1      34.072  43.429  17.573 -0.26 -0.03    +0.089 A  ATOM     32  C   UNL     1      31.476  42.370  17.616 -0.30 -0.00    +0.002 A  ATOM     33  C   UNL     1      33.263  43.476  16.444 -0.32 -0.01    +0.030 A  ATOM     34  C   UNL     1      31.970  42.952  16.455 -0.32 -0.00    +0.002 A  BRANCH  27  35ATOM     35  C   UNL     1      37.389  44.531  18.521 -0.35 -0.00    +0.002 A  ATOM     36  C   UNL     1      37.536  45.697  17.747 -0.34 -0.00    +0.010 A  ATOM     37  C   UNL     1      38.530  44.033  19.175 -0.25 -0.00    +0.010 A  ATOM     38  C   UNL     1      38.778  46.325  17.610 -0.40 -0.00    +0.001 A  ATOM     39  C   UNL     1      39.774  44.658  19.036 -0.41 -0.00    +0.001 A  ATOM     40  C   UNL     1      39.897  45.802  18.252 -0.45 -0.00    +0.000 A  ENDBRANCH  27  35ENDBRANCH  24  25ENDBRANCH  18  19ENDBRANCH   4  18TORSDOF 6TERENDMDL