MODEL        8USER    Run = 8USERUSER    Estimated Free Energy of Binding    =  -6.86 kcal/mol  [=(1)+(2)+(3)-(4)]USERUSER    (1) Final Intermolecular Energy     = -11.04 kcal/molUSER        vdW + Hbond + desolv Energy     = -11.15 kcal/molUSER        Electrostatic Energy            =  -0.02 kcal/molUSER        Moving Ligand-Fixed Receptor    = -11.17 kcal/molUSER        Moving Ligand-Moving Receptor   =  +0.13 kcal/molUSER    (2) Final Total Internal Energy     =  -2.78 kcal/molUSER    (3) Torsional Free Energy           =  +4.18 kcal/molUSER    (4) Unbound System's Energy         =  -2.78 kcal/molUSERUSERREMARK SMILES COc1ccc(O)c(C(=O)c2ccc(C(=O)N[C@@H]3CCCNC[C@H]3NC(=O)c3ccncc3)cc2)c1FREMARK SMILES IDX 15 1 16 2 17 3 14 5 11 6 12 7 35 8 13 9 34 10 9 11 10 12REMARK SMILES IDX 8 13 3 14 4 15 36 16 5 17 6 18 37 19 2 20 1 21 7 22 18 24REMARK SMILES IDX 19 25 24 27 23 28 22 29 21 31 20 32 25 34 26 35 27 37 28 38REMARK SMILES IDX 29 39 33 40 30 41 32 42 31 43REMARK H PARENT 17 4 7 23 22 30 25 36REMARK Flexibility Score:   88.900USER                              x       y       z     vdW  Elec       q    TypeUSER                           _______ _______ _______ _____ _____    ______ ____ROOTATOM      1  C   UNL     1      34.748  43.230  19.930 -0.28 -0.01    +0.251 C  ATOM      2  O   UNL     1      33.965  42.309  19.726 -0.53 -0.02    -0.269 OA ATOM      3  N   UNL     1      34.727  44.414  19.221 -0.16 +0.08    -0.347 N  ATOM      4  H   UNL     1      35.525  45.030  19.304 +0.09 -0.04    +0.164 HD ENDROOTBRANCH   1   5ATOM      5  C   UNL     1      35.840  43.080  20.932 -0.35 +0.00    +0.039 A  ATOM      6  C   UNL     1      37.857  42.921  22.873 -0.35 +0.00    +0.023 A  ATOM      7  C   UNL     1      37.542  44.152  22.290 -0.36 +0.00    +0.013 A  ATOM      8  C   UNL     1      37.164  41.768  22.486 -0.51 +0.00    +0.013 A  ATOM      9  C   UNL     1      36.545  44.229  21.313 -0.29 +0.00    +0.014 A  ATOM     10  C   UNL     1      36.163  41.845  21.508 -0.53 +0.00    +0.014 A  BRANCH   6  11ATOM     11  C   UNL     1      38.863  42.905  23.958 -0.19 +0.01    +0.199 C  ATOM     12  O   UNL     1      39.996  43.315  23.702 -0.14 -0.01    -0.288 OA BRANCH  11  13ATOM     13  C   UNL     1      38.580  42.471  25.346 -0.18 +0.00    +0.104 A  ATOM     14  C   UNL     1      37.035  41.891  27.144 -0.34 -0.03    +0.155 A  ATOM     15  C   UNL     1      38.115  41.633  27.991 -0.39 -0.01    +0.053 A  ATOM     16  C   UNL     1      37.279  42.306  25.823 -0.24 -0.02    +0.179 A  ATOM     17  C   UNL     1      39.422  41.768  27.517 -0.30 -0.00    +0.051 A  ATOM     18  C   UNL     1      39.649  42.169  26.203 -0.15 -0.00    +0.130 A  ATOM     19  F   UNL     1      36.230  42.514  25.012 -0.11 +0.00    -0.202 F  BRANCH  14  20ATOM     20  O   UNL     1      35.714  41.780  27.489 -0.21 +0.17    -0.494 OA ATOM     21  C   UNL     1      34.982  42.990  27.658 -0.42 -0.07    +0.278 C  ENDBRANCH  14  20BRANCH  18  22ATOM     22  O   UNL     1      40.962  42.243  25.816 -0.04 +0.04    -0.507 OA ATOM     23  H   UNL     1      40.999  42.807  25.008 +0.10 -0.01    +0.293 HD ENDBRANCH  18  22ENDBRANCH  11  13ENDBRANCH   6  11ENDBRANCH   1   5BRANCH   3  24ATOM     24  C   UNL     1      33.884  44.563  18.029 -0.33 -0.04    +0.106 C  BRANCH  24  25ATOM     25  C   UNL     1      32.459  44.086  18.339 -0.37 -0.01    +0.028 CG0ATOM     26  G   UNL     1      31.385  44.481  17.311 +0.00 +0.00    +0.000 G0 ENDBRANCH  24  25BRANCH  24  27ATOM     27  C   UNL     1      34.537  43.852  16.810 -0.31 -0.05    +0.118 C  BRANCH  27  28ATOM     28  C   UNL     1      33.624  42.838  16.080 -0.25 -0.06    +0.108 C  BRANCH  28  29ATOM     29  N   UNL     1      32.494  43.382  15.321 -0.14 +0.17    -0.315 NA ATOM     30  H   UNL     1      32.771  44.242  14.854 +0.08 -0.07    +0.122 HD BRANCH  29  31ATOM     31  C   UNL     1      31.262  43.603  16.070 -0.33 -0.04    +0.081 C  BRANCH  31  32ATOM     32  C   UNL     1      31.385  44.482  17.312 -0.16 -0.00    +0.017 CG0ATOM     33  G   UNL     1      32.459  44.087  18.339 +0.00 +0.00    +0.000 G0 ENDBRANCH  31  32ENDBRANCH  29  31ENDBRANCH  28  29ENDBRANCH  27  28BRANCH  27  34ATOM     34  N   UNL     1      35.075  44.846  15.873 -0.10 +0.20    -0.346 N  ATOM     35  C   UNL     1      36.016  45.770  16.265 -0.23 -0.16    +0.251 C  ATOM     36  H   UNL     1      34.953  44.663  14.890 +0.11 -0.09    +0.164 HD ATOM     37  O   UNL     1      36.405  45.896  17.420 -0.24 +0.13    -0.269 OA BRANCH  35  38ATOM     38  C   UNL     1      36.589  46.622  15.195 -0.36 -0.03    +0.042 A  ATOM     39  C   UNL     1      36.254  46.335  13.871 -0.45 -0.02    +0.034 A  ATOM     40  C   UNL     1      37.465  47.672  15.474 -0.42 -0.02    +0.034 A  ATOM     41  C   UNL     1      36.794  47.130  12.878 -0.54 -0.05    +0.112 A  ATOM     42  C   UNL     1      37.952  48.407  14.408 -0.45 -0.06    +0.112 A  ATOM     43  N   UNL     1      37.631  48.162  13.118 -0.76 +0.06    -0.265 NA ENDBRANCH  35  38ENDBRANCH  27  34ENDBRANCH  24  27ENDBRANCH   3  24TORSDOF 8TERENDMDL