MODEL        2USER    Run = 2USERUSER    Estimated Free Energy of Binding    =  -8.02 kcal/mol  [=(1)+(2)+(3)-(4)]USERUSER    (1) Final Intermolecular Energy     = -12.50 kcal/molUSER        vdW + Hbond + desolv Energy     = -12.34 kcal/molUSER        Electrostatic Energy            =  -0.23 kcal/molUSER        Moving Ligand-Fixed Receptor    = -12.57 kcal/molUSER        Moving Ligand-Moving Receptor   =  +0.07 kcal/molUSER    (2) Final Total Internal Energy     =  -2.29 kcal/molUSER    (3) Torsional Free Energy           =  +4.47 kcal/molUSER    (4) Unbound System's Energy         =  -2.29 kcal/molUSERUSERREMARK SMILES COc1ccc(O)c(C(=O)c2ccc(/C=C/[C@@H]3CCCNC[C@H]3NC(=O)c3ccncc3)cc2)c1FREMARK SMILES IDX 16 1 15 2 14 3 11 4 12 5 34 6 13 7 33 8 9 9 10 10 8 11 3 12REMARK SMILES IDX 4 13 35 14 5 15 6 16 36 17 2 18 1 19 7 20 17 22 18 23 23 25REMARK SMILES IDX 22 26 21 27 20 29 19 30 24 32 25 33 26 35 27 36 28 37 32 38REMARK SMILES IDX 29 39 31 40 30 41REMARK H PARENT 7 21 21 28 24 34REMARK Flexibility Score:   99.900USER                              x       y       z     vdW  Elec       q    TypeUSER                           _______ _______ _______ _____ _____    ______ ____ROOTATOM      1  C   UNL     1      35.405  44.177  18.995 -0.41 +0.00    -0.021 C  ENDROOTBRANCH   1   2ATOM      2  C   UNL     1      36.470  43.462  19.391 -0.41 -0.00    +0.004 C  BRANCH   2   3ATOM      3  C   UNL     1      36.889  43.343  20.793 -0.40 +0.00    -0.026 A  ATOM      4  C   UNL     1      37.670  43.036  23.472 -0.35 +0.00    +0.023 A  ATOM      5  C   UNL     1      36.602  42.289  22.967 -0.44 +0.00    +0.013 A  ATOM      6  C   UNL     1      38.373  43.905  22.634 -0.31 +0.00    +0.013 A  ATOM      7  C   UNL     1      36.219  42.441  21.630 -0.45 +0.00    +0.009 A  ATOM      8  C   UNL     1      37.978  44.063  21.304 -0.36 +0.00    +0.009 A  BRANCH   4   9ATOM      9  C   UNL     1      38.124  42.879  24.870 -0.22 +0.00    +0.199 C  ATOM     10  O   UNL     1      39.320  43.029  25.127 -0.12 -0.01    -0.288 OA BRANCH   9  11ATOM     11  C   UNL     1      37.214  42.496  25.973 -0.29 -0.01    +0.104 A  ATOM     12  C   UNL     1      35.223  42.877  27.329 -0.44 -0.04    +0.155 A  ATOM     13  C   UNL     1      35.515  41.733  28.073 -0.34 -0.02    +0.053 A  ATOM     14  C   UNL     1      36.080  43.251  26.283 -0.28 -0.02    +0.179 A  ATOM     15  C   UNL     1      36.663  40.988  27.789 -0.49 -0.02    +0.051 A  ATOM     16  C   UNL     1      37.510  41.375  26.757 -0.33 -0.02    +0.130 A  ATOM     17  F   UNL     1      35.810  44.374  25.600 -0.06 +0.01    -0.202 F  BRANCH  12  18ATOM     18  O   UNL     1      34.143  43.696  27.525 -0.24 +0.06    -0.494 OA ATOM     19  C   UNL     1      34.163  44.539  28.670 -0.43 -0.05    +0.278 C  ENDBRANCH  12  18BRANCH  16  20ATOM     20  O   UNL     1      38.628  40.606  26.566 -0.09 +0.01    -0.507 OA ATOM     21  H   UNL     1      39.361  41.203  26.291 +0.11 -0.00    +0.293 HD ENDBRANCH  16  20ENDBRANCH   9  11ENDBRANCH   4   9ENDBRANCH   2   3ENDBRANCH   1   2BRANCH   1  22ATOM     22  C   UNL     1      35.444  45.501  18.236 -0.39 -0.01    +0.035 C  BRANCH  22  23ATOM     23  C   UNL     1      34.001  46.043  18.211 -0.56 -0.01    +0.011 CG0ATOM     24  G   UNL     1      32.916  45.186  17.570 +0.00 +0.00    +0.000 G0 ENDBRANCH  22  23BRANCH  22  25ATOM     25  C   UNL     1      36.146  45.487  16.844 -0.33 -0.05    +0.103 C  BRANCH  25  26ATOM     26  C   UNL     1      35.162  45.904  15.713 -0.32 -0.10    +0.106 C  BRANCH  26  27ATOM     27  N   UNL     1      34.064  45.001  15.388 -0.12 +0.22    -0.315 NA ATOM     28  H   UNL     1      34.353  44.039  15.573 +0.08 -0.06    +0.122 HD BRANCH  27  29ATOM     29  C   UNL     1      32.805  45.291  16.056 -0.32 -0.06    +0.081 C  BRANCH  29  30ATOM     30  C   UNL     1      32.916  45.186  17.570 -0.35 -0.01    +0.016 CG0ATOM     31  G   UNL     1      34.001  46.044  18.210 +0.00 +0.00    +0.000 G0 ENDBRANCH  29  30ENDBRANCH  27  29ENDBRANCH  26  27ENDBRANCH  25  26BRANCH  25  32ATOM     32  N   UNL     1      37.299  46.398  16.817 -0.15 +0.17    -0.347 N  ATOM     33  C   UNL     1      38.554  45.994  17.216 -0.29 -0.07    +0.251 C  ATOM     34  H   UNL     1      37.195  47.273  16.321 +0.11 -0.12    +0.164 HD ATOM     35  O   UNL     1      38.807  44.867  17.620 -0.24 +0.04    -0.269 OA BRANCH  33  36ATOM     36  C   UNL     1      39.633  47.007  17.100 -0.44 -0.01    +0.042 A  ATOM     37  C   UNL     1      39.618  47.985  16.106 -0.49 -0.01    +0.034 A  ATOM     38  C   UNL     1      40.664  46.987  18.038 -0.48 -0.00    +0.034 A  ATOM     39  C   UNL     1      40.661  48.892  16.079 -0.50 -0.02    +0.112 A  ATOM     40  C   UNL     1      41.661  47.936  17.922 -0.37 -0.01    +0.112 A  ATOM     41  N   UNL     1      41.687  48.882  16.957 -0.80 -0.03    -0.265 NA ENDBRANCH  33  36ENDBRANCH  25  32ENDBRANCH  22  25ENDBRANCH   1  22TORSDOF 9TERENDMDL