MODEL        6USER    Run = 6USERUSER    Estimated Free Energy of Binding    =  -8.06 kcal/mol  [=(1)+(2)+(3)-(4)]USERUSER    (1) Final Intermolecular Energy     = -12.53 kcal/molUSER        vdW + Hbond + desolv Energy     = -12.86 kcal/molUSER        Electrostatic Energy            =  -0.18 kcal/molUSER        Moving Ligand-Fixed Receptor    = -13.04 kcal/molUSER        Moving Ligand-Moving Receptor   =  +0.51 kcal/molUSER    (2) Final Total Internal Energy     =  -2.75 kcal/molUSER    (3) Torsional Free Energy           =  +4.47 kcal/molUSER    (4) Unbound System's Energy         =  -2.75 kcal/molUSERUSERREMARK SMILES COc1ccc(O)c(C(=O)c2ccc(CO[C@@H]3CCCNC[C@@H]3NC(=O)c3ccncc3)cc2)c1FREMARK SMILES IDX 16 1 15 2 14 3 11 4 12 5 34 6 13 7 33 8 9 9 10 10 8 11 3 12REMARK SMILES IDX 4 13 35 14 5 15 6 16 36 17 2 18 1 19 7 20 17 22 18 23 23 25REMARK SMILES IDX 22 26 21 27 20 29 19 30 24 32 25 33 26 35 27 36 28 37 32 38REMARK SMILES IDX 29 39 31 40 30 41REMARK H PARENT 7 21 21 28 24 34REMARK Flexibility Score:   99.900USER                              x       y       z     vdW  Elec       q    TypeUSER                           _______ _______ _______ _____ _____    ______ ____ROOTATOM      1  O   UNL     1      36.828  44.806  15.811 -0.14 +0.14    -0.371 OA ENDROOTBRANCH   1   2ATOM      2  C   UNL     1      36.078  45.189  16.962 -0.26 -0.09    +0.196 C  BRANCH   2   3ATOM      3  C   UNL     1      34.770  44.442  16.941 -0.29 +0.01    -0.022 A  ATOM      4  C   UNL     1      32.321  43.064  16.932 -0.30 -0.01    +0.023 A  ATOM      5  C   UNL     1      32.338  44.460  17.008 -0.29 -0.00    +0.012 A  ATOM      6  C   UNL     1      33.525  42.360  16.827 -0.30 -0.01    +0.012 A  ATOM      7  C   UNL     1      33.556  45.141  17.020 -0.33 -0.00    +0.007 A  ATOM      8  C   UNL     1      34.742  43.044  16.837 -0.39 -0.00    +0.007 A  BRANCH   4   9ATOM      9  C   UNL     1      31.051  42.299  16.882 -0.23 -0.07    +0.199 C  ATOM     10  O   UNL     1      30.080  42.789  16.301 -0.17 +0.12    -0.288 OA BRANCH   9  11ATOM     11  C   UNL     1      30.864  40.995  17.552 -0.26 -0.02    +0.104 A  ATOM     12  C   UNL     1      31.333  39.429  19.361 -0.31 +0.02    +0.155 A  ATOM     13  C   UNL     1      30.455  38.506  18.787 -0.38 +0.01    +0.053 A  ATOM     14  C   UNL     1      31.534  40.666  18.731 -0.24 -0.00    +0.179 A  ATOM     15  C   UNL     1      29.804  38.812  17.589 -0.21 +0.02    +0.051 A  ATOM     16  C   UNL     1      30.019  40.041  16.971 -0.25 +0.00    +0.130 A  ATOM     17  F   UNL     1      32.407  41.530  19.273 -0.10 -0.01    -0.202 F  BRANCH  12  18ATOM     18  O   UNL     1      32.037  39.237  20.519 -1.01 -0.20    -0.494 OA ATOM     19  C   UNL     1      31.528  38.283  21.443 -0.33 +0.04    +0.278 C  ENDBRANCH  12  18BRANCH  16  20ATOM     20  O   UNL     1      29.366  40.248  15.785 -0.21 +0.03    -0.507 OA ATOM     21  H   UNL     1      29.408  41.211  15.582 +0.16 -0.11    +0.293 HD ENDBRANCH  16  20ENDBRANCH   9  11ENDBRANCH   4   9ENDBRANCH   2   3ENDBRANCH   1   2BRANCH   1  22ATOM     22  C   UNL     1      36.693  45.724  14.705 -0.35 -0.07    +0.142 C  BRANCH  22  23ATOM     23  C   UNL     1      37.033  44.888  13.463 -0.47 -0.01    +0.035 CG0ATOM     24  G   UNL     1      36.511  45.331  12.100 +0.00 +0.00    +0.000 G0 ENDBRANCH  22  23BRANCH  22  25ATOM     25  C   UNL     1      37.587  46.962  14.954 -0.40 -0.06    +0.125 C  BRANCH  25  26ATOM     26  C   UNL     1      37.990  47.634  13.618 -0.50 -0.03    +0.108 C  BRANCH  26  27ATOM     27  N   UNL     1      36.959  47.719  12.587 -0.92 +0.10    -0.315 NA ATOM     28  H   UNL     1      37.016  48.640  12.149 +0.03 +0.00    +0.122 HD BRANCH  27  29ATOM     29  C   UNL     1      37.018  46.667  11.582 -0.64 -0.03    +0.081 C  BRANCH  29  30ATOM     30  C   UNL     1      36.507  45.331  12.101 -0.62 -0.01    +0.018 CG0ATOM     31  G   UNL     1      37.033  44.894  13.463 +0.00 +0.00    +0.000 G0 ENDBRANCH  29  30ENDBRANCH  27  29ENDBRANCH  26  27ENDBRANCH  25  26BRANCH  25  32ATOM     32  N   UNL     1      38.721  46.631  15.829 -0.16 +0.11    -0.345 N  ATOM     33  C   UNL     1      39.540  47.614  16.344 -0.36 -0.08    +0.251 C  ATOM     34  H   UNL     1      38.570  45.826  16.426 +0.11 -0.05    +0.164 HD ATOM     35  O   UNL     1      39.460  48.796  16.037 -0.37 +0.13    -0.269 OA BRANCH  33  36ATOM     36  C   UNL     1      40.539  47.175  17.355 -0.48 -0.01    +0.042 A  ATOM     37  C   UNL     1      41.652  47.985  17.581 -0.40 -0.00    +0.034 A  ATOM     38  C   UNL     1      40.410  45.972  18.049 -0.46 -0.00    +0.034 A  ATOM     39  C   UNL     1      42.586  47.562  18.510 -0.38 +0.00    +0.112 A  ATOM     40  C   UNL     1      41.401  45.638  18.956 -0.37 +0.01    +0.112 A  ATOM     41  N   UNL     1      42.481  46.409  19.204 -0.26 -0.05    -0.265 NA ENDBRANCH  33  36ENDBRANCH  25  32ENDBRANCH  22  25ENDBRANCH   1  22TORSDOF 9TERENDMDL