MODEL        8USER    Run = 8USERUSER    Estimated Free Energy of Binding    =  -6.20 kcal/mol  [=(1)+(2)+(3)-(4)]USERUSER    (1) Final Intermolecular Energy     = -10.68 kcal/molUSER        vdW + Hbond + desolv Energy     = -11.31 kcal/molUSER        Electrostatic Energy            =  -0.09 kcal/molUSER        Moving Ligand-Fixed Receptor    = -11.40 kcal/molUSER        Moving Ligand-Moving Receptor   =  +0.72 kcal/molUSER    (2) Final Total Internal Energy     =  -3.34 kcal/molUSER    (3) Torsional Free Energy           =  +4.47 kcal/molUSER    (4) Unbound System's Energy         =  -3.34 kcal/molUSERUSERREMARK SMILES COc1ccc(O)c(C(=O)c2ccc(C(=O)O[C@@H]3CCCNC[C@H]3NC(=O)c3ccncc3)cc2)c1FREMARK SMILES IDX 17 1 15 2 16 3 14 4 11 5 12 6 35 7 13 8 34 9 9 10 10 11 8 12REMARK SMILES IDX 3 13 4 14 36 15 5 16 6 17 37 18 2 19 1 20 7 21 18 23 24 25REMARK SMILES IDX 23 26 22 27 21 29 20 30 19 31 25 33 26 34 27 36 28 37 29 38REMARK SMILES IDX 33 39 30 40 32 41 31 42REMARK H PARENT 7 22 22 28 25 35REMARK Flexibility Score:   99.900USER                              x       y       z     vdW  Elec       q    TypeUSER                           _______ _______ _______ _____ _____    ______ ____ROOTATOM      1  O   UNL     1      38.234  44.066  19.743 -0.10 +0.02    -0.457 OA ENDROOTBRANCH   1   2ATOM      2  C   UNL     1      38.788  45.049  20.497 -0.20 +0.00    +0.338 C  ATOM      3  O   UNL     1      39.168  46.145  20.109 -0.20 +0.00    -0.246 OA BRANCH   2   4ATOM      4  C   UNL     1      38.832  44.622  21.917 -0.29 +0.00    +0.060 A  ATOM      5  C   UNL     1      38.893  43.888  24.627 -0.19 +0.00    +0.023 A  ATOM      6  C   UNL     1      39.441  43.040  23.655 -0.23 +0.00    +0.013 A  ATOM      7  C   UNL     1      38.319  45.107  24.235 -0.27 +0.00    +0.013 A  ATOM      8  C   UNL     1      39.411  43.406  22.305 -0.25 +0.00    +0.016 A  ATOM      9  C   UNL     1      38.297  45.477  22.888 -0.30 +0.00    +0.016 A  BRANCH   5  10ATOM     10  C   UNL     1      38.876  43.535  26.072 -0.14 -0.00    +0.199 C  ATOM     11  O   UNL     1      39.813  43.832  26.806 -0.08 +0.00    -0.288 OA BRANCH  10  12ATOM     12  C   UNL     1      37.735  42.816  26.653 -0.25 -0.01    +0.104 A  ATOM     13  C   UNL     1      35.407  42.833  27.334 -0.42 -0.04    +0.155 A  ATOM     14  C   UNL     1      35.550  41.520  27.802 -0.53 -0.02    +0.053 A  ATOM     15  C   UNL     1      36.513  43.476  26.766 -0.27 -0.03    +0.179 A  ATOM     16  C   UNL     1      36.775  40.852  27.674 -0.42 -0.02    +0.051 A  ATOM     17  C   UNL     1      37.863  41.499  27.092 -0.35 -0.02    +0.130 A  ATOM     18  F   UNL     1      36.380  44.723  26.285 -0.10 +0.03    -0.202 F  BRANCH  13  19ATOM     19  O   UNL     1      34.249  43.563  27.359 -0.26 +0.06    -0.494 OA ATOM     20  C   UNL     1      34.060  44.452  28.453 -0.39 -0.05    +0.278 C  ENDBRANCH  13  19BRANCH  17  21ATOM     21  O   UNL     1      39.053  40.846  26.944 -0.15 +0.02    -0.507 OA ATOM     22  H   UNL     1      39.780  41.486  26.885 +0.11 -0.02    +0.293 HD ENDBRANCH  17  21ENDBRANCH  10  12ENDBRANCH   5  10ENDBRANCH   2   4ENDBRANCH   1   2BRANCH   1  23ATOM     23  C   UNL     1      36.849  44.253  19.346 -0.29 -0.02    +0.200 CG0ATOM     24  G   UNL     1      36.136  42.919  19.561 +0.00 +0.00    +0.000 G0 BRANCH  23  25ATOM     25  C   UNL     1      36.858  44.740  17.883 -0.31 -0.04    +0.137 C  BRANCH  25  26ATOM     26  C   UNL     1      35.554  45.425  17.427 -0.33 -0.06    +0.109 C  BRANCH  26  27ATOM     27  N   UNL     1      34.361  44.582  17.535 -0.09 +0.14    -0.315 NA ATOM     28  H   UNL     1      34.521  43.732  16.994 +0.09 -0.05    +0.122 HD BRANCH  27  29ATOM     29  C   UNL     1      33.964  44.202  18.894 -0.39 -0.02    +0.081 C  BRANCH  29  30ATOM     30  C   UNL     1      34.603  42.951  19.511 -0.47 -0.00    +0.019 C  BRANCH  30  31ATOM     31  C   UNL     1      36.136  42.918  19.561 -0.41 -0.00    +0.049 CG0ATOM     32  G   UNL     1      36.851  44.250  19.333 +0.00 +0.00    +0.000 G0 ENDBRANCH  30  31ENDBRANCH  29  30ENDBRANCH  27  29ENDBRANCH  26  27ENDBRANCH  25  26BRANCH  25  33ATOM     33  N   UNL     1      38.000  45.643  17.683 -0.16 +0.09    -0.344 N  ATOM     34  C   UNL     1      38.137  46.414  16.555 -0.28 -0.10    +0.251 C  ATOM     35  H   UNL     1      38.503  45.907  18.519 +0.08 -0.03    +0.164 HD ATOM     36  O   UNL     1      37.362  46.386  15.609 -0.22 +0.14    -0.269 OA BRANCH  34  37ATOM     37  C   UNL     1      39.302  47.329  16.536 -0.44 -0.01    +0.042 A  ATOM     38  C   UNL     1      39.371  48.303  15.541 -0.51 -0.01    +0.034 A  ATOM     39  C   UNL     1      40.337  47.205  17.462 -0.47 -0.01    +0.034 A  ATOM     40  C   UNL     1      40.471  49.139  15.531 -0.52 -0.03    +0.112 A  ATOM     41  C   UNL     1      41.397  48.087  17.360 -0.40 -0.01    +0.112 A  ATOM     42  N   UNL     1      41.483  49.054  16.421 -0.93 -0.01    -0.265 NA ENDBRANCH  34  37ENDBRANCH  25  33ENDBRANCH  23  25ENDBRANCH   1  23TORSDOF 9TERENDMDL