MODEL        10USER    Run = 10USERUSER    Estimated Free Energy of Binding    =  -6.85 kcal/mol  [=(1)+(2)+(3)-(4)]USERUSER    (1) Final Intermolecular Energy     = -11.33 kcal/molUSER        vdW + Hbond + desolv Energy     = -10.68 kcal/molUSER        Electrostatic Energy            =  -0.82 kcal/molUSER        Moving Ligand-Fixed Receptor    = -11.49 kcal/molUSER        Moving Ligand-Moving Receptor   =  +0.16 kcal/molUSER    (2) Final Total Internal Energy     =  -2.45 kcal/molUSER    (3) Torsional Free Energy           =  +4.47 kcal/molUSER    (4) Unbound System's Energy         =  -2.45 kcal/molUSERUSERREMARK SMILES COc1ccc(O)c(C(=O)c2ccc(NC[C@@H]3CCCNC[C@@H]3NC(=O)c3ccncc3)cc2)c1FREMARK SMILES IDX 16 1 15 2 14 4 11 5 12 6 34 7 13 8 33 9 9 10 10 11 8 12 3 13REMARK SMILES IDX 4 14 35 15 5 16 6 17 36 18 2 19 1 20 7 21 17 23 18 24 23 26REMARK SMILES IDX 22 27 21 28 20 30 19 31 24 33 25 34 26 36 27 37 28 38 32 39REMARK SMILES IDX 29 40 31 41 30 42REMARK H PARENT 15 3 7 22 21 29 24 35REMARK Flexibility Score:   99.900USER                              x       y       z     vdW  Elec       q    TypeUSER                           _______ _______ _______ _____ _____    ______ ____ROOTATOM      1  C   UNL     1      26.002  42.832  19.097 -0.36 -0.02    +0.118 C  ENDROOTBRANCH   1   2ATOM      2  N   UNL     1      26.634  42.639  17.789 -0.04 +0.05    -0.385 N  ATOM      3  H   UNL     1      27.649  42.656  17.826 +0.09 -0.02    +0.160 HD BRANCH   2   4ATOM      4  C   UNL     1      26.109  43.173  16.615 -0.27 -0.01    +0.034 A  ATOM      5  C   UNL     1      25.123  44.411  14.268 -0.31 -0.00    +0.023 A  ATOM      6  C   UNL     1      25.601  43.099  14.230 -0.29 -0.01    +0.014 A  ATOM      7  C   UNL     1      25.189  45.127  15.464 -0.31 +0.00    +0.014 A  ATOM      8  C   UNL     1      26.095  42.493  15.391 -0.28 -0.01    +0.026 A  ATOM      9  C   UNL     1      25.683  44.508  16.619 -0.37 +0.00    +0.026 A  BRANCH   5  10ATOM     10  C   UNL     1      24.641  45.025  13.008 -0.20 +0.02    +0.199 C  ATOM     11  O   UNL     1      23.872  44.387  12.287 -0.32 -0.15    -0.288 OA BRANCH  10  12ATOM     12  C   UNL     1      25.078  46.357  12.535 -0.22 -0.01    +0.104 A  ATOM     13  C   UNL     1      24.890  48.788  12.503 -0.14 -0.05    +0.155 A  ATOM     14  C   UNL     1      25.963  48.857  11.612 -0.26 -0.02    +0.053 A  ATOM     15  C   UNL     1      24.452  47.532  12.951 -0.18 -0.03    +0.179 A  ATOM     16  C   UNL     1      26.575  47.685  11.162 -0.40 -0.03    +0.051 A  ATOM     17  C   UNL     1      26.125  46.445  11.610 -0.29 -0.03    +0.130 A  ATOM     18  F   UNL     1      23.393  47.478  13.775 -0.07 -0.01    -0.202 F  BRANCH  13  19ATOM     19  O   UNL     1      24.201  49.863  12.998 -0.14 +0.12    -0.494 OA ATOM     20  C   UNL     1      24.071  51.000  12.153 -0.28 -0.04    +0.278 C  ENDBRANCH  13  19BRANCH  17  21ATOM     21  O   UNL     1      26.759  45.346  11.094 -0.50 +0.01    -0.507 OA ATOM     22  H   UNL     1      27.194  44.872  11.839 -0.34 -0.42    +0.293 HD ENDBRANCH  17  21ENDBRANCH  10  12ENDBRANCH   5  10ENDBRANCH   2   4ENDBRANCH   1   2BRANCH   1  23ATOM     23  C   UNL     1      25.198  41.585  19.543 -0.39 -0.01    +0.032 C  BRANCH  23  24ATOM     24  C   UNL     1      25.191  41.482  21.081 -0.55 -0.00    +0.009 CG0ATOM     25  G   UNL     1      25.676  40.186  21.732 +0.00 +0.00    +0.000 G0 ENDBRANCH  23  24BRANCH  23  26ATOM     26  C   UNL     1      25.698  40.327  18.795 -0.25 -0.01    +0.101 C  BRANCH  26  27ATOM     27  C   UNL     1      24.783  39.108  19.058 -0.34 -0.04    +0.106 C  BRANCH  27  28ATOM     28  N   UNL     1      25.149  38.294  20.225 -0.07 +0.29    -0.315 NA ATOM     29  H   UNL     1      24.613  37.425  20.171 -0.38 -0.31    +0.122 HD BRANCH  28  30ATOM     30  C   UNL     1      24.828  38.943  21.497 -0.36 -0.05    +0.081 C  BRANCH  30  31ATOM     31  C   UNL     1      25.678  40.185  21.732 -0.44 -0.00    +0.016 CG0ATOM     32  G   UNL     1      25.191  41.482  21.083 +0.00 +0.00    +0.000 G0 ENDBRANCH  30  31ENDBRANCH  28  30ENDBRANCH  27  28ENDBRANCH  26  27BRANCH  26  33ATOM     33  N   UNL     1      27.080  39.979  19.118 -0.06 +0.01    -0.348 N  ATOM     34  C   UNL     1      28.124  40.141  18.239 -0.14 +0.02    +0.251 C  ATOM     35  H   UNL     1      27.201  39.496  19.999 +0.08 -0.02    +0.164 HD ATOM     36  O   UNL     1      27.980  40.585  17.106 -0.16 -0.01    -0.269 OA BRANCH  34  37ATOM     37  C   UNL     1      29.470  39.724  18.712 -0.23 +0.00    +0.042 A  ATOM     38  C   UNL     1      30.581  40.409  18.216 -0.29 -0.00    +0.034 A  ATOM     39  C   UNL     1      29.655  38.703  19.645 -0.32 +0.00    +0.034 A  ATOM     40  C   UNL     1      31.834  40.027  18.657 -0.34 +0.00    +0.112 A  ATOM     41  C   UNL     1      30.951  38.399  20.024 -0.37 +0.02    +0.112 A  ATOM     42  N   UNL     1      32.042  39.033  19.547 -0.59 -0.07    -0.265 NA ENDBRANCH  34  37ENDBRANCH  26  33ENDBRANCH  23  26ENDBRANCH   1  23TORSDOF 9TERENDMDL