MODEL        6USER    Run = 6USERUSER    Estimated Free Energy of Binding    = -12.62 kcal/mol  [=(1)+(2)+(3)-(4)]USERUSER    (1) Final Intermolecular Energy     = -14.41 kcal/molUSER        vdW + Hbond + desolv Energy     = -14.18 kcal/molUSER        Electrostatic Energy            =  -0.23 kcal/molUSER        Moving Ligand-Fixed Receptor    = -14.41 kcal/molUSER        Moving Ligand-Moving Receptor   =  +0.00 kcal/molUSER    (2) Final Total Internal Energy     =  -2.16 kcal/molUSER    (3) Torsional Free Energy           =  +1.79 kcal/molUSER    (4) Unbound System's Energy         =  -2.16 kcal/molUSERUSERREMARK SMILES Cn1ccc2ccc3c4[nH]c5c(CCCN[C@H]6CC[C@H](O)CC6)cccc5c4c4c(c3c21)C(=O)NC4=OREMARK SMILES IDX 15 1 14 2 13 3 12 4 2 5 3 6 32 7 4 8 31 9 5 10 30 11 8 12REMARK SMILES IDX 6 13 29 14 33 15 7 16 9 17 28 18 36 19 35 20 10 21 27 22REMARK SMILES IDX 11 23 26 24 25 25 24 26 1 27 34 28 37 29 16 32 17 34 23 35REMARK SMILES IDX 18 36 22 37 19 38 20 39 21 40REMARK H PARENT 35 30 10 31 16 33 21 41USER                              x       y       z     vdW  Elec       q    TypeUSER                           _______ _______ _______ _____ _____    ______ ____ROOTATOM      1  C   UNL     1      36.143  41.945  19.897 -0.34 -0.00    +0.081 C  ENDROOTBRANCH   1   2ATOM      2  C   UNL     1      36.715  41.438  21.225 -0.58 +0.00    +0.020 C  BRANCH   2   3ATOM      3  C   UNL     1      36.919  42.555  22.255 -0.50 +0.00    +0.039 C  BRANCH   3   4ATOM      4  C   UNL     1      38.262  43.237  22.167 -0.31 -0.00    -0.024 A  ATOM      5  N   UNL     1      39.516  47.925  14.979 -0.23 +0.11    -0.350 N  ATOM      6  C   UNL     1      38.631  48.406  14.042 -0.38 -0.03    +0.086 A  ATOM      7  C   UNL     1      38.833  47.372  16.056 -0.41 -0.02    +0.057 A  ATOM      8  C   UNL     1      37.379  47.977  14.391 -0.51 -0.02    +0.028 A  ATOM      9  C   UNL     1      39.233  46.878  17.354 -0.40 -0.01    +0.022 A  ATOM     10  C   UNL     1      37.503  47.261  15.609 -0.43 -0.00    +0.000 A  ATOM     11  C   UNL     1      40.435  47.102  18.045 -0.39 -0.01    +0.063 A  ATOM     12  C   UNL     1      38.269  46.065  18.028 -0.29 -0.00    +0.009 A  ATOM     13  C   UNL     1      36.566  46.537  16.365 -0.37 -0.01    +0.011 A  ATOM     14  C   UNL     1      40.748  46.452  19.244 -0.32 -0.00    +0.063 A  ATOM     15  C   UNL     1      41.513  48.086  17.845 -0.27 -0.01    +0.259 C  ATOM     16  C   UNL     1      36.965  45.902  17.537 -0.33 -0.00    +0.012 A  ATOM     17  C   UNL     1      38.624  45.410  19.249 -0.32 -0.00    +0.055 A  ATOM     18  C   UNL     1      39.869  45.566  19.872 -0.37 -0.00    +0.022 A  ATOM     19  C   UNL     1      42.056  46.930  19.689 -0.29 +0.03    +0.259 C  ATOM     20  N   UNL     1      42.490  47.798  18.742 -0.39 -0.01    -0.288 N  ATOM     21  N   UNL     1      37.903  44.549  20.047 -0.15 +0.01    -0.354 N  ATOM     22  C   UNL     1      39.872  44.750  21.053 -0.32 +0.00    +0.008 A  ATOM     23  C   UNL     1      38.628  44.123  21.134 -0.29 +0.00    +0.050 A  ATOM     24  C   UNL     1      40.813  44.478  22.067 -0.25 +0.00    +0.011 A  ATOM     25  C   UNL     1      40.485  43.605  23.109 -0.24 +0.00    +0.001 A  ATOM     26  C   UNL     1      39.234  42.999  23.155 -0.27 +0.00    +0.006 A  ATOM     27  C   UNL     1      40.925  47.814  14.667 -0.30 -0.01    +0.149 C  ATOM     28  O   UNL     1      41.504  49.050  17.108 -0.92 -0.01    -0.269 OA ATOM     29  O   UNL     1      42.631  46.668  20.725 -0.29 -0.07    -0.269 OA ATOM     30  H   UNL     1      43.274  48.411  18.902 -0.35 -0.01    +0.173 HD ATOM     31  H   UNL     1      36.963  44.242  19.851 +0.11 -0.01    +0.167 HD ENDBRANCH   3   4ENDBRANCH   2   3ENDBRANCH   1   2BRANCH   1  32ATOM     32  N   UNL     1      35.251  43.077  20.158 -0.26 +0.00    -0.314 NA ATOM     33  H   UNL     1      34.871  43.012  21.101 +0.07 +0.02    +0.122 HD BRANCH  32  34ATOM     34  C   UNL     1      34.156  43.175  19.182 -0.42 -0.01    +0.053 C  ATOM     35  C   UNL     1      33.183  44.335  19.481 -0.50 -0.00    +0.021 C  ATOM     36  C   UNL     1      34.805  43.308  17.789 -0.38 -0.01    +0.021 C  ATOM     37  C   UNL     1      33.545  45.609  18.720 -0.50 -0.02    +0.033 C  ATOM     38  C   UNL     1      33.847  43.949  16.794 -0.35 -0.01    +0.033 C  ATOM     39  C   UNL     1      33.498  45.383  17.204 -0.32 -0.08    +0.114 C  BRANCH  39  40ATOM     40  O   UNL     1      32.189  45.669  16.714 -0.42 +0.21    -0.393 OA ATOM     41  H   UNL     1      32.133  46.629  16.567 -0.38 -0.25    +0.210 HD ENDBRANCH  39  40ENDBRANCH  32  34ENDBRANCH   1  32TORSDOF 6TERENDMDL