MODEL        9USER    Run = 9USERUSER    Estimated Free Energy of Binding    =  -5.92 kcal/mol  [=(1)+(2)+(3)-(4)]USERUSER    (1) Final Intermolecular Energy     = -10.39 kcal/molUSER        vdW + Hbond + desolv Energy     = -10.40 kcal/molUSER        Electrostatic Energy            =  -0.46 kcal/molUSER        Moving Ligand-Fixed Receptor    = -10.86 kcal/molUSER        Moving Ligand-Moving Receptor   =  +0.47 kcal/molUSER    (2) Final Total Internal Energy     =  -3.02 kcal/molUSER    (3) Torsional Free Energy           =  +4.47 kcal/molUSER    (4) Unbound System's Energy         =  -3.02 kcal/molUSERUSERREMARK SMILES COc1ccc(O)c(C(=O)c2ccc(CN[C@@H]3CCCNC[C@H]3NC(=O)c3ccncc3)cc2)c1FREMARK SMILES IDX 16 1 15 3 14 4 11 5 12 6 34 7 13 8 33 9 9 10 10 11 8 12 3 13REMARK SMILES IDX 4 14 35 15 5 16 6 17 36 18 2 19 1 20 7 21 17 23 18 24 23 26REMARK SMILES IDX 22 27 21 28 20 30 19 31 24 33 25 34 26 36 27 37 28 38 32 39REMARK SMILES IDX 29 40 31 41 30 42REMARK H PARENT 16 2 7 22 21 29 24 35REMARK Flexibility Score:   99.900USER                              x       y       z     vdW  Elec       q    TypeUSER                           _______ _______ _______ _____ _____    ______ ____ROOTATOM      1  N   UNL     1      38.014  43.980  20.647 -0.16 +0.00    -0.308 NA ATOM      2  H   UNL     1      38.809  44.453  20.211 +0.07 -0.00    +0.123 HD ENDROOTBRANCH   1   3ATOM      3  C   UNL     1      37.883  44.458  22.026 -0.35 +0.01    +0.117 C  BRANCH   3   4ATOM      4  C   UNL     1      38.940  45.460  22.422 -0.31 -0.00    -0.034 A  ATOM      5  C   UNL     1      40.896  47.334  23.178 -0.17 +0.00    +0.023 A  ATOM      6  C   UNL     1      39.585  47.461  23.650 -0.27 +0.00    +0.012 A  ATOM      7  C   UNL     1      41.221  46.286  22.309 -0.24 +0.00    +0.012 A  ATOM      8  C   UNL     1      38.618  46.524  23.279 -0.26 +0.00    +0.006 A  ATOM      9  C   UNL     1      40.251  45.352  21.939 -0.28 +0.00    +0.006 A  BRANCH   5  10ATOM     10  C   UNL     1      41.948  48.325  23.509 -0.28 +0.04    +0.199 C  ATOM     11  O   UNL     1      41.641  49.515  23.597 -0.59 -0.09    -0.288 OA BRANCH  10  12ATOM     12  C   UNL     1      43.349  47.954  23.804 -0.25 +0.02    +0.104 A  ATOM     13  C   UNL     1      45.471  46.933  23.174 -0.14 +0.07    +0.155 A  ATOM     14  C   UNL     1      45.999  47.266  24.423 -0.08 +0.01    +0.053 A  ATOM     15  C   UNL     1      44.148  47.289  22.873 -0.20 +0.06    +0.179 A  ATOM     16  C   UNL     1      45.219  47.964  25.350 -0.10 +0.01    +0.051 A  ATOM     17  C   UNL     1      43.910  48.318  25.034 -0.18 +0.02    +0.130 A  ATOM     18  F   UNL     1      43.664  46.998  21.654 -0.10 -0.08    -0.202 F  BRANCH  13  19ATOM     19  O   UNL     1      46.144  46.273  22.180 -0.37 -0.70    -0.494 OA ATOM     20  C   UNL     1      46.771  45.045  22.523 -0.03 +0.26    +0.278 C  ENDBRANCH  13  19BRANCH  17  21ATOM     21  O   UNL     1      43.227  49.032  25.983 -0.10 -0.03    -0.507 OA ATOM     22  H   UNL     1      42.680  49.705  25.515 -0.11 +0.03    +0.293 HD ENDBRANCH  17  21ENDBRANCH  10  12ENDBRANCH   5  10ENDBRANCH   3   4ENDBRANCH   1   3BRANCH   1  23ATOM     23  C   UNL     1      36.808  44.225  19.810 -0.39 -0.01    +0.077 C  BRANCH  23  24ATOM     24  C   UNL     1      35.772  43.156  20.182 -0.49 -0.00    +0.022 CG0ATOM     25  G   UNL     1      34.313  43.562  19.978 +0.00 +0.00    +0.000 G0 ENDBRANCH  23  24BRANCH  23  26ATOM     26  C   UNL     1      37.199  44.214  18.299 -0.29 -0.02    +0.113 C  BRANCH  26  27ATOM     27  C   UNL     1      35.952  44.241  17.381 -0.30 -0.04    +0.107 C  BRANCH  27  28ATOM     28  N   UNL     1      34.930  43.214  17.553 -0.12 +0.10    -0.315 NA ATOM     29  H   UNL     1      35.384  42.331  17.798 +0.05 -0.04    +0.122 HD BRANCH  28  30ATOM     30  C   UNL     1      33.872  43.470  18.519 -0.35 -0.02    +0.081 C  BRANCH  30  31ATOM     31  C   UNL     1      34.314  43.557  19.977 -0.39 -0.00    +0.017 CG0ATOM     32  G   UNL     1      35.773  43.153  20.182 +0.00 +0.00    +0.000 G0 ENDBRANCH  30  31ENDBRANCH  28  30ENDBRANCH  27  28ENDBRANCH  26  27BRANCH  26  33ATOM     33  N   UNL     1      38.056  45.378  18.003 -0.16 +0.07    -0.346 N  ATOM     34  C   UNL     1      39.418  45.340  18.209 -0.31 -0.03    +0.251 C  ATOM     35  H   UNL     1      37.623  46.176  17.560 +0.09 -0.06    +0.164 HD ATOM     36  O   UNL     1      39.993  44.394  18.732 -0.29 +0.01    -0.269 OA BRANCH  34  37ATOM     37  C   UNL     1      40.192  46.538  17.790 -0.46 -0.01    +0.042 A  ATOM     38  C   UNL     1      41.325  46.878  18.530 -0.49 -0.00    +0.034 A  ATOM     39  C   UNL     1      39.841  47.300  16.675 -0.47 -0.01    +0.034 A  ATOM     40  C   UNL     1      42.047  47.990  18.141 -0.30 -0.00    +0.112 A  ATOM     41  C   UNL     1      40.631  48.393  16.367 -0.47 -0.02    +0.112 A  ATOM     42  N   UNL     1      41.717  48.759  17.080 -0.75 -0.03    -0.265 NA ENDBRANCH  34  37ENDBRANCH  26  33ENDBRANCH  23  26ENDBRANCH   1  23TORSDOF 9TERENDMDL