
     RDKit          2D

 37 43  0  0  1  0  0  0  0  0999 V2000
    0.3167    3.8958    0.0000 C   0  0  0  0  0  0  0  0  0  0  0  0
    0.4042    2.4708    0.0000 C   0  0  0  0  0  0  0  0  0  0  0  0
    1.1417    3.9333    0.0000 C   0  0  0  0  0  0  0  0  0  0  0  0
   -0.0458    3.1583    0.0000 C   0  0  0  0  0  0  0  0  0  0  0  0
    0.0167    4.6542    0.0000 C   0  0  0  0  0  0  0  0  0  0  0  0
    1.3542    4.7292    0.0000 C   0  0  0  0  0  0  0  0  0  0  0  0
    0.6542    5.1792    0.0000 N   0  0  0  0  0  0  0  0  0  0  0  0
   -0.1083    1.8250    0.0000 N   0  0  0  0  0  0  0  0  0  0  0  0
    1.6000    3.2583    0.0000 C   0  0  0  0  0  0  0  0  0  0  0  0
    1.2292    2.5208    0.0000 C   0  0  0  0  0  0  0  0  0  0  0  0
   -0.8333    2.9375    0.0000 C   0  0  0  0  0  0  0  0  0  0  0  0
   -0.8750    2.1208    0.0000 C   0  0  0  0  0  0  0  0  0  0  0  0
    2.4167    3.3083    0.0000 C   0  0  0  0  0  0  0  0  0  0  0  0
    2.9292    3.9458    0.0000 N   0  0  0  0  0  0  0  0  0  0  0  0
    3.7000    3.6500    0.0000 C   0  0  0  0  0  0  0  0  0  0  0  0
    3.6542    2.8333    0.0000 C   0  0  0  0  0  0  0  0  0  0  0  0
    1.6792    1.8375    0.0000 C   0  0  0  0  0  0  0  0  0  0  0  0
    2.8667    2.6208    0.0000 C   0  0  0  0  0  0  0  0  0  0  0  0
    2.1167    5.0292    0.0000 O   0  0  0  0  0  0  0  0  0  0  0  0
   -0.7750    4.8542    0.0000 O   0  0  0  0  0  0  0  0  0  0  0  0
   -1.6083    1.7458    0.0000 C   0  0  0  0  0  0  0  0  0  0  0  0
    2.4917    1.8833    0.0000 C   0  0  0  0  0  0  0  0  0  0  0  0
   -1.5208    3.3833    0.0000 C   0  0  0  0  0  0  0  0  0  0  0  0
   -3.1500   -0.6625    0.0000 N   0  0  0  0  0  0  0  0  0  0  0  0
   -3.1833   -1.4792    0.0000 C   0  0  0  0  0  0  0  0  0  0  0  0
   -3.2583   -3.1292    0.0000 C   0  0  0  0  0  0  0  0  0  0  0  0
    2.7167    4.7292    0.0000 C   0  0  0  0  0  0  0  0  0  0  0  0
   -3.9125   -1.8667    0.0000 C   0  0  0  0  0  0  0  0  0  0  0  0
   -2.4833   -1.9292    0.0000 C   0  0  0  0  0  0  0  0  0  0  0  0
   -2.5250   -2.7542    0.0000 C   0  0  0  0  0  0  0  0  0  0  0  0
   -3.9583   -2.6792    0.0000 C   0  0  0  0  0  0  0  0  0  0  0  0
   -3.3000   -3.9542    0.0000 O   0  0  0  0  0  0  0  0  0  0  0  0
   -2.2583    3.0083    0.0000 C   0  0  0  0  0  0  0  0  0  0  0  0
   -2.2958    2.1833    0.0000 C   0  0  0  0  0  0  0  0  0  0  0  0
   -1.6458    0.9208    0.0000 C   0  0  0  0  0  0  0  0  0  0  0  0
   -2.4208   -0.2792    0.0000 C   0  0  0  0  0  0  0  0  0  0  0  0
   -2.3750    0.5458    0.0000 C   0  0  0  0  0  0  0  0  0  0  0  0
  2  4  2  0
  3  1  2  0
  4  1  1  0
  5  1  1  0
  6  3  1  0
  7  5  1  0
  8  2  1  0
  9  3  1  0
 10  2  1  0
 11  4  1  0
 12 11  2  0
 13  9  1  0
 14 13  1  0
 15 14  1  0
 16 18  1  0
 17 10  1  0
 18 13  2  0
 19  6  2  0
 20  5  2  0
 21 12  1  0
 22 17  2  0
 23 11  1  0
 24 36  1  0
 25 24  1  6
 26 30  1  0
 27 14  1  0
 28 25  1  0
 29 25  1  0
 30 29  1  0
 31 28  1  0
 26 32  1  1
 33 23  2  0
 34 33  1  0
 35 21  1  0
 36 37  1  0
 37 35  1  0
  6  7  1  0
 12  8  1  0
  9 10  2  0
 34 21  2  0
 22 18  1  0
 16 15  2  0
 31 26  1  0
M  END
> <chembl_id>
CHEMBL307152

> <chembl_pref_name>
None