MODEL        2USER    Run = 2USERUSER    Estimated Free Energy of Binding    =  -9.23 kcal/mol  [=(1)+(2)+(3)-(4)]USERUSER    (1) Final Intermolecular Energy     = -13.40 kcal/molUSER        vdW + Hbond + desolv Energy     = -13.32 kcal/molUSER        Electrostatic Energy            =  -0.18 kcal/molUSER        Moving Ligand-Fixed Receptor    = -13.50 kcal/molUSER        Moving Ligand-Moving Receptor   =  +0.10 kcal/molUSER    (2) Final Total Internal Energy     =  -1.72 kcal/molUSER    (3) Torsional Free Energy           =  +4.18 kcal/molUSER    (4) Unbound System's Energy         =  -1.72 kcal/molUSERUSERREMARK SMILES O=C(N[C@@H]1CCCNC[C@H]1NC(=O)c1ccncc1)c1ccc(CN2CCC(n3c(O)nc4ccccc43)CC2)cc1REMARK SMILES IDX 20 1 21 2 22 3 23 4 41 5 42 6 2 7 3 8 1 10 4 11 10 12 11 13REMARK SMILES IDX 12 14 13 15 14 17 15 18 19 19 16 20 18 21 17 22 9 23 8 24REMARK SMILES IDX 7 26 5 28 6 29 24 31 25 32 26 33 40 34 27 35 39 36 28 37REMARK SMILES IDX 29 38 30 39 38 40 32 41 37 42 33 43 36 44 34 45 35 46 31 47REMARK H PARENT 3 9 11 16 8 25 31 48REMARK Flexibility Score:  141.900USER                              x       y       z     vdW  Elec       q    TypeUSER                           _______ _______ _______ _____ _____    ______ ____ROOTATOM      1  C   UNL     1      36.920  42.948  21.223 -0.41 +0.00    +0.039 A  ATOM      2  C   UNL     1      36.915  44.120  20.457 -0.38 -0.00    +0.014 A  ATOM      3  C   UNL     1      36.256  44.157  19.226 -0.37 -0.00    +0.006 A  ATOM      4  C   UNL     1      35.608  43.017  18.722 -0.34 +0.01    -0.034 A  ATOM      5  C   UNL     1      35.591  41.854  19.505 -0.17 -0.00    +0.006 A  ATOM      6  C   UNL     1      36.236  41.818  20.747 -0.49 -0.00    +0.014 A  ENDROOTBRANCH   1   7ATOM      7  C   UNL     1      37.647  42.967  22.528 -0.28 +0.02    +0.251 C  ATOM      8  N   UNL     1      37.110  43.755  23.532 -0.16 -0.04    -0.347 N  ATOM      9  H   UNL     1      36.198  44.161  23.405 +0.09 +0.05    +0.164 HD ATOM     10  O   UNL     1      38.641  42.267  22.685 -0.23 -0.03    -0.269 OA BRANCH   8  11ATOM     11  C   UNL     1      37.712  43.808  24.873 -0.28 +0.00    +0.106 C  BRANCH  11  12ATOM     12  C   UNL     1      37.480  45.205  25.522 -0.30 +0.00    +0.118 C  BRANCH  12  13ATOM     13  N   UNL     1      38.693  46.030  25.459 -0.07 -0.01    -0.346 N  ATOM     14  C   UNL     1      38.736  47.251  24.829 -0.24 +0.03    +0.251 C  ATOM     15  O   UNL     1      37.748  47.796  24.350 -0.47 -0.06    -0.269 OA ATOM     16  H   UNL     1      39.500  45.625  25.920 +0.06 +0.00    +0.164 HD BRANCH  14  17ATOM     17  C   UNL     1      40.060  47.929  24.770 -0.27 +0.00    +0.042 A  ATOM     18  C   UNL     1      40.826  47.779  23.614 -0.25 +0.00    +0.034 A  ATOM     19  C   UNL     1      40.564  48.677  25.835 -0.26 +0.00    +0.034 A  ATOM     20  C   UNL     1      42.054  48.413  23.556 -0.31 +0.02    +0.112 A  ATOM     21  C   UNL     1      41.806  49.269  25.680 -0.25 +0.01    +0.112 A  ATOM     22  N   UNL     1      42.557  49.161  24.563 -0.49 -0.07    -0.265 NA ENDBRANCH  14  17ENDBRANCH  12  13BRANCH  12  23ATOM     23  C   UNL     1      36.990  45.170  26.984 -0.35 -0.02    +0.108 C  BRANCH  23  24ATOM     24  N   UNL     1      37.970  44.568  27.905 -0.13 +0.04    -0.315 NA ATOM     25  H   UNL     1      37.882  45.032  28.813 +0.05 -0.02    +0.122 HD BRANCH  24  26ATOM     26  C   UNL     1      37.751  43.137  28.120 -0.31 -0.02    +0.081 CG0ATOM     27  G   UNL     1      38.067  42.257  26.911 +0.00 +0.00    +0.000 G0 ENDBRANCH  24  26ENDBRANCH  23  24ENDBRANCH  12  23ENDBRANCH  11  12BRANCH  11  28ATOM     28  C   UNL     1      37.228  42.593  25.682 -0.40 -0.00    +0.028 C  BRANCH  28  29ATOM     29  C   UNL     1      38.067  42.257  26.911 -0.39 -0.00    +0.017 CG0ATOM     30  G   UNL     1      37.752  43.137  28.120 +0.00 +0.00    +0.000 G0 ENDBRANCH  28  29ENDBRANCH  11  28ENDBRANCH   8  11ENDBRANCH   1   7BRANCH   4  31ATOM     31  C   UNL     1      34.848  43.063  17.409 -0.35 -0.04    +0.120 C  BRANCH  31  32ATOM     32  N   UNL     1      35.242  44.167  16.522 -0.12 +0.13    -0.299 NA ATOM     33  C   UNL     1      34.907  45.487  17.060 -0.34 -0.06    +0.087 C  ATOM     34  C   UNL     1      36.618  44.034  16.028 -0.38 -0.03    +0.087 C  ATOM     35  C   UNL     1      35.577  46.599  16.255 -0.30 -0.04    +0.041 C  ATOM     36  C   UNL     1      37.599  45.070  16.574 -0.38 -0.01    +0.041 C  ATOM     37  C   UNL     1      37.100  46.516  16.410 -0.37 -0.06    +0.095 C  BRANCH  37  38ATOM     38  N   UNL     1      37.802  47.282  15.385 -0.21 +0.16    -0.291 N  ATOM     39  C   UNL     1      37.406  47.492  14.093 -0.28 -0.14    +0.295 A  ATOM     40  C   UNL     1      39.006  47.943  15.544 -0.45 -0.03    +0.072 A  ATOM     41  N   UNL     1      38.254  48.197  13.397 -0.61 +0.04    -0.195 NA ATOM     42  C   UNL     1      39.879  48.121  16.626 -0.41 -0.01    +0.029 A  ATOM     43  C   UNL     1      39.262  48.488  14.282 -0.40 -0.03    +0.092 A  ATOM     44  C   UNL     1      41.045  48.865  16.396 -0.57 -0.00    +0.002 A  ATOM     45  C   UNL     1      40.437  49.227  14.072 -0.17 -0.01    +0.031 A  ATOM     46  C   UNL     1      41.324  49.404  15.140 -0.65 -0.00    +0.002 A  BRANCH  39  47ATOM     47  O   UNL     1      36.280  47.053  13.568 -0.19 +0.28    -0.480 OA ATOM     48  H   UNL     1      35.631  47.668  13.960 +0.24 -0.26    +0.296 HD ENDBRANCH  39  47ENDBRANCH  37  38ENDBRANCH  31  32ENDBRANCH   4  31TORSDOF 8TERENDMDL