MODEL        2USER    Run = 2USERUSER    Estimated Free Energy of Binding    =  -9.07 kcal/mol  [=(1)+(2)+(3)-(4)]USERUSER    (1) Final Intermolecular Energy     = -13.55 kcal/molUSER        vdW + Hbond + desolv Energy     = -14.10 kcal/molUSER        Electrostatic Energy            =  -0.27 kcal/molUSER        Moving Ligand-Fixed Receptor    = -14.37 kcal/molUSER        Moving Ligand-Moving Receptor   =  +0.83 kcal/molUSER    (2) Final Total Internal Energy     =  -2.53 kcal/molUSER    (3) Torsional Free Energy           =  +4.47 kcal/molUSER    (4) Unbound System's Energy         =  -2.53 kcal/molUSERUSERREMARK SMILES O=C(N[C@@H]1CNCCC[C@H]1OC(=O)c1ccc(CN2CCC(n3c(O)nc4ccccc43)CC2)cc1)c1ccncc1REMARK SMILES IDX 12 1 13 2 11 3 10 4 4 5 3 6 2 7 1 8 37 10 38 11 42 12 39 13REMARK SMILES IDX 41 14 40 15 5 16 6 17 7 19 9 21 8 22 14 24 15 25 36 26 16 27REMARK SMILES IDX 35 28 17 29 18 30 19 31 20 32 34 33 21 34 33 35 22 36 23 37REMARK SMILES IDX 24 38 32 39 26 40 31 41 27 42 30 43 28 44 29 45 25 46REMARK H PARENT 3 9 6 18 25 47REMARK Flexibility Score:  177.900USER                              x       y       z     vdW  Elec       q    TypeUSER                           _______ _______ _______ _____ _____    ______ ____ROOTATOM      1  C   UNL     1      35.626  44.867  16.496 -0.15 -0.17    +0.338 C  ATOM      2  O   UNL     1      36.511  44.064  16.734 -0.23 +0.08    -0.246 OA ENDROOTBRANCH   1   3ATOM      3  O   UNL     1      35.774  46.209  16.407 -0.11 +0.38    -0.457 OA BRANCH   3   4ATOM      4  C   UNL     1      36.484  46.715  15.246 -0.30 -0.15    +0.200 C  BRANCH   4   5ATOM      5  C   UNL     1      37.810  45.953  14.999 -0.35 -0.05    +0.137 C  BRANCH   5   6ATOM      6  N   UNL     1      38.594  45.745  16.221 -0.13 +0.09    -0.344 N  ATOM      7  C   UNL     1      39.356  46.729  16.798 -0.33 -0.06    +0.251 C  ATOM      8  O   UNL     1      39.426  47.868  16.353 -0.34 +0.10    -0.269 OA ATOM      9  H   UNL     1      38.522  44.819  16.622 +0.11 -0.04    +0.164 HD BRANCH   7  10ATOM     10  C   UNL     1      40.101  46.365  18.033 -0.44 -0.00    +0.042 A  ATOM     11  C   UNL     1      41.333  46.980  18.259 -0.51 -0.00    +0.034 A  ATOM     12  C   UNL     1      39.625  45.425  18.950 -0.41 -0.00    +0.034 A  ATOM     13  C   UNL     1      42.027  46.650  19.407 -0.40 +0.01    +0.112 A  ATOM     14  C   UNL     1      40.399  45.165  20.068 -0.32 +0.00    +0.112 A  ATOM     15  N   UNL     1      41.583  45.762  20.321 -0.21 -0.04    -0.265 NA ENDBRANCH   7  10ENDBRANCH   5   6BRANCH   5  16ATOM     16  C   UNL     1      38.701  46.626  13.930 -0.37 -0.03    +0.109 C  BRANCH  16  17ATOM     17  N   UNL     1      37.978  47.487  12.979 -0.68 +0.06    -0.315 NA ATOM     18  H   UNL     1      38.679  47.983  12.425 +0.11 +0.03    +0.122 HD BRANCH  17  19ATOM     19  C   UNL     1      37.131  46.727  12.057 -0.63 -0.03    +0.081 CG0ATOM     20  G   UNL     1      35.933  46.088  12.750 +0.00 +0.00    +0.000 G0 ENDBRANCH  17  19ENDBRANCH  16  17ENDBRANCH   5  16ENDBRANCH   4   5BRANCH   4  21ATOM     21  C   UNL     1      35.485  46.679  14.080 -0.46 -0.04    +0.049 C  BRANCH  21  22ATOM     22  C   UNL     1      35.940  46.084  12.744 -0.61 -0.01    +0.019 CG0ATOM     23  G   UNL     1      37.137  46.729  12.054 +0.00 +0.00    +0.000 G0 ENDBRANCH  21  22ENDBRANCH   4  21ENDBRANCH   3   4ENDBRANCH   1   3BRANCH   1  24ATOM     24  C   UNL     1      34.218  44.479  16.217 -0.28 -0.03    +0.060 A  ATOM     25  C   UNL     1      33.328  45.476  15.795 -0.27 -0.01    +0.016 A  ATOM     26  C   UNL     1      33.750  43.172  16.392 -0.35 -0.01    +0.016 A  ATOM     27  C   UNL     1      31.985  45.171  15.556 -0.39 -0.00    +0.006 A  ATOM     28  C   UNL     1      32.406  42.872  16.161 -0.27 -0.00    +0.006 A  ATOM     29  C   UNL     1      31.510  43.863  15.734 -0.33 +0.02    -0.034 A  BRANCH  29  30ATOM     30  C   UNL     1      30.039  43.551  15.534 -0.26 -0.08    +0.120 C  BRANCH  30  31ATOM     31  N   UNL     1      29.407  42.933  16.709 -0.09 +0.09    -0.299 NA ATOM     32  C   UNL     1      29.668  41.495  16.831 -0.30 -0.02    +0.087 C  ATOM     33  C   UNL     1      27.971  43.206  16.796 -0.23 -0.02    +0.087 C  ATOM     34  C   UNL     1      28.878  40.612  15.861 -0.42 -0.01    +0.041 C  ATOM     35  C   UNL     1      27.159  42.509  15.710 -0.26 -0.02    +0.041 C  ATOM     36  C   UNL     1      27.398  40.994  15.678 -0.32 -0.02    +0.095 C  BRANCH  36  37ATOM     37  N   UNL     1      26.426  40.274  16.498 -0.17 -0.03    -0.291 N  ATOM     38  C   UNL     1      25.613  39.231  16.155 -0.08 +0.08    +0.295 A  ATOM     39  C   UNL     1      26.190  40.525  17.841 -0.22 -0.00    +0.072 A  ATOM     40  N   UNL     1      24.874  38.799  17.139 -0.78 +0.01    -0.195 NA ATOM     41  C   UNL     1      26.721  41.444  18.757 -0.21 -0.00    +0.029 A  ATOM     42  C   UNL     1      25.218  39.592  18.202 -0.28 -0.01    +0.092 A  ATOM     43  C   UNL     1      26.229  41.402  20.067 -0.30 -0.00    +0.002 A  ATOM     44  C   UNL     1      24.738  39.565  19.520 -0.30 -0.01    +0.031 A  ATOM     45  C   UNL     1      25.253  40.479  20.445 -0.35 -0.00    +0.002 A  BRANCH  38  46ATOM     46  O   UNL     1      25.544  38.673  14.968 -0.64 -0.13    -0.480 OA ATOM     47  H   UNL     1      24.651  38.284  14.991 -0.24 -0.19    +0.296 HD ENDBRANCH  38  46ENDBRANCH  36  37ENDBRANCH  30  31ENDBRANCH  29  30ENDBRANCH   1  24TORSDOF 9TERENDMDL