REMARK SMILES O=C(N[C@@H]1CCCNC[C@H]1NC(=O)c1ccncc1)c1ccc(CN2CCC(n3c(O)nc4ccccc43)CC2)cc1
REMARK SMILES IDX 20 1 21 2 22 3 23 4 41 5 42 6 2 7 3 8 1 10 4 11 10 12 11 13
REMARK SMILES IDX 12 14 13 15 14 17 15 18 19 19 16 20 18 21 17 22 9 23 8 24
REMARK SMILES IDX 7 26 5 28 6 29 24 31 25 32 26 33 40 34 27 35 39 36 28 37
REMARK SMILES IDX 29 38 30 39 38 40 32 41 37 42 33 43 36 44 34 45 35 46 31 47
REMARK H PARENT 3 9 11 16 8 25 31 48
REMARK Flexibility Score:  141.900
ROOT
ATOM      1  C   UNL     1      -1.138  -0.378   0.796  1.00  0.00     0.039 A 
ATOM      2  C   UNL     1      -0.160  -1.339   1.080  1.00  0.00     0.014 A 
ATOM      3  C   UNL     1       1.098  -0.951   1.547  1.00  0.00     0.006 A 
ATOM      4  C   UNL     1       1.414   0.407   1.718  1.00  0.00    -0.034 A 
ATOM      5  C   UNL     1       0.423   1.365   1.460  1.00  0.00     0.006 A 
ATOM      6  C   UNL     1      -0.845   0.978   1.008  1.00  0.00     0.014 A 
ENDROOT
BRANCH   1   7
ATOM      7  C   UNL     1      -2.462  -0.854   0.294  1.00  0.00     0.251 C 
ATOM      8  N   UNL     1      -3.255   0.074  -0.359  1.00  0.00    -0.347 N 
ATOM      9  H   UNL     1      -2.868   0.972  -0.597  1.00  0.00     0.164 HD
ATOM     10  O   UNL     1      -2.779  -2.031   0.426  1.00  0.00    -0.269 OA
BRANCH   8  11
ATOM     11  C   UNL     1      -4.554  -0.297  -0.941  1.00  0.00     0.106 C 
BRANCH  11  12
ATOM     12  C   UNL     1      -5.509   0.933  -0.977  1.00  0.00     0.118 C 
BRANCH  12  13
ATOM     13  N   UNL     1      -6.859   0.573  -0.528  1.00  0.00    -0.346 N 
ATOM     14  C   UNL     1      -7.212   0.499   0.798  1.00  0.00     0.251 C 
ATOM     15  O   UNL     1      -6.460   0.817   1.713  1.00  0.00    -0.269 OA
ATOM     16  H   UNL     1      -7.514   0.383  -1.278  1.00  0.00     0.164 HD
BRANCH  14  17
ATOM     17  C   UNL     1      -8.593   0.033   1.100  1.00  0.00     0.042 A 
ATOM     18  C   UNL     1      -9.161   0.401   2.320  1.00  0.00     0.034 A 
ATOM     19  C   UNL     1      -9.317  -0.775   0.222  1.00  0.00     0.034 A 
ATOM     20  C   UNL     1     -10.446  -0.028   2.599  1.00  0.00     0.112 A 
ATOM     21  C   UNL     1     -10.595  -1.155   0.596  1.00  0.00     0.112 A 
ATOM     22  N   UNL     1     -11.178  -0.792   1.759  1.00  0.00    -0.265 NA
ENDBRANCH  14  17
ENDBRANCH  12  13
BRANCH  12  23
ATOM     23  C   UNL     1      -5.620   1.629  -2.349  1.00  0.00     0.108 C 
BRANCH  23  24
ATOM     24  N   UNL     1      -6.588   0.977  -3.249  1.00  0.00    -0.315 NA
ATOM     25  H   UNL     1      -6.893   1.665  -3.943  1.00  0.00     0.122 HD
BRANCH  24  26
ATOM     26  C   UNL     1      -6.020  -0.159  -3.975  1.00  0.00     0.081 CG0
ATOM     27  G   UNL     1      -5.568  -1.319  -3.089  1.00  0.00     0.000 G0
ENDBRANCH  24  26
ENDBRANCH  23  24
ENDBRANCH  12  23
ENDBRANCH  11  12
BRANCH  11  28
ATOM     28  C   UNL     1      -4.310  -1.010  -2.282  1.00  0.00     0.028 C 
BRANCH  28  29
ATOM     29  C   UNL     1      -5.568  -1.319  -3.089  1.00  0.00     0.017 CG0
ATOM     30  G   UNL     1      -6.020  -0.159  -3.975  1.00  0.00     0.000 G0
ENDBRANCH  28  29
ENDBRANCH  11  28
ENDBRANCH   8  11
ENDBRANCH   1   7
BRANCH   4  31
ATOM     31  C   UNL     1       2.761   0.835   2.271  1.00  0.00     0.120 C 
BRANCH  31  32
ATOM     32  N   UNL     1       3.900   0.068   1.747  1.00  0.00    -0.299 NA
ATOM     33  C   UNL     1       4.135   0.287   0.318  1.00  0.00     0.087 C 
ATOM     34  C   UNL     1       5.095   0.179   2.592  1.00  0.00     0.087 C 
ATOM     35  C   UNL     1       5.478  -0.296  -0.118  1.00  0.00     0.041 C 
ATOM     36  C   UNL     1       6.252   0.959   1.970  1.00  0.00     0.041 C 
ATOM     37  C   UNL     1       6.625   0.460   0.563  1.00  0.00     0.095 C 
BRANCH  37  38
ATOM     38  N   UNL     1       7.885  -0.275   0.500  1.00  0.00    -0.291 N 
ATOM     39  C   UNL     1       8.239  -1.373   1.234  1.00  0.00     0.295 A 
ATOM     40  C   UNL     1       8.955   0.012  -0.327  1.00  0.00     0.072 A 
ATOM     41  N   UNL     1       9.445  -1.801   0.981  1.00  0.00    -0.195 NA
ATOM     42  C   UNL     1       9.187   0.984  -1.310  1.00  0.00     0.029 A 
ATOM     43  C   UNL     1       9.912  -0.949   0.011  1.00  0.00     0.092 A 
ATOM     44  C   UNL     1      10.436   0.969  -1.947  1.00  0.00     0.002 A 
ATOM     45  C   UNL     1      11.158  -0.944  -0.636  1.00  0.00     0.031 A 
ATOM     46  C   UNL     1      11.408   0.026  -1.613  1.00  0.00     0.002 A 
BRANCH  39  47
ATOM     47  O   UNL     1       7.463  -1.978   2.110  1.00  0.00    -0.480 OA
ATOM     48  H   UNL     1       8.032  -2.718   2.394  1.00  0.00     0.296 HD
ENDBRANCH  39  47
ENDBRANCH  37  38
ENDBRANCH  31  32
ENDBRANCH   4  31
TORSDOF 8
