REMARK SMILES O=C(N[C@@H]1CNCCC[C@H]1OC(=O)c1ccc(CN2CCC(n3c(O)nc4ccccc43)CC2)cc1)c1ccncc1
REMARK SMILES IDX 12 1 13 2 11 3 10 4 4 5 3 6 2 7 1 8 37 10 38 11 42 12 39 13
REMARK SMILES IDX 41 14 40 15 5 16 6 17 7 19 9 21 8 22 14 24 15 25 36 26 16 27
REMARK SMILES IDX 35 28 17 29 18 30 19 31 20 32 34 33 21 34 33 35 22 36 23 37
REMARK SMILES IDX 24 38 32 39 26 40 31 41 27 42 30 43 28 44 29 45 25 46
REMARK H PARENT 3 9 6 18 25 47
REMARK Flexibility Score:  177.900
ROOT
ATOM      1  C   UNL     1      -2.520   0.713  -1.145  1.00  0.00     0.338 C 
ATOM      2  O   UNL     1      -3.004   1.128  -2.183  1.00  0.00    -0.246 OA
ENDROOT
BRANCH   1   3
ATOM      3  O   UNL     1      -3.175   0.551   0.028  1.00  0.00    -0.457 OA
BRANCH   3   4
ATOM      4  C   UNL     1      -4.582   0.908   0.048  1.00  0.00     0.200 C 
BRANCH   4   5
ATOM      5  C   UNL     1      -5.454  -0.128  -0.705  1.00  0.00     0.137 C 
BRANCH   5   6
ATOM      6  N   UNL     1      -6.888   0.015  -0.431  1.00  0.00    -0.344 N 
ATOM      7  C   UNL     1      -7.625   1.095  -0.846  1.00  0.00     0.251 C 
ATOM      8  O   UNL     1      -7.151   2.017  -1.499  1.00  0.00    -0.269 OA
ATOM      9  H   UNL     1      -7.304  -0.753   0.079  1.00  0.00     0.164 HD
BRANCH   7  10
ATOM     10  C   UNL     1      -9.069   1.102  -0.487  1.00  0.00     0.042 A 
ATOM     11  C   UNL     1      -9.933   1.870  -1.268  1.00  0.00     0.034 A 
ATOM     12  C   UNL     1      -9.577   0.393   0.603  1.00  0.00     0.034 A 
ATOM     13  C   UNL     1     -11.276   1.876  -0.943  1.00  0.00     0.112 A 
ATOM     14  C   UNL     1     -10.938   0.467   0.844  1.00  0.00     0.112 A 
ATOM     15  N   UNL     1     -11.799   1.185   0.092  1.00  0.00    -0.265 NA
ENDBRANCH   7  10
ENDBRANCH   5   6
BRANCH   5  16
ATOM     16  C   UNL     1      -5.026  -1.588  -0.432  1.00  0.00     0.109 C 
BRANCH  16  17
ATOM     17  N   UNL     1      -5.403  -2.102   0.895  1.00  0.00    -0.315 NA
ATOM     18  H   UNL     1      -5.159  -3.094   0.917  1.00  0.00     0.122 HD
BRANCH  17  19
ATOM     19  C   UNL     1      -4.685  -1.438   1.986  1.00  0.00     0.081 CG0
ATOM     20  G   UNL     1      -5.310  -0.102   2.373  1.00  0.00     0.000 G0
ENDBRANCH  17  19
ENDBRANCH  16  17
ENDBRANCH   5  16
ENDBRANCH   4   5
BRANCH   4  21
ATOM     21  C   UNL     1      -4.953   1.121   1.523  1.00  0.00     0.049 C 
BRANCH  21  22
ATOM     22  C   UNL     1      -5.310  -0.102   2.373  1.00  0.00     0.019 CG0
ATOM     23  G   UNL     1      -4.685  -1.438   1.986  1.00  0.00     0.000 G0
ENDBRANCH  21  22
ENDBRANCH   4  21
ENDBRANCH   3   4
ENDBRANCH   1   3
BRANCH   1  24
ATOM     24  C   UNL     1      -1.106   0.270  -1.017  1.00  0.00     0.060 A 
ATOM     25  C   UNL     1      -0.253   0.455  -2.113  1.00  0.00     0.016 A 
ATOM     26  C   UNL     1      -0.615  -0.348   0.138  1.00  0.00     0.016 A 
ATOM     27  C   UNL     1       1.075   0.022  -2.057  1.00  0.00     0.006 A 
ATOM     28  C   UNL     1       0.710  -0.787   0.188  1.00  0.00     0.006 A 
ATOM     29  C   UNL     1       1.572  -0.602  -0.903  1.00  0.00    -0.034 A 
BRANCH  29  30
ATOM     30  C   UNL     1       2.995  -1.127  -0.870  1.00  0.00     0.120 C 
BRANCH  30  31
ATOM     31  N   UNL     1       3.688  -0.860   0.398  1.00  0.00    -0.299 NA
ATOM     32  C   UNL     1       4.050   0.549   0.587  1.00  0.00     0.087 C 
ATOM     33  C   UNL     1       4.852  -1.724   0.607  1.00  0.00     0.087 C 
ATOM     34  C   UNL     1       5.247   1.024  -0.242  1.00  0.00     0.041 C 
ATOM     35  C   UNL     1       6.003  -1.425  -0.347  1.00  0.00     0.041 C 
ATOM     36  C   UNL     1       6.435   0.046  -0.304  1.00  0.00     0.095 C 
BRANCH  36  37
ATOM     37  N   UNL     1       7.519   0.266   0.651  1.00  0.00    -0.291 N 
ATOM     38  C   UNL     1       7.449   0.611   1.970  1.00  0.00     0.295 A 
ATOM     39  C   UNL     1       8.866   0.112   0.360  1.00  0.00     0.072 A 
ATOM     40  N   UNL     1       8.615   0.705   2.548  1.00  0.00    -0.195 NA
ATOM     41  C   UNL     1       9.566  -0.247  -0.800  1.00  0.00     0.029 A 
ATOM     42  C   UNL     1       9.514   0.397   1.562  1.00  0.00     0.092 A 
ATOM     43  C   UNL     1      10.963  -0.303  -0.716  1.00  0.00     0.002 A 
ATOM     44  C   UNL     1      10.914   0.335   1.626  1.00  0.00     0.031 A 
ATOM     45  C   UNL     1      11.629  -0.016   0.476  1.00  0.00     0.002 A 
BRANCH  38  46
ATOM     46  O   UNL     1       6.345   0.833   2.646  1.00  0.00    -0.480 OA
ATOM     47  H   UNL     1       6.700   1.039   3.530  1.00  0.00     0.296 HD
ENDBRANCH  38  46
ENDBRANCH  36  37
ENDBRANCH  30  31
ENDBRANCH  29  30
ENDBRANCH   1  24
TORSDOF 9
