MODEL        3USER    Run = 3USERUSER    Estimated Free Energy of Binding    =  -9.72 kcal/mol  [=(1)+(2)+(3)-(4)]USERUSER    (1) Final Intermolecular Energy     = -11.81 kcal/molUSER        vdW + Hbond + desolv Energy     = -11.73 kcal/molUSER        Electrostatic Energy            =  -0.07 kcal/molUSER        Moving Ligand-Fixed Receptor    = -11.81 kcal/molUSER        Moving Ligand-Moving Receptor   =  +0.00 kcal/molUSER    (2) Final Total Internal Energy     =  -3.24 kcal/molUSER    (3) Torsional Free Energy           =  +2.09 kcal/molUSER    (4) Unbound System's Energy         =  -3.24 kcal/molUSERUSERREMARK SMILES CCc1cc(Nc2ncc(Cl)c(N[C@H]3CC[C@@H](O)CC3)n2)ccc1-c1nnn[nH]1REMARK SMILES IDX 7 1 8 2 9 3 10 4 11 5 12 6 21 7 6 8 5 10 3 11 4 12 24 13REMARK SMILES IDX 23 14 22 15 2 16 1 17 25 18 26 19 29 20 27 21 28 22 13 24REMARK SMILES IDX 14 26 20 27 15 28 19 29 16 30 17 31 18 32REMARK H PARENT 6 9 29 23 13 25 18 33USER                              x       y       z     vdW  Elec       q    TypeUSER                           _______ _______ _______ _____ _____    ______ ____ROOTATOM      1  C   UNL     1      18.159 -17.027  -7.146 -0.25 +0.03    +0.229 A  ATOM      2  N   UNL     1      17.659 -18.267  -7.069 -0.22 -0.04    -0.220 NA ATOM      3  C   UNL     1      17.043 -18.745  -8.169 -0.21 +0.02    +0.139 A  ATOM      4  C   UNL     1      16.877 -18.029  -9.331 -0.32 +0.01    +0.101 A  ATOM      5  Cl  UNL     1      16.152 -18.787 -10.694 -0.58 -0.00    -0.079 Cl ATOM      6  C   UNL     1      17.384 -16.739  -9.313 -0.26 -0.00    +0.150 A  ATOM      7  N   UNL     1      18.036 -16.250  -8.237 -0.28 -0.01    -0.194 NA ENDROOTBRANCH   1   8ATOM      8  N   UNL     1      18.853 -16.442  -6.089 -0.22 -0.09    -0.324 N  ATOM      9  H   UNL     1      19.318 -17.175  -5.572 +0.09 +0.07    +0.170 HD BRANCH   8  10ATOM     10  C   UNL     1      18.845 -15.169  -5.511 -0.45 +0.01    +0.041 A  ATOM     11  C   UNL     1      17.630 -13.043  -5.174 -0.45 -0.00    -0.035 A  ATOM     12  C   UNL     1      17.732 -14.340  -5.725 -0.32 +0.00    +0.030 A  ATOM     13  C   UNL     1      18.671 -12.568  -4.353 -0.49 +0.00    +0.024 A  ATOM     14  C   UNL     1      19.779 -13.400  -4.124 -0.38 +0.00    +0.014 A  ATOM     15  C   UNL     1      19.859 -14.678  -4.692 -0.56 +0.01    +0.027 A  BRANCH  11  16ATOM     16  C   UNL     1      16.376 -12.246  -5.470 -0.52 -0.01    +0.033 C  ATOM     17  C   UNL     1      16.628 -11.117  -6.459 -0.54 -0.00    +0.009 C  ENDBRANCH  11  16BRANCH  13  18ATOM     18  C   UNL     1      18.643 -11.247  -3.731 -0.41 +0.03    +0.179 A  ATOM     19  N   UNL     1      19.653 -10.455  -3.428 -0.74 -0.02    -0.109 NA ATOM     20  N   UNL     1      17.497 -10.592  -3.364 -0.43 -0.03    -0.239 N  ATOM     21  N   UNL     1      19.110  -9.323  -2.868 -1.27 -0.01    -0.024 NA ATOM     22  N   UNL     1      17.788  -9.399  -2.833 -0.63 -0.01    -0.048 NA ATOM     23  H   UNL     1      16.532 -10.878  -3.462 -0.16 -0.01    +0.194 HD ENDBRANCH  13  18ENDBRANCH   8  10ENDBRANCH   1   8BRANCH   6  24ATOM     24  N   UNL     1      17.307 -15.850 -10.390 -0.03 +0.04    -0.366 N  ATOM     25  H   UNL     1      17.940 -15.072 -10.156 +0.10 -0.02    +0.162 HD BRANCH  24  26ATOM     26  C   UNL     1      15.976 -15.298 -10.696 -0.33 -0.02    +0.081 C  ATOM     27  C   UNL     1      15.162 -15.018  -9.415 -0.38 -0.01    +0.027 C  ATOM     28  C   UNL     1      16.171 -14.013 -11.513 -0.46 -0.01    +0.027 C  ATOM     29  C   UNL     1      15.248 -13.568  -8.918 -0.41 -0.02    +0.034 C  ATOM     30  C   UNL     1      16.870 -12.890 -10.733 -0.28 -0.01    +0.034 C  ATOM     31  C   UNL     1      16.595 -12.925  -9.227 -0.36 -0.03    +0.114 C  BRANCH  31  32ATOM     32  O   UNL     1      17.624 -13.679  -8.583 -0.12 +0.05    -0.393 OA ATOM     33  H   UNL     1      17.191 -14.425  -8.130 +0.13 -0.03    +0.210 HD ENDBRANCH  31  32ENDBRANCH  24  26ENDBRANCH   6  24TORSDOF 7TERENDMDL