REMARK SMILES CCc1cc(Nc2ncc(Cl)c(N[C@H]3CC[C@@H](O)CC3)n2)ccc1-c1nnn[nH]1
REMARK SMILES IDX 7 1 8 2 9 3 10 4 11 5 12 6 21 7 6 8 5 10 3 11 4 12 24 13
REMARK SMILES IDX 23 14 22 15 2 16 1 17 25 18 26 19 29 20 27 21 28 22 13 24
REMARK SMILES IDX 14 26 20 27 15 28 19 29 16 30 17 31 18 32
REMARK H PARENT 6 9 29 23 13 25 18 33
ROOT
ATOM      1  C   UNL     1       0.019  -1.132  -0.670  1.00  0.00     0.229 A 
ATOM      2  N   UNL     1      -0.438  -1.856  -1.700  1.00  0.00    -0.220 NA
ATOM      3  C   UNL     1       0.458  -2.627  -2.349  1.00  0.00     0.139 A 
ATOM      4  C   UNL     1       1.795  -2.685  -2.034  1.00  0.00     0.101 A 
ATOM      5  Cl  UNL     1       2.816  -3.778  -2.881  1.00  0.00    -0.079 Cl
ATOM      6  C   UNL     1       2.195  -1.872  -0.984  1.00  0.00     0.150 A 
ATOM      7  N   UNL     1       1.311  -1.118  -0.297  1.00  0.00    -0.194 NA
ENDROOT
BRANCH   1   8
ATOM      8  N   UNL     1      -0.819  -0.331   0.101  1.00  0.00    -0.324 N 
ATOM      9  H   UNL     1      -0.281   0.039   0.872  1.00  0.00     0.170 HD
BRANCH   8  10
ATOM     10  C   UNL     1      -2.203  -0.139   0.148  1.00  0.00     0.041 A 
ATOM     11  C   UNL     1      -4.114   0.975   1.252  1.00  0.00    -0.035 A 
ATOM     12  C   UNL     1      -2.731   0.712   1.133  1.00  0.00     0.030 A 
ATOM     13  C   UNL     1      -5.002   0.385   0.332  1.00  0.00     0.024 A 
ATOM     14  C   UNL     1      -4.476  -0.455  -0.664  1.00  0.00     0.014 A 
ATOM     15  C   UNL     1      -3.101  -0.707  -0.753  1.00  0.00     0.027 A 
BRANCH  11  16
ATOM     16  C   UNL     1      -4.562   1.917   2.351  1.00  0.00     0.033 C 
ATOM     17  C   UNL     1      -4.829   3.324   1.835  1.00  0.00     0.009 C 
ENDBRANCH  11  16
BRANCH  13  18
ATOM     18  C   UNL     1      -6.443   0.612   0.372  1.00  0.00     0.179 A 
ATOM     19  N   UNL     1      -7.252   0.609   1.414  1.00  0.00    -0.109 NA
ATOM     20  N   UNL     1      -7.210   0.894  -0.728  1.00  0.00    -0.239 N 
ATOM     21  N   UNL     1      -8.511   0.881   0.935  1.00  0.00    -0.024 NA
ATOM     22  N   UNL     1      -8.490   1.063  -0.377  1.00  0.00    -0.048 NA
ATOM     23  H   UNL     1      -6.935   1.000  -1.695  1.00  0.00     0.194 HD
ENDBRANCH  13  18
ENDBRANCH   8  10
ENDBRANCH   1   8
BRANCH   6  24
ATOM     24  N   UNL     1       3.511  -1.782  -0.519  1.00  0.00    -0.366 N 
ATOM     25  H   UNL     1       3.466  -1.212   0.338  1.00  0.00     0.162 HD
BRANCH  24  26
ATOM     26  C   UNL     1       4.494  -1.177  -1.434  1.00  0.00     0.081 C 
ATOM     27  C   UNL     1       4.338   0.357  -1.512  1.00  0.00     0.027 C 
ATOM     28  C   UNL     1       5.897  -1.561  -0.945  1.00  0.00     0.027 C 
ATOM     29  C   UNL     1       5.275   1.134  -0.576  1.00  0.00     0.034 C 
ATOM     30  C   UNL     1       6.253  -0.969   0.427  1.00  0.00     0.034 C 
ATOM     31  C   UNL     1       5.574   0.374   0.711  1.00  0.00     0.114 C 
BRANCH  31  32
ATOM     32  O   UNL     1       4.347   0.139   1.403  1.00  0.00    -0.393 OA
ATOM     33  H   UNL     1       4.015   1.006   1.700  1.00  0.00     0.210 HD
ENDBRANCH  31  32
ENDBRANCH  24  26
ENDBRANCH   6  24
TORSDOF 7
