REMARK SMILES Cc1cc(Nc2ncc(F)c(N[C@H]3CC[C@@H](O)CC3)n2)ccc1-c1nnn[nH]1
REMARK SMILES IDX 6 1 7 2 8 3 9 4 10 5 11 6 20 7 5 8 4 10 2 11 3 12 23 13
REMARK SMILES IDX 22 14 21 15 1 16 24 17 25 18 28 19 26 20 27 21 12 23 13 25
REMARK SMILES IDX 19 26 14 27 18 28 15 29 16 30 17 31
REMARK H PARENT 5 9 28 22 12 24 17 32
ROOT
ATOM      1  C   UNL     1       0.103   1.544  -2.417  1.00  0.00     0.229 A 
ATOM      2  N   UNL     1      -0.512   2.341  -3.308  1.00  0.00    -0.218 NA
ATOM      3  C   UNL     1      -1.571   3.045  -2.864  1.00  0.00     0.158 A 
ATOM      4  C   UNL     1      -2.043   2.972  -1.579  1.00  0.00     0.183 A 
ATOM      5  F   UNL     1      -3.093   3.712  -1.202  1.00  0.00    -0.201 F 
ATOM      6  C   UNL     1      -1.373   2.115  -0.727  1.00  0.00     0.168 A 
ATOM      7  N   UNL     1      -0.300   1.415  -1.142  1.00  0.00    -0.192 NA
ENDROOT
BRANCH   1   8
ATOM      8  N   UNL     1       1.194   0.842  -2.921  1.00  0.00    -0.324 N 
ATOM      9  H   UNL     1       1.315   1.085  -3.894  1.00  0.00     0.170 HD
BRANCH   8  10
ATOM     10  C   UNL     1       2.149  -0.010  -2.358  1.00  0.00     0.041 A 
ATOM     11  C   UNL     1       3.165  -1.229  -0.474  1.00  0.00    -0.038 A 
ATOM     12  C   UNL     1       2.195  -0.348  -1.002  1.00  0.00     0.030 A 
ATOM     13  C   UNL     1       4.145  -1.764  -1.331  1.00  0.00     0.024 A 
ATOM     14  C   UNL     1       4.083  -1.456  -2.697  1.00  0.00     0.014 A 
ATOM     15  C   UNL     1       3.103  -0.594  -3.200  1.00  0.00     0.027 A 
ATOM     16  C   UNL     1       3.096  -1.551   0.995  1.00  0.00     0.045 C 
BRANCH  13  17
ATOM     17  C   UNL     1       5.228  -2.630  -0.880  1.00  0.00     0.179 A 
ATOM     18  N   UNL     1       5.683  -3.725  -1.460  1.00  0.00    -0.109 NA
ATOM     19  N   UNL     1       6.025  -2.390   0.206  1.00  0.00    -0.239 N 
ATOM     20  N   UNL     1       6.735  -4.166  -0.691  1.00  0.00    -0.024 NA
ATOM     21  N   UNL     1       6.950  -3.351   0.330  1.00  0.00    -0.048 NA
ATOM     22  H   UNL     1       6.009  -1.621   0.861  1.00  0.00     0.194 HD
ENDBRANCH  13  17
ENDBRANCH   8  10
ENDBRANCH   1   8
BRANCH   6  23
ATOM     23  N   UNL     1      -1.701   1.918   0.611  1.00  0.00    -0.365 N 
ATOM     24  H   UNL     1      -1.069   1.200   0.962  1.00  0.00     0.162 HD
BRANCH  23  25
ATOM     25  C   UNL     1      -3.099   1.697   0.991  1.00  0.00     0.081 C 
ATOM     26  C   UNL     1      -3.609   0.332   0.484  1.00  0.00     0.027 C 
ATOM     27  C   UNL     1      -3.191   1.823   2.526  1.00  0.00     0.027 C 
ATOM     28  C   UNL     1      -3.357  -0.781   1.495  1.00  0.00     0.034 C 
ATOM     29  C   UNL     1      -4.314   0.967   3.103  1.00  0.00     0.034 C 
ATOM     30  C   UNL     1      -4.081  -0.521   2.820  1.00  0.00     0.114 C 
BRANCH  30  31
ATOM     31  O   UNL     1      -3.303  -1.070   3.880  1.00  0.00    -0.393 OA
ATOM     32  H   UNL     1      -3.231  -2.028   3.726  1.00  0.00     0.210 HD
ENDBRANCH  30  31
ENDBRANCH  23  25
ENDBRANCH   6  23
TORSDOF 6
