MODEL        10USER    Run = 10USERUSER    Estimated Free Energy of Binding    =  -9.23 kcal/mol  [=(1)+(2)+(3)-(4)]USERUSER    (1) Final Intermolecular Energy     = -11.62 kcal/molUSER        vdW + Hbond + desolv Energy     = -11.18 kcal/molUSER        Electrostatic Energy            =  -0.44 kcal/molUSER        Moving Ligand-Fixed Receptor    = -11.62 kcal/molUSER        Moving Ligand-Moving Receptor   =  +0.00 kcal/molUSER    (2) Final Total Internal Energy     =  -1.80 kcal/molUSER    (3) Torsional Free Energy           =  +2.39 kcal/molUSER    (4) Unbound System's Energy         =  -1.80 kcal/molUSERUSERREMARK SMILES Cc1cc(Nc2ncc(Cl)c(N[C@H]3CC[C@@H](O)CC3)n2)ccc1C(=O)N(C)OREMARK SMILES IDX 5 1 4 3 2 4 3 5 23 6 22 7 21 8 1 9 24 10 25 11 26 12 27 13REMARK SMILES IDX 28 14 6 16 7 17 20 18 8 19 11 20 9 21 10 22 12 23 13 25REMARK SMILES IDX 19 26 14 27 18 28 15 29 16 30 17 31REMARK H PARENT 5 2 28 15 12 24 17 32USER                              x       y       z     vdW  Elec       q    TypeUSER                           _______ _______ _______ _____ _____    ______ ____ROOTATOM      1  N   UNL     1      15.939 -15.192 -11.157 -0.13 +0.08    -0.324 N  ATOM      2  H   UNL     1      16.675 -15.847 -10.934 +0.11 -0.03    +0.170 HD ENDROOTBRANCH   1   3ATOM      3  C   UNL     1      15.732 -14.140 -10.258 -0.32 -0.01    +0.041 A  ATOM      4  C   UNL     1      16.476 -12.989  -8.209 -0.36 +0.01    -0.036 A  ATOM      5  C   UNL     1      16.591 -14.031  -9.150 -0.34 -0.01    +0.030 A  ATOM      6  C   UNL     1      15.459 -12.039  -8.385 -0.39 -0.02    +0.045 A  ATOM      7  C   UNL     1      14.591 -12.137  -9.478 -0.37 -0.01    +0.016 A  ATOM      8  C   UNL     1      14.738 -13.170 -10.408 -0.32 -0.01    +0.027 A  ATOM      9  C   UNL     1      17.417 -12.948  -7.039 -0.43 -0.00    +0.045 C  BRANCH   6  10ATOM     10  C   UNL     1      15.251 -10.942  -7.407 -0.30 -0.11    +0.277 C  ATOM     11  O   UNL     1      15.097 -11.196  -6.211 -0.39 +0.12    -0.267 OA BRANCH  10  12ATOM     12  N   UNL     1      15.218  -9.630  -7.890 -0.51 +0.08    -0.224 N  ATOM     13  C   UNL     1      16.084  -9.188  -8.968 -0.54 -0.05    +0.183 C  BRANCH  12  14ATOM     14  O   UNL     1      15.316  -8.693  -6.813 -0.60 +0.11    -0.286 OA ATOM     15  H   UNL     1      14.666  -9.052  -6.168 -0.32 -0.18    +0.246 HD ENDBRANCH  12  14ENDBRANCH  10  12ENDBRANCH   6  10ENDBRANCH   1   3BRANCH   1  16ATOM     16  C   UNL     1      15.288 -15.626 -12.308 -0.20 -0.07    +0.229 A  ATOM     17  N   UNL     1      15.657 -16.843 -12.734 -0.20 +0.06    -0.220 NA ATOM     18  N   UNL     1      14.372 -14.874 -12.937 -0.22 +0.07    -0.194 NA ATOM     19  C   UNL     1      15.062 -17.302 -13.855 -0.30 -0.04    +0.139 A  ATOM     20  C   UNL     1      13.776 -15.367 -14.045 -0.19 -0.06    +0.150 A  ATOM     21  C   UNL     1      14.109 -16.607 -14.562 -0.29 -0.02    +0.101 A  ATOM     22  Cl  UNL     1      13.473 -17.283 -16.004 -0.54 -0.00    -0.079 Cl BRANCH  20  23ATOM     23  N   UNL     1      12.843 -14.489 -14.599 -0.07 +0.17    -0.366 N  ATOM     24  H   UNL     1      13.445 -13.836 -15.108 -0.46 -0.15    +0.162 HD BRANCH  23  25ATOM     25  C   UNL     1      11.964 -13.691 -13.723 -0.29 -0.04    +0.081 C  ATOM     26  C   UNL     1      11.573 -14.517 -12.484 -0.29 -0.01    +0.027 C  ATOM     27  C   UNL     1      12.446 -12.280 -13.371 -0.41 -0.01    +0.027 C  ATOM     28  C   UNL     1      11.223 -13.657 -11.269 -0.32 -0.02    +0.034 C  ATOM     29  C   UNL     1      11.392 -11.494 -12.583 -0.50 -0.02    +0.034 C  ATOM     30  C   UNL     1      10.516 -12.371 -11.684 -0.44 -0.04    +0.114 C  BRANCH  30  31ATOM     31  O   UNL     1      10.124 -11.635 -10.532 -0.85 +0.07    -0.393 OA ATOM     32  H   UNL     1      10.589 -12.004  -9.762 -0.42 -0.33    +0.210 HD ENDBRANCH  30  31ENDBRANCH  23  25ENDBRANCH  20  23ENDBRANCH   1  16TORSDOF 8TERENDMDL