REMARK SMILES Cc1cc(Nc2ncc(Cl)c(N[C@H]3CC[C@@H](O)CC3)n2)ccc1C(=O)N(C)O
REMARK SMILES IDX 5 1 4 3 2 4 3 5 23 6 22 7 21 8 1 9 24 10 25 11 26 12 27 13
REMARK SMILES IDX 28 14 6 16 7 17 20 18 8 19 11 20 9 21 10 22 12 23 13 25
REMARK SMILES IDX 19 26 14 27 18 28 15 29 16 30 17 31
REMARK H PARENT 5 2 28 15 12 24 17 32
ROOT
ATOM      1  N   UNL     1       1.284  -1.675   1.657  1.00  0.00    -0.324 N 
ATOM      2  H   UNL     1       1.528  -2.184   2.495  1.00  0.00     0.170 HD
ENDROOT
BRANCH   1   3
ATOM      3  C   UNL     1       2.241  -0.789   1.152  1.00  0.00     0.041 A 
ATOM      4  C   UNL     1       4.556   0.050   1.272  1.00  0.00    -0.036 A 
ATOM      5  C   UNL     1       3.522  -0.787   1.733  1.00  0.00     0.030 A 
ATOM      6  C   UNL     1       4.287   0.918   0.203  1.00  0.00     0.045 A 
ATOM      7  C   UNL     1       3.016   0.935  -0.382  1.00  0.00     0.016 A 
ATOM      8  C   UNL     1       2.012   0.080   0.083  1.00  0.00     0.027 A 
ATOM      9  C   UNL     1       5.894   0.011   1.955  1.00  0.00     0.045 C 
BRANCH   6  10
ATOM     10  C   UNL     1       5.316   1.861  -0.303  1.00  0.00     0.277 C 
ATOM     11  O   UNL     1       5.933   2.586   0.479  1.00  0.00    -0.267 OA
BRANCH  10  12
ATOM     12  N   UNL     1       5.542   1.906  -1.682  1.00  0.00    -0.224 N 
ATOM     13  C   UNL     1       5.633   0.700  -2.485  1.00  0.00     0.183 C 
BRANCH  12  14
ATOM     14  O   UNL     1       6.665   2.740  -1.982  1.00  0.00    -0.286 OA
ATOM     15  H   UNL     1       6.882   3.119  -1.101  1.00  0.00     0.246 HD
ENDBRANCH  12  14
ENDBRANCH  10  12
ENDBRANCH   6  10
ENDBRANCH   1   3
BRANCH   1  16
ATOM     16  C   UNL     1      -0.028  -1.986   1.312  1.00  0.00     0.229 A 
ATOM     17  N   UNL     1      -0.632  -2.856   2.135  1.00  0.00    -0.220 NA
ATOM     18  N   UNL     1      -0.628  -1.456   0.235  1.00  0.00    -0.194 NA
ATOM     19  C   UNL     1      -1.902  -3.198   1.834  1.00  0.00     0.139 A 
ATOM     20  C   UNL     1      -1.907  -1.798  -0.031  1.00  0.00     0.150 A 
ATOM     21  C   UNL     1      -2.599  -2.702   0.757  1.00  0.00     0.101 A 
ATOM     22  Cl  UNL     1      -4.192  -3.263   0.456  1.00  0.00    -0.079 Cl
BRANCH  20  23
ATOM     23  N   UNL     1      -2.412  -1.177  -1.174  1.00  0.00    -0.366 N 
ATOM     24  H   UNL     1      -1.571  -0.753  -1.573  1.00  0.00     0.162 HD
BRANCH  23  25
ATOM     25  C   UNL     1      -3.430  -0.115  -1.052  1.00  0.00     0.081 C 
ATOM     26  C   UNL     1      -4.724  -0.547  -1.765  1.00  0.00     0.027 C 
ATOM     27  C   UNL     1      -3.680   0.434   0.356  1.00  0.00     0.027 C 
ATOM     28  C   UNL     1      -5.977   0.126  -1.205  1.00  0.00     0.034 C 
ATOM     29  C   UNL     1      -4.643   1.627   0.344  1.00  0.00     0.034 C 
ATOM     30  C   UNL     1      -5.691   1.559  -0.771  1.00  0.00     0.114 C 
BRANCH  30  31
ATOM     31  O   UNL     1      -6.891   2.188  -0.338  1.00  0.00    -0.393 OA
ATOM     32  H   UNL     1      -7.269   1.657   0.384  1.00  0.00     0.210 HD
ENDBRANCH  30  31
ENDBRANCH  23  25
ENDBRANCH  20  23
ENDBRANCH   1  16
TORSDOF 8
