MODEL        8USER    Run = 8USERUSER    Estimated Free Energy of Binding    = -10.35 kcal/mol  [=(1)+(2)+(3)-(4)]USERUSER    (1) Final Intermolecular Energy     = -12.14 kcal/molUSER        vdW + Hbond + desolv Energy     = -11.57 kcal/molUSER        Electrostatic Energy            =  -0.57 kcal/molUSER        Moving Ligand-Fixed Receptor    = -12.14 kcal/molUSER        Moving Ligand-Moving Receptor   =  +0.00 kcal/molUSER    (2) Final Total Internal Energy     =  -1.27 kcal/molUSER    (3) Torsional Free Energy           =  +1.79 kcal/molUSER    (4) Unbound System's Energy         =  -1.27 kcal/molUSERUSERREMARK SMILES Cc1cc(Nc2ncc(Cl)c(N[C@H]3CC[C@@H](O)CC3)n2)ccc1-c1nnn[nH]1REMARK SMILES IDX 6 1 7 2 8 3 9 4 10 5 11 6 20 7 5 8 4 10 2 11 3 12 23 13REMARK SMILES IDX 22 14 21 15 1 16 24 17 25 18 28 19 26 20 27 21 12 23 13 25REMARK SMILES IDX 19 26 14 27 18 28 15 29 16 30 17 31REMARK H PARENT 5 9 28 22 12 24 17 32USER                              x       y       z     vdW  Elec       q    TypeUSER                           _______ _______ _______ _____ _____    ______ ____ROOTATOM      1  C   UNL     1      15.762 -14.922 -12.378 -0.27 -0.08    +0.229 A  ATOM      2  N   UNL     1      15.989 -16.235 -12.494 -0.16 +0.06    -0.220 NA ATOM      3  C   UNL     1      15.194 -16.925 -13.336 -0.30 -0.04    +0.139 A  ATOM      4  C   UNL     1      14.167 -16.363 -14.054 -0.27 -0.03    +0.101 A  ATOM      5  Cl  UNL     1      13.266 -17.327 -15.155 -0.45 +0.01    -0.079 Cl ATOM      6  C   UNL     1      13.982 -15.003 -13.858 -0.15 -0.07    +0.150 A  ATOM      7  N   UNL     1      14.783 -14.284 -13.044 -0.28 +0.09    -0.194 NA ENDROOTBRANCH   1   8ATOM      8  N   UNL     1      16.532 -14.108 -11.554 -0.24 +0.08    -0.324 N  ATOM      9  H   UNL     1      17.357 -13.820 -12.060 +0.09 -0.04    +0.170 HD BRANCH   8  10ATOM     10  C   UNL     1      16.376 -13.605 -10.258 -0.35 -0.01    +0.041 A  ATOM     11  C   UNL     1      15.750 -11.859  -8.641 -0.40 +0.01    -0.038 A  ATOM     12  C   UNL     1      15.908 -12.321  -9.966 -0.25 -0.01    +0.030 A  ATOM     13  C   UNL     1      16.076 -12.708  -7.566 -0.39 -0.01    +0.024 A  ATOM     14  C   UNL     1      16.546 -13.999  -7.854 -0.33 -0.00    +0.014 A  ATOM     15  C   UNL     1      16.689 -14.436  -9.176 -0.35 -0.00    +0.027 A  ATOM     16  C   UNL     1      15.249 -10.453  -8.430 -0.60 -0.02    +0.045 C  BRANCH  13  17ATOM     17  C   UNL     1      15.941 -12.283  -6.174 -0.29 -0.06    +0.179 A  ATOM     18  N   UNL     1      16.893 -12.050  -5.290 -0.43 +0.01    -0.109 NA ATOM     19  N   UNL     1      14.749 -12.028  -5.551 -0.27 +0.13    -0.239 N  ATOM     20  N   UNL     1      16.266 -11.667  -4.128 -0.85 +0.00    -0.024 NA ATOM     21  N   UNL     1      14.951 -11.653  -4.282 -0.87 +0.02    -0.048 NA ATOM     22  H   UNL     1      13.808 -12.070  -5.917 -0.20 -0.24    +0.194 HD ENDBRANCH  13  17ENDBRANCH   8  10ENDBRANCH   1   8BRANCH   6  23ATOM     23  N   UNL     1      12.987 -14.243 -14.490 -0.02 +0.20    -0.366 N  ATOM     24  H   UNL     1      13.486 -13.435 -14.862 -0.47 -0.16    +0.162 HD BRANCH  23  25ATOM     25  C   UNL     1      11.896 -13.789 -13.614 -0.28 -0.03    +0.081 C  ATOM     26  C   UNL     1      11.840 -14.617 -12.315 -0.29 -0.01    +0.027 C  ATOM     27  C   UNL     1      12.119 -12.305 -13.302 -0.43 -0.01    +0.027 C  ATOM     28  C   UNL     1      11.252 -13.853 -11.127 -0.21 -0.02    +0.034 C  ATOM     29  C   UNL     1      10.992 -11.719 -12.449 -0.49 -0.02    +0.034 C  ATOM     30  C   UNL     1      10.291 -12.756 -11.568 -0.43 -0.03    +0.114 C  BRANCH  30  31ATOM     31  O   UNL     1       9.754 -12.120 -10.416 -0.92 -0.01    -0.393 OA ATOM     32  H   UNL     1      10.471 -12.027  -9.766 -0.42 -0.29    +0.210 HD ENDBRANCH  30  31ENDBRANCH  23  25ENDBRANCH   6  23TORSDOF 6TERENDMDL