MODEL        1USER    Run = 1USERUSER    Estimated Free Energy of Binding    = -11.07 kcal/mol  [=(1)+(2)+(3)-(4)]USERUSER    (1) Final Intermolecular Energy     = -12.86 kcal/molUSER        vdW + Hbond + desolv Energy     = -12.32 kcal/molUSER        Electrostatic Energy            =  -0.53 kcal/molUSER        Moving Ligand-Fixed Receptor    = -12.86 kcal/molUSER        Moving Ligand-Moving Receptor   =  +0.00 kcal/molUSER    (2) Final Total Internal Energy     =  -1.11 kcal/molUSER    (3) Torsional Free Energy           =  +1.79 kcal/molUSER    (4) Unbound System's Energy         =  -1.11 kcal/molUSERUSERREMARK SMILES Cc1cc(Nc2ncc(F)c(N[C@H]3CC[C@@H](O)CC3)n2)ccc1-c1nnn[nH]1REMARK SMILES IDX 6 1 7 2 8 3 9 4 10 5 11 6 20 7 5 8 4 10 2 11 3 12 23 13REMARK SMILES IDX 22 14 21 15 1 16 24 17 25 18 28 19 26 20 27 21 12 23 13 25REMARK SMILES IDX 19 26 14 27 18 28 15 29 16 30 17 31REMARK H PARENT 5 9 28 22 12 24 17 32USER                              x       y       z     vdW  Elec       q    TypeUSER                           _______ _______ _______ _____ _____    ______ ____ROOTATOM      1  C   UNL     1      15.062 -14.307 -10.457 -0.17 -0.08    +0.229 A  ATOM      2  N   UNL     1      14.360 -15.168  -9.700 -0.23 +0.09    -0.218 NA ATOM      3  C   UNL     1      13.211 -15.639 -10.221 -0.32 -0.07    +0.158 A  ATOM      4  C   UNL     1      12.734 -15.274 -11.454 -0.18 -0.06    +0.183 A  ATOM      5  F   UNL     1      11.590 -15.794 -11.916 -0.04 +0.02    -0.201 F  ATOM      6  C   UNL     1      13.499 -14.369 -12.164 -0.18 -0.06    +0.168 A  ATOM      7  N   UNL     1      14.661 -13.898 -11.672 -0.22 +0.07    -0.192 NA ENDROOTBRANCH   1   8ATOM      8  N   UNL     1      16.243 -13.853  -9.879 -0.14 +0.08    -0.324 N  ATOM      9  H   UNL     1      16.955 -13.800 -10.593 +0.11 -0.04    +0.170 HD BRANCH   8  10ATOM     10  C   UNL     1      16.592 -13.398  -8.603 -0.35 -0.01    +0.041 A  ATOM     11  C   UNL     1      17.769 -13.595  -6.448 -0.40 +0.00    -0.038 A  ATOM     12  C   UNL     1      17.424 -14.097  -7.723 -0.36 -0.00    +0.030 A  ATOM     13  C   UNL     1      17.233 -12.363  -6.027 -0.44 -0.00    +0.024 A  ATOM     14  C   UNL     1      16.425 -11.643  -6.918 -0.45 -0.00    +0.014 A  ATOM     15  C   UNL     1      16.111 -12.153  -8.183 -0.40 -0.01    +0.027 A  ATOM     16  C   UNL     1      18.704 -14.415  -5.600 -0.52 +0.01    +0.045 C  BRANCH  13  17ATOM     17  C   UNL     1      17.471 -11.785  -4.710 -0.37 +0.01    +0.179 A  ATOM     18  N   UNL     1      18.630 -11.597  -4.107 -0.66 -0.02    -0.109 NA ATOM     19  N   UNL     1      16.506 -11.252  -3.900 -0.34 +0.01    -0.239 N  ATOM     20  N   UNL     1      18.352 -10.983  -2.908 -1.02 -0.01    -0.024 NA ATOM     21  N   UNL     1      17.052 -10.768  -2.777 -0.95 -0.01    -0.048 NA ATOM     22  H   UNL     1      15.510 -11.170  -4.050 -0.35 -0.08    +0.194 HD ENDBRANCH  13  17ENDBRANCH   8  10ENDBRANCH   1   8BRANCH   6  23ATOM     23  N   UNL     1      13.180 -13.892 -13.432 -0.11 +0.17    -0.365 N  ATOM     24  H   UNL     1      14.064 -13.735 -13.914 -0.49 -0.12    +0.162 HD BRANCH  23  25ATOM     25  C   UNL     1      12.236 -12.779 -13.573 -0.38 -0.04    +0.081 C  ATOM     26  C   UNL     1      10.829 -13.282 -13.957 -0.30 -0.01    +0.027 C  ATOM     27  C   UNL     1      12.236 -11.996 -12.244 -0.37 -0.01    +0.027 C  ATOM     28  C   UNL     1       9.982 -13.594 -12.728 -0.36 -0.00    +0.034 C  ATOM     29  C   UNL     1      10.894 -11.322 -11.978 -0.57 -0.01    +0.034 C  ATOM     30  C   UNL     1       9.768 -12.355 -11.854 -0.38 -0.01    +0.114 C  BRANCH  30  31ATOM     31  O   UNL     1       9.676 -12.767 -10.493 -0.96 -0.02    -0.393 OA ATOM     32  H   UNL     1      10.579 -12.798 -10.134 -0.43 -0.29    +0.210 HD ENDBRANCH  30  31ENDBRANCH  23  25ENDBRANCH   6  23TORSDOF 6TERENDMDL