MODEL        2USER    Run = 2USERUSER    Estimated Free Energy of Binding    =  -8.64 kcal/mol  [=(1)+(2)+(3)-(4)]USERUSER    (1) Final Intermolecular Energy     = -13.12 kcal/molUSER        vdW + Hbond + desolv Energy     = -13.22 kcal/molUSER        Electrostatic Energy            =  -0.24 kcal/molUSER        Moving Ligand-Fixed Receptor    = -13.45 kcal/molUSER        Moving Ligand-Moving Receptor   =  +0.34 kcal/molUSER    (2) Final Total Internal Energy     =  -2.41 kcal/molUSER    (3) Torsional Free Energy           =  +4.47 kcal/molUSER    (4) Unbound System's Energy         =  -2.41 kcal/molUSERUSERREMARK SMILES COc1ccc(O)c(C(=O)c2ccc(-c3nc([C@H]4CCCNC[C@H]4NC(=O)c4cnc(OC)c(F)c4)no3)cc2)c1FREMARK SMILES IDX 15 1 16 2 17 3 37 4 38 5 14 6 11 7 12 8 40 9 13 10 39 11REMARK SMILES IDX 9 12 10 13 8 14 3 15 4 16 41 17 5 18 6 19 42 20 2 21 1 22REMARK SMILES IDX 7 23 18 25 19 26 24 28 23 29 22 30 21 32 20 33 25 35 26 36REMARK SMILES IDX 27 38 28 39 29 40 36 41 30 42 34 43 31 44 35 45 32 46 33 47REMARK H PARENT 7 24 22 31 25 37REMARK Flexibility Score:   88.900USER                              x       y       z     vdW  Elec       q    TypeUSER                           _______ _______ _______ _____ _____    ______ ____ROOTATOM      1  C   UNL     1      38.063  43.741  22.066 -0.19 +0.01    +0.257 A  ATOM      2  N   UNL     1      38.204  43.864  23.369 -0.19 -0.01    -0.191 NA ATOM      3  C   UNL     1      37.248  43.009  23.853 -0.26 +0.01    +0.177 A  ATOM      4  N   UNL     1      36.605  42.302  22.909 -0.44 -0.01    -0.062 NA ATOM      5  O   UNL     1      37.115  42.819  21.718 -0.24 -0.02    -0.334 OA ENDROOTBRANCH   1   6ATOM      6  C   UNL     1      38.799  44.369  20.977 -0.32 +0.00    +0.040 A  ATOM      7  C   UNL     1      40.190  45.677  18.903 -0.44 -0.00    +0.023 A  ATOM      8  C   UNL     1      40.888  44.913  19.843 -0.39 +0.00    +0.013 A  ATOM      9  C   UNL     1      38.794  45.747  18.969 -0.33 -0.00    +0.013 A  ATOM     10  C   UNL     1      40.196  44.276  20.881 -0.29 +0.00    +0.014 A  ATOM     11  C   UNL     1      38.105  45.097  19.999 -0.21 -0.00    +0.014 A  BRANCH   7  12ATOM     12  C   UNL     1      40.881  46.376  17.790 -0.41 -0.01    +0.199 C  ATOM     13  O   UNL     1      42.092  46.598  17.881 -0.07 +0.03    -0.288 OA BRANCH  12  14ATOM     14  C   UNL     1      40.180  46.873  16.586 -0.41 -0.02    +0.104 A  ATOM     15  C   UNL     1      38.454  46.665  14.877 -0.32 -0.05    +0.155 A  ATOM     16  C   UNL     1      38.858  47.883  14.327 -0.46 -0.02    +0.053 A  ATOM     17  C   UNL     1      39.132  46.163  15.996 -0.28 -0.04    +0.179 A  ATOM     18  C   UNL     1      39.931  48.583  14.886 -0.52 -0.02    +0.051 A  ATOM     19  C   UNL     1      40.593  48.074  16.000 -0.45 -0.02    +0.130 A  ATOM     20  F   UNL     1      38.767  44.969  16.488 -0.01 +0.04    -0.202 F  BRANCH  15  21ATOM     21  O   UNL     1      37.421  45.892  14.415 -0.07 +0.20    -0.494 OA ATOM     22  C   UNL     1      36.280  46.568  13.898 -0.33 -0.16    +0.278 C  ENDBRANCH  15  21BRANCH  19  23ATOM     23  O   UNL     1      41.648  48.808  16.470 -0.72 -0.05    -0.507 OA ATOM     24  H   UNL     1      42.342  48.182  16.777 -0.24 +0.03    +0.293 HD ENDBRANCH  19  23ENDBRANCH  12  14ENDBRANCH   7  12ENDBRANCH   1   6BRANCH   3  25ATOM     25  C   UNL     1      37.040  42.764  25.317 -0.38 -0.00    +0.085 C  BRANCH  25  26ATOM     26  C   UNL     1      37.898  41.618  25.893 -0.30 -0.00    +0.015 CG0ATOM     27  G   UNL     1      37.545  41.102  27.289 +0.00 +0.00    +0.000 G0 ENDBRANCH  25  26BRANCH  25  28ATOM     28  C   UNL     1      37.117  44.033  26.202 -0.31 -0.01    +0.107 C  BRANCH  28  29ATOM     29  C   UNL     1      37.195  43.782  27.730 -0.37 -0.02    +0.106 C  BRANCH  29  30ATOM     30  N   UNL     1      38.406  43.170  28.275 -0.18 +0.04    -0.315 NA ATOM     31  H   UNL     1      38.603  43.609  29.176 -0.00 -0.00    +0.122 HD BRANCH  30  32ATOM     32  C   UNL     1      38.323  41.727  28.442 -0.29 -0.01    +0.081 C  BRANCH  32  33ATOM     33  C   UNL     1      37.544  41.099  27.291 -0.52 -0.00    +0.016 CG0ATOM     34  G   UNL     1      37.895  41.618  25.896 +0.00 +0.00    +0.000 G0 ENDBRANCH  32  33ENDBRANCH  30  32ENDBRANCH  29  30ENDBRANCH  28  29BRANCH  28  35ATOM     35  N   UNL     1      38.245  44.887  25.785 -0.06 +0.00    -0.347 N  ATOM     36  C   UNL     1      38.056  46.172  25.327 -0.21 +0.02    +0.253 C  ATOM     37  H   UNL     1      39.158  44.577  26.092 +0.07 -0.00    +0.164 HD ATOM     38  O   UNL     1      36.948  46.637  25.091 -0.83 -0.07    -0.269 OA BRANCH  36  39ATOM     39  C   UNL     1      39.263  47.009  25.114 -0.22 +0.00    +0.061 A  ATOM     40  C   UNL     1      39.850  46.999  23.850 -0.22 +0.01    +0.129 A  ATOM     41  C   UNL     1      39.831  47.830  26.088 -0.21 +0.00    +0.060 A  ATOM     42  N   UNL     1      40.948  47.723  23.508 -0.18 -0.03    -0.219 NA ATOM     43  C   UNL     1      40.952  48.587  25.760 -0.20 +0.02    +0.185 A  ATOM     44  C   UNL     1      41.479  48.507  24.476 -0.23 +0.04    +0.250 A  ATOM     45  F   UNL     1      41.502  49.378  26.691 -0.09 -0.02    -0.201 F  BRANCH  44  46ATOM     46  O   UNL     1      42.586  49.283  24.201 -0.67 -0.15    -0.479 OA ATOM     47  C   UNL     1      43.786  48.775  24.776 -0.22 +0.05    +0.280 C  ENDBRANCH  44  46ENDBRANCH  36  39ENDBRANCH  28  35ENDBRANCH  25  28ENDBRANCH   3  25TORSDOF 9TERENDMDL