REMARK SMILES Oc1nc2cc(F)ccc2n1C1CCN(Cc2ccc(-c3nc4cc(F)ccc4nc3-c3ccc(N4CCOCC4)cc3)cc2)CC1
REMARK SMILES IDX 16 1 15 2 12 3 13 4 47 5 14 6 46 7 11 8 2 9 3 10 4 11 10 12
REMARK SMILES IDX 5 13 9 14 6 15 8 16 7 17 1 18 17 20 18 21 45 22 19 23 44 24
REMARK SMILES IDX 20 25 21 26 22 27 31 28 23 29 30 30 24 31 29 32 25 33 28 34
REMARK SMILES IDX 27 35 26 36 32 37 33 38 43 39 34 40 42 41 35 42 36 43 37 44
REMARK SMILES IDX 41 45 38 46 40 47 39 48
REMARK H PARENT 1 19
ROOT
ATOM      1  C   UNL     1       2.469   1.809   0.982  1.00  0.00     0.120 C 
ENDROOT
BRANCH   1   2
ATOM      2  N   UNL     1       2.486   0.501   1.660  1.00  0.00    -0.299 NA
ATOM      3  C   UNL     1       4.755  -1.214   0.947  1.00  0.00     0.095 C 
ATOM      4  C   UNL     1       3.540  -1.085   0.014  1.00  0.00     0.041 C 
ATOM      5  C   UNL     1       4.394  -0.962   2.414  1.00  0.00     0.041 C 
ATOM      6  C   UNL     1       2.284  -0.641   0.762  1.00  0.00     0.087 C 
ATOM      7  C   UNL     1       3.665   0.375   2.529  1.00  0.00     0.087 C 
BRANCH   3   8
ATOM      8  N   UNL     1       5.495  -2.456   0.771  1.00  0.00    -0.291 N 
ATOM      9  C   UNL     1       5.022  -3.719   0.990  1.00  0.00     0.295 A 
ATOM     10  N   UNL     1       5.918  -4.648   0.789  1.00  0.00    -0.195 NA
ATOM     11  C   UNL     1       7.046  -3.962   0.416  1.00  0.00     0.095 A 
ATOM     12  C   UNL     1       6.816  -2.582   0.392  1.00  0.00     0.072 A 
ATOM     13  C   UNL     1       8.310  -4.462   0.077  1.00  0.00     0.070 A 
ATOM     14  C   UNL     1       7.813  -1.659   0.040  1.00  0.00     0.032 A 
ATOM     15  C   UNL     1       9.304  -3.549  -0.272  1.00  0.00     0.125 A 
ATOM     16  C   UNL     1       9.069  -2.177  -0.293  1.00  0.00     0.041 A 
ATOM     17  F   UNL     1      10.520  -4.006  -0.601  1.00  0.00    -0.207 F 
BRANCH   9  18
ATOM     18  O   UNL     1       3.791  -4.004   1.363  1.00  0.00    -0.480 OA
ATOM     19  H   UNL     1       3.826  -4.977   1.413  1.00  0.00     0.296 HD
ENDBRANCH   9  18
ENDBRANCH   3   8
ENDBRANCH   1   2
BRANCH   1  20
ATOM     20  C   UNL     1       1.137   2.182   0.362  1.00  0.00    -0.034 A 
ATOM     21  C   UNL     1       1.086   2.716  -0.929  1.00  0.00     0.006 A 
ATOM     22  C   UNL     1      -0.053   2.079   1.089  1.00  0.00     0.006 A 
ATOM     23  C   UNL     1      -0.132   3.123  -1.482  1.00  0.00     0.011 A 
ATOM     24  C   UNL     1      -1.270   2.488   0.532  1.00  0.00     0.011 A 
ATOM     25  C   UNL     1      -1.339   3.009  -0.770  1.00  0.00     0.002 A 
BRANCH  25  26
ATOM     26  C   UNL     1      -2.604   3.479  -1.375  1.00  0.00     0.097 A 
ATOM     27  N   UNL     1      -2.491   4.682  -2.010  1.00  0.00    -0.244 NA
ATOM     28  C   UNL     1      -3.837   2.811  -1.326  1.00  0.00     0.097 A 
ATOM     29  C   UNL     1      -3.597   5.208  -2.564  1.00  0.00     0.092 A 
ATOM     30  N   UNL     1      -4.961   3.357  -1.872  1.00  0.00    -0.244 NA
ATOM     31  C   UNL     1      -3.515   6.426  -3.223  1.00  0.00     0.069 A 
ATOM     32  C   UNL     1      -4.841   4.542  -2.491  1.00  0.00     0.090 A 
ATOM     33  C   UNL     1      -4.645   6.988  -3.803  1.00  0.00     0.125 A 
ATOM     34  C   UNL     1      -5.960   5.123  -3.079  1.00  0.00     0.033 A 
ATOM     35  C   UNL     1      -5.872   6.347  -3.739  1.00  0.00     0.041 A 
ATOM     36  F   UNL     1      -4.548   8.166  -4.432  1.00  0.00    -0.207 F 
BRANCH  28  37
ATOM     37  C   UNL     1      -4.054   1.478  -0.746  1.00  0.00     0.003 A 
ATOM     38  C   UNL     1      -3.391   0.344  -1.238  1.00  0.00     0.012 A 
ATOM     39  C   UNL     1      -4.963   1.297   0.306  1.00  0.00     0.012 A 
ATOM     40  C   UNL     1      -3.615  -0.924  -0.684  1.00  0.00     0.026 A 
ATOM     41  C   UNL     1      -5.171   0.031   0.865  1.00  0.00     0.026 A 
ATOM     42  C   UNL     1      -4.500  -1.104   0.384  1.00  0.00     0.037 A 
BRANCH  42  43
ATOM     43  N   UNL     1      -4.761  -2.345   0.985  1.00  0.00    -0.367 N 
ATOM     44  C   UNL     1      -4.506  -3.562   0.186  1.00  0.00     0.145 C 
ATOM     45  C   UNL     1      -4.179  -2.454   2.346  1.00  0.00     0.145 C 
ATOM     46  C   UNL     1      -5.033  -4.790   0.944  1.00  0.00     0.181 C 
ATOM     47  C   UNL     1      -4.679  -3.741   3.026  1.00  0.00     0.181 C 
ATOM     48  O   UNL     1      -4.401  -4.909   2.231  1.00  0.00    -0.378 OA
ENDBRANCH  42  43
ENDBRANCH  28  37
ENDBRANCH  25  26
ENDBRANCH   1  20
TORSDOF 7
