MODEL        8USER    Run = 8USERUSER    Estimated Free Energy of Binding    =  -6.46 kcal/mol  [=(1)+(2)+(3)-(4)]USERUSER    (1) Final Intermolecular Energy     = -10.94 kcal/molUSER        vdW + Hbond + desolv Energy     = -11.34 kcal/molUSER        Electrostatic Energy            =  -0.15 kcal/molUSER        Moving Ligand-Fixed Receptor    = -11.48 kcal/molUSER        Moving Ligand-Moving Receptor   =  +0.55 kcal/molUSER    (2) Final Total Internal Energy     =  -3.33 kcal/molUSER    (3) Torsional Free Energy           =  +4.47 kcal/molUSER    (4) Unbound System's Energy         =  -3.33 kcal/molUSERUSERREMARK SMILES COc1ccc(O)c(C(=O)c2ccc(C(=O)N[C@@H]3CCCN(C)C[C@H]3NC(=O)c3cnc(OC)c(F)c3)cc2)c1FREMARK SMILES IDX 15 1 16 2 17 3 14 5 11 6 12 7 39 8 13 9 38 10 9 11 10 12REMARK SMILES IDX 8 13 3 14 4 15 40 16 5 17 6 18 41 19 2 20 1 21 7 22 18 24REMARK SMILES IDX 19 25 25 27 24 28 22 29 23 30 21 31 20 32 26 34 27 35 28 37REMARK SMILES IDX 29 38 30 39 37 40 31 41 35 42 32 43 36 44 33 45 34 46REMARK H PARENT 17 4 7 23 26 36REMARK Flexibility Score:   88.900USER                              x       y       z     vdW  Elec       q    TypeUSER                           _______ _______ _______ _____ _____    ______ ____ROOTATOM      1  C   UNL     1      34.456  44.091  15.794 -0.17 -0.12    +0.251 C  ATOM      2  O   UNL     1      34.495  42.876  15.625 -0.17 +0.12    -0.269 OA ATOM      3  N   UNL     1      33.273  44.794  15.905 -0.10 +0.22    -0.347 N  ATOM      4  H   UNL     1      33.293  45.798  16.020 -0.09 -0.19    +0.164 HD ENDROOTBRANCH   1   5ATOM      5  C   UNL     1      35.716  44.877  15.888 -0.31 -0.02    +0.039 A  ATOM      6  C   UNL     1      38.028  46.453  16.037 -0.38 -0.01    +0.023 A  ATOM      7  C   UNL     1      38.110  45.130  15.586 -0.28 -0.00    +0.013 A  ATOM      8  C   UNL     1      36.794  46.981  16.433 -0.29 -0.01    +0.013 A  ATOM      9  C   UNL     1      36.953  44.347  15.501 -0.34 -0.00    +0.014 A  ATOM     10  C   UNL     1      35.639  46.199  16.347 -0.35 -0.01    +0.014 A  BRANCH   6  11ATOM     11  C   UNL     1      39.232  47.307  16.158 -0.38 -0.06    +0.199 C  ATOM     12  O   UNL     1      39.414  48.199  15.328 -0.33 +0.11    -0.288 OA BRANCH  11  13ATOM     13  C   UNL     1      40.206  47.181  17.265 -0.42 -0.02    +0.104 A  ATOM     14  C   UNL     1      40.954  46.161  19.352 -0.33 +0.00    +0.155 A  ATOM     15  C   UNL     1      42.074  46.996  19.355 -0.45 +0.00    +0.053 A  ATOM     16  C   UNL     1      40.032  46.258  18.299 -0.34 -0.02    +0.179 A  ATOM     17  C   UNL     1      42.273  47.902  18.310 -0.39 -0.00    +0.051 A  ATOM     18  C   UNL     1      41.353  47.982  17.268 -0.37 -0.01    +0.130 A  ATOM     19  F   UNL     1      38.976  45.428  18.291 -0.11 +0.03    -0.202 F  BRANCH  14  20ATOM     20  O   UNL     1      40.658  45.228  20.308 -0.10 -0.03    -0.494 OA ATOM     21  C   UNL     1      40.491  45.689  21.643 -0.18 +0.02    +0.278 C  ENDBRANCH  14  20BRANCH  18  22ATOM     22  O   UNL     1      41.638  48.875  16.270 -0.72 -0.04    -0.507 OA ATOM     23  H   UNL     1      40.859  48.918  15.670 +0.24 -0.05    +0.293 HD ENDBRANCH  18  22ENDBRANCH  11  13ENDBRANCH   6  11ENDBRANCH   1   5BRANCH   3  24ATOM     24  C   UNL     1      31.971  44.117  15.934 -0.33 -0.05    +0.106 C  BRANCH  24  25ATOM     25  C   UNL     1      31.057  44.648  14.821 -0.44 -0.02    +0.028 CG0ATOM     26  G   UNL     1      29.708  45.218  15.247 +0.00 +0.00    +0.000 G0 ENDBRANCH  24  25BRANCH  24  27ATOM     27  C   UNL     1      31.383  44.092  17.386 -0.23 -0.02    +0.118 C  BRANCH  27  28ATOM     28  C   UNL     1      30.149  43.158  17.499 -0.21 -0.02    +0.111 C  BRANCH  28  29ATOM     29  N   UNL     1      28.844  43.734  17.125 -0.06 +0.06    -0.304 NA ATOM     30  C   UNL     1      27.724  42.944  17.619 -0.21 -0.02    +0.105 C  BRANCH  29  31ATOM     31  C   UNL     1      28.683  44.203  15.756 -0.27 -0.05    +0.084 C  BRANCH  31  32ATOM     32  C   UNL     1      29.708  45.213  15.246 -0.40 -0.01    +0.018 CG0ATOM     33  G   UNL     1      31.057  44.646  14.815 +0.00 +0.00    +0.000 G0 ENDBRANCH  31  32ENDBRANCH  29  31ENDBRANCH  28  29ENDBRANCH  27  28BRANCH  27  34ATOM     34  N   UNL     1      32.456  43.730  18.332 -0.11 +0.06    -0.346 N  ATOM     35  C   UNL     1      33.469  44.612  18.648 -0.28 -0.08    +0.253 C  ATOM     36  H   UNL     1      32.731  42.746  18.290 +0.12 -0.03    +0.164 HD ATOM     37  O   UNL     1      33.468  45.792  18.320 -0.34 +0.15    -0.269 OA BRANCH  35  38ATOM     38  C   UNL     1      34.626  44.059  19.395 -0.36 -0.01    +0.061 A  ATOM     39  C   UNL     1      34.509  42.789  19.957 -0.26 +0.00    +0.129 A  ATOM     40  C   UNL     1      35.839  44.733  19.554 -0.24 -0.01    +0.060 A  ATOM     41  N   UNL     1      35.490  42.169  20.664 -0.33 -0.01    -0.219 NA ATOM     42  C   UNL     1      36.858  44.117  20.270 -0.26 -0.01    +0.185 A  ATOM     43  C   UNL     1      36.651  42.852  20.808 -0.26 +0.00    +0.250 A  ATOM     44  F   UNL     1      38.027  44.755  20.426 -0.10 +0.00    -0.201 F  BRANCH  43  45ATOM     45  O   UNL     1      37.696  42.286  21.511 -0.07 -0.02    -0.479 OA ATOM     46  C   UNL     1      37.408  42.101  22.892 -0.31 +0.02    +0.280 C  ENDBRANCH  43  45ENDBRANCH  35  38ENDBRANCH  27  34ENDBRANCH  24  27ENDBRANCH   3  24TORSDOF 9TERENDMDL