REMARK SMILES COc1ccc(O)c(C(=O)c2ccc(-c3nc([C@H]4CCCNC[C@H]4NC(=O)c4cnc(OC)c(F)c4)no3)cc2)c1F
REMARK SMILES IDX 15 1 16 2 17 3 37 4 38 5 14 6 11 7 12 8 40 9 13 10 39 11
REMARK SMILES IDX 9 12 10 13 8 14 3 15 4 16 41 17 5 18 6 19 42 20 2 21 1 22
REMARK SMILES IDX 7 23 18 25 19 26 24 28 23 29 22 30 21 32 20 33 25 35 26 36
REMARK SMILES IDX 27 38 28 39 29 40 36 41 30 42 34 43 31 44 35 45 32 46 33 47
REMARK H PARENT 7 24 22 31 25 37
REMARK Flexibility Score:   88.900
ROOT
ATOM      1  C   UNL     1      -0.418  -0.377   1.330  1.00  0.00     0.257 A 
ATOM      2  N   UNL     1       0.556  -0.428   2.213  1.00  0.00    -0.191 NA
ATOM      3  C   UNL     1       1.675  -0.426   1.421  1.00  0.00     0.177 A 
ATOM      4  N   UNL     1       1.427  -0.276   0.109  1.00  0.00    -0.062 NA
ATOM      5  O   UNL     1       0.034  -0.288   0.043  1.00  0.00    -0.334 OA
ENDROOT
BRANCH   1   6
ATOM      6  C   UNL     1      -1.861  -0.329   1.524  1.00  0.00     0.040 A 
ATOM      7  C   UNL     1      -4.647  -0.135   1.915  1.00  0.00     0.023 A 
ATOM      8  C   UNL     1      -4.139  -0.588   0.693  1.00  0.00     0.013 A 
ATOM      9  C   UNL     1      -3.765   0.173   2.957  1.00  0.00     0.013 A 
ATOM     10  C   UNL     1      -2.755  -0.670   0.497  1.00  0.00     0.014 A 
ATOM     11  C   UNL     1      -2.383   0.076   2.762  1.00  0.00     0.014 A 
BRANCH   7  12
ATOM     12  C   UNL     1      -6.106  -0.025   2.167  1.00  0.00     0.199 C 
ATOM     13  O   UNL     1      -6.542  -0.288   3.291  1.00  0.00    -0.288 OA
BRANCH  12  14
ATOM     14  C   UNL     1      -7.084   0.336   1.118  1.00  0.00     0.104 A 
ATOM     15  C   UNL     1      -7.700   1.544  -0.909  1.00  0.00     0.155 A 
ATOM     16  C   UNL     1      -8.964   0.954  -0.871  1.00  0.00     0.053 A 
ATOM     17  C   UNL     1      -6.774   1.239   0.099  1.00  0.00     0.179 A 
ATOM     18  C   UNL     1      -9.299   0.078   0.166  1.00  0.00     0.051 A 
ATOM     19  C   UNL     1      -8.368  -0.218   1.158  1.00  0.00     0.130 A 
ATOM     20  F   UNL     1      -5.578   1.848   0.080  1.00  0.00    -0.202 F 
BRANCH  15  21
ATOM     21  O   UNL     1      -7.261   2.416  -1.871  1.00  0.00    -0.494 OA
ATOM     22  C   UNL     1      -8.148   2.700  -2.947  1.00  0.00     0.278 C 
ENDBRANCH  15  21
BRANCH  19  23
ATOM     23  O   UNL     1      -8.782  -1.064   2.150  1.00  0.00    -0.507 OA
ATOM     24  H   UNL     1      -8.127  -1.019   2.883  1.00  0.00     0.293 HD
ENDBRANCH  19  23
ENDBRANCH  12  14
ENDBRANCH   7  12
ENDBRANCH   1   6
BRANCH   3  25
ATOM     25  C   UNL     1       3.067  -0.433   1.976  1.00  0.00     0.085 C 
BRANCH  25  26
ATOM     26  C   UNL     1       3.170  -0.980   3.415  1.00  0.00     0.015 CG0
ATOM     27  G   UNL     1       2.818  -2.451   3.641  1.00  0.00     0.000 G0
ENDBRANCH  25  26
BRANCH  25  28
ATOM     28  C   UNL     1       4.130  -1.072   1.048  1.00  0.00     0.107 C 
BRANCH  28  29
ATOM     29  C   UNL     1       3.797  -2.491   0.522  1.00  0.00     0.106 C 
BRANCH  29  30
ATOM     30  N   UNL     1       3.068  -3.406   1.399  1.00  0.00    -0.315 NA
ATOM     31  H   UNL     1       3.113  -4.340   0.988  1.00  0.00     0.122 HD
BRANCH  30  32
ATOM     32  C   UNL     1       3.568  -3.450   2.765  1.00  0.00     0.081 C 
BRANCH  32  33
ATOM     33  C   UNL     1       2.818  -2.451   3.641  1.00  0.00     0.016 CG0
ATOM     34  G   UNL     1       3.170  -0.980   3.415  1.00  0.00     0.000 G0
ENDBRANCH  32  33
ENDBRANCH  30  32
ENDBRANCH  29  30
ENDBRANCH  28  29
BRANCH  28  35
ATOM     35  N   UNL     1       4.426  -0.181  -0.090  1.00  0.00    -0.347 N 
ATOM     36  C   UNL     1       5.639  -0.207  -0.740  1.00  0.00     0.253 C 
ATOM     37  H   UNL     1       3.619   0.253  -0.519  1.00  0.00     0.164 HD
ATOM     38  O   UNL     1       6.599  -0.850  -0.331  1.00  0.00    -0.269 OA
BRANCH  36  39
ATOM     39  C   UNL     1       5.768   0.590  -1.985  1.00  0.00     0.061 A 
ATOM     40  C   UNL     1       7.051   0.863  -2.457  1.00  0.00     0.129 A 
ATOM     41  C   UNL     1       4.687   1.059  -2.733  1.00  0.00     0.060 A 
ATOM     42  N   UNL     1       7.319   1.569  -3.586  1.00  0.00    -0.219 NA
ATOM     43  C   UNL     1       4.937   1.778  -3.898  1.00  0.00     0.185 A 
ATOM     44  C   UNL     1       6.250   2.014  -4.288  1.00  0.00     0.250 A 
ATOM     45  F   UNL     1       3.903   2.230  -4.621  1.00  0.00    -0.201 F 
BRANCH  44  46
ATOM     46  O   UNL     1       6.442   2.726  -5.454  1.00  0.00    -0.479 OA
ATOM     47  C   UNL     1       7.814   2.986  -5.735  1.00  0.00     0.280 C 
ENDBRANCH  44  46
ENDBRANCH  36  39
ENDBRANCH  28  35
ENDBRANCH  25  28
ENDBRANCH   3  25
TORSDOF 9
