MODEL        4USER    Run = 4USERUSER    Estimated Free Energy of Binding    = -11.15 kcal/mol  [=(1)+(2)+(3)-(4)]USERUSER    (1) Final Intermolecular Energy     = -12.94 kcal/molUSER        vdW + Hbond + desolv Energy     = -12.80 kcal/molUSER        Electrostatic Energy            =  -0.14 kcal/molUSER        Moving Ligand-Fixed Receptor    = -12.94 kcal/molUSER        Moving Ligand-Moving Receptor   =  +0.00 kcal/molUSER    (2) Final Total Internal Energy     =  -1.61 kcal/molUSER    (3) Torsional Free Energy           =  +1.79 kcal/molUSER    (4) Unbound System's Energy         =  -1.61 kcal/molUSERUSERREMARK SMILES Oc1nc2cc(F)ccc2n1C1CCN(Cc2ccc(-c3nc4cc(F)ccc4nc3-c3ccncc3)cc2)CC1REMARK SMILES IDX 12 1 13 2 14 3 15 4 40 5 41 6 11 7 2 8 3 9 4 10 10 11 5 12REMARK SMILES IDX 9 13 6 14 8 15 7 16 1 17 16 19 17 20 18 21 39 22 19 23 38 24REMARK SMILES IDX 20 25 21 26 22 27 31 28 23 29 30 30 24 31 29 32 25 33 28 34REMARK SMILES IDX 27 35 26 36 32 37 33 38 37 39 34 40 36 41 35 42REMARK H PARENT 1 18USER                              x       y       z     vdW  Elec       q    TypeUSER                           _______ _______ _______ _____ _____    ______ ____ROOTATOM      1  C   UNL     1      36.838  44.691  27.249 -0.38 -0.02    +0.095 C  ATOM      2  C   UNL     1      37.639  43.574  27.933 -0.37 -0.01    +0.041 C  ATOM      3  C   UNL     1      38.684  43.032  26.959 -0.25 -0.01    +0.087 C  ATOM      4  N   UNL     1      38.110  42.477  25.723 -0.12 +0.01    -0.299 NA ATOM      5  C   UNL     1      36.714  42.866  25.489 -0.39 -0.00    +0.087 C  ATOM      6  C   UNL     1      36.428  44.331  25.809 -0.36 -0.00    +0.041 C  ENDROOTBRANCH   1   7ATOM      7  N   UNL     1      35.725  45.159  28.065 -0.25 +0.09    -0.291 N  ATOM      8  C   UNL     1      34.676  44.409  28.517 -0.37 -0.07    +0.295 A  ATOM      9  N   UNL     1      33.813  45.093  29.216 -0.63 +0.03    -0.195 NA ATOM     10  C   UNL     1      34.299  46.378  29.199 -0.37 -0.02    +0.095 A  ATOM     11  C   UNL     1      35.495  46.458  28.478 -0.17 -0.02    +0.072 A  ATOM     12  C   UNL     1      33.751  47.540  29.763 -0.34 -0.01    +0.070 A  ATOM     13  C   UNL     1      36.180  47.667  28.284 -0.33 -0.01    +0.032 A  ATOM     14  C   UNL     1      34.423  48.747  29.567 -0.26 -0.01    +0.125 A  ATOM     15  C   UNL     1      35.611  48.818  28.845 -0.29 -0.00    +0.041 A  ATOM     16  F   UNL     1      33.906  49.874  30.078 -0.05 -0.01    -0.207 F  BRANCH   8  17ATOM     17  O   UNL     1      34.494  43.136  28.242 -0.28 +0.13    -0.480 OA ATOM     18  H   UNL     1      35.009  42.711  28.953 -0.28 -0.19    +0.296 HD ENDBRANCH   8  17ENDBRANCH   1   7BRANCH   4  19ATOM     19  C   UNL     1      38.957  42.730  24.545 -0.18 +0.01    +0.120 C  BRANCH  19  20ATOM     20  C   UNL     1      38.175  42.927  23.263 -0.32 -0.00    -0.034 A  ATOM     21  C   UNL     1      37.962  44.209  22.747 -0.34 +0.00    +0.006 A  ATOM     22  C   UNL     1      37.646  41.830  22.572 -0.43 +0.00    +0.006 A  ATOM     23  C   UNL     1      37.258  44.385  21.549 -0.37 +0.00    +0.011 A  ATOM     24  C   UNL     1      36.931  42.010  21.383 -0.50 +0.00    +0.011 A  ATOM     25  C   UNL     1      36.748  43.290  20.830 -0.42 +0.00    +0.002 A  BRANCH  25  26ATOM     26  C   UNL     1      36.029  43.500  19.557 -0.33 -0.01    +0.097 A  ATOM     27  N   UNL     1      34.768  42.977  19.548 -0.28 +0.02    -0.244 NA ATOM     28  C   UNL     1      36.546  44.149  18.422 -0.27 -0.02    +0.097 A  ATOM     29  C   UNL     1      34.052  43.079  18.415 -0.29 -0.02    +0.092 A  ATOM     30  N   UNL     1      35.817  44.243  17.272 -0.14 +0.09    -0.244 NA ATOM     31  C   UNL     1      32.775  42.545  18.363 -0.31 -0.01    +0.069 A  ATOM     32  C   UNL     1      34.583  43.716  17.268 -0.26 -0.03    +0.090 A  ATOM     33  C   UNL     1      32.021  42.635  17.201 -0.23 -0.04    +0.125 A  ATOM     34  C   UNL     1      33.808  43.799  16.115 -0.31 -0.02    +0.033 A  ATOM     35  C   UNL     1      32.523  43.261  16.072 -0.31 -0.02    +0.041 A  ATOM     36  F   UNL     1      30.792  42.105  17.169 -0.04 +0.06    -0.207 F  BRANCH  28  37ATOM     37  C   UNL     1      37.876  44.780  18.324 -0.37 -0.00    +0.005 A  ATOM     38  C   UNL     1      38.033  45.992  17.636 -0.34 -0.01    +0.030 A  ATOM     39  C   UNL     1      39.019  44.219  18.912 -0.27 -0.00    +0.030 A  ATOM     40  C   UNL     1      39.295  46.556  17.532 -0.36 -0.02    +0.111 A  ATOM     41  C   UNL     1      40.243  44.856  18.749 -0.36 -0.00    +0.111 A  ATOM     42  N   UNL     1      40.407  46.006  18.062 -0.27 +0.02    -0.265 NA ENDBRANCH  28  37ENDBRANCH  25  26ENDBRANCH  19  20ENDBRANCH   4  19TORSDOF 6TERENDMDL